MODEL 1
REMARK VINA RESULT:     -10.7      0.000      0.000
REMARK SMILES COc1cc(/C=N/[NH+]=C2\S[C@H](CC(=O)NCCCNC(=O)c3ccc(-c4c5nc(c(-c6cccc(S(=O)(=O)[O-])c6F)c6ccc([nH]6)c(-c6cccc(S(=O)(=O)[O-])c6F)c6nc(c(-c7cccc(S(=O)(=O)[O-])c7F)c7ccc4[nH]7)C=C6)C=C5)cc3)C(=O)N2C)cc(OC)c1OC
REMARK SMILES IDX 16 1 15 2 13 3 14 4 12 6 11 7 8 8 9 9 10 11 87 12 85 13
REMARK SMILES IDX 88 14 86 15 7 16 6 17 5 18 3 19 4 20 93 21 90 22 89 23 2 24
REMARK SMILES IDX 1 25 94 26 95 27 91 28 92 29 17 30 18 31 19 32 20 33 21 35
REMARK SMILES IDX 22 36 23 37 84 38 24 39 83 40 25 41 26 42 27 43 77 44 28 45
REMARK SMILES IDX 82 46 76 47 78 48 29 49 81 50 75 51 74 52 30 54 62 55 42 56
REMARK SMILES IDX 61 57 43 58 46 59 60 60 79 61 44 62 45 63 59 65 80 66 47 67
REMARK SMILES IDX 31 68 32 69 40 70 33 71 35 72 41 73 34 74 36 75 37 76 38 77
REMARK SMILES IDX 39 78 63 79 64 80 72 81 65 82 67 83 73 84 66 85 68 86 69 87
REMARK SMILES IDX 70 88 71 89 48 90 49 91 57 92 50 93 52 94 58 95 51 96 53 97
REMARK SMILES IDX 54 98 55 99 56 100
REMARK H PARENT 15 5 8 10 19 34 78 53 46 64
REMARK Flexibility Score: inf
ROOT
ATOM      1  C   UNL A   1      37.751  21.760  25.070  1.00  0.00     0.117 C 
ENDROOT
BRANCH   1   2
ATOM      2  N   UNL A   1      36.742  21.851  26.114  1.00  0.00    -0.356 N 
ATOM      3  C   UNL A   1      35.437  21.468  26.106  1.00  0.00     0.221 C 
ATOM      4  O   UNL A   1      34.771  21.603  27.131  1.00  0.00    -0.275 OA
ATOM      5  H   UNL A   1      37.052  22.254  26.957  1.00  0.00     0.163 HD
BRANCH   3   6
ATOM      6  C   UNL A   1      34.855  20.811  24.881  1.00  0.00     0.127 C 
BRANCH   6   7
ATOM      7  C   UNL A   1      33.346  20.653  24.970  1.00  0.00     0.183 C 
ATOM      8  N   UNL A   1      32.042  23.124  22.376  1.00  0.00    -0.142 N 
ATOM      9  C   UNL A   1      32.248  22.144  23.199  1.00  0.00     0.339 C 
ATOM     10  H   UNL A   1      31.766  23.004  21.439  1.00  0.00     0.343 HD
ATOM     11  S   UNL A   1      32.615  22.305  24.907  1.00  0.00    -0.020 SA
ATOM     12  N   UNL A   1      32.252  20.825  22.844  1.00  0.00    -0.191 N 
ATOM     13  C   UNL A   1      32.782  19.941  23.760  1.00  0.00     0.324 C 
ATOM     14  C   UNL A   1      31.773  20.324  21.574  1.00  0.00     0.301 C 
ATOM     15  O   UNL A   1      32.860  18.728  23.607  1.00  0.00    -0.245 OA
BRANCH   8  16
ATOM     16  N   UNL A   1      32.258  24.370  22.970  1.00  0.00    -0.093 NA
ATOM     17  C   UNL A   1      31.243  25.159  22.849  1.00  0.00     0.166 C 
BRANCH  17  18
ATOM     18  C   UNL A   1      31.330  26.575  23.256  1.00  0.00     0.004 A 
ATOM     19  C   UNL A   1      30.488  28.845  23.238  1.00  0.00     0.165 A 
ATOM     20  C   UNL A   1      30.459  27.534  22.738  1.00  0.00     0.060 A 
ATOM     21  C   UNL A   1      31.380  29.211  24.268  1.00  0.00     0.203 A 
ATOM     22  C   UNL A   1      32.269  28.231  24.763  1.00  0.00     0.165 A 
ATOM     23  C   UNL A   1      32.236  26.925  24.250  1.00  0.00     0.060 A 
BRANCH  19  24
ATOM     24  O   UNL A   1      29.522  29.715  22.799  1.00  0.00    -0.493 OA
ATOM     25  C   UNL A   1      28.204  29.254  23.103  1.00  0.00     0.278 C 
ENDBRANCH  19  24
BRANCH  21  26
ATOM     26  O   UNL A   1      31.413  30.436  24.879  1.00  0.00    -0.490 OA
ATOM     27  C   UNL A   1      31.427  30.518  26.294  1.00  0.00     0.278 C 
ENDBRANCH  21  26
BRANCH  22  28
ATOM     28  O   UNL A   1      33.221  28.350  25.746  1.00  0.00    -0.493 OA
ATOM     29  C   UNL A   1      33.171  27.487  26.870  1.00  0.00     0.278 C 
ENDBRANCH  22  28
ENDBRANCH  17  18
ENDBRANCH   8  16
ENDBRANCH   6   7
ENDBRANCH   3   6
ENDBRANCH   1   2
BRANCH   1  30
ATOM     30  C   UNL A   1      38.377  20.370  24.994  1.00  0.00     0.042 C 
BRANCH  30  31
ATOM     31  C   UNL A   1      38.942  19.868  26.316  1.00  0.00     0.118 C 
BRANCH  31  32
ATOM     32  N   UNL A   1      40.153  19.084  26.138  1.00  0.00    -0.352 N 
ATOM     33  C   UNL A   1      41.457  19.502  26.055  1.00  0.00     0.251 C 
ATOM     34  H   UNL A   1      40.018  18.112  26.067  1.00  0.00     0.163 HD
ATOM     35  O   UNL A   1      42.325  18.702  25.701  1.00  0.00    -0.269 OA
BRANCH  33  36
ATOM     36  C   UNL A   1      41.822  20.901  26.367  1.00  0.00     0.039 A 
ATOM     37  C   UNL A   1      42.236  21.217  27.665  1.00  0.00     0.014 A 
ATOM     38  C   UNL A   1      41.741  21.906  25.399  1.00  0.00     0.014 A 
ATOM     39  C   UNL A   1      42.617  22.525  27.975  1.00  0.00     0.010 A 
ATOM     40  C   UNL A   1      42.199  23.189  25.687  1.00  0.00     0.010 A 
ATOM     41  C   UNL A   1      42.631  23.516  26.980  1.00  0.00    -0.014 A 
BRANCH  41  42
ATOM     42  C   UNL A   1      43.094  24.898  27.272  1.00  0.00     0.031 A 
ATOM     43  C   UNL A   1      42.164  25.892  27.914  1.00  0.00     0.074 A 
ATOM     44  C   UNL A   1      44.327  25.283  26.882  1.00  0.00     0.049 A 
ATOM     45  N   UNL A   1      42.371  27.153  28.193  1.00  0.00    -0.248 NA
ATOM     46  C   UNL A   1      40.815  25.416  28.264  1.00  0.00     0.031 C 
ATOM     47  C   UNL A   1      45.293  24.437  26.179  1.00  0.00     0.029 A 
ATOM     48  N   UNL A   1      44.965  26.493  26.995  1.00  0.00    -0.354 N 
ATOM     49  C   UNL A   1      41.173  27.630  28.712  1.00  0.00     0.074 A 
ATOM     50  C   UNL A   1      40.233  26.531  28.681  1.00  0.00     0.031 C 
ATOM     51  C   UNL A   1      46.402  25.153  25.927  1.00  0.00     0.029 A 
ATOM     52  C   UNL A   1      46.215  26.512  26.422  1.00  0.00     0.049 A 
ATOM     53  H   UNL A   1      44.566  27.272  27.445  1.00  0.00     0.167 HD
ATOM     54  C   UNL A   1      40.888  28.860  29.200  1.00  0.00     0.034 A 
ATOM     55  C   UNL A   1      47.109  27.514  26.301  1.00  0.00     0.034 A 
ATOM     56  C   UNL A   1      41.839  29.937  29.275  1.00  0.00     0.049 A 
ATOM     57  C   UNL A   1      46.783  28.859  26.892  1.00  0.00     0.074 A 
ATOM     58  C   UNL A   1      41.675  31.190  29.838  1.00  0.00     0.029 A 
ATOM     59  N   UNL A   1      43.127  29.891  28.767  1.00  0.00    -0.354 N 
ATOM     60  N   UNL A   1      45.703  29.241  27.530  1.00  0.00    -0.248 NA
ATOM     61  C   UNL A   1      47.815  29.901  26.782  1.00  0.00     0.031 C 
ATOM     62  C   UNL A   1      42.860  31.911  29.650  1.00  0.00     0.029 A 
ATOM     63  C   UNL A   1      43.769  31.097  28.994  1.00  0.00     0.049 A 
ATOM     64  H   UNL A   1      43.527  29.115  28.311  1.00  0.00     0.167 HD
ATOM     65  C   UNL A   1      45.938  30.553  27.927  1.00  0.00     0.074 A 
ATOM     66  C   UNL A   1      47.272  30.892  27.477  1.00  0.00     0.031 C 
ATOM     67  C   UNL A   1      45.117  31.404  28.590  1.00  0.00     0.034 A 
BRANCH  54  68
ATOM     68  C   UNL A   1      39.503  29.095  29.749  1.00  0.00     0.023 A 
ATOM     69  C   UNL A   1      39.203  28.700  31.069  1.00  0.00     0.012 A 
ATOM     70  C   UNL A   1      38.521  29.756  28.986  1.00  0.00     0.148 A 
ATOM     71  C   UNL A   1      37.938  28.927  31.609  1.00  0.00     0.002 A 
ATOM     72  C   UNL A   1      37.276  30.019  29.547  1.00  0.00     0.091 A 
ATOM     73  F   UNL A   1      38.817  30.105  27.726  1.00  0.00    -0.205 F 
ATOM     74  C   UNL A   1      36.980  29.595  30.852  1.00  0.00     0.022 A 
BRANCH  72  75
ATOM     75  S   UNL A   1      36.000  30.945  28.685  1.00  0.00     0.127 S 
ATOM     76  O   UNL A   1      35.568  29.981  27.675  1.00  0.00    -0.237 OA
ATOM     77  O   UNL A   1      35.026  31.192  29.749  1.00  0.00    -0.237 OA
ATOM     78  O   UNL A   1      36.652  32.141  28.169  1.00  0.00    -0.744 OA
ENDBRANCH  72  75
ENDBRANCH  54  68
BRANCH  55  79
ATOM     79  C   UNL A   1      48.426  27.262  25.652  1.00  0.00     0.023 A 
ATOM     80  C   UNL A   1      49.490  26.757  26.424  1.00  0.00     0.012 A 
ATOM     81  C   UNL A   1      48.622  27.488  24.275  1.00  0.00     0.148 A 
ATOM     82  C   UNL A   1      50.736  26.513  25.845  1.00  0.00     0.002 A 
ATOM     83  C   UNL A   1      49.850  27.189  23.694  1.00  0.00     0.091 A 
ATOM     84  F   UNL A   1      47.601  27.979  23.560  1.00  0.00    -0.205 F 
ATOM     85  C   UNL A   1      50.912  26.718  24.479  1.00  0.00     0.022 A 
BRANCH  83  86
ATOM     86  S   UNL A   1      50.124  27.296  21.921  1.00  0.00     0.127 S 
ATOM     87  O   UNL A   1      49.128  26.356  21.408  1.00  0.00    -0.237 OA
ATOM     88  O   UNL A   1      49.832  28.707  21.655  1.00  0.00    -0.237 OA
ATOM     89  O   UNL A   1      51.514  26.924  21.715  1.00  0.00    -0.744 OA
ENDBRANCH  83  86
ENDBRANCH  55  79
BRANCH  67  90
ATOM     90  C   UNL A   1      45.644  32.779  28.908  1.00  0.00     0.023 A 
ATOM     91  C   UNL A   1      46.464  32.970  30.036  1.00  0.00     0.012 A 
ATOM     92  C   UNL A   1      45.390  33.863  28.044  1.00  0.00     0.148 A 
ATOM     93  C   UNL A   1      46.997  34.227  30.319  1.00  0.00     0.002 A 
ATOM     94  C   UNL A   1      45.965  35.101  28.306  1.00  0.00     0.091 A 
ATOM     95  F   UNL A   1      44.593  33.664  26.985  1.00  0.00    -0.205 F 
ATOM     96  C   UNL A   1      46.759  35.288  29.449  1.00  0.00     0.022 A 
BRANCH  94  97
ATOM     97  S   UNL A   1      45.792  36.497  27.188  1.00  0.00     0.127 S 
ATOM     98  O   UNL A   1      46.534  37.539  27.897  1.00  0.00    -0.237 OA
ATOM     99  O   UNL A   1      46.441  36.005  25.972  1.00  0.00    -0.237 OA
ATOM    100  O   UNL A   1      44.360  36.729  27.056  1.00  0.00    -0.744 OA
ENDBRANCH  94  97
ENDBRANCH  67  90
ENDBRANCH  41  42
ENDBRANCH  33  36
ENDBRANCH  31  32
ENDBRANCH  30  31
ENDBRANCH   1  30
TORSDOF 19
ENDMDL
MODEL 2
REMARK VINA RESULT:     -10.6      2.978      7.952
REMARK SMILES COc1cc(/C=N/[NH+]=C2\S[C@H](CC(=O)NCCCNC(=O)c3ccc(-c4c5nc(c(-c6cccc(S(=O)(=O)[O-])c6F)c6ccc([nH]6)c(-c6cccc(S(=O)(=O)[O-])c6F)c6nc(c(-c7cccc(S(=O)(=O)[O-])c7F)c7ccc4[nH]7)C=C6)C=C5)cc3)C(=O)N2C)cc(OC)c1OC
REMARK SMILES IDX 16 1 15 2 13 3 14 4 12 6 11 7 8 8 9 9 10 11 87 12 85 13
REMARK SMILES IDX 88 14 86 15 7 16 6 17 5 18 3 19 4 20 93 21 90 22 89 23 2 24
REMARK SMILES IDX 1 25 94 26 95 27 91 28 92 29 17 30 18 31 19 32 20 33 21 35
REMARK SMILES IDX 22 36 23 37 84 38 24 39 83 40 25 41 26 42 27 43 77 44 28 45
REMARK SMILES IDX 82 46 76 47 78 48 29 49 81 50 75 51 74 52 30 54 62 55 42 56
REMARK SMILES IDX 61 57 43 58 46 59 60 60 79 61 44 62 45 63 59 65 80 66 47 67
REMARK SMILES IDX 31 68 32 69 40 70 33 71 35 72 41 73 34 74 36 75 37 76 38 77
REMARK SMILES IDX 39 78 63 79 64 80 72 81 65 82 67 83 73 84 66 85 68 86 69 87
REMARK SMILES IDX 70 88 71 89 48 90 49 91 57 92 50 93 52 94 58 95 51 96 53 97
REMARK SMILES IDX 54 98 55 99 56 100
REMARK H PARENT 15 5 8 10 19 34 78 53 46 64
REMARK Flexibility Score: inf
ROOT
ATOM      1  C   UNL A   1      35.484  23.156  24.018  1.00  0.00     0.117 C 
ENDROOT
BRANCH   1   2
ATOM      2  N   UNL A   1      34.869  23.522  25.283  1.00  0.00    -0.356 N 
ATOM      3  C   UNL A   1      34.221  22.750  26.197  1.00  0.00     0.221 C 
ATOM      4  O   UNL A   1      33.812  23.272  27.234  1.00  0.00    -0.275 OA
ATOM      5  H   UNL A   1      34.930  24.477  25.515  1.00  0.00     0.163 HD
BRANCH   3   6
ATOM      6  C   UNL A   1      34.090  21.267  25.969  1.00  0.00     0.127 C 
BRANCH   6   7
ATOM      7  C   UNL A   1      32.662  20.853  25.652  1.00  0.00     0.183 C 
ATOM      8  N   UNL A   1      31.694  23.150  22.767  1.00  0.00    -0.142 N 
ATOM      9  C   UNL A   1      31.838  22.192  23.630  1.00  0.00     0.339 C 
ATOM     10  H   UNL A   1      31.702  23.015  21.793  1.00  0.00     0.343 HD
ATOM     11  S   UNL A   1      31.702  22.359  25.371  1.00  0.00    -0.020 SA
ATOM     12  N   UNL A   1      32.163  20.905  23.308  1.00  0.00    -0.191 N 
ATOM     13  C   UNL A   1      32.573  20.095  24.346  1.00  0.00     0.324 C 
ATOM     14  C   UNL A   1      32.133  20.372  21.964  1.00  0.00     0.301 C 
ATOM     15  O   UNL A   1      32.895  18.918  24.238  1.00  0.00    -0.245 OA
BRANCH   8  16
ATOM     16  N   UNL A   1      31.526  24.394  23.379  1.00  0.00    -0.093 NA
ATOM     17  C   UNL A   1      32.361  25.277  22.943  1.00  0.00     0.166 C 
BRANCH  17  18
ATOM     18  C   UNL A   1      32.464  26.604  23.581  1.00  0.00     0.004 A 
ATOM     19  C   UNL A   1      31.717  28.890  23.859  1.00  0.00     0.165 A 
ATOM     20  C   UNL A   1      31.685  27.679  23.152  1.00  0.00     0.060 A 
ATOM     21  C   UNL A   1      32.520  29.040  25.009  1.00  0.00     0.203 A 
ATOM     22  C   UNL A   1      33.319  27.948  25.414  1.00  0.00     0.165 A 
ATOM     23  C   UNL A   1      33.284  26.743  24.695  1.00  0.00     0.060 A 
BRANCH  19  24
ATOM     24  O   UNL A   1      30.831  29.870  23.484  1.00  0.00    -0.493 OA
ATOM     25  C   UNL A   1      29.811  29.370  22.617  1.00  0.00     0.278 C 
ENDBRANCH  19  24
BRANCH  21  26
ATOM     26  O   UNL A   1      32.542  30.150  25.811  1.00  0.00    -0.490 OA
ATOM     27  C   UNL A   1      31.621  30.262  26.883  1.00  0.00     0.278 C 
ENDBRANCH  21  26
BRANCH  22  28
ATOM     28  O   UNL A   1      34.177  27.858  26.483  1.00  0.00    -0.493 OA
ATOM     29  C   UNL A   1      35.010  28.962  26.799  1.00  0.00     0.278 C 
ENDBRANCH  22  28
ENDBRANCH  17  18
ENDBRANCH   8  16
ENDBRANCH   6   7
ENDBRANCH   3   6
ENDBRANCH   1   2
BRANCH   1  30
ATOM     30  C   UNL A   1      36.919  22.668  24.194  1.00  0.00     0.042 C 
BRANCH  30  31
ATOM     31  C   UNL A   1      37.520  22.979  25.558  1.00  0.00     0.118 C 
BRANCH  31  32
ATOM     32  N   UNL A   1      38.664  22.136  25.864  1.00  0.00    -0.352 N 
ATOM     33  C   UNL A   1      39.910  22.489  26.317  1.00  0.00     0.251 C 
ATOM     34  H   UNL A   1      38.524  21.171  25.726  1.00  0.00     0.163 HD
ATOM     35  O   UNL A   1      40.810  21.646  26.324  1.00  0.00    -0.269 OA
BRANCH  33  36
ATOM     36  C   UNL A   1      40.184  23.867  26.776  1.00  0.00     0.039 A 
ATOM     37  C   UNL A   1      40.289  24.113  28.149  1.00  0.00     0.014 A 
ATOM     38  C   UNL A   1      40.317  24.922  25.869  1.00  0.00     0.014 A 
ATOM     39  C   UNL A   1      40.579  25.402  28.605  1.00  0.00     0.010 A 
ATOM     40  C   UNL A   1      40.688  26.186  26.319  1.00  0.00     0.010 A 
ATOM     41  C   UNL A   1      40.811  26.443  27.692  1.00  0.00    -0.014 A 
BRANCH  41  42
ATOM     42  C   UNL A   1      41.186  27.806  28.152  1.00  0.00     0.031 A 
ATOM     43  C   UNL A   1      42.631  28.226  28.187  1.00  0.00     0.074 A 
ATOM     44  C   UNL A   1      40.231  28.637  28.618  1.00  0.00     0.049 A 
ATOM     45  N   UNL A   1      43.153  29.349  28.609  1.00  0.00    -0.248 NA
ATOM     46  C   UNL A   1      43.623  27.247  27.714  1.00  0.00     0.031 C 
ATOM     47  C   UNL A   1      38.805  28.318  28.711  1.00  0.00     0.029 A 
ATOM     48  N   UNL A   1      40.321  29.908  29.128  1.00  0.00    -0.354 N 
ATOM     49  C   UNL A   1      44.529  29.199  28.489  1.00  0.00     0.074 A 
ATOM     50  C   UNL A   1      44.764  27.864  27.985  1.00  0.00     0.031 C 
ATOM     51  C   UNL A   1      38.154  29.367  29.243  1.00  0.00     0.029 A 
ATOM     52  C   UNL A   1      39.116  30.418  29.555  1.00  0.00     0.049 A 
ATOM     53  H   UNL A   1      41.167  30.409  29.183  1.00  0.00     0.167 HD
ATOM     54  C   UNL A   1      45.508  30.099  28.744  1.00  0.00     0.034 A 
ATOM     55  C   UNL A   1      38.820  31.596  30.139  1.00  0.00     0.034 A 
ATOM     56  C   UNL A   1      45.269  31.442  29.199  1.00  0.00     0.049 A 
ATOM     57  C   UNL A   1      39.922  32.594  30.370  1.00  0.00     0.074 A 
ATOM     58  C   UNL A   1      46.186  32.459  29.396  1.00  0.00     0.029 A 
ATOM     59  N   UNL A   1      44.025  31.954  29.533  1.00  0.00    -0.354 N 
ATOM     60  N   UNL A   1      41.199  32.493  30.093  1.00  0.00    -0.248 NA
ATOM     61  C   UNL A   1      39.536  33.886  30.958  1.00  0.00     0.031 C 
ATOM     62  C   UNL A   1      45.498  33.581  29.872  1.00  0.00     0.029 A 
ATOM     63  C   UNL A   1      44.150  33.270  29.945  1.00  0.00     0.049 A 
ATOM     64  H   UNL A   1      43.177  31.455  29.485  1.00  0.00     0.167 HD
ATOM     65  C   UNL A   1      41.763  33.716  30.439  1.00  0.00     0.074 A 
ATOM     66  C   UNL A   1      40.684  34.550  30.926  1.00  0.00     0.031 C 
ATOM     67  C   UNL A   1      43.059  34.107  30.375  1.00  0.00     0.034 A 
BRANCH  54  68
ATOM     68  C   UNL A   1      46.932  29.680  28.481  1.00  0.00     0.023 A 
ATOM     69  C   UNL A   1      47.506  29.925  27.216  1.00  0.00     0.012 A 
ATOM     70  C   UNL A   1      47.721  29.103  29.496  1.00  0.00     0.148 A 
ATOM     71  C   UNL A   1      48.828  29.570  26.954  1.00  0.00     0.002 A 
ATOM     72  C   UNL A   1      49.052  28.794  29.241  1.00  0.00     0.091 A 
ATOM     73  F   UNL A   1      47.153  28.858  30.686  1.00  0.00    -0.205 F 
ATOM     74  C   UNL A   1      49.603  29.015  27.969  1.00  0.00     0.022 A 
BRANCH  72  75
ATOM     75  S   UNL A   1      50.157  28.151  30.503  1.00  0.00     0.127 S 
ATOM     76  O   UNL A   1      51.334  27.795  29.712  1.00  0.00    -0.237 OA
ATOM     77  O   UNL A   1      50.338  29.313  31.375  1.00  0.00    -0.237 OA
ATOM     78  O   UNL A   1      49.457  27.033  31.119  1.00  0.00    -0.744 OA
ENDBRANCH  72  75
ENDBRANCH  54  68
BRANCH  55  79
ATOM     79  C   UNL A   1      37.407  31.921  30.481  1.00  0.00     0.023 A 
ATOM     80  C   UNL A   1      36.907  31.572  31.751  1.00  0.00     0.012 A 
ATOM     81  C   UNL A   1      36.568  32.599  29.574  1.00  0.00     0.148 A 
ATOM     82  C   UNL A   1      35.587  31.861  32.100  1.00  0.00     0.002 A 
ATOM     83  C   UNL A   1      35.272  32.934  29.951  1.00  0.00     0.091 A 
ATOM     84  F   UNL A   1      37.059  32.913  28.368  1.00  0.00    -0.205 F 
ATOM     85  C   UNL A   1      34.774  32.551  31.205  1.00  0.00     0.022 A 
BRANCH  83  86
ATOM     86  S   UNL A   1      34.200  33.937  28.914  1.00  0.00     0.127 S 
ATOM     87  O   UNL A   1      33.690  32.948  27.966  1.00  0.00    -0.237 OA
ATOM     88  O   UNL A   1      33.216  34.427  29.883  1.00  0.00    -0.237 OA
ATOM     89  O   UNL A   1      35.053  34.972  28.353  1.00  0.00    -0.744 OA
ENDBRANCH  83  86
ENDBRANCH  55  79
BRANCH  67  90
ATOM     90  C   UNL A   1      43.388  35.513  30.806  1.00  0.00     0.023 A 
ATOM     91  C   UNL A   1      43.743  35.770  32.144  1.00  0.00     0.012 A 
ATOM     92  C   UNL A   1      43.420  36.563  29.866  1.00  0.00     0.148 A 
ATOM     93  C   UNL A   1      44.093  37.058  32.548  1.00  0.00     0.002 A 
ATOM     94  C   UNL A   1      43.818  37.833  30.266  1.00  0.00     0.091 A 
ATOM     95  F   UNL A   1      43.061  36.301  28.601  1.00  0.00    -0.205 F 
ATOM     96  C   UNL A   1      44.143  38.085  31.609  1.00  0.00     0.022 A 
BRANCH  94  97
ATOM     97  S   UNL A   1      44.005  39.193  29.107  1.00  0.00     0.127 S 
ATOM     98  O   UNL A   1      44.980  38.647  28.164  1.00  0.00    -0.237 OA
ATOM     99  O   UNL A   1      42.650  39.332  28.570  1.00  0.00    -0.237 OA
ATOM    100  O   UNL A   1      44.462  40.330  29.893  1.00  0.00    -0.744 OA
ENDBRANCH  94  97
ENDBRANCH  67  90
ENDBRANCH  41  42
ENDBRANCH  33  36
ENDBRANCH  31  32
ENDBRANCH  30  31
ENDBRANCH   1  30
TORSDOF 19
ENDMDL
MODEL 3
REMARK VINA RESULT:     -10.0      6.891     11.088
REMARK SMILES COc1cc(/C=N/[NH+]=C2\S[C@H](CC(=O)NCCCNC(=O)c3ccc(-c4c5nc(c(-c6cccc(S(=O)(=O)[O-])c6F)c6ccc([nH]6)c(-c6cccc(S(=O)(=O)[O-])c6F)c6nc(c(-c7cccc(S(=O)(=O)[O-])c7F)c7ccc4[nH]7)C=C6)C=C5)cc3)C(=O)N2C)cc(OC)c1OC
REMARK SMILES IDX 16 1 15 2 13 3 14 4 12 6 11 7 8 8 9 9 10 11 87 12 85 13
REMARK SMILES IDX 88 14 86 15 7 16 6 17 5 18 3 19 4 20 93 21 90 22 89 23 2 24
REMARK SMILES IDX 1 25 94 26 95 27 91 28 92 29 17 30 18 31 19 32 20 33 21 35
REMARK SMILES IDX 22 36 23 37 84 38 24 39 83 40 25 41 26 42 27 43 77 44 28 45
REMARK SMILES IDX 82 46 76 47 78 48 29 49 81 50 75 51 74 52 30 54 62 55 42 56
REMARK SMILES IDX 61 57 43 58 46 59 60 60 79 61 44 62 45 63 59 65 80 66 47 67
REMARK SMILES IDX 31 68 32 69 40 70 33 71 35 72 41 73 34 74 36 75 37 76 38 77
REMARK SMILES IDX 39 78 63 79 64 80 72 81 65 82 67 83 73 84 66 85 68 86 69 87
REMARK SMILES IDX 70 88 71 89 48 90 49 91 57 92 50 93 52 94 58 95 51 96 53 97
REMARK SMILES IDX 54 98 55 99 56 100
REMARK H PARENT 15 5 8 10 19 34 78 53 46 64
REMARK Flexibility Score: inf
ROOT
ATOM      1  C   UNL A   1      38.588  28.405  28.321  1.00  0.00     0.117 C 
ENDROOT
BRANCH   1   2
ATOM      2  N   UNL A   1      39.914  28.783  27.860  1.00  0.00    -0.356 N 
ATOM      3  C   UNL A   1      40.805  28.092  27.098  1.00  0.00     0.221 C 
ATOM      4  O   UNL A   1      41.867  28.632  26.788  1.00  0.00    -0.275 OA
ATOM      5  H   UNL A   1      40.214  29.677  28.142  1.00  0.00     0.163 HD
BRANCH   3   6
ATOM      6  C   UNL A   1      40.447  26.724  26.579  1.00  0.00     0.127 C 
BRANCH   6   7
ATOM      7  C   UNL A   1      40.739  25.626  27.589  1.00  0.00     0.183 C 
ATOM      8  N   UNL A   1      39.330  22.496  25.930  1.00  0.00    -0.142 N 
ATOM      9  C   UNL A   1      39.987  23.379  26.617  1.00  0.00     0.339 C 
ATOM     10  H   UNL A   1      39.758  21.793  25.391  1.00  0.00     0.343 HD
ATOM     11  S   UNL A   1      39.276  24.569  27.692  1.00  0.00    -0.020 SA
ATOM     12  N   UNL A   1      41.342  23.542  26.571  1.00  0.00    -0.191 N 
ATOM     13  C   UNL A   1      41.842  24.705  27.117  1.00  0.00     0.324 C 
ATOM     14  C   UNL A   1      42.253  22.597  25.963  1.00  0.00     0.301 C 
ATOM     15  O   UNL A   1      43.027  25.010  27.164  1.00  0.00    -0.245 OA
BRANCH   8  16
ATOM     16  N   UNL A   1      37.947  22.659  26.042  1.00  0.00    -0.093 NA
ATOM     17  C   UNL A   1      37.340  22.529  24.910  1.00  0.00     0.166 C 
BRANCH  17  18
ATOM     18  C   UNL A   1      35.902  22.832  24.781  1.00  0.00     0.004 A 
ATOM     19  C   UNL A   1      34.022  23.728  23.545  1.00  0.00     0.165 A 
ATOM     20  C   UNL A   1      35.407  23.565  23.702  1.00  0.00     0.060 A 
ATOM     21  C   UNL A   1      33.114  23.154  24.460  1.00  0.00     0.203 A 
ATOM     22  C   UNL A   1      33.636  22.435  25.558  1.00  0.00     0.165 A 
ATOM     23  C   UNL A   1      35.023  22.284  25.709  1.00  0.00     0.060 A 
BRANCH  19  24
ATOM     24  O   UNL A   1      33.578  24.334  22.396  1.00  0.00    -0.493 OA
ATOM     25  C   UNL A   1      33.249  23.385  21.380  1.00  0.00     0.278 C 
ENDBRANCH  19  24
BRANCH  21  26
ATOM     26  O   UNL A   1      31.751  23.183  24.334  1.00  0.00    -0.490 OA
ATOM     27  C   UNL A   1      30.996  24.131  25.071  1.00  0.00     0.278 C 
ENDBRANCH  21  26
BRANCH  22  28
ATOM     28  O   UNL A   1      32.959  21.801  26.572  1.00  0.00    -0.493 OA
ATOM     29  C   UNL A   1      33.135  22.244  27.908  1.00  0.00     0.278 C 
ENDBRANCH  22  28
ENDBRANCH  17  18
ENDBRANCH   8  16
ENDBRANCH   6   7
ENDBRANCH   3   6
ENDBRANCH   1   2
BRANCH   1  30
ATOM     30  C   UNL A   1      37.622  29.587  28.329  1.00  0.00     0.042 C 
BRANCH  30  31
ATOM     31  C   UNL A   1      38.020  30.711  29.275  1.00  0.00     0.118 C 
BRANCH  31  32
ATOM     32  N   UNL A   1      37.343  30.620  30.558  1.00  0.00    -0.352 N 
ATOM     33  C   UNL A   1      37.737  29.982  31.707  1.00  0.00     0.251 C 
ATOM     34  H   UNL A   1      36.477  31.083  30.611  1.00  0.00     0.163 HD
ATOM     35  O   UNL A   1      36.931  29.849  32.630  1.00  0.00    -0.269 OA
BRANCH  33  36
ATOM     36  C   UNL A   1      39.108  29.441  31.838  1.00  0.00     0.039 A 
ATOM     37  C   UNL A   1      40.172  30.332  32.004  1.00  0.00     0.014 A 
ATOM     38  C   UNL A   1      39.354  28.067  31.779  1.00  0.00     0.014 A 
ATOM     39  C   UNL A   1      41.471  29.843  32.162  1.00  0.00     0.010 A 
ATOM     40  C   UNL A   1      40.635  27.577  32.020  1.00  0.00     0.010 A 
ATOM     41  C   UNL A   1      41.710  28.459  32.202  1.00  0.00    -0.014 A 
BRANCH  41  42
ATOM     42  C   UNL A   1      43.074  27.916  32.435  1.00  0.00     0.031 A 
ATOM     43  C   UNL A   1      43.976  27.603  31.271  1.00  0.00     0.074 A 
ATOM     44  C   UNL A   1      43.470  27.626  33.691  1.00  0.00     0.049 A 
ATOM     45  N   UNL A   1      45.172  27.074  31.274  1.00  0.00    -0.248 NA
ATOM     46  C   UNL A   1      43.456  27.896  29.925  1.00  0.00     0.031 C 
ATOM     47  C   UNL A   1      42.658  27.809  34.896  1.00  0.00     0.029 A 
ATOM     48  N   UNL A   1      44.643  27.089  34.159  1.00  0.00    -0.354 N 
ATOM     49  C   UNL A   1      45.532  26.935  29.939  1.00  0.00     0.074 A 
ATOM     50  C   UNL A   1      44.414  27.405  29.151  1.00  0.00     0.031 C 
ATOM     51  C   UNL A   1      43.358  27.394  35.965  1.00  0.00     0.029 A 
ATOM     52  C   UNL A   1      44.653  26.890  35.520  1.00  0.00     0.049 A 
ATOM     53  H   UNL A   1      45.405  26.869  33.576  1.00  0.00     0.167 HD
ATOM     54  C   UNL A   1      46.696  26.486  29.415  1.00  0.00     0.034 A 
ATOM     55  C   UNL A   1      45.597  26.355  36.320  1.00  0.00     0.034 A 
ATOM     56  C   UNL A   1      47.824  26.064  30.201  1.00  0.00     0.049 A 
ATOM     57  C   UNL A   1      46.899  25.905  35.715  1.00  0.00     0.074 A 
ATOM     58  C   UNL A   1      49.081  25.682  29.766  1.00  0.00     0.029 A 
ATOM     59  N   UNL A   1      47.831  25.963  31.583  1.00  0.00    -0.354 N 
ATOM     60  N   UNL A   1      47.282  25.938  34.462  1.00  0.00    -0.248 NA
ATOM     61  C   UNL A   1      47.916  25.381  36.640  1.00  0.00     0.031 C 
ATOM     62  C   UNL A   1      49.841  25.328  30.886  1.00  0.00     0.029 A 
ATOM     63  C   UNL A   1      49.066  25.515  32.019  1.00  0.00     0.049 A 
ATOM     64  H   UNL A   1      47.069  26.177  32.169  1.00  0.00     0.167 HD
ATOM     65  C   UNL A   1      48.593  25.473  34.451  1.00  0.00     0.074 A 
ATOM     66  C   UNL A   1      48.945  25.186  35.826  1.00  0.00     0.031 C 
ATOM     67  C   UNL A   1      49.423  25.286  33.396  1.00  0.00     0.034 A 
BRANCH  54  68
ATOM     68  C   UNL A   1      46.835  26.482  27.913  1.00  0.00     0.023 A 
ATOM     69  C   UNL A   1      47.387  27.606  27.263  1.00  0.00     0.012 A 
ATOM     70  C   UNL A   1      46.478  25.351  27.152  1.00  0.00     0.148 A 
ATOM     71  C   UNL A   1      47.549  27.618  25.879  1.00  0.00     0.002 A 
ATOM     72  C   UNL A   1      46.684  25.355  25.777  1.00  0.00     0.091 A 
ATOM     73  F   UNL A   1      45.935  24.300  27.784  1.00  0.00    -0.205 F 
ATOM     74  C   UNL A   1      47.208  26.490  25.139  1.00  0.00     0.022 A 
BRANCH  72  75
ATOM     75  S   UNL A   1      46.355  23.922  24.744  1.00  0.00     0.127 S 
ATOM     76  O   UNL A   1      44.951  24.131  24.390  1.00  0.00    -0.237 OA
ATOM     77  O   UNL A   1      47.297  24.114  23.641  1.00  0.00    -0.237 OA
ATOM     78  O   UNL A   1      46.623  22.757  25.576  1.00  0.00    -0.744 OA
ENDBRANCH  72  75
ENDBRANCH  54  68
BRANCH  55  79
ATOM     79  C   UNL A   1      45.369  26.280  37.791  1.00  0.00     0.023 A 
ATOM     80  C   UNL A   1      45.009  25.048  38.371  1.00  0.00     0.012 A 
ATOM     81  C   UNL A   1      45.537  27.407  38.619  1.00  0.00     0.148 A 
ATOM     82  C   UNL A   1      44.786  24.947  39.745  1.00  0.00     0.002 A 
ATOM     83  C   UNL A   1      45.368  27.286  39.994  1.00  0.00     0.091 A 
ATOM     84  F   UNL A   1      45.870  28.572  38.047  1.00  0.00    -0.205 F 
ATOM     85  C   UNL A   1      44.977  26.062  40.557  1.00  0.00     0.022 A 
BRANCH  83  86
ATOM     86  S   UNL A   1      45.723  28.634  41.128  1.00  0.00     0.127 S 
ATOM     87  O   UNL A   1      45.534  27.989  42.427  1.00  0.00    -0.237 OA
ATOM     88  O   UNL A   1      47.114  28.951  40.794  1.00  0.00    -0.237 OA
ATOM     89  O   UNL A   1      44.774  29.685  40.798  1.00  0.00    -0.744 OA
ENDBRANCH  83  86
ENDBRANCH  55  79
BRANCH  67  90
ATOM     90  C   UNL A   1      50.813  24.780  33.681  1.00  0.00     0.023 A 
ATOM     91  C   UNL A   1      51.782  25.654  34.209  1.00  0.00     0.012 A 
ATOM     92  C   UNL A   1      51.133  23.420  33.499  1.00  0.00     0.148 A 
ATOM     93  C   UNL A   1      53.059  25.191  34.521  1.00  0.00     0.002 A 
ATOM     94  C   UNL A   1      52.393  22.955  33.858  1.00  0.00     0.091 A 
ATOM     95  F   UNL A   1      50.203  22.607  32.978  1.00  0.00    -0.205 F 
ATOM     96  C   UNL A   1      53.361  23.841  34.357  1.00  0.00     0.022 A 
BRANCH  94  97
ATOM     97  S   UNL A   1      52.837  21.216  33.773  1.00  0.00     0.127 S 
ATOM     98  O   UNL A   1      52.703  20.944  32.343  1.00  0.00    -0.237 OA
ATOM     99  O   UNL A   1      54.215  21.222  34.266  1.00  0.00    -0.237 OA
ATOM    100  O   UNL A   1      51.892  20.518  34.634  1.00  0.00    -0.744 OA
ENDBRANCH  94  97
ENDBRANCH  67  90
ENDBRANCH  41  42
ENDBRANCH  33  36
ENDBRANCH  31  32
ENDBRANCH  30  31
ENDBRANCH   1  30
TORSDOF 19
ENDMDL
