MODEL 1
REMARK VINA RESULT:     -12.4      0.000      0.000
REMARK SMILES COc1ccc(/C=C/c2cc(C(=O)NCCCNC(=O)c3ccc(-c4c5nc(c(-c6cccc(S(=O)(=O)[O-])c6F)c6ccc([nH]6)c(-c6cccc(S(=O)(=O)[O-])c6F)c6nc(c(-c7cccc(S(=O)(=O)[O-])c7F)c7ccc4[nH]7)C=C6)C=C5)cc3)c3ccccc3n2)c(OC)c1
REMARK SMILES IDX 16 1 15 2 14 3 12 4 13 5 11 7 9 8 10 9 90 10 89 11 84 12
REMARK SMILES IDX 88 13 85 14 87 15 86 16 8 17 7 18 6 19 3 20 4 21 94 22 5 23
REMARK SMILES IDX 91 24 2 25 1 26 92 27 93 28 17 29 18 30 19 31 20 33 21 34
REMARK SMILES IDX 22 35 83 36 23 37 82 38 24 39 25 40 26 41 76 42 27 43 81 44
REMARK SMILES IDX 75 45 77 46 28 47 80 48 74 49 73 50 29 52 61 53 41 54 60 55
REMARK SMILES IDX 42 56 45 57 59 58 78 59 43 60 44 61 58 63 79 64 46 65 30 66
REMARK SMILES IDX 31 67 39 68 32 69 34 70 40 71 33 72 35 73 36 74 37 75 38 76
REMARK SMILES IDX 62 77 63 78 71 79 64 80 66 81 72 82 65 83 67 84 68 85 69 86
REMARK SMILES IDX 70 87 47 88 48 89 56 90 49 91 51 92 57 93 50 94 52 95 53 96
REMARK SMILES IDX 54 97 55 98
REMARK H PARENT 14 6 18 32 77 51 45 62
REMARK Flexibility Score: inf
ROOT
ATOM      1  C   UNL A   1      35.535  22.926  26.456  1.00  0.00     0.042 C 
ENDROOT
BRANCH   1   2
ATOM      2  C   UNL A   1      34.566  22.012  25.709  1.00  0.00     0.118 C 
BRANCH   2   3
ATOM      3  N   UNL A   1      33.247  22.002  26.296  1.00  0.00    -0.352 N 
ATOM      4  C   UNL A   1      32.582  23.122  26.725  1.00  0.00     0.252 C 
ATOM      5  O   UNL A   1      32.308  23.182  27.924  1.00  0.00    -0.269 OA
ATOM      6  H   UNL A   1      32.794  21.134  26.396  1.00  0.00     0.163 HD
BRANCH   4   7
ATOM      7  C   UNL A   1      31.983  24.094  25.752  1.00  0.00     0.051 A 
ATOM      8  C   UNL A   1      29.912  25.197  25.627  1.00  0.00     0.065 A 
ATOM      9  C   UNL A   1      30.636  24.046  25.378  1.00  0.00     0.042 A 
ATOM     10  N   UNL A   1      30.369  26.083  26.536  1.00  0.00    -0.248 NA
ATOM     11  C   UNL A   1      31.683  26.292  26.511  1.00  0.00     0.072 A 
ATOM     12  C   UNL A   1      32.542  25.368  25.937  1.00  0.00     0.013 A 
ATOM     13  C   UNL A   1      32.165  27.530  26.871  1.00  0.00     0.029 A 
ATOM     14  C   UNL A   1      33.843  25.765  25.553  1.00  0.00     0.011 A 
ATOM     15  C   UNL A   1      33.419  27.958  26.444  1.00  0.00     0.002 A 
ATOM     16  C   UNL A   1      34.249  27.083  25.751  1.00  0.00     0.001 A 
BRANCH   8  17
ATOM     17  C   UNL A   1      29.049  25.892  24.628  1.00  0.00     0.029 C 
ATOM     18  C   UNL A   1      29.680  26.905  23.990  1.00  0.00     0.014 C 
BRANCH  18  19
ATOM     19  C   UNL A   1      29.199  28.187  23.440  1.00  0.00     0.017 A 
ATOM     20  C   UNL A   1      28.481  30.377  21.829  1.00  0.00     0.122 A 
ATOM     21  C   UNL A   1      27.521  29.447  22.225  1.00  0.00     0.047 A 
ATOM     22  C   UNL A   1      29.778  30.277  22.317  1.00  0.00     0.093 A 
ATOM     23  C   UNL A   1      27.876  28.348  23.026  1.00  0.00     0.016 A 
ATOM     24  C   UNL A   1      30.155  29.183  23.098  1.00  0.00     0.129 A 
BRANCH  20  25
ATOM     25  O   UNL A   1      28.086  31.377  20.977  1.00  0.00    -0.497 OA
ATOM     26  C   UNL A   1      28.220  32.691  21.529  1.00  0.00     0.278 C 
ENDBRANCH  20  25
BRANCH  24  27
ATOM     27  O   UNL A   1      31.447  29.016  23.545  1.00  0.00    -0.496 OA
ATOM     28  C   UNL A   1      32.476  28.958  22.560  1.00  0.00     0.278 C 
ENDBRANCH  24  27
ENDBRANCH  18  19
ENDBRANCH   8  17
ENDBRANCH   4   7
ENDBRANCH   2   3
ENDBRANCH   1   2
BRANCH   1  29
ATOM     29  C   UNL A   1      36.830  23.259  25.712  1.00  0.00     0.118 C 
BRANCH  29  30
ATOM     30  N   UNL A   1      37.933  22.368  26.051  1.00  0.00    -0.352 N 
ATOM     31  C   UNL A   1      39.185  22.666  26.516  1.00  0.00     0.251 C 
ATOM     32  H   UNL A   1      37.749  21.409  25.928  1.00  0.00     0.163 HD
ATOM     33  O   UNL A   1      40.045  21.783  26.581  1.00  0.00    -0.269 OA
BRANCH  31  34
ATOM     34  C   UNL A   1      39.515  24.046  26.921  1.00  0.00     0.039 A 
ATOM     35  C   UNL A   1      39.291  24.440  28.243  1.00  0.00     0.014 A 
ATOM     36  C   UNL A   1      40.034  24.952  25.993  1.00  0.00     0.014 A 
ATOM     37  C   UNL A   1      39.645  25.728  28.650  1.00  0.00     0.010 A 
ATOM     38  C   UNL A   1      40.455  26.208  26.418  1.00  0.00     0.010 A 
ATOM     39  C   UNL A   1      40.256  26.613  27.746  1.00  0.00    -0.014 A 
BRANCH  39  40
ATOM     40  C   UNL A   1      40.679  27.976  28.156  1.00  0.00     0.031 A 
ATOM     41  C   UNL A   1      42.141  28.328  28.180  1.00  0.00     0.074 A 
ATOM     42  C   UNL A   1      39.761  28.855  28.603  1.00  0.00     0.049 A 
ATOM     43  N   UNL A   1      42.722  29.419  28.606  1.00  0.00    -0.248 NA
ATOM     44  C   UNL A   1      43.080  27.304  27.689  1.00  0.00     0.031 C 
ATOM     45  C   UNL A   1      38.321  28.601  28.700  1.00  0.00     0.029 A 
ATOM     46  N   UNL A   1      39.907  30.128  29.095  1.00  0.00    -0.354 N 
ATOM     47  C   UNL A   1      44.088  29.195  28.483  1.00  0.00     0.074 A 
ATOM     48  C   UNL A   1      44.252  27.853  27.969  1.00  0.00     0.031 C 
ATOM     49  C   UNL A   1      37.718  29.682  29.222  1.00  0.00     0.029 A 
ATOM     50  C   UNL A   1      38.727  30.693  29.524  1.00  0.00     0.049 A 
ATOM     51  H   UNL A   1      40.773  30.594  29.137  1.00  0.00     0.167 HD
ATOM     52  C   UNL A   1      45.113  30.039  28.745  1.00  0.00     0.034 A 
ATOM     53  C   UNL A   1      38.488  31.886  30.102  1.00  0.00     0.034 A 
ATOM     54  C   UNL A   1      44.939  31.393  29.198  1.00  0.00     0.049 A 
ATOM     55  C   UNL A   1      39.638  32.833  30.321  1.00  0.00     0.074 A 
ATOM     56  C   UNL A   1      45.905  32.362  29.405  1.00  0.00     0.029 A 
ATOM     57  N   UNL A   1      43.718  31.969  29.512  1.00  0.00    -0.354 N 
ATOM     58  N   UNL A   1      40.911  32.658  30.055  1.00  0.00    -0.248 NA
ATOM     59  C   UNL A   1      39.319  34.152  30.884  1.00  0.00     0.031 C 
ATOM     60  C   UNL A   1      45.266  33.523  29.855  1.00  0.00     0.029 A 
ATOM     61  C   UNL A   1      43.902  33.281  29.909  1.00  0.00     0.049 A 
ATOM     62  H   UNL A   1      42.848  31.512  29.459  1.00  0.00     0.167 HD
ATOM     63  C   UNL A   1      41.536  33.857  30.377  1.00  0.00     0.074 A 
ATOM     64  C   UNL A   1      40.500  34.755  30.845  1.00  0.00     0.031 C 
ATOM     65  C   UNL A   1      42.851  34.181  30.307  1.00  0.00     0.034 A 
BRANCH  52  66
ATOM     66  C   UNL A   1      46.513  29.544  28.489  1.00  0.00     0.023 A 
ATOM     67  C   UNL A   1      47.110  29.771  27.231  1.00  0.00     0.012 A 
ATOM     68  C   UNL A   1      47.256  28.903  29.500  1.00  0.00     0.148 A 
ATOM     69  C   UNL A   1      48.408  29.335  26.971  1.00  0.00     0.002 A 
ATOM     70  C   UNL A   1      48.566  28.511  29.248  1.00  0.00     0.091 A 
ATOM     71  F   UNL A   1      46.665  28.676  30.682  1.00  0.00    -0.205 F 
ATOM     72  C   UNL A   1      49.138  28.715  27.981  1.00  0.00     0.022 A 
BRANCH  70  73
ATOM     73  S   UNL A   1      49.617  27.777  30.506  1.00  0.00     0.127 S 
ATOM     74  O   UNL A   1      49.533  28.769  31.577  1.00  0.00    -0.237 OA
ATOM     75  O   UNL A   1      48.929  26.517  30.787  1.00  0.00    -0.237 OA
ATOM     76  O   UNL A   1      50.929  27.626  29.893  1.00  0.00    -0.744 OA
ENDBRANCH  70  73
ENDBRANCH  52  66
BRANCH  53  77
ATOM     77  C   UNL A   1      37.091  32.284  30.438  1.00  0.00     0.023 A 
ATOM     78  C   UNL A   1      36.631  32.129  31.760  1.00  0.00     0.012 A 
ATOM     79  C   UNL A   1      36.231  32.844  29.473  1.00  0.00     0.148 A 
ATOM     80  C   UNL A   1      35.331  32.496  32.110  1.00  0.00     0.002 A 
ATOM     81  C   UNL A   1      34.955  33.257  29.840  1.00  0.00     0.091 A 
ATOM     82  F   UNL A   1      36.682  32.973  28.218  1.00  0.00    -0.205 F 
ATOM     83  C   UNL A   1      34.497  33.068  31.154  1.00  0.00     0.022 A 
BRANCH  81  84
ATOM     84  S   UNL A   1      33.863  34.126  28.709  1.00  0.00     0.127 S 
ATOM     85  O   UNL A   1      34.733  35.187  28.209  1.00  0.00    -0.237 OA
ATOM     86  O   UNL A   1      33.540  33.083  27.735  1.00  0.00    -0.237 OA
ATOM     87  O   UNL A   1      32.730  34.560  29.516  1.00  0.00    -0.744 OA
ENDBRANCH  81  84
ENDBRANCH  53  77
BRANCH  65  88
ATOM     88  C   UNL A   1      43.250  35.579  30.699  1.00  0.00     0.023 A 
ATOM     89  C   UNL A   1      43.626  35.853  32.028  1.00  0.00     0.012 A 
ATOM     90  C   UNL A   1      43.341  36.595  29.727  1.00  0.00     0.148 A 
ATOM     91  C   UNL A   1      44.063  37.127  32.390  1.00  0.00     0.002 A 
ATOM     92  C   UNL A   1      43.822  37.848  30.087  1.00  0.00     0.091 A 
ATOM     93  F   UNL A   1      42.959  36.317  28.472  1.00  0.00    -0.205 F 
ATOM     94  C   UNL A   1      44.174  38.119  31.419  1.00  0.00     0.022 A 
BRANCH  92  95
ATOM     95  S   UNL A   1      44.090  39.154  28.882  1.00  0.00     0.127 S 
ATOM     96  O   UNL A   1      42.820  39.876  28.939  1.00  0.00    -0.237 OA
ATOM     97  O   UNL A   1      45.228  39.876  29.453  1.00  0.00    -0.237 OA
ATOM     98  O   UNL A   1      44.373  38.484  27.620  1.00  0.00    -0.744 OA
ENDBRANCH  92  95
ENDBRANCH  65  88
ENDBRANCH  39  40
ENDBRANCH  31  34
ENDBRANCH  29  30
ENDBRANCH   1  29
TORSDOF 17
ENDMDL
MODEL 2
REMARK VINA RESULT:     -12.4      5.370      9.082
REMARK SMILES COc1ccc(/C=C/c2cc(C(=O)NCCCNC(=O)c3ccc(-c4c5nc(c(-c6cccc(S(=O)(=O)[O-])c6F)c6ccc([nH]6)c(-c6cccc(S(=O)(=O)[O-])c6F)c6nc(c(-c7cccc(S(=O)(=O)[O-])c7F)c7ccc4[nH]7)C=C6)C=C5)cc3)c3ccccc3n2)c(OC)c1
REMARK SMILES IDX 16 1 15 2 14 3 12 4 13 5 11 7 9 8 10 9 90 10 89 11 84 12
REMARK SMILES IDX 88 13 85 14 87 15 86 16 8 17 7 18 6 19 3 20 4 21 94 22 5 23
REMARK SMILES IDX 91 24 2 25 1 26 92 27 93 28 17 29 18 30 19 31 20 33 21 34
REMARK SMILES IDX 22 35 83 36 23 37 82 38 24 39 25 40 26 41 76 42 27 43 81 44
REMARK SMILES IDX 75 45 77 46 28 47 80 48 74 49 73 50 29 52 61 53 41 54 60 55
REMARK SMILES IDX 42 56 45 57 59 58 78 59 43 60 44 61 58 63 79 64 46 65 30 66
REMARK SMILES IDX 31 67 39 68 32 69 34 70 40 71 33 72 35 73 36 74 37 75 38 76
REMARK SMILES IDX 62 77 63 78 71 79 64 80 66 81 72 82 65 83 67 84 68 85 69 86
REMARK SMILES IDX 70 87 47 88 48 89 56 90 49 91 51 92 57 93 50 94 52 95 53 96
REMARK SMILES IDX 54 97 55 98
REMARK H PARENT 14 6 18 32 77 51 45 62
REMARK Flexibility Score: inf
ROOT
ATOM      1  C   UNL A   1      31.395  32.300  26.756  1.00  0.00     0.042 C 
ENDROOT
BRANCH   1   2
ATOM      2  C   UNL A   1      31.511  30.936  26.079  1.00  0.00     0.118 C 
BRANCH   2   3
ATOM      3  N   UNL A   1      32.189  29.962  26.902  1.00  0.00    -0.352 N 
ATOM      4  C   UNL A   1      31.866  28.630  26.948  1.00  0.00     0.252 C 
ATOM      5  O   UNL A   1      31.486  28.187  28.032  1.00  0.00    -0.269 OA
ATOM      6  H   UNL A   1      32.932  30.275  27.467  1.00  0.00     0.163 HD
BRANCH   4   7
ATOM      7  C   UNL A   1      32.214  27.703  25.820  1.00  0.00     0.051 A 
ATOM      8  C   UNL A   1      32.589  25.388  25.679  1.00  0.00     0.065 A 
ATOM      9  C   UNL A   1      33.105  26.636  25.974  1.00  0.00     0.042 A 
ATOM     10  N   UNL A   1      31.252  25.207  25.679  1.00  0.00    -0.248 NA
ATOM     11  C   UNL A   1      30.547  26.200  25.144  1.00  0.00     0.072 A 
ATOM     12  C   UNL A   1      31.084  27.473  25.021  1.00  0.00     0.013 A 
ATOM     13  C   UNL A   1      29.357  25.906  24.519  1.00  0.00     0.029 A 
ATOM     14  C   UNL A   1      30.512  28.390  24.110  1.00  0.00     0.011 A 
ATOM     15  C   UNL A   1      28.817  26.772  23.571  1.00  0.00     0.002 A 
ATOM     16  C   UNL A   1      29.417  28.005  23.340  1.00  0.00     0.001 A 
BRANCH   8  17
ATOM     17  C   UNL A   1      33.238  24.392  24.777  1.00  0.00     0.029 C 
ATOM     18  C   UNL A   1      32.473  23.300  24.550  1.00  0.00     0.014 C 
BRANCH  18  19
ATOM     19  C   UNL A   1      32.808  21.886  24.296  1.00  0.00     0.017 A 
ATOM     20  C   UNL A   1      32.962  19.078  24.231  1.00  0.00     0.122 A 
ATOM     21  C   UNL A   1      32.298  19.773  23.221  1.00  0.00     0.047 A 
ATOM     22  C   UNL A   1      33.638  19.782  25.220  1.00  0.00     0.093 A 
ATOM     23  C   UNL A   1      32.213  21.175  23.252  1.00  0.00     0.016 A 
ATOM     24  C   UNL A   1      33.550  21.175  25.279  1.00  0.00     0.129 A 
BRANCH  20  25
ATOM     25  O   UNL A   1      32.933  17.707  24.187  1.00  0.00    -0.497 OA
ATOM     26  C   UNL A   1      33.954  17.137  23.362  1.00  0.00     0.278 C 
ENDBRANCH  20  25
BRANCH  24  27
ATOM     27  O   UNL A   1      34.153  21.901  26.282  1.00  0.00    -0.496 OA
ATOM     28  C   UNL A   1      33.571  21.827  27.581  1.00  0.00     0.278 C 
ENDBRANCH  24  27
ENDBRANCH  18  19
ENDBRANCH   8  17
ENDBRANCH   4   7
ENDBRANCH   2   3
ENDBRANCH   1   2
BRANCH   1  29
ATOM     29  C   UNL A   1      32.704  32.876  27.300  1.00  0.00     0.118 C 
BRANCH  29  30
ATOM     30  N   UNL A   1      32.572  34.243  27.787  1.00  0.00    -0.352 N 
ATOM     31  C   UNL A   1      33.248  34.881  28.793  1.00  0.00     0.251 C 
ATOM     32  H   UNL A   1      31.898  34.790  27.323  1.00  0.00     0.163 HD
ATOM     33  O   UNL A   1      32.874  35.992  29.177  1.00  0.00    -0.269 OA
BRANCH  31  34
ATOM     34  C   UNL A   1      34.409  34.232  29.431  1.00  0.00     0.039 A 
ATOM     35  C   UNL A   1      35.692  34.507  28.950  1.00  0.00     0.014 A 
ATOM     36  C   UNL A   1      34.229  33.347  30.497  1.00  0.00     0.014 A 
ATOM     37  C   UNL A   1      36.802  33.938  29.578  1.00  0.00     0.010 A 
ATOM     38  C   UNL A   1      35.338  32.841  31.167  1.00  0.00     0.010 A 
ATOM     39  C   UNL A   1      36.635  33.122  30.708  1.00  0.00    -0.014 A 
BRANCH  39  40
ATOM     40  C   UNL A   1      37.795  32.532  31.422  1.00  0.00     0.031 A 
ATOM     41  C   UNL A   1      38.541  31.378  30.808  1.00  0.00     0.074 A 
ATOM     42  C   UNL A   1      38.109  32.962  32.660  1.00  0.00     0.049 A 
ATOM     43  N   UNL A   1      39.506  30.655  31.314  1.00  0.00    -0.248 NA
ATOM     44  C   UNL A   1      38.123  30.959  29.459  1.00  0.00     0.031 C 
ATOM     45  C   UNL A   1      37.410  34.022  33.390  1.00  0.00     0.029 A 
ATOM     46  N   UNL A   1      39.074  32.536  33.537  1.00  0.00    -0.354 N 
ATOM     47  C   UNL A   1      39.776  29.671  30.371  1.00  0.00     0.074 A 
ATOM     48  C   UNL A   1      38.854  29.870  29.275  1.00  0.00     0.031 C 
ATOM     49  C   UNL A   1      37.967  34.160  34.605  1.00  0.00     0.029 A 
ATOM     50  C   UNL A   1      39.041  33.183  34.752  1.00  0.00     0.049 A 
ATOM     51  H   UNL A   1      39.730  31.834  33.319  1.00  0.00     0.167 HD
ATOM     52  C   UNL A   1      40.725  28.706  30.401  1.00  0.00     0.034 A 
ATOM     53  C   UNL A   1      39.786  33.002  35.860  1.00  0.00     0.034 A 
ATOM     54  C   UNL A   1      41.678  28.552  31.466  1.00  0.00     0.049 A 
ATOM     55  C   UNL A   1      40.879  31.967  35.841  1.00  0.00     0.074 A 
ATOM     56  C   UNL A   1      42.739  27.669  31.552  1.00  0.00     0.029 A 
ATOM     57  N   UNL A   1      41.687  29.304  32.631  1.00  0.00    -0.354 N 
ATOM     58  N   UNL A   1      41.219  31.144  34.877  1.00  0.00    -0.248 NA
ATOM     59  C   UNL A   1      41.716  31.858  37.045  1.00  0.00     0.031 C 
ATOM     60  C   UNL A   1      43.383  27.880  32.776  1.00  0.00     0.029 A 
ATOM     61  C   UNL A   1      42.734  28.907  33.443  1.00  0.00     0.049 A 
ATOM     62  H   UNL A   1      41.042  30.016  32.849  1.00  0.00     0.167 HD
ATOM     63  C   UNL A   1      42.332  30.452  35.340  1.00  0.00     0.074 A 
ATOM     64  C   UNL A   1      42.618  30.962  36.666  1.00  0.00     0.031 C 
ATOM     65  C   UNL A   1      43.043  29.472  34.730  1.00  0.00     0.034 A 
BRANCH  52  66
ATOM     66  C   UNL A   1      40.821  27.779  29.216  1.00  0.00     0.023 A 
ATOM     67  C   UNL A   1      40.021  26.618  29.177  1.00  0.00     0.012 A 
ATOM     68  C   UNL A   1      41.658  28.077  28.123  1.00  0.00     0.148 A 
ATOM     69  C   UNL A   1      40.080  25.750  28.088  1.00  0.00     0.002 A 
ATOM     70  C   UNL A   1      41.678  27.231  27.021  1.00  0.00     0.091 A 
ATOM     71  F   UNL A   1      42.428  29.173  28.187  1.00  0.00    -0.205 F 
ATOM     72  C   UNL A   1      40.900  26.061  27.008  1.00  0.00     0.022 A 
BRANCH  70  73
ATOM     73  S   UNL A   1      42.639  27.584  25.544  1.00  0.00     0.127 S 
ATOM     74  O   UNL A   1      43.999  27.631  26.081  1.00  0.00    -0.237 OA
ATOM     75  O   UNL A   1      42.355  26.420  24.705  1.00  0.00    -0.237 OA
ATOM     76  O   UNL A   1      42.127  28.845  25.026  1.00  0.00    -0.744 OA
ENDBRANCH  70  73
ENDBRANCH  52  66
BRANCH  53  77
ATOM     77  C   UNL A   1      39.577  33.877  37.048  1.00  0.00     0.023 A 
ATOM     78  C   UNL A   1      40.006  35.218  36.999  1.00  0.00     0.012 A 
ATOM     79  C   UNL A   1      38.929  33.406  38.207  1.00  0.00     0.148 A 
ATOM     80  C   UNL A   1      39.821  36.066  38.092  1.00  0.00     0.002 A 
ATOM     81  C   UNL A   1      38.700  34.270  39.271  1.00  0.00     0.091 A 
ATOM     82  F   UNL A   1      38.538  32.124  38.240  1.00  0.00    -0.205 F 
ATOM     83  C   UNL A   1      39.160  35.596  39.223  1.00  0.00     0.022 A 
BRANCH  81  84
ATOM     84  S   UNL A   1      37.739  33.790  40.712  1.00  0.00     0.127 S 
ATOM     85  O   UNL A   1      36.552  33.202  40.096  1.00  0.00    -0.237 OA
ATOM     86  O   UNL A   1      38.631  32.833  41.367  1.00  0.00    -0.237 OA
ATOM     87  O   UNL A   1      37.523  35.018  41.465  1.00  0.00    -0.744 OA
ENDBRANCH  81  84
ENDBRANCH  53  77
BRANCH  65  88
ATOM     88  C   UNL A   1      44.234  28.912  35.462  1.00  0.00     0.023 A 
ATOM     89  C   UNL A   1      45.504  29.493  35.280  1.00  0.00     0.012 A 
ATOM     90  C   UNL A   1      44.074  27.871  36.398  1.00  0.00     0.148 A 
ATOM     91  C   UNL A   1      46.603  29.029  36.002  1.00  0.00     0.002 A 
ATOM     92  C   UNL A   1      45.164  27.446  37.146  1.00  0.00     0.091 A 
ATOM     93  F   UNL A   1      42.860  27.319  36.540  1.00  0.00    -0.205 F 
ATOM     94  C   UNL A   1      46.431  28.016  36.943  1.00  0.00     0.022 A 
BRANCH  92  95
ATOM     95  S   UNL A   1      45.014  26.217  38.449  1.00  0.00     0.127 S 
ATOM     96  O   UNL A   1      43.838  26.695  39.174  1.00  0.00    -0.237 OA
ATOM     97  O   UNL A   1      44.803  24.984  37.691  1.00  0.00    -0.237 OA
ATOM     98  O   UNL A   1      46.268  26.264  39.190  1.00  0.00    -0.744 OA
ENDBRANCH  92  95
ENDBRANCH  65  88
ENDBRANCH  39  40
ENDBRANCH  31  34
ENDBRANCH  29  30
ENDBRANCH   1  29
TORSDOF 17
ENDMDL
MODEL 3
REMARK VINA RESULT:     -12.3      5.090     10.077
REMARK SMILES COc1ccc(/C=C/c2cc(C(=O)NCCCNC(=O)c3ccc(-c4c5nc(c(-c6cccc(S(=O)(=O)[O-])c6F)c6ccc([nH]6)c(-c6cccc(S(=O)(=O)[O-])c6F)c6nc(c(-c7cccc(S(=O)(=O)[O-])c7F)c7ccc4[nH]7)C=C6)C=C5)cc3)c3ccccc3n2)c(OC)c1
REMARK SMILES IDX 16 1 15 2 14 3 12 4 13 5 11 7 9 8 10 9 90 10 89 11 84 12
REMARK SMILES IDX 88 13 85 14 87 15 86 16 8 17 7 18 6 19 3 20 4 21 94 22 5 23
REMARK SMILES IDX 91 24 2 25 1 26 92 27 93 28 17 29 18 30 19 31 20 33 21 34
REMARK SMILES IDX 22 35 83 36 23 37 82 38 24 39 25 40 26 41 76 42 27 43 81 44
REMARK SMILES IDX 75 45 77 46 28 47 80 48 74 49 73 50 29 52 61 53 41 54 60 55
REMARK SMILES IDX 42 56 45 57 59 58 78 59 43 60 44 61 58 63 79 64 46 65 30 66
REMARK SMILES IDX 31 67 39 68 32 69 34 70 40 71 33 72 35 73 36 74 37 75 38 76
REMARK SMILES IDX 62 77 63 78 71 79 64 80 66 81 72 82 65 83 67 84 68 85 69 86
REMARK SMILES IDX 70 87 47 88 48 89 56 90 49 91 51 92 57 93 50 94 52 95 53 96
REMARK SMILES IDX 54 97 55 98
REMARK H PARENT 14 6 18 32 77 51 45 62
REMARK Flexibility Score: inf
ROOT
ATOM      1  C   UNL A   1      33.034  28.980  24.803  1.00  0.00     0.042 C 
ENDROOT
BRANCH   1   2
ATOM      2  C   UNL A   1      31.791  28.725  23.952  1.00  0.00     0.118 C 
BRANCH   2   3
ATOM      3  N   UNL A   1      32.105  28.119  22.679  1.00  0.00    -0.352 N 
ATOM      4  C   UNL A   1      33.008  27.102  22.508  1.00  0.00     0.252 C 
ATOM      5  O   UNL A   1      33.986  27.339  21.799  1.00  0.00    -0.269 OA
ATOM      6  H   UNL A   1      31.639  28.459  21.880  1.00  0.00     0.163 HD
BRANCH   4   7
ATOM      7  C   UNL A   1      32.692  25.698  22.933  1.00  0.00     0.051 A 
ATOM      8  C   UNL A   1      33.033  23.590  21.954  1.00  0.00     0.065 A 
ATOM      9  C   UNL A   1      32.247  24.724  22.033  1.00  0.00     0.042 A 
ATOM     10  N   UNL A   1      34.314  23.641  22.375  1.00  0.00    -0.248 NA
ATOM     11  C   UNL A   1      34.515  24.333  23.492  1.00  0.00     0.072 A 
ATOM     12  C   UNL A   1      33.596  25.279  23.921  1.00  0.00     0.013 A 
ATOM     13  C   UNL A   1      35.538  23.956  24.332  1.00  0.00     0.029 A 
ATOM     14  C   UNL A   1      33.603  25.701  25.271  1.00  0.00     0.011 A 
ATOM     15  C   UNL A   1      35.522  24.311  25.679  1.00  0.00     0.002 A 
ATOM     16  C   UNL A   1      34.530  25.159  26.158  1.00  0.00     0.001 A 
BRANCH   8  17
ATOM     17  C   UNL A   1      32.520  22.192  22.050  1.00  0.00     0.029 C 
ATOM     18  C   UNL A   1      32.561  21.693  23.308  1.00  0.00     0.014 C 
BRANCH  18  19
ATOM     19  C   UNL A   1      32.762  20.329  23.831  1.00  0.00     0.017 A 
ATOM     20  C   UNL A   1      32.533  17.796  25.032  1.00  0.00     0.122 A 
ATOM     21  C   UNL A   1      32.383  17.941  23.652  1.00  0.00     0.047 A 
ATOM     22  C   UNL A   1      32.897  18.892  25.802  1.00  0.00     0.093 A 
ATOM     23  C   UNL A   1      32.492  19.205  23.049  1.00  0.00     0.016 A 
ATOM     24  C   UNL A   1      32.991  20.161  25.224  1.00  0.00     0.129 A 
BRANCH  20  25
ATOM     25  O   UNL A   1      32.329  16.549  25.566  1.00  0.00    -0.497 OA
ATOM     26  C   UNL A   1      33.429  15.654  25.373  1.00  0.00     0.278 C 
ENDBRANCH  20  25
BRANCH  24  27
ATOM     27  O   UNL A   1      33.286  21.281  25.969  1.00  0.00    -0.496 OA
ATOM     28  C   UNL A   1      34.395  21.198  26.861  1.00  0.00     0.278 C 
ENDBRANCH  24  27
ENDBRANCH  18  19
ENDBRANCH   8  17
ENDBRANCH   4   7
ENDBRANCH   2   3
ENDBRANCH   1   2
BRANCH   1  29
ATOM     29  C   UNL A   1      32.764  29.343  26.265  1.00  0.00     0.118 C 
BRANCH  29  30
ATOM     30  N   UNL A   1      32.639  30.778  26.488  1.00  0.00    -0.352 N 
ATOM     31  C   UNL A   1      33.401  31.611  27.261  1.00  0.00     0.251 C 
ATOM     32  H   UNL A   1      31.897  31.213  26.009  1.00  0.00     0.163 HD
ATOM     33  O   UNL A   1      33.035  32.773  27.462  1.00  0.00    -0.269 OA
BRANCH  31  34
ATOM     34  C   UNL A   1      34.650  31.118  27.872  1.00  0.00     0.039 A 
ATOM     35  C   UNL A   1      35.686  32.020  28.128  1.00  0.00     0.014 A 
ATOM     36  C   UNL A   1      34.802  29.763  28.180  1.00  0.00     0.014 A 
ATOM     37  C   UNL A   1      36.853  31.573  28.751  1.00  0.00     0.010 A 
ATOM     38  C   UNL A   1      35.933  29.336  28.868  1.00  0.00     0.010 A 
ATOM     39  C   UNL A   1      36.974  30.232  29.150  1.00  0.00    -0.014 A 
BRANCH  39  40
ATOM     40  C   UNL A   1      38.186  29.733  29.848  1.00  0.00     0.031 A 
ATOM     41  C   UNL A   1      38.542  30.274  31.206  1.00  0.00     0.074 A 
ATOM     42  C   UNL A   1      39.015  28.878  29.218  1.00  0.00     0.049 A 
ATOM     43  N   UNL A   1      39.607  30.051  31.931  1.00  0.00    -0.248 NA
ATOM     44  C   UNL A   1      37.589  31.217  31.817  1.00  0.00     0.031 C 
ATOM     45  C   UNL A   1      38.817  28.343  27.869  1.00  0.00     0.029 A 
ATOM     46  N   UNL A   1      40.212  28.336  29.616  1.00  0.00    -0.354 N 
ATOM     47  C   UNL A   1      39.476  30.860  33.054  1.00  0.00     0.074 A 
ATOM     48  C   UNL A   1      38.244  31.600  32.902  1.00  0.00     0.031 C 
ATOM     49  C   UNL A   1      39.856  27.554  27.551  1.00  0.00     0.029 A 
ATOM     50  C   UNL A   1      40.808  27.548  28.658  1.00  0.00     0.049 A 
ATOM     51  H   UNL A   1      40.607  28.495  30.504  1.00  0.00     0.167 HD
ATOM     52  C   UNL A   1      40.294  30.956  34.129  1.00  0.00     0.034 A 
ATOM     53  C   UNL A   1      41.990  26.902  28.667  1.00  0.00     0.034 A 
ATOM     54  C   UNL A   1      41.486  30.172  34.301  1.00  0.00     0.049 A 
ATOM     55  C   UNL A   1      42.848  26.973  29.903  1.00  0.00     0.074 A 
ATOM     56  C   UNL A   1      42.335  30.123  35.393  1.00  0.00     0.029 A 
ATOM     57  N   UNL A   1      41.997  29.295  33.356  1.00  0.00    -0.354 N 
ATOM     58  N   UNL A   1      42.632  27.626  31.020  1.00  0.00    -0.248 NA
ATOM     59  C   UNL A   1      44.093  26.191  29.896  1.00  0.00     0.031 C 
ATOM     60  C   UNL A   1      43.366  29.224  35.102  1.00  0.00     0.029 A 
ATOM     61  C   UNL A   1      43.149  28.699  33.837  1.00  0.00     0.049 A 
ATOM     62  H   UNL A   1      41.599  29.123  32.472  1.00  0.00     0.167 HD
ATOM     63  C   UNL A   1      43.689  27.300  31.863  1.00  0.00     0.074 A 
ATOM     64  C   UNL A   1      44.537  26.380  31.132  1.00  0.00     0.031 C 
ATOM     65  C   UNL A   1      43.943  27.735  33.122  1.00  0.00     0.034 A 
BRANCH  52  66
ATOM     66  C   UNL A   1      39.892  31.899  35.234  1.00  0.00     0.023 A 
ATOM     67  C   UNL A   1      40.381  33.222  35.228  1.00  0.00     0.012 A 
ATOM     68  C   UNL A   1      38.996  31.499  36.244  1.00  0.00     0.148 A 
ATOM     69  C   UNL A   1      40.015  34.120  36.230  1.00  0.00     0.002 A 
ATOM     70  C   UNL A   1      38.601  32.412  37.215  1.00  0.00     0.091 A 
ATOM     71  F   UNL A   1      38.559  30.231  36.247  1.00  0.00    -0.205 F 
ATOM     72  C   UNL A   1      39.119  33.718  37.216  1.00  0.00     0.022 A 
BRANCH  70  73
ATOM     73  S   UNL A   1      37.390  32.017  38.482  1.00  0.00     0.127 S 
ATOM     74  O   UNL A   1      36.338  32.994  38.201  1.00  0.00    -0.237 OA
ATOM     75  O   UNL A   1      37.040  30.635  38.154  1.00  0.00    -0.237 OA
ATOM     76  O   UNL A   1      38.075  32.183  39.756  1.00  0.00    -0.744 OA
ENDBRANCH  70  73
ENDBRANCH  52  66
BRANCH  53  77
ATOM     77  C   UNL A   1      42.391  26.067  27.500  1.00  0.00     0.023 A 
ATOM     78  C   UNL A   1      43.203  26.632  26.497  1.00  0.00     0.012 A 
ATOM     79  C   UNL A   1      42.008  24.716  27.392  1.00  0.00     0.148 A 
ATOM     80  C   UNL A   1      43.601  25.877  25.393  1.00  0.00     0.002 A 
ATOM     81  C   UNL A   1      42.452  23.955  26.316  1.00  0.00     0.091 A 
ATOM     82  F   UNL A   1      41.225  24.199  28.349  1.00  0.00    -0.205 F 
ATOM     83  C   UNL A   1      43.235  24.538  25.307  1.00  0.00     0.022 A 
BRANCH  81  84
ATOM     84  S   UNL A   1      42.140  22.189  26.194  1.00  0.00     0.127 S 
ATOM     85  O   UNL A   1      42.887  21.836  24.990  1.00  0.00    -0.237 OA
ATOM     86  O   UNL A   1      42.716  21.692  27.444  1.00  0.00    -0.237 OA
ATOM     87  O   UNL A   1      40.693  22.053  26.107  1.00  0.00    -0.744 OA
ENDBRANCH  81  84
ENDBRANCH  53  77
BRANCH  65  88
ATOM     88  C   UNL A   1      45.161  27.190  33.819  1.00  0.00     0.023 A 
ATOM     89  C   UNL A   1      46.365  27.920  33.796  1.00  0.00     0.012 A 
ATOM     90  C   UNL A   1      45.082  26.002  34.572  1.00  0.00     0.148 A 
ATOM     91  C   UNL A   1      47.482  27.461  34.494  1.00  0.00     0.002 A 
ATOM     92  C   UNL A   1      46.185  25.577  35.302  1.00  0.00     0.091 A 
ATOM     93  F   UNL A   1      43.932  25.313  34.563  1.00  0.00    -0.205 F 
ATOM     94  C   UNL A   1      47.389  26.299  35.256  1.00  0.00     0.022 A 
BRANCH  92  95
ATOM     95  S   UNL A   1      46.124  24.147  36.388  1.00  0.00     0.127 S 
ATOM     96  O   UNL A   1      46.354  23.050  35.449  1.00  0.00    -0.237 OA
ATOM     97  O   UNL A   1      47.233  24.406  37.307  1.00  0.00    -0.237 OA
ATOM     98  O   UNL A   1      44.806  24.173  37.010  1.00  0.00    -0.744 OA
ENDBRANCH  92  95
ENDBRANCH  65  88
ENDBRANCH  39  40
ENDBRANCH  31  34
ENDBRANCH  29  30
ENDBRANCH   1  29
TORSDOF 17
ENDMDL
