MODEL 1
REMARK VINA RESULT:     -12.9      0.000      0.000
REMARK SMILES O=C(NCCCNC(=O)[C@H]1CCCC[C@H]1C(=O)N1CCN(S(=O)(=O)c2ccc(F)cc2)CC1)c1ccc(-c2c3nc(c(-c4cccc(S(=O)(=O)[O-])c4F)c4ccc([nH]4)c(-c4cccc(S(=O)(=O)[O-])c4F)c4nc(c(-c5cccc(S(=O)(=O)[O-])c5F)c5ccc2[nH]5)C=C4)C=C3)cc1
REMARK SMILES IDX 5 1 4 2 3 3 1 4 2 5 34 7 35 8 96 9 36 10 95 11 37 12 38 13
REMARK SMILES IDX 39 14 89 15 40 16 94 17 88 18 90 19 41 20 93 21 87 22 86 23
REMARK SMILES IDX 42 25 74 26 54 27 73 28 55 29 58 30 72 31 91 32 56 33 57 34
REMARK SMILES IDX 71 36 92 37 59 38 43 39 44 40 52 41 45 42 47 43 53 44 46 45
REMARK SMILES IDX 48 46 49 47 50 48 51 49 75 50 76 51 84 52 77 53 79 54 85 55
REMARK SMILES IDX 78 56 80 57 81 58 82 59 83 60 60 61 61 62 69 63 62 64 64 65
REMARK SMILES IDX 70 66 63 67 65 68 66 69 67 70 68 71 6 72 7 73 8 74 9 76
REMARK SMILES IDX 10 77 11 78 15 79 12 80 14 81 13 82 16 83 17 84 18 85 19 86
REMARK SMILES IDX 33 87 20 88 32 89 21 90 22 91 23 92 24 93 25 94 26 95 31 96
REMARK SMILES IDX 27 97 30 98 28 99 29 100
REMARK H PARENT 3 6 90 24 58 35 7 75
REMARK Flexibility Score: inf
ROOT
ATOM      1  C   UNL A   1      38.168  21.876  26.128  1.00  0.00     0.042 C 
ENDROOT
BRANCH   1   2
ATOM      2  C   UNL A   1      38.596  20.708  25.231  1.00  0.00     0.118 C 
BRANCH   2   3
ATOM      3  N   UNL A   1      39.590  19.813  25.804  1.00  0.00    -0.352 N 
ATOM      4  O   UNL A   1      41.459  19.161  26.865  1.00  0.00    -0.269 OA
ATOM      5  C   UNL A   1      40.750  20.100  26.502  1.00  0.00     0.251 C 
ATOM      6  H   UNL A   1      39.408  18.854  25.676  1.00  0.00     0.163 HD
BRANCH   5   7
ATOM      7  C   UNL A   1      41.192  21.494  26.802  1.00  0.00     0.039 A 
ATOM      8  C   UNL A   1      41.394  21.941  28.106  1.00  0.00     0.014 A 
ATOM      9  C   UNL A   1      41.531  22.353  25.753  1.00  0.00     0.014 A 
ATOM     10  C   UNL A   1      41.811  23.255  28.377  1.00  0.00     0.010 A 
ATOM     11  C   UNL A   1      41.981  23.662  26.014  1.00  0.00     0.010 A 
ATOM     12  C   UNL A   1      42.090  24.141  27.330  1.00  0.00    -0.014 A 
BRANCH  12  13
ATOM     13  C   UNL A   1      42.449  25.564  27.604  1.00  0.00     0.031 A 
ATOM     14  C   UNL A   1      43.821  26.076  27.237  1.00  0.00     0.074 A 
ATOM     15  C   UNL A   1      41.574  26.411  28.183  1.00  0.00     0.049 A 
ATOM     16  N   UNL A   1      44.339  27.265  27.419  1.00  0.00    -0.248 NA
ATOM     17  C   UNL A   1      44.729  25.125  26.573  1.00  0.00     0.031 C 
ATOM     18  C   UNL A   1      40.213  26.069  28.595  1.00  0.00     0.029 A 
ATOM     19  N   UNL A   1      41.707  27.734  28.547  1.00  0.00    -0.354 N 
ATOM     20  C   UNL A   1      45.636  27.198  26.925  1.00  0.00     0.074 A 
ATOM     21  C   UNL A   1      45.831  25.849  26.438  1.00  0.00     0.031 C 
ATOM     22  C   UNL A   1      39.644  27.143  29.169  1.00  0.00     0.029 A 
ATOM     23  C   UNL A   1      40.605  28.247  29.194  1.00  0.00     0.049 A 
ATOM     24  H   UNL A   1      42.516  28.263  28.362  1.00  0.00     0.167 HD
ATOM     25  C   UNL A   1      46.576  28.170  26.860  1.00  0.00     0.034 A 
ATOM     26  C   UNL A   1      40.391  29.456  29.756  1.00  0.00     0.034 A 
ATOM     27  C   UNL A   1      46.386  29.525  27.302  1.00  0.00     0.049 A 
ATOM     28  C   UNL A   1      41.464  30.515  29.692  1.00  0.00     0.074 A 
ATOM     29  C   UNL A   1      47.273  30.586  27.217  1.00  0.00     0.029 A 
ATOM     30  N   UNL A   1      45.244  30.010  27.917  1.00  0.00    -0.354 N 
ATOM     31  N   UNL A   1      42.635  30.469  29.105  1.00  0.00    -0.248 NA
ATOM     32  C   UNL A   1      41.177  31.805  30.344  1.00  0.00     0.031 C 
ATOM     33  C   UNL A   1      46.676  31.706  27.799  1.00  0.00     0.029 A 
ATOM     34  C   UNL A   1      45.409  31.349  28.229  1.00  0.00     0.049 A 
ATOM     35  H   UNL A   1      44.434  29.481  28.104  1.00  0.00     0.167 HD
ATOM     36  C   UNL A   1      43.211  31.722  29.293  1.00  0.00     0.074 A 
ATOM     37  C   UNL A   1      42.252  32.519  30.029  1.00  0.00     0.031 C 
ATOM     38  C   UNL A   1      44.431  32.163  28.904  1.00  0.00     0.034 A 
BRANCH  25  39
ATOM     39  C   UNL A   1      47.905  27.833  26.237  1.00  0.00     0.023 A 
ATOM     40  C   UNL A   1      48.961  27.399  27.063  1.00  0.00     0.012 A 
ATOM     41  C   UNL A   1      48.069  27.828  24.838  1.00  0.00     0.148 A 
ATOM     42  C   UNL A   1      50.167  26.978  26.507  1.00  0.00     0.002 A 
ATOM     43  C   UNL A   1      49.261  27.371  24.290  1.00  0.00     0.091 A 
ATOM     44  F   UNL A   1      47.053  28.254  24.075  1.00  0.00    -0.205 F 
ATOM     45  C   UNL A   1      50.313  26.952  25.122  1.00  0.00     0.022 A 
BRANCH  43  46
ATOM     46  S   UNL A   1      49.526  27.226  22.518  1.00  0.00     0.127 S 
ATOM     47  O   UNL A   1      49.215  28.582  22.063  1.00  0.00    -0.237 OA
ATOM     48  O   UNL A   1      50.944  26.871  22.448  1.00  0.00    -0.237 OA
ATOM     49  O   UNL A   1      48.612  26.192  22.056  1.00  0.00    -0.744 OA
ENDBRANCH  43  46
ENDBRANCH  25  39
BRANCH  26  50
ATOM     50  C   UNL A   1      39.080  29.754  30.403  1.00  0.00     0.023 A 
ATOM     51  C   UNL A   1      38.826  29.282  31.706  1.00  0.00     0.012 A 
ATOM     52  C   UNL A   1      38.092  30.518  29.749  1.00  0.00     0.148 A 
ATOM     53  C   UNL A   1      37.610  29.548  32.337  1.00  0.00     0.002 A 
ATOM     54  C   UNL A   1      36.905  30.826  30.405  1.00  0.00     0.091 A 
ATOM     55  F   UNL A   1      38.336  30.933  28.497  1.00  0.00    -0.205 F 
ATOM     56  C   UNL A   1      36.656  30.330  31.693  1.00  0.00     0.022 A 
BRANCH  54  57
ATOM     57  S   UNL A   1      35.676  31.931  29.700  1.00  0.00     0.127 S 
ATOM     58  O   UNL A   1      35.125  31.116  28.620  1.00  0.00    -0.237 OA
ATOM     59  O   UNL A   1      34.772  32.141  30.832  1.00  0.00    -0.237 OA
ATOM     60  O   UNL A   1      36.408  33.120  29.289  1.00  0.00    -0.744 OA
ENDBRANCH  54  57
ENDBRANCH  26  50
BRANCH  38  61
ATOM     61  C   UNL A   1      44.830  33.578  29.239  1.00  0.00     0.023 A 
ATOM     62  C   UNL A   1      45.543  33.834  30.427  1.00  0.00     0.012 A 
ATOM     63  C   UNL A   1      44.630  34.624  28.314  1.00  0.00     0.148 A 
ATOM     64  C   UNL A   1      46.040  35.110  30.695  1.00  0.00     0.002 A 
ATOM     65  C   UNL A   1      45.166  35.883  28.568  1.00  0.00     0.091 A 
ATOM     66  F   UNL A   1      43.938  34.364  27.195  1.00  0.00    -0.205 F 
ATOM     67  C   UNL A   1      45.865  36.128  29.761  1.00  0.00     0.022 A 
BRANCH  65  68
ATOM     68  S   UNL A   1      45.079  37.230  27.381  1.00  0.00     0.127 S 
ATOM     69  O   UNL A   1      46.037  36.796  26.366  1.00  0.00    -0.237 OA
ATOM     70  O   UNL A   1      43.679  37.181  26.957  1.00  0.00    -0.237 OA
ATOM     71  O   UNL A   1      45.449  38.435  28.111  1.00  0.00    -0.744 OA
ENDBRANCH  65  68
ENDBRANCH  38  61
ENDBRANCH  12  13
ENDBRANCH   5   7
ENDBRANCH   2   3
ENDBRANCH   1   2
BRANCH   1  72
ATOM     72  C   UNL A   1      36.929  22.699  25.746  1.00  0.00     0.117 C 
BRANCH  72  73
ATOM     73  N   UNL A   1      35.660  22.371  26.380  1.00  0.00    -0.356 N 
ATOM     74  C   UNL A   1      34.756  21.375  26.151  1.00  0.00     0.223 C 
ATOM     75  H   UNL A   1      35.407  22.982  27.109  1.00  0.00     0.163 HD
ATOM     76  O   UNL A   1      34.054  21.028  27.109  1.00  0.00    -0.275 OA
BRANCH  74  77
ATOM     77  C   UNL A   1      34.549  20.762  24.766  1.00  0.00     0.091 C 
ATOM     78  C   UNL A   1      35.153  19.329  24.712  1.00  0.00     0.014 C 
ATOM     79  C   UNL A   1      33.118  20.852  24.160  1.00  0.00     0.091 C 
ATOM     80  C   UNL A   1      34.142  18.193  24.839  1.00  0.00     0.001 C 
ATOM     81  C   UNL A   1      32.288  19.562  23.969  1.00  0.00     0.014 C 
ATOM     82  C   UNL A   1      33.099  18.308  23.747  1.00  0.00     0.001 C 
BRANCH  79  83
ATOM     83  C   UNL A   1      32.130  21.912  24.662  1.00  0.00     0.226 C 
ATOM     84  O   UNL A   1      31.183  21.533  25.361  1.00  0.00    -0.275 OA
ATOM     85  N   UNL A   1      32.389  23.272  24.483  1.00  0.00    -0.340 N 
ATOM     86  C   UNL A   1      31.603  24.184  25.318  1.00  0.00     0.136 C 
ATOM     87  C   UNL A   1      32.946  23.823  23.245  1.00  0.00     0.136 C 
ATOM     88  C   UNL A   1      32.014  25.663  25.268  1.00  0.00     0.124 C 
ATOM     89  C   UNL A   1      33.319  25.306  23.260  1.00  0.00     0.124 C 
ATOM     90  N   UNL A   1      32.253  26.150  23.861  1.00  0.00    -0.194 NA
BRANCH  90  91
ATOM     91  S   UNL A   1      30.813  26.417  22.981  1.00  0.00     0.243 S 
ATOM     92  O   UNL A   1      31.155  26.547  21.584  1.00  0.00    -0.207 OA
ATOM     93  O   UNL A   1      29.864  25.413  23.410  1.00  0.00    -0.207 OA
BRANCH  91  94
ATOM     94  C   UNL A   1      30.179  28.006  23.463  1.00  0.00     0.082 A 
ATOM     95  C   UNL A   1      31.018  28.877  24.178  1.00  0.00     0.025 A 
ATOM     96  C   UNL A   1      28.983  28.474  22.909  1.00  0.00     0.025 A 
ATOM     97  C   UNL A   1      30.640  30.206  24.365  1.00  0.00     0.040 A 
ATOM     98  C   UNL A   1      28.617  29.810  23.092  1.00  0.00     0.040 A 
ATOM     99  C   UNL A   1      29.446  30.661  23.817  1.00  0.00     0.123 A 
ATOM    100  F   UNL A   1      29.106  31.949  23.966  1.00  0.00    -0.207 F 
ENDBRANCH  91  94
ENDBRANCH  90  91
ENDBRANCH  79  83
ENDBRANCH  74  77
ENDBRANCH  72  73
ENDBRANCH   1  72
TORSDOF 16
ENDMDL
MODEL 2
REMARK VINA RESULT:     -12.8      1.510      7.530
REMARK SMILES O=C(NCCCNC(=O)[C@H]1CCCC[C@H]1C(=O)N1CCN(S(=O)(=O)c2ccc(F)cc2)CC1)c1ccc(-c2c3nc(c(-c4cccc(S(=O)(=O)[O-])c4F)c4ccc([nH]4)c(-c4cccc(S(=O)(=O)[O-])c4F)c4nc(c(-c5cccc(S(=O)(=O)[O-])c5F)c5ccc2[nH]5)C=C4)C=C3)cc1
REMARK SMILES IDX 5 1 4 2 3 3 1 4 2 5 34 7 35 8 96 9 36 10 95 11 37 12 38 13
REMARK SMILES IDX 39 14 89 15 40 16 94 17 88 18 90 19 41 20 93 21 87 22 86 23
REMARK SMILES IDX 42 25 74 26 54 27 73 28 55 29 58 30 72 31 91 32 56 33 57 34
REMARK SMILES IDX 71 36 92 37 59 38 43 39 44 40 52 41 45 42 47 43 53 44 46 45
REMARK SMILES IDX 48 46 49 47 50 48 51 49 75 50 76 51 84 52 77 53 79 54 85 55
REMARK SMILES IDX 78 56 80 57 81 58 82 59 83 60 60 61 61 62 69 63 62 64 64 65
REMARK SMILES IDX 70 66 63 67 65 68 66 69 67 70 68 71 6 72 7 73 8 74 9 76
REMARK SMILES IDX 10 77 11 78 15 79 12 80 14 81 13 82 16 83 17 84 18 85 19 86
REMARK SMILES IDX 33 87 20 88 32 89 21 90 22 91 23 92 24 93 25 94 26 95 31 96
REMARK SMILES IDX 27 97 30 98 28 99 29 100
REMARK H PARENT 3 6 90 24 58 35 7 75
REMARK Flexibility Score: inf
ROOT
ATOM      1  C   UNL A   1      36.492  22.225  24.330  1.00  0.00     0.042 C 
ENDROOT
BRANCH   1   2
ATOM      2  C   UNL A   1      36.846  21.711  25.731  1.00  0.00     0.118 C 
BRANCH   2   3
ATOM      3  N   UNL A   1      37.942  20.754  25.786  1.00  0.00    -0.352 N 
ATOM      4  O   UNL A   1      40.026  19.970  26.074  1.00  0.00    -0.269 OA
ATOM      5  C   UNL A   1      39.268  20.938  26.136  1.00  0.00     0.251 C 
ATOM      6  H   UNL A   1      37.701  19.833  25.536  1.00  0.00     0.163 HD
BRANCH   5   7
ATOM      7  C   UNL A   1      39.821  22.261  26.551  1.00  0.00     0.039 A 
ATOM      8  C   UNL A   1      39.318  23.462  26.055  1.00  0.00     0.014 A 
ATOM      9  C   UNL A   1      40.792  22.320  27.554  1.00  0.00     0.014 A 
ATOM     10  C   UNL A   1      39.846  24.701  26.453  1.00  0.00     0.010 A 
ATOM     11  C   UNL A   1      41.306  23.558  27.985  1.00  0.00     0.010 A 
ATOM     12  C   UNL A   1      40.865  24.763  27.411  1.00  0.00    -0.014 A 
BRANCH  12  13
ATOM     13  C   UNL A   1      41.494  26.067  27.779  1.00  0.00     0.031 A 
ATOM     14  C   UNL A   1      40.675  27.125  28.476  1.00  0.00     0.074 A 
ATOM     15  C   UNL A   1      42.787  26.328  27.496  1.00  0.00     0.049 A 
ATOM     16  N   UNL A   1      41.024  28.331  28.850  1.00  0.00    -0.248 NA
ATOM     17  C   UNL A   1      39.280  26.781  28.797  1.00  0.00     0.031 C 
ATOM     18  C   UNL A   1      43.708  25.409  26.829  1.00  0.00     0.029 A 
ATOM     19  N   UNL A   1      43.547  27.456  27.717  1.00  0.00    -0.354 N 
ATOM     20  C   UNL A   1      39.889  28.898  29.420  1.00  0.00     0.074 A 
ATOM     21  C   UNL A   1      38.837  27.907  29.339  1.00  0.00     0.031 C 
ATOM     22  C   UNL A   1      44.899  26.013  26.678  1.00  0.00     0.029 A 
ATOM     23  C   UNL A   1      44.825  27.373  27.211  1.00  0.00     0.049 A 
ATOM     24  H   UNL A   1      43.207  28.249  28.191  1.00  0.00     0.167 HD
ATOM     25  C   UNL A   1      39.737  30.122  29.979  1.00  0.00     0.034 A 
ATOM     26  C   UNL A   1      45.820  28.286  27.165  1.00  0.00     0.034 A 
ATOM     27  C   UNL A   1      40.781  31.102  30.104  1.00  0.00     0.049 A 
ATOM     28  C   UNL A   1      45.616  29.652  27.774  1.00  0.00     0.074 A 
ATOM     29  C   UNL A   1      40.719  32.347  30.711  1.00  0.00     0.029 A 
ATOM     30  N   UNL A   1      42.067  30.964  29.613  1.00  0.00    -0.354 N 
ATOM     31  N   UNL A   1      44.577  30.119  28.422  1.00  0.00    -0.248 NA
ATOM     32  C   UNL A   1      46.732  30.608  27.671  1.00  0.00     0.031 C 
ATOM     33  C   UNL A   1      41.961  32.968  30.569  1.00  0.00     0.029 A 
ATOM     34  C   UNL A   1      42.803  32.103  29.889  1.00  0.00     0.049 A 
ATOM     35  H   UNL A   1      42.408  30.172  29.136  1.00  0.00     0.167 HD
ATOM     36  C   UNL A   1      44.921  31.407  28.824  1.00  0.00     0.074 A 
ATOM     37  C   UNL A   1      46.274  31.642  28.369  1.00  0.00     0.031 C 
ATOM     38  C   UNL A   1      44.173  32.315  29.494  1.00  0.00     0.034 A 
BRANCH  25  39
ATOM     39  C   UNL A   1      38.392  30.474  30.560  1.00  0.00     0.023 A 
ATOM     40  C   UNL A   1      38.086  30.073  31.875  1.00  0.00     0.012 A 
ATOM     41  C   UNL A   1      37.493  31.298  29.856  1.00  0.00     0.148 A 
ATOM     42  C   UNL A   1      36.895  30.475  32.478  1.00  0.00     0.002 A 
ATOM     43  C   UNL A   1      36.325  31.725  30.477  1.00  0.00     0.091 A 
ATOM     44  F   UNL A   1      37.803  31.658  28.603  1.00  0.00    -0.205 F 
ATOM     45  C   UNL A   1      36.022  31.309  31.784  1.00  0.00     0.022 A 
BRANCH  43  46
ATOM     46  S   UNL A   1      35.169  32.861  29.701  1.00  0.00     0.127 S 
ATOM     47  O   UNL A   1      34.939  32.211  28.411  1.00  0.00    -0.237 OA
ATOM     48  O   UNL A   1      34.030  32.813  30.619  1.00  0.00    -0.237 OA
ATOM     49  O   UNL A   1      35.848  34.147  29.636  1.00  0.00    -0.744 OA
ENDBRANCH  43  46
ENDBRANCH  25  39
BRANCH  26  50
ATOM     50  C   UNL A   1      47.131  27.927  26.549  1.00  0.00     0.023 A 
ATOM     51  C   UNL A   1      48.225  27.615  27.381  1.00  0.00     0.012 A 
ATOM     52  C   UNL A   1      47.297  27.871  25.151  1.00  0.00     0.148 A 
ATOM     53  C   UNL A   1      49.462  27.273  26.834  1.00  0.00     0.002 A 
ATOM     54  C   UNL A   1      48.518  27.476  24.612  1.00  0.00     0.091 A 
ATOM     55  F   UNL A   1      46.256  28.201  24.374  1.00  0.00    -0.205 F 
ATOM     56  C   UNL A   1      49.605  27.191  25.452  1.00  0.00     0.022 A 
BRANCH  54  57
ATOM     57  S   UNL A   1      48.754  27.220  22.850  1.00  0.00     0.127 S 
ATOM     58  O   UNL A   1      50.199  27.382  22.714  1.00  0.00    -0.237 OA
ATOM     59  O   UNL A   1      48.271  25.849  22.675  1.00  0.00    -0.237 OA
ATOM     60  O   UNL A   1      47.937  28.230  22.195  1.00  0.00    -0.744 OA
ENDBRANCH  54  57
ENDBRANCH  26  50
BRANCH  38  61
ATOM     61  C   UNL A   1      44.776  33.660  29.809  1.00  0.00     0.023 A 
ATOM     62  C   UNL A   1      45.554  33.815  30.973  1.00  0.00     0.012 A 
ATOM     63  C   UNL A   1      44.694  34.724  28.886  1.00  0.00     0.148 A 
ATOM     64  C   UNL A   1      46.234  35.009  31.219  1.00  0.00     0.002 A 
ATOM     65  C   UNL A   1      45.409  35.896  29.117  1.00  0.00     0.091 A 
ATOM     66  F   UNL A   1      43.938  34.563  27.790  1.00  0.00    -0.205 F 
ATOM     67  C   UNL A   1      46.173  36.041  30.286  1.00  0.00     0.022 A 
BRANCH  65  68
ATOM     68  S   UNL A   1      45.474  37.241  27.926  1.00  0.00     0.127 S 
ATOM     69  O   UNL A   1      46.386  38.176  28.582  1.00  0.00    -0.237 OA
ATOM     70  O   UNL A   1      46.025  36.582  26.742  1.00  0.00    -0.237 OA
ATOM     71  O   UNL A   1      44.104  37.711  27.774  1.00  0.00    -0.744 OA
ENDBRANCH  65  68
ENDBRANCH  38  61
ENDBRANCH  12  13
ENDBRANCH   5   7
ENDBRANCH   2   3
ENDBRANCH   1   2
BRANCH   1  72
ATOM     72  C   UNL A   1      35.267  23.134  24.154  1.00  0.00     0.117 C 
BRANCH  72  73
ATOM     73  N   UNL A   1      34.741  23.331  22.811  1.00  0.00    -0.356 N 
ATOM     74  C   UNL A   1      33.465  23.408  22.333  1.00  0.00     0.223 C 
ATOM     75  H   UNL A   1      35.434  23.426  22.119  1.00  0.00     0.163 HD
ATOM     76  O   UNL A   1      33.297  24.059  21.295  1.00  0.00    -0.275 OA
BRANCH  74  77
ATOM     77  C   UNL A   1      32.301  22.665  22.989  1.00  0.00     0.091 C 
ATOM     78  C   UNL A   1      32.545  21.130  22.947  1.00  0.00     0.014 C 
ATOM     79  C   UNL A   1      31.831  23.178  24.382  1.00  0.00     0.091 C 
ATOM     80  C   UNL A   1      33.045  20.515  24.252  1.00  0.00     0.001 C 
ATOM     81  C   UNL A   1      32.045  22.294  25.631  1.00  0.00     0.014 C 
ATOM     82  C   UNL A   1      32.063  20.808  25.367  1.00  0.00     0.001 C 
BRANCH  79  83
ATOM     83  C   UNL A   1      32.148  24.610  24.827  1.00  0.00     0.226 C 
ATOM     84  O   UNL A   1      32.691  24.767  25.926  1.00  0.00    -0.275 OA
ATOM     85  N   UNL A   1      31.989  25.684  23.948  1.00  0.00    -0.340 N 
ATOM     86  C   UNL A   1      32.669  26.924  24.329  1.00  0.00     0.136 C 
ATOM     87  C   UNL A   1      30.848  25.808  23.037  1.00  0.00     0.136 C 
ATOM     88  C   UNL A   1      32.661  28.045  23.278  1.00  0.00     0.124 C 
ATOM     89  C   UNL A   1      30.898  26.955  22.027  1.00  0.00     0.124 C 
ATOM     90  N   UNL A   1      31.304  28.242  22.653  1.00  0.00    -0.194 NA
BRANCH  90  91
ATOM     91  S   UNL A   1      30.197  29.052  23.672  1.00  0.00     0.243 S 
ATOM     92  O   UNL A   1      29.079  28.171  23.916  1.00  0.00    -0.207 OA
ATOM     93  O   UNL A   1      30.959  29.588  24.779  1.00  0.00    -0.207 OA
BRANCH  91  94
ATOM     94  C   UNL A   1      29.531  30.421  22.756  1.00  0.00     0.082 A 
ATOM     95  C   UNL A   1      29.134  30.211  21.425  1.00  0.00     0.025 A 
ATOM     96  C   UNL A   1      29.163  31.592  23.426  1.00  0.00     0.025 A 
ATOM     97  C   UNL A   1      28.398  31.190  20.758  1.00  0.00     0.040 A 
ATOM     98  C   UNL A   1      28.416  32.563  22.755  1.00  0.00     0.040 A 
ATOM     99  C   UNL A   1      28.042  32.354  21.430  1.00  0.00     0.123 A 
ATOM    100  F   UNL A   1      27.301  33.274  20.798  1.00  0.00    -0.207 F 
ENDBRANCH  91  94
ENDBRANCH  90  91
ENDBRANCH  79  83
ENDBRANCH  74  77
ENDBRANCH  72  73
ENDBRANCH   1  72
TORSDOF 16
ENDMDL
MODEL 3
REMARK VINA RESULT:     -12.8      0.986      7.357
REMARK SMILES O=C(NCCCNC(=O)[C@H]1CCCC[C@H]1C(=O)N1CCN(S(=O)(=O)c2ccc(F)cc2)CC1)c1ccc(-c2c3nc(c(-c4cccc(S(=O)(=O)[O-])c4F)c4ccc([nH]4)c(-c4cccc(S(=O)(=O)[O-])c4F)c4nc(c(-c5cccc(S(=O)(=O)[O-])c5F)c5ccc2[nH]5)C=C4)C=C3)cc1
REMARK SMILES IDX 5 1 4 2 3 3 1 4 2 5 34 7 35 8 96 9 36 10 95 11 37 12 38 13
REMARK SMILES IDX 39 14 89 15 40 16 94 17 88 18 90 19 41 20 93 21 87 22 86 23
REMARK SMILES IDX 42 25 74 26 54 27 73 28 55 29 58 30 72 31 91 32 56 33 57 34
REMARK SMILES IDX 71 36 92 37 59 38 43 39 44 40 52 41 45 42 47 43 53 44 46 45
REMARK SMILES IDX 48 46 49 47 50 48 51 49 75 50 76 51 84 52 77 53 79 54 85 55
REMARK SMILES IDX 78 56 80 57 81 58 82 59 83 60 60 61 61 62 69 63 62 64 64 65
REMARK SMILES IDX 70 66 63 67 65 68 66 69 67 70 68 71 6 72 7 73 8 74 9 76
REMARK SMILES IDX 10 77 11 78 15 79 12 80 14 81 13 82 16 83 17 84 18 85 19 86
REMARK SMILES IDX 33 87 20 88 32 89 21 90 22 91 23 92 24 93 25 94 26 95 31 96
REMARK SMILES IDX 27 97 30 98 28 99 29 100
REMARK H PARENT 3 6 90 24 58 35 7 75
REMARK Flexibility Score: inf
ROOT
ATOM      1  C   UNL A   1      38.133  21.643  26.125  1.00  0.00     0.042 C 
ENDROOT
BRANCH   1   2
ATOM      2  C   UNL A   1      38.627  20.523  25.201  1.00  0.00     0.118 C 
BRANCH   2   3
ATOM      3  N   UNL A   1      39.643  19.649  25.768  1.00  0.00    -0.352 N 
ATOM      4  O   UNL A   1      41.538  19.034  26.804  1.00  0.00    -0.269 OA
ATOM      5  C   UNL A   1      40.811  19.960  26.441  1.00  0.00     0.251 C 
ATOM      6  H   UNL A   1      39.470  18.685  25.656  1.00  0.00     0.163 HD
BRANCH   5   7
ATOM      7  C   UNL A   1      41.240  21.363  26.714  1.00  0.00     0.039 A 
ATOM      8  C   UNL A   1      41.516  22.265  25.689  1.00  0.00     0.014 A 
ATOM      9  C   UNL A   1      41.258  21.837  28.029  1.00  0.00     0.014 A 
ATOM     10  C   UNL A   1      41.919  23.584  25.958  1.00  0.00     0.010 A 
ATOM     11  C   UNL A   1      41.629  23.166  28.308  1.00  0.00     0.010 A 
ATOM     12  C   UNL A   1      42.001  24.045  27.276  1.00  0.00    -0.014 A 
BRANCH  12  13
ATOM     13  C   UNL A   1      42.511  25.416  27.580  1.00  0.00     0.031 A 
ATOM     14  C   UNL A   1      41.606  26.421  28.249  1.00  0.00     0.074 A 
ATOM     15  C   UNL A   1      43.769  25.784  27.262  1.00  0.00     0.049 A 
ATOM     16  N   UNL A   1      41.846  27.669  28.569  1.00  0.00    -0.248 NA
ATOM     17  C   UNL A   1      40.255  25.962  28.611  1.00  0.00     0.031 C 
ATOM     18  C   UNL A   1      44.762  24.928  26.614  1.00  0.00     0.029 A 
ATOM     19  N   UNL A   1      44.423  26.987  27.422  1.00  0.00    -0.354 N 
ATOM     20  C   UNL A   1      40.673  28.151  29.136  1.00  0.00     0.074 A 
ATOM     21  C   UNL A   1      39.717  27.064  29.116  1.00  0.00     0.031 C 
ATOM     22  C   UNL A   1      45.889  25.634  26.416  1.00  0.00     0.029 A 
ATOM     23  C   UNL A   1      45.695  27.003  26.896  1.00  0.00     0.049 A 
ATOM     24  H   UNL A   1      44.017  27.764  27.871  1.00  0.00     0.167 HD
ATOM     25  C   UNL A   1      40.414  29.378  29.649  1.00  0.00     0.034 A 
ATOM     26  C   UNL A   1      46.599  28.001  26.795  1.00  0.00     0.034 A 
ATOM     27  C   UNL A   1      41.363  30.456  29.715  1.00  0.00     0.049 A 
ATOM     28  C   UNL A   1      46.277  29.366  27.352  1.00  0.00     0.074 A 
ATOM     29  C   UNL A   1      41.194  31.713  30.273  1.00  0.00     0.029 A 
ATOM     30  N   UNL A   1      42.649  30.417  29.204  1.00  0.00    -0.354 N 
ATOM     31  N   UNL A   1      45.209  29.761  28.000  1.00  0.00    -0.248 NA
ATOM     32  C   UNL A   1      47.296  30.418  27.190  1.00  0.00     0.031 C 
ATOM     33  C   UNL A   1      42.370  32.440  30.081  1.00  0.00     0.029 A 
ATOM     34  C   UNL A   1      43.279  31.631  29.421  1.00  0.00     0.049 A 
ATOM     35  H   UNL A   1      43.056  29.641  28.754  1.00  0.00     0.167 HD
ATOM     36  C   UNL A   1      45.436  31.091  28.344  1.00  0.00     0.074 A 
ATOM     37  C   UNL A   1      46.754  31.432  27.854  1.00  0.00     0.031 C 
ATOM     38  C   UNL A   1      44.616  31.953  28.992  1.00  0.00     0.034 A 
BRANCH  25  39
ATOM     39  C   UNL A   1      39.052  29.627  30.241  1.00  0.00     0.023 A 
ATOM     40  C   UNL A   1      38.783  29.192  31.554  1.00  0.00     0.012 A 
ATOM     41  C   UNL A   1      38.091  30.390  29.550  1.00  0.00     0.148 A 
ATOM     42  C   UNL A   1      37.571  29.502  32.167  1.00  0.00     0.002 A 
ATOM     43  C   UNL A   1      36.899  30.726  30.182  1.00  0.00     0.091 A 
ATOM     44  F   UNL A   1      38.366  30.784  28.299  1.00  0.00    -0.205 F 
ATOM     45  C   UNL A   1      36.635  30.278  31.487  1.00  0.00     0.022 A 
BRANCH  43  46
ATOM     46  S   UNL A   1      35.660  31.784  29.425  1.00  0.00     0.127 S 
ATOM     47  O   UNL A   1      34.790  32.079  30.563  1.00  0.00    -0.237 OA
ATOM     48  O   UNL A   1      36.464  32.916  28.963  1.00  0.00    -0.237 OA
ATOM     49  O   UNL A   1      35.049  30.995  28.365  1.00  0.00    -0.744 OA
ENDBRANCH  43  46
ENDBRANCH  25  39
BRANCH  26  50
ATOM     50  C   UNL A   1      47.929  27.741  26.169  1.00  0.00     0.023 A 
ATOM     51  C   UNL A   1      49.036  27.451  26.990  1.00  0.00     0.012 A 
ATOM     52  C   UNL A   1      48.100  27.757  24.770  1.00  0.00     0.148 A 
ATOM     53  C   UNL A   1      50.291  27.200  26.433  1.00  0.00     0.002 A 
ATOM     54  C   UNL A   1      49.341  27.452  24.219  1.00  0.00     0.091 A 
ATOM     55  F   UNL A   1      47.044  28.066  24.004  1.00  0.00    -0.205 F 
ATOM     56  C   UNL A   1      50.440  27.188  25.049  1.00  0.00     0.022 A 
BRANCH  54  57
ATOM     57  S   UNL A   1      49.593  27.289  22.447  1.00  0.00     0.127 S 
ATOM     58  O   UNL A   1      48.695  26.184  22.118  1.00  0.00    -0.237 OA
ATOM     59  O   UNL A   1      49.160  28.599  21.958  1.00  0.00    -0.237 OA
ATOM     60  O   UNL A   1      51.014  27.025  22.277  1.00  0.00    -0.744 OA
ENDBRANCH  54  57
ENDBRANCH  26  50
BRANCH  38  61
ATOM     61  C   UNL A   1      45.095  33.361  29.240  1.00  0.00     0.023 A 
ATOM     62  C   UNL A   1      45.834  33.645  30.405  1.00  0.00     0.012 A 
ATOM     63  C   UNL A   1      44.940  34.362  28.259  1.00  0.00     0.148 A 
ATOM     64  C   UNL A   1      46.403  34.905  30.595  1.00  0.00     0.002 A 
ATOM     65  C   UNL A   1      45.547  35.602  28.436  1.00  0.00     0.091 A 
ATOM     66  F   UNL A   1      44.223  34.077  27.163  1.00  0.00    -0.205 F 
ATOM     67  C   UNL A   1      46.272  35.876  29.607  1.00  0.00     0.022 A 
BRANCH  65  68
ATOM     68  S   UNL A   1      45.519  36.882  27.174  1.00  0.00     0.127 S 
ATOM     69  O   UNL A   1      46.270  37.956  27.821  1.00  0.00    -0.237 OA
ATOM     70  O   UNL A   1      46.216  36.237  26.060  1.00  0.00    -0.237 OA
ATOM     71  O   UNL A   1      44.114  37.170  26.922  1.00  0.00    -0.744 OA
ENDBRANCH  65  68
ENDBRANCH  38  61
ENDBRANCH  12  13
ENDBRANCH   5   7
ENDBRANCH   2   3
ENDBRANCH   1   2
BRANCH   1  72
ATOM     72  C   UNL A   1      37.596  22.942  25.507  1.00  0.00     0.117 C 
BRANCH  72  73
ATOM     73  N   UNL A   1      36.245  23.363  25.848  1.00  0.00    -0.356 N 
ATOM     74  C   UNL A   1      35.050  22.705  25.820  1.00  0.00     0.223 C 
ATOM     75  H   UNL A   1      36.182  24.295  26.157  1.00  0.00     0.163 HD
ATOM     76  O   UNL A   1      34.179  23.098  26.605  1.00  0.00    -0.275 OA
BRANCH  74  77
ATOM     77  C   UNL A   1      34.755  21.588  24.819  1.00  0.00     0.091 C 
ATOM     78  C   UNL A   1      34.113  20.369  25.541  1.00  0.00     0.014 C 
ATOM     79  C   UNL A   1      34.017  21.989  23.509  1.00  0.00     0.091 C 
ATOM     80  C   UNL A   1      32.598  20.249  25.391  1.00  0.00     0.001 C 
ATOM     81  C   UNL A   1      32.574  21.491  23.264  1.00  0.00     0.014 C 
ATOM     82  C   UNL A   1      32.232  20.177  23.923  1.00  0.00     0.001 C 
BRANCH  79  83
ATOM     83  C   UNL A   1      34.044  23.442  23.020  1.00  0.00     0.226 C 
ATOM     84  O   UNL A   1      35.135  23.920  22.689  1.00  0.00    -0.275 OA
ATOM     85  N   UNL A   1      32.857  24.141  22.789  1.00  0.00    -0.340 N 
ATOM     86  C   UNL A   1      32.980  25.352  21.975  1.00  0.00     0.136 C 
ATOM     87  C   UNL A   1      31.695  24.056  23.678  1.00  0.00     0.136 C 
ATOM     88  C   UNL A   1      31.660  26.017  21.556  1.00  0.00     0.124 C 
ATOM     89  C   UNL A   1      30.418  24.754  23.207  1.00  0.00     0.124 C 
ATOM     90  N   UNL A   1      30.680  26.126  22.697  1.00  0.00    -0.194 NA
BRANCH  90  91
ATOM     91  S   UNL A   1      31.067  27.363  23.810  1.00  0.00     0.243 S 
ATOM     92  O   UNL A   1      30.719  26.905  25.135  1.00  0.00    -0.207 OA
ATOM     93  O   UNL A   1      32.418  27.788  23.516  1.00  0.00    -0.207 OA
BRANCH  91  94
ATOM     94  C   UNL A   1      29.983  28.733  23.483  1.00  0.00     0.082 A 
ATOM     95  C   UNL A   1      28.693  28.470  22.995  1.00  0.00     0.025 A 
ATOM     96  C   UNL A   1      30.311  30.007  23.959  1.00  0.00     0.025 A 
ATOM     97  C   UNL A   1      27.746  29.492  22.951  1.00  0.00     0.040 A 
ATOM     98  C   UNL A   1      29.353  31.023  23.921  1.00  0.00     0.040 A 
ATOM     99  C   UNL A   1      28.082  30.757  23.419  1.00  0.00     0.123 A 
ATOM    100  F   UNL A   1      27.156  31.725  23.412  1.00  0.00    -0.207 F 
ENDBRANCH  91  94
ENDBRANCH  90  91
ENDBRANCH  79  83
ENDBRANCH  74  77
ENDBRANCH  72  73
ENDBRANCH   1  72
TORSDOF 16
ENDMDL
