MODEL 1
REMARK VINA RESULT:     -10.9      0.000      0.000
REMARK SMILES CCc1ccc(C(=O)N[C@H](C(=O)NCCCNC(=O)c2ccc(-c3c4nc(c(-c5cccc(S(=O)(=O)[O-])c5F)c5ccc([nH]5)c(-c5cccc(S(=O)(=O)[O-])c5F)c5nc(c(-c6cccc(S(=O)(=O)[O-])c6F)c6ccc3[nH]6)C=C5)C=C4)cc2)[C@H](C)CC)o1
REMARK SMILES IDX 15 1 14 2 13 3 11 4 12 5 10 7 9 8 7 9 8 10 6 12 3 13 4 14
REMARK SMILES IDX 87 15 5 16 2 17 1 18 83 19 84 20 85 21 86 22 16 23 17 24
REMARK SMILES IDX 18 25 19 27 20 28 21 29 82 30 22 31 81 32 23 33 24 34 25 35
REMARK SMILES IDX 75 36 26 37 80 38 74 39 76 40 27 41 79 42 73 43 72 44 28 46
REMARK SMILES IDX 60 47 40 48 59 49 41 50 44 51 58 52 77 53 42 54 43 55 57 57
REMARK SMILES IDX 78 58 45 59 29 60 30 61 38 62 31 63 33 64 39 65 32 66 34 67
REMARK SMILES IDX 35 68 36 69 37 70 61 71 62 72 70 73 63 74 65 75 71 76 64 77
REMARK SMILES IDX 66 78 67 79 68 80 69 81 46 82 47 83 55 84 48 85 50 86 56 87
REMARK SMILES IDX 49 88 51 89 52 90 53 91 54 92
REMARK H PARENT 13 6 9 11 17 26 76 45 44 56
REMARK Flexibility Score: inf
ROOT
ATOM      1  C   UNL A   1      31.771  28.539  26.732  1.00  0.00     0.042 C 
ENDROOT
BRANCH   1   2
ATOM      2  C   UNL A   1      31.712  27.127  26.154  1.00  0.00     0.117 C 
BRANCH   2   3
ATOM      3  N   UNL A   1      33.056  26.615  25.936  1.00  0.00    -0.354 N 
ATOM      4  C   UNL A   1      33.495  25.481  25.312  1.00  0.00     0.242 C 
ATOM      5  O   UNL A   1      34.674  25.162  25.480  1.00  0.00    -0.273 OA
ATOM      6  H   UNL A   1      33.774  27.182  26.300  1.00  0.00     0.163 HD
BRANCH   4   7
ATOM      7  C   UNL A   1      32.550  24.675  24.386  1.00  0.00     0.174 C 
BRANCH   7   8
ATOM      8  N   UNL A   1      33.013  24.879  22.999  1.00  0.00    -0.337 N 
ATOM      9  C   UNL A   1      32.793  25.877  22.076  1.00  0.00     0.287 C 
ATOM     10  O   UNL A   1      33.264  25.673  20.954  1.00  0.00    -0.266 OA
ATOM     11  H   UNL A   1      33.593  24.157  22.668  1.00  0.00     0.164 HD
BRANCH   9  12
ATOM     12  C   UNL A   1      32.107  27.105  22.423  1.00  0.00     0.191 A 
ATOM     13  C   UNL A   1      30.276  28.277  22.859  1.00  0.00     0.104 A 
ATOM     14  C   UNL A   1      31.324  29.168  22.895  1.00  0.00     0.046 A 
ATOM     15  O   UNL A   1      30.744  27.027  22.592  1.00  0.00    -0.456 OA
ATOM     16  C   UNL A   1      32.500  28.410  22.660  1.00  0.00     0.056 A 
BRANCH  13  17
ATOM     17  C   UNL A   1      28.813  28.409  23.089  1.00  0.00     0.072 C 
ATOM     18  C   UNL A   1      28.176  29.475  22.213  1.00  0.00     0.012 C 
ENDBRANCH  13  17
ENDBRANCH   9  12
ENDBRANCH   7   8
BRANCH   7  19
ATOM     19  C   UNL A   1      32.599  23.156  24.795  1.00  0.00     0.018 C 
ATOM     20  C   UNL A   1      33.006  22.230  23.639  1.00  0.00     0.010 C 
BRANCH  19  21
ATOM     21  C   UNL A   1      31.244  22.680  25.355  1.00  0.00     0.002 C 
ATOM     22  C   UNL A   1      30.886  23.218  26.734  1.00  0.00     0.004 C 
ENDBRANCH  19  21
ENDBRANCH   7  19
ENDBRANCH   4   7
ENDBRANCH   2   3
ENDBRANCH   1   2
BRANCH   1  23
ATOM     23  C   UNL A   1      32.875  29.386  26.127  1.00  0.00     0.118 C 
BRANCH  23  24
ATOM     24  N   UNL A   1      32.622  30.805  26.288  1.00  0.00    -0.352 N 
ATOM     25  C   UNL A   1      33.258  31.694  27.121  1.00  0.00     0.251 C 
ATOM     26  H   UNL A   1      31.903  31.178  25.729  1.00  0.00     0.163 HD
ATOM     27  O   UNL A   1      32.778  32.812  27.286  1.00  0.00    -0.269 OA
BRANCH  25  28
ATOM     28  C   UNL A   1      34.498  31.297  27.829  1.00  0.00     0.039 A 
ATOM     29  C   UNL A   1      34.585  30.009  28.362  1.00  0.00     0.014 A 
ATOM     30  C   UNL A   1      35.566  32.187  27.982  1.00  0.00     0.014 A 
ATOM     31  C   UNL A   1      35.749  29.609  29.022  1.00  0.00     0.010 A 
ATOM     32  C   UNL A   1      36.760  31.754  28.551  1.00  0.00     0.010 A 
ATOM     33  C   UNL A   1      36.854  30.471  29.108  1.00  0.00    -0.014 A 
BRANCH  33  34
ATOM     34  C   UNL A   1      38.094  30.057  29.812  1.00  0.00     0.031 A 
ATOM     35  C   UNL A   1      38.375  30.553  31.208  1.00  0.00     0.074 A 
ATOM     36  C   UNL A   1      38.989  29.270  29.183  1.00  0.00     0.049 A 
ATOM     37  N   UNL A   1      39.390  30.286  31.988  1.00  0.00    -0.248 NA
ATOM     38  C   UNL A   1      37.403  31.492  31.794  1.00  0.00     0.031 C 
ATOM     39  C   UNL A   1      38.870  28.788  27.805  1.00  0.00     0.029 A 
ATOM     40  N   UNL A   1      40.179  28.742  29.617  1.00  0.00    -0.354 N 
ATOM     41  C   UNL A   1      39.193  31.041  33.139  1.00  0.00     0.074 A 
ATOM     42  C   UNL A   1      37.992  31.818  32.934  1.00  0.00     0.031 C 
ATOM     43  C   UNL A   1      39.929  28.014  27.517  1.00  0.00     0.029 A 
ATOM     44  C   UNL A   1      40.814  27.966  28.677  1.00  0.00     0.049 A 
ATOM     45  H   UNL A   1      40.543  28.905  30.517  1.00  0.00     0.167 HD
ATOM     46  C   UNL A   1      39.922  31.059  34.282  1.00  0.00     0.034 A 
ATOM     47  C   UNL A   1      41.974  27.283  28.747  1.00  0.00     0.034 A 
ATOM     48  C   UNL A   1      41.094  30.257  34.496  1.00  0.00     0.049 A 
ATOM     49  C   UNL A   1      42.751  27.296  30.035  1.00  0.00     0.074 A 
ATOM     50  C   UNL A   1      41.864  30.143  35.639  1.00  0.00     0.029 A 
ATOM     51  N   UNL A   1      41.673  29.433  33.541  1.00  0.00    -0.354 N 
ATOM     52  N   UNL A   1      42.466  27.895  31.165  1.00  0.00    -0.248 NA
ATOM     53  C   UNL A   1      43.989  26.504  30.070  1.00  0.00     0.031 C 
ATOM     54  C   UNL A   1      42.923  29.270  35.367  1.00  0.00     0.029 A 
ATOM     55  C   UNL A   1      42.793  28.814  34.065  1.00  0.00     0.049 A 
ATOM     56  H   UNL A   1      41.335  29.309  32.624  1.00  0.00     0.167 HD
ATOM     57  C   UNL A   1      43.464  27.519  32.059  1.00  0.00     0.074 A 
ATOM     58  C   UNL A   1      44.351  26.628  31.340  1.00  0.00     0.031 C 
ATOM     59  C   UNL A   1      43.636  27.887  33.353  1.00  0.00     0.034 A 
BRANCH  46  60
ATOM     60  C   UNL A   1      39.432  31.938  35.406  1.00  0.00     0.023 A 
ATOM     61  C   UNL A   1      38.507  31.423  36.339  1.00  0.00     0.012 A 
ATOM     62  C   UNL A   1      39.907  33.254  35.563  1.00  0.00     0.148 A 
ATOM     63  C   UNL A   1      38.028  32.217  37.381  1.00  0.00     0.002 A 
ATOM     64  C   UNL A   1      39.462  34.023  36.633  1.00  0.00     0.091 A 
ATOM     65  F   UNL A   1      40.771  33.736  34.657  1.00  0.00    -0.205 F 
ATOM     66  C   UNL A   1      38.512  33.512  37.532  1.00  0.00     0.022 A 
BRANCH  64  67
ATOM     67  S   UNL A   1      40.087  35.674  36.965  1.00  0.00     0.127 S 
ATOM     68  O   UNL A   1      39.629  36.405  35.785  1.00  0.00    -0.237 OA
ATOM     69  O   UNL A   1      39.394  36.023  38.206  1.00  0.00    -0.237 OA
ATOM     70  O   UNL A   1      41.531  35.536  37.096  1.00  0.00    -0.744 OA
ENDBRANCH  64  67
ENDBRANCH  46  60
BRANCH  47  71
ATOM     71  C   UNL A   1      42.423  26.459  27.588  1.00  0.00     0.023 A 
ATOM     72  C   UNL A   1      43.279  27.031  26.626  1.00  0.00     0.012 A 
ATOM     73  C   UNL A   1      42.038  25.112  27.449  1.00  0.00     0.148 A 
ATOM     74  C   UNL A   1      43.717  26.288  25.530  1.00  0.00     0.002 A 
ATOM     75  C   UNL A   1      42.523  24.360  26.385  1.00  0.00     0.091 A 
ATOM     76  F   UNL A   1      41.217  24.589  28.371  1.00  0.00    -0.205 F 
ATOM     77  C   UNL A   1      43.347  24.950  25.415  1.00  0.00     0.022 A 
BRANCH  75  78
ATOM     78  S   UNL A   1      42.206  22.599  26.224  1.00  0.00     0.127 S 
ATOM     79  O   UNL A   1      42.854  22.294  24.951  1.00  0.00    -0.237 OA
ATOM     80  O   UNL A   1      42.883  22.063  27.406  1.00  0.00    -0.237 OA
ATOM     81  O   UNL A   1      40.757  22.455  26.247  1.00  0.00    -0.744 OA
ENDBRANCH  75  78
ENDBRANCH  47  71
BRANCH  59  82
ATOM     82  C   UNL A   1      44.802  27.293  34.098  1.00  0.00     0.023 A 
ATOM     83  C   UNL A   1      46.031  27.978  34.146  1.00  0.00     0.012 A 
ATOM     84  C   UNL A   1      44.652  26.088  34.813  1.00  0.00     0.148 A 
ATOM     85  C   UNL A   1      47.105  27.455  34.866  1.00  0.00     0.002 A 
ATOM     86  C   UNL A   1      45.711  25.600  35.570  1.00  0.00     0.091 A 
ATOM     87  F   UNL A   1      43.480  25.442  34.740  1.00  0.00    -0.205 F 
ATOM     88  C   UNL A   1      46.942  26.275  35.587  1.00  0.00     0.022 A 
BRANCH  86  89
ATOM     89  S   UNL A   1      45.559  24.142  36.609  1.00  0.00     0.127 S 
ATOM     90  O   UNL A   1      44.561  24.576  37.586  1.00  0.00    -0.237 OA
ATOM     91  O   UNL A   1      45.085  23.134  35.660  1.00  0.00    -0.237 OA
ATOM     92  O   UNL A   1      46.889  23.889  37.144  1.00  0.00    -0.744 OA
ENDBRANCH  86  89
ENDBRANCH  59  82
ENDBRANCH  33  34
ENDBRANCH  25  28
ENDBRANCH  23  24
ENDBRANCH   1  23
TORSDOF 18
ENDMDL
MODEL 2
REMARK VINA RESULT:     -10.6      2.824      4.218
REMARK SMILES CCc1ccc(C(=O)N[C@H](C(=O)NCCCNC(=O)c2ccc(-c3c4nc(c(-c5cccc(S(=O)(=O)[O-])c5F)c5ccc([nH]5)c(-c5cccc(S(=O)(=O)[O-])c5F)c5nc(c(-c6cccc(S(=O)(=O)[O-])c6F)c6ccc3[nH]6)C=C5)C=C4)cc2)[C@H](C)CC)o1
REMARK SMILES IDX 15 1 14 2 13 3 11 4 12 5 10 7 9 8 7 9 8 10 6 12 3 13 4 14
REMARK SMILES IDX 87 15 5 16 2 17 1 18 83 19 84 20 85 21 86 22 16 23 17 24
REMARK SMILES IDX 18 25 19 27 20 28 21 29 82 30 22 31 81 32 23 33 24 34 25 35
REMARK SMILES IDX 75 36 26 37 80 38 74 39 76 40 27 41 79 42 73 43 72 44 28 46
REMARK SMILES IDX 60 47 40 48 59 49 41 50 44 51 58 52 77 53 42 54 43 55 57 57
REMARK SMILES IDX 78 58 45 59 29 60 30 61 38 62 31 63 33 64 39 65 32 66 34 67
REMARK SMILES IDX 35 68 36 69 37 70 61 71 62 72 70 73 63 74 65 75 71 76 64 77
REMARK SMILES IDX 66 78 67 79 68 80 69 81 46 82 47 83 55 84 48 85 50 86 56 87
REMARK SMILES IDX 49 88 51 89 52 90 53 91 54 92
REMARK H PARENT 13 6 9 11 17 26 76 45 44 56
REMARK Flexibility Score: inf
ROOT
ATOM      1  C   UNL A   1      32.807  27.442  26.779  1.00  0.00     0.042 C 
ENDROOT
BRANCH   1   2
ATOM      2  C   UNL A   1      32.907  26.132  26.002  1.00  0.00     0.117 C 
BRANCH   2   3
ATOM      3  N   UNL A   1      31.721  25.940  25.182  1.00  0.00    -0.354 N 
ATOM      4  C   UNL A   1      31.295  26.583  24.055  1.00  0.00     0.242 C 
ATOM      5  O   UNL A   1      30.131  26.387  23.696  1.00  0.00    -0.273 OA
ATOM      6  H   UNL A   1      31.122  25.222  25.492  1.00  0.00     0.163 HD
BRANCH   4   7
ATOM      7  C   UNL A   1      32.267  27.472  23.239  1.00  0.00     0.174 C 
BRANCH   7   8
ATOM      8  N   UNL A   1      32.346  26.905  21.878  1.00  0.00    -0.337 N 
ATOM      9  C   UNL A   1      32.825  25.710  21.389  1.00  0.00     0.287 C 
ATOM     10  O   UNL A   1      32.827  25.605  20.160  1.00  0.00    -0.266 OA
ATOM     11  H   UNL A   1      31.985  27.499  21.183  1.00  0.00     0.164 HD
BRANCH   9  12
ATOM     12  C   UNL A   1      33.242  24.634  22.265  1.00  0.00     0.191 A 
ATOM     13  C   UNL A   1      34.695  23.661  23.628  1.00  0.00     0.104 A 
ATOM     14  C   UNL A   1      33.638  22.788  23.502  1.00  0.00     0.046 A 
ATOM     15  O   UNL A   1      34.455  24.784  22.898  1.00  0.00    -0.456 OA
ATOM     16  C   UNL A   1      32.689  23.431  22.667  1.00  0.00     0.056 A 
BRANCH  13  17
ATOM     17  C   UNL A   1      35.963  23.626  24.405  1.00  0.00     0.072 C 
ATOM     18  C   UNL A   1      35.731  23.439  25.895  1.00  0.00     0.012 C 
ENDBRANCH  13  17
ENDBRANCH   9  12
ENDBRANCH   7   8
BRANCH   7  19
ATOM     19  C   UNL A   1      31.722  28.948  23.219  1.00  0.00     0.018 C 
ATOM     20  C   UNL A   1      31.017  29.352  24.522  1.00  0.00     0.010 C 
BRANCH  19  21
ATOM     21  C   UNL A   1      30.754  29.176  22.042  1.00  0.00     0.002 C 
ATOM     22  C   UNL A   1      29.298  29.395  22.432  1.00  0.00     0.004 C 
ENDBRANCH  19  21
ENDBRANCH   7  19
ENDBRANCH   4   7
ENDBRANCH   2   3
ENDBRANCH   1   2
BRANCH   1  23
ATOM     23  C   UNL A   1      33.992  28.362  26.553  1.00  0.00     0.118 C 
BRANCH  23  24
ATOM     24  N   UNL A   1      33.717  29.719  26.986  1.00  0.00    -0.352 N 
ATOM     25  C   UNL A   1      34.463  30.514  27.823  1.00  0.00     0.251 C 
ATOM     26  H   UNL A   1      32.891  30.122  26.635  1.00  0.00     0.163 HD
ATOM     27  O   UNL A   1      33.979  31.557  28.252  1.00  0.00    -0.269 OA
BRANCH  25  28
ATOM     28  C   UNL A   1      35.830  30.101  28.220  1.00  0.00     0.039 A 
ATOM     29  C   UNL A   1      36.013  29.484  29.460  1.00  0.00     0.014 A 
ATOM     30  C   UNL A   1      36.931  30.330  27.388  1.00  0.00     0.014 A 
ATOM     31  C   UNL A   1      37.290  29.076  29.849  1.00  0.00     0.010 A 
ATOM     32  C   UNL A   1      38.184  29.834  27.734  1.00  0.00     0.010 A 
ATOM     33  C   UNL A   1      38.385  29.231  28.983  1.00  0.00    -0.014 A 
BRANCH  33  34
ATOM     34  C   UNL A   1      39.749  28.805  29.390  1.00  0.00     0.031 A 
ATOM     35  C   UNL A   1      40.475  29.536  30.490  1.00  0.00     0.074 A 
ATOM     36  C   UNL A   1      40.352  27.788  28.744  1.00  0.00     0.049 A 
ATOM     37  N   UNL A   1      41.657  29.299  30.996  1.00  0.00    -0.248 NA
ATOM     38  C   UNL A   1      39.796  30.702  31.082  1.00  0.00     0.031 C 
ATOM     39  C   UNL A   1      39.786  27.051  27.612  1.00  0.00     0.029 A 
ATOM     40  N   UNL A   1      41.576  27.202  28.941  1.00  0.00    -0.354 N 
ATOM     41  C   UNL A   1      41.873  30.297  31.940  1.00  0.00     0.074 A 
ATOM     42  C   UNL A   1      40.725  31.173  31.900  1.00  0.00     0.031 C 
ATOM     43  C   UNL A   1      40.650  26.095  27.233  1.00  0.00     0.029 A 
ATOM     44  C   UNL A   1      41.840  26.167  28.075  1.00  0.00     0.049 A 
ATOM     45  H   UNL A   1      42.208  27.497  29.637  1.00  0.00     0.167 HD
ATOM     46  C   UNL A   1      42.915  30.451  32.794  1.00  0.00     0.034 A 
ATOM     47  C   UNL A   1      42.914  25.360  27.979  1.00  0.00     0.034 A 
ATOM     48  C   UNL A   1      44.037  29.556  32.857  1.00  0.00     0.049 A 
ATOM     49  C   UNL A   1      44.045  25.532  28.957  1.00  0.00     0.074 A 
ATOM     50  C   UNL A   1      45.108  29.577  33.733  1.00  0.00     0.029 A 
ATOM     51  N   UNL A   1      44.238  28.480  32.005  1.00  0.00    -0.354 N 
ATOM     52  N   UNL A   1      44.161  26.387  29.944  1.00  0.00    -0.248 NA
ATOM     53  C   UNL A   1      45.176  24.601  28.832  1.00  0.00     0.031 C 
ATOM     54  C   UNL A   1      45.970  28.529  33.393  1.00  0.00     0.029 A 
ATOM     55  C   UNL A   1      45.418  27.834  32.327  1.00  0.00     0.049 A 
ATOM     56  H   UNL A   1      43.630  28.216  31.277  1.00  0.00     0.167 HD
ATOM     57  C   UNL A   1      45.354  26.071  30.585  1.00  0.00     0.074 A 
ATOM     58  C   UNL A   1      45.915  24.935  29.882  1.00  0.00     0.031 C 
ATOM     59  C   UNL A   1      45.937  26.672  31.652  1.00  0.00     0.034 A 
BRANCH  46  60
ATOM     60  C   UNL A   1      42.853  31.604  33.766  1.00  0.00     0.023 A 
ATOM     61  C   UNL A   1      43.260  32.888  33.348  1.00  0.00     0.012 A 
ATOM     62  C   UNL A   1      42.365  31.429  35.075  1.00  0.00     0.148 A 
ATOM     63  C   UNL A   1      43.226  33.969  34.229  1.00  0.00     0.002 A 
ATOM     64  C   UNL A   1      42.288  32.521  35.933  1.00  0.00     0.091 A 
ATOM     65  F   UNL A   1      42.001  30.197  35.465  1.00  0.00    -0.205 F 
ATOM     66  C   UNL A   1      42.732  33.787  35.517  1.00  0.00     0.022 A 
BRANCH  64  67
ATOM     67  S   UNL A   1      41.589  32.408  37.584  1.00  0.00     0.127 S 
ATOM     68  O   UNL A   1      41.793  33.767  38.083  1.00  0.00    -0.237 OA
ATOM     69  O   UNL A   1      40.193  32.064  37.306  1.00  0.00    -0.237 OA
ATOM     70  O   UNL A   1      42.344  31.368  38.268  1.00  0.00    -0.744 OA
ENDBRANCH  64  67
ENDBRANCH  46  60
BRANCH  47  71
ATOM     71  C   UNL A   1      42.931  24.258  26.974  1.00  0.00     0.023 A 
ATOM     72  C   UNL A   1      43.681  24.416  25.791  1.00  0.00     0.012 A 
ATOM     73  C   UNL A   1      42.240  23.051  27.192  1.00  0.00     0.148 A 
ATOM     74  C   UNL A   1      43.717  23.406  24.831  1.00  0.00     0.002 A 
ATOM     75  C   UNL A   1      42.325  22.026  26.257  1.00  0.00     0.091 A 
ATOM     76  F   UNL A   1      41.526  22.924  28.320  1.00  0.00    -0.205 F 
ATOM     77  C   UNL A   1      43.047  22.208  25.068  1.00  0.00     0.022 A 
BRANCH  75  78
ATOM     78  S   UNL A   1      41.605  20.404  26.535  1.00  0.00     0.127 S 
ATOM     79  O   UNL A   1      42.197  20.029  27.816  1.00  0.00    -0.237 OA
ATOM     80  O   UNL A   1      40.176  20.714  26.583  1.00  0.00    -0.237 OA
ATOM     81  O   UNL A   1      42.005  19.595  25.392  1.00  0.00    -0.744 OA
ENDBRANCH  75  78
ENDBRANCH  47  71
BRANCH  59  82
ATOM     82  C   UNL A   1      47.229  26.090  32.161  1.00  0.00     0.023 A 
ATOM     83  C   UNL A   1      47.219  25.190  33.244  1.00  0.00     0.012 A 
ATOM     84  C   UNL A   1      48.447  26.382  31.514  1.00  0.00     0.148 A 
ATOM     85  C   UNL A   1      48.406  24.616  33.698  1.00  0.00     0.002 A 
ATOM     86  C   UNL A   1      49.618  25.766  31.939  1.00  0.00     0.091 A 
ATOM     87  F   UNL A   1      48.438  27.255  30.497  1.00  0.00    -0.205 F 
ATOM     88  C   UNL A   1      49.602  24.894  33.039  1.00  0.00     0.022 A 
BRANCH  86  89
ATOM     89  S   UNL A   1      51.184  25.987  31.089  1.00  0.00     0.127 S 
ATOM     90  O   UNL A   1      52.061  25.092  31.843  1.00  0.00    -0.237 OA
ATOM     91  O   UNL A   1      50.868  25.532  29.734  1.00  0.00    -0.237 OA
ATOM     92  O   UNL A   1      51.501  27.405  31.191  1.00  0.00    -0.744 OA
ENDBRANCH  86  89
ENDBRANCH  59  82
ENDBRANCH  33  34
ENDBRANCH  25  28
ENDBRANCH  23  24
ENDBRANCH   1  23
TORSDOF 18
ENDMDL
MODEL 3
REMARK VINA RESULT:     -10.5      1.980      2.656
REMARK SMILES CCc1ccc(C(=O)N[C@H](C(=O)NCCCNC(=O)c2ccc(-c3c4nc(c(-c5cccc(S(=O)(=O)[O-])c5F)c5ccc([nH]5)c(-c5cccc(S(=O)(=O)[O-])c5F)c5nc(c(-c6cccc(S(=O)(=O)[O-])c6F)c6ccc3[nH]6)C=C5)C=C4)cc2)[C@H](C)CC)o1
REMARK SMILES IDX 15 1 14 2 13 3 11 4 12 5 10 7 9 8 7 9 8 10 6 12 3 13 4 14
REMARK SMILES IDX 87 15 5 16 2 17 1 18 83 19 84 20 85 21 86 22 16 23 17 24
REMARK SMILES IDX 18 25 19 27 20 28 21 29 82 30 22 31 81 32 23 33 24 34 25 35
REMARK SMILES IDX 75 36 26 37 80 38 74 39 76 40 27 41 79 42 73 43 72 44 28 46
REMARK SMILES IDX 60 47 40 48 59 49 41 50 44 51 58 52 77 53 42 54 43 55 57 57
REMARK SMILES IDX 78 58 45 59 29 60 30 61 38 62 31 63 33 64 39 65 32 66 34 67
REMARK SMILES IDX 35 68 36 69 37 70 61 71 62 72 70 73 63 74 65 75 71 76 64 77
REMARK SMILES IDX 66 78 67 79 68 80 69 81 46 82 47 83 55 84 48 85 50 86 56 87
REMARK SMILES IDX 49 88 51 89 52 90 53 91 54 92
REMARK H PARENT 13 6 9 11 17 26 76 45 44 56
REMARK Flexibility Score: inf
ROOT
ATOM      1  C   UNL A   1      32.574  28.036  27.308  1.00  0.00     0.042 C 
ENDROOT
BRANCH   1   2
ATOM      2  C   UNL A   1      32.360  26.761  26.495  1.00  0.00     0.117 C 
BRANCH   2   3
ATOM      3  N   UNL A   1      33.636  26.123  26.212  1.00  0.00    -0.354 N 
ATOM      4  C   UNL A   1      34.000  25.237  25.238  1.00  0.00     0.242 C 
ATOM      5  O   UNL A   1      35.084  24.664  25.369  1.00  0.00    -0.273 OA
ATOM      6  H   UNL A   1      34.363  26.372  26.827  1.00  0.00     0.163 HD
BRANCH   4   7
ATOM      7  C   UNL A   1      33.101  25.020  23.994  1.00  0.00     0.174 C 
BRANCH   7   8
ATOM      8  N   UNL A   1      33.648  25.852  22.904  1.00  0.00    -0.337 N 
ATOM      9  C   UNL A   1      33.243  27.042  22.342  1.00  0.00     0.287 C 
ATOM     10  O   UNL A   1      33.893  27.411  21.361  1.00  0.00    -0.266 OA
ATOM     11  H   UNL A   1      34.464  25.482  22.499  1.00  0.00     0.164 HD
BRANCH   9  12
ATOM     12  C   UNL A   1      32.166  27.829  22.906  1.00  0.00     0.191 A 
ATOM     13  C   UNL A   1      30.017  28.280  23.220  1.00  0.00     0.104 A 
ATOM     14  C   UNL A   1      30.719  29.279  23.854  1.00  0.00     0.046 A 
ATOM     15  O   UNL A   1      30.884  27.392  22.660  1.00  0.00    -0.456 OA
ATOM     16  C   UNL A   1      32.093  28.965  23.692  1.00  0.00     0.056 A 
BRANCH  13  17
ATOM     17  C   UNL A   1      28.567  27.982  23.076  1.00  0.00     0.072 C 
ATOM     18  C   UNL A   1      28.138  26.765  23.877  1.00  0.00     0.012 C 
ENDBRANCH  13  17
ENDBRANCH   9  12
ENDBRANCH   7   8
BRANCH   7  19
ATOM     19  C   UNL A   1      33.107  23.493  23.614  1.00  0.00     0.018 C 
ATOM     20  C   UNL A   1      33.871  23.194  22.315  1.00  0.00     0.010 C 
BRANCH  19  21
ATOM     21  C   UNL A   1      31.674  22.939  23.483  1.00  0.00     0.002 C 
ATOM     22  C   UNL A   1      30.574  23.991  23.428  1.00  0.00     0.004 C 
ENDBRANCH  19  21
ENDBRANCH   7  19
ENDBRANCH   4   7
ENDBRANCH   2   3
ENDBRANCH   1   2
BRANCH   1  23
ATOM     23  C   UNL A   1      33.756  28.858  26.828  1.00  0.00     0.118 C 
BRANCH  23  24
ATOM     24  N   UNL A   1      33.607  30.264  27.150  1.00  0.00    -0.352 N 
ATOM     25  C   UNL A   1      34.423  31.052  27.925  1.00  0.00     0.251 C 
ATOM     26  H   UNL A   1      32.819  30.711  26.764  1.00  0.00     0.163 HD
ATOM     27  O   UNL A   1      34.037  32.165  28.268  1.00  0.00    -0.269 OA
BRANCH  25  28
ATOM     28  C   UNL A   1      35.748  30.550  28.361  1.00  0.00     0.039 A 
ATOM     29  C   UNL A   1      35.832  29.815  29.546  1.00  0.00     0.014 A 
ATOM     30  C   UNL A   1      36.906  30.809  27.619  1.00  0.00     0.014 A 
ATOM     31  C   UNL A   1      37.069  29.321  29.968  1.00  0.00     0.010 A 
ATOM     32  C   UNL A   1      38.117  30.232  27.990  1.00  0.00     0.010 A 
ATOM     33  C   UNL A   1      38.219  29.510  29.186  1.00  0.00    -0.014 A 
BRANCH  33  34
ATOM     34  C   UNL A   1      39.539  28.994  29.630  1.00  0.00     0.031 A 
ATOM     35  C   UNL A   1      40.273  29.662  30.765  1.00  0.00     0.074 A 
ATOM     36  C   UNL A   1      40.099  27.951  28.987  1.00  0.00     0.049 A 
ATOM     37  N   UNL A   1      41.421  29.345  31.305  1.00  0.00    -0.248 NA
ATOM     38  C   UNL A   1      39.649  30.860  31.353  1.00  0.00     0.031 C 
ATOM     39  C   UNL A   1      39.527  27.267  27.825  1.00  0.00     0.029 A 
ATOM     40  N   UNL A   1      41.278  27.286  29.214  1.00  0.00    -0.354 N 
ATOM     41  C   UNL A   1      41.667  30.313  32.272  1.00  0.00     0.074 A 
ATOM     42  C   UNL A   1      40.577  31.259  32.208  1.00  0.00     0.031 C 
ATOM     43  C   UNL A   1      40.341  26.264  27.459  1.00  0.00     0.029 A 
ATOM     44  C   UNL A   1      41.505  26.249  28.340  1.00  0.00     0.049 A 
ATOM     45  H   UNL A   1      41.903  27.531  29.934  1.00  0.00     0.167 HD
ATOM     46  C   UNL A   1      42.687  30.389  33.161  1.00  0.00     0.034 A 
ATOM     47  C   UNL A   1      42.530  25.378  28.265  1.00  0.00     0.034 A 
ATOM     48  C   UNL A   1      43.748  29.425  33.245  1.00  0.00     0.049 A 
ATOM     49  C   UNL A   1      43.636  25.465  29.282  1.00  0.00     0.074 A 
ATOM     50  C   UNL A   1      44.789  29.366  34.155  1.00  0.00     0.029 A 
ATOM     51  N   UNL A   1      43.911  28.351  32.383  1.00  0.00    -0.354 N 
ATOM     52  N   UNL A   1      43.772  26.296  30.286  1.00  0.00    -0.248 NA
ATOM     53  C   UNL A   1      44.711  24.467  29.178  1.00  0.00     0.031 C 
ATOM     54  C   UNL A   1      45.595  28.271  33.826  1.00  0.00     0.029 A 
ATOM     55  C   UNL A   1      45.037  27.627  32.732  1.00  0.00     0.049 A 
ATOM     56  H   UNL A   1      43.312  28.136  31.631  1.00  0.00     0.167 HD
ATOM     57  C   UNL A   1      44.921  25.897  30.960  1.00  0.00     0.074 A 
ATOM     58  C   UNL A   1      45.433  24.739  30.257  1.00  0.00     0.031 C 
ATOM     59  C   UNL A   1      45.504  26.445  32.054  1.00  0.00     0.034 A 
BRANCH  46  60
ATOM     60  C   UNL A   1      42.665  31.529  34.149  1.00  0.00     0.023 A 
ATOM     61  C   UNL A   1      43.362  32.720  33.853  1.00  0.00     0.012 A 
ATOM     62  C   UNL A   1      41.934  31.441  35.349  1.00  0.00     0.148 A 
ATOM     63  C   UNL A   1      43.369  33.785  34.754  1.00  0.00     0.002 A 
ATOM     64  C   UNL A   1      41.905  32.525  36.219  1.00  0.00     0.091 A 
ATOM     65  F   UNL A   1      41.293  30.295  35.626  1.00  0.00    -0.205 F 
ATOM     66  C   UNL A   1      42.634  33.690  35.931  1.00  0.00     0.022 A 
BRANCH  64  67
ATOM     67  S   UNL A   1      40.921  32.535  37.722  1.00  0.00     0.127 S 
ATOM     68  O   UNL A   1      41.776  31.784  38.639  1.00  0.00    -0.237 OA
ATOM     69  O   UNL A   1      40.820  33.965  38.016  1.00  0.00    -0.237 OA
ATOM     70  O   UNL A   1      39.658  31.896  37.377  1.00  0.00    -0.744 OA
ENDBRANCH  64  67
ENDBRANCH  46  60
BRANCH  47  71
ATOM     71  C   UNL A   1      42.511  24.292  27.243  1.00  0.00     0.023 A 
ATOM     72  C   UNL A   1      43.280  24.436  26.071  1.00  0.00     0.012 A 
ATOM     73  C   UNL A   1      41.769  23.112  27.436  1.00  0.00     0.148 A 
ATOM     74  C   UNL A   1      43.284  23.440  25.095  1.00  0.00     0.002 A 
ATOM     75  C   UNL A   1      41.821  22.098  26.486  1.00  0.00     0.091 A 
ATOM     76  F   UNL A   1      41.038  22.997  28.554  1.00  0.00    -0.205 F 
ATOM     77  C   UNL A   1      42.562  22.267  25.307  1.00  0.00     0.022 A 
BRANCH  75  78
ATOM     78  S   UNL A   1      41.031  20.503  26.731  1.00  0.00     0.127 S 
ATOM     79  O   UNL A   1      41.011  20.400  28.188  1.00  0.00    -0.237 OA
ATOM     80  O   UNL A   1      39.724  20.717  26.109  1.00  0.00    -0.237 OA
ATOM     81  O   UNL A   1      41.874  19.537  26.040  1.00  0.00    -0.744 OA
ENDBRANCH  75  78
ENDBRANCH  47  71
BRANCH  59  82
ATOM     82  C   UNL A   1      46.740  25.776  32.595  1.00  0.00     0.023 A 
ATOM     83  C   UNL A   1      48.014  26.177  32.146  1.00  0.00     0.012 A 
ATOM     84  C   UNL A   1      46.639  24.799  33.606  1.00  0.00     0.148 A 
ATOM     85  C   UNL A   1      49.166  25.591  32.669  1.00  0.00     0.002 A 
ATOM     86  C   UNL A   1      47.793  24.257  34.159  1.00  0.00     0.091 A 
ATOM     87  F   UNL A   1      45.418  24.419  34.008  1.00  0.00    -0.205 F 
ATOM     88  C   UNL A   1      49.057  24.641  33.682  1.00  0.00     0.022 A 
BRANCH  86  89
ATOM     89  S   UNL A   1      47.750  23.105  35.536  1.00  0.00     0.127 S 
ATOM     90  O   UNL A   1      47.323  21.870  34.878  1.00  0.00    -0.237 OA
ATOM     91  O   UNL A   1      49.143  23.106  35.984  1.00  0.00    -0.237 OA
ATOM     92  O   UNL A   1      46.806  23.660  36.496  1.00  0.00    -0.744 OA
ENDBRANCH  86  89
ENDBRANCH  59  82
ENDBRANCH  33  34
ENDBRANCH  25  28
ENDBRANCH  23  24
ENDBRANCH   1  23
TORSDOF 18
ENDMDL
