MODEL 1
REMARK VINA RESULT:     -13.7      0.000      0.000
REMARK SMILES Cc1ccc(NC(=O)C[N@H+]2CC[C@@H](C(=O)NCCCNC(=O)c3ccc(-c4c5nc(c(-c6cccc(S(=O)(=O)[O-])c6F)c6ccc([nH]6)c(-c6cccc(S(=O)(=O)[O-])c6F)c6nc(c(-c7cccc(S(=O)(=O)[O-])c7F)c7ccc4[nH]7)C=C6)C=C5)cc3)[C@@H]2C)cc1
REMARK SMILES IDX 18 1 17 2 16 3 14 4 15 5 13 7 10 8 11 9 86 10 12 12 87 13
REMARK SMILES IDX 9 14 7 15 6 16 8 18 5 19 1 20 2 21 3 22 89 23 4 24 88 25
REMARK SMILES IDX 19 26 20 27 21 28 22 30 23 31 24 32 85 33 25 34 84 35 26 36
REMARK SMILES IDX 27 37 28 38 78 39 29 40 83 41 77 42 79 43 30 44 82 45 76 46
REMARK SMILES IDX 75 47 31 49 63 50 43 51 62 52 44 53 47 54 61 55 80 56 45 57
REMARK SMILES IDX 46 58 60 60 81 61 48 62 32 63 33 64 41 65 34 66 36 67 42 68
REMARK SMILES IDX 35 69 37 70 38 71 39 72 40 73 64 74 65 75 73 76 66 77 68 78
REMARK SMILES IDX 74 79 67 80 69 81 70 82 71 83 72 84 49 85 50 86 58 87 51 88
REMARK SMILES IDX 53 89 59 90 52 91 54 92 55 93 56 94 57 95
REMARK H PARENT 16 6 10 11 6 17 20 29 79 48 47 59
REMARK Flexibility Score: inf
ROOT
ATOM      1  C   UNL A   1      37.043  22.738  24.677  1.00  0.00     0.042 C 
ENDROOT
BRANCH   1   2
ATOM      2  C   UNL A   1      36.078  21.618  25.092  1.00  0.00     0.117 C 
BRANCH   2   3
ATOM      3  N   UNL A   1      35.300  21.827  26.320  1.00  0.00    -0.356 N 
ATOM      4  C   UNL A   1      34.018  21.512  26.688  1.00  0.00     0.229 C 
ATOM      5  O   UNL A   1      33.839  21.321  27.901  1.00  0.00    -0.275 OA
ATOM      6  H   UNL A   1      35.806  22.289  27.027  1.00  0.00     0.163 HD
BRANCH   4   7
ATOM      7  C   UNL A   1      32.775  21.463  25.768  1.00  0.00     0.142 C 
ATOM      8  N   UNL A   1      32.819  22.353  23.633  1.00  0.00    -0.324 N 
ATOM      9  C   UNL A   1      32.466  20.994  23.336  1.00  0.00     0.263 C 
ATOM     10  C   UNL A   1      32.456  22.730  24.999  1.00  0.00     0.194 C 
ATOM     11  H   UNL A   1      32.395  22.933  22.909  1.00  0.00     0.348 HD
ATOM     12  C   UNL A   1      32.515  20.328  24.729  1.00  0.00     0.081 C 
ATOM     13  C   UNL A   1      30.962  23.016  25.229  1.00  0.00     0.076 C 
BRANCH   8  14
ATOM     14  C   UNL A   1      33.663  23.184  22.788  1.00  0.00     0.364 C 
BRANCH  14  15
ATOM     15  C   UNL A   1      33.245  24.558  22.164  1.00  0.00     0.279 C 
ATOM     16  N   UNL A   1      32.656  25.686  22.674  1.00  0.00    -0.321 N 
ATOM     17  H   UNL A   1      32.246  26.214  21.951  1.00  0.00     0.170 HD
ATOM     18  O   UNL A   1      33.300  24.596  20.914  1.00  0.00    -0.268 OA
BRANCH  16  19
ATOM     19  C   UNL A   1      32.458  26.321  23.918  1.00  0.00     0.041 A 
ATOM     20  C   UNL A   1      31.645  28.283  27.721  1.00  0.00     0.044 C 
ATOM     21  C   UNL A   1      31.993  27.545  26.464  1.00  0.00    -0.051 A 
ATOM     22  C   UNL A   1      30.952  27.160  25.647  1.00  0.00     0.005 A 
ATOM     23  C   UNL A   1      33.292  27.305  26.007  1.00  0.00     0.005 A 
ATOM     24  C   UNL A   1      31.212  26.578  24.410  1.00  0.00     0.026 A 
ATOM     25  C   UNL A   1      33.522  26.685  24.749  1.00  0.00     0.026 A 
ENDBRANCH  16  19
ENDBRANCH  14  15
ENDBRANCH   8  14
ENDBRANCH   4   7
ENDBRANCH   2   3
ENDBRANCH   1   2
BRANCH   1  26
ATOM     26  C   UNL A   1      37.533  23.617  25.815  1.00  0.00     0.118 C 
BRANCH  26  27
ATOM     27  N   UNL A   1      38.547  22.952  26.658  1.00  0.00    -0.352 N 
ATOM     28  C   UNL A   1      39.779  23.433  27.101  1.00  0.00     0.251 C 
ATOM     29  H   UNL A   1      38.320  22.039  26.949  1.00  0.00     0.163 HD
ATOM     30  O   UNL A   1      40.677  22.653  27.351  1.00  0.00    -0.269 OA
BRANCH  28  31
ATOM     31  C   UNL A   1      39.919  24.888  27.303  1.00  0.00     0.039 A 
ATOM     32  C   UNL A   1      40.474  25.798  26.395  1.00  0.00     0.014 A 
ATOM     33  C   UNL A   1      39.504  25.328  28.544  1.00  0.00     0.014 A 
ATOM     34  C   UNL A   1      40.619  27.130  26.793  1.00  0.00     0.010 A 
ATOM     35  C   UNL A   1      39.250  26.636  28.736  1.00  0.00     0.010 A 
ATOM     36  C   UNL A   1      40.029  27.509  27.993  1.00  0.00    -0.014 A 
BRANCH  36  37
ATOM     37  C   UNL A   1      40.252  28.711  28.770  1.00  0.00     0.031 A 
ATOM     38  C   UNL A   1      39.264  29.787  28.715  1.00  0.00     0.074 A 
ATOM     39  C   UNL A   1      41.054  28.487  29.844  1.00  0.00     0.049 A 
ATOM     40  N   UNL A   1      39.433  30.945  29.240  1.00  0.00    -0.248 NA
ATOM     41  C   UNL A   1      37.968  29.620  28.064  1.00  0.00     0.031 C 
ATOM     42  C   UNL A   1      41.000  29.091  31.166  1.00  0.00     0.029 A 
ATOM     43  N   UNL A   1      42.067  27.524  29.993  1.00  0.00    -0.354 N 
ATOM     44  C   UNL A   1      38.183  31.531  29.309  1.00  0.00     0.074 A 
ATOM     45  C   UNL A   1      37.359  30.756  28.414  1.00  0.00     0.031 C 
ATOM     46  C   UNL A   1      42.104  28.726  31.848  1.00  0.00     0.029 A 
ATOM     47  C   UNL A   1      42.980  28.033  30.912  1.00  0.00     0.049 A 
ATOM     48  H   UNL A   1      42.120  26.655  29.535  1.00  0.00     0.167 HD
ATOM     49  C   UNL A   1      37.959  32.460  30.281  1.00  0.00     0.034 A 
ATOM     50  C   UNL A   1      44.217  28.460  30.509  1.00  0.00     0.034 A 
ATOM     51  C   UNL A   1      39.174  32.617  31.111  1.00  0.00     0.049 A 
ATOM     52  C   UNL A   1      44.342  29.971  30.625  1.00  0.00     0.074 A 
ATOM     53  C   UNL A   1      39.520  32.112  32.355  1.00  0.00     0.029 A 
ATOM     54  N   UNL A   1      40.356  33.082  30.539  1.00  0.00    -0.354 N 
ATOM     55  N   UNL A   1      43.333  30.761  30.877  1.00  0.00    -0.248 NA
ATOM     56  C   UNL A   1      45.589  30.719  30.494  1.00  0.00     0.031 C 
ATOM     57  C   UNL A   1      40.937  32.178  32.476  1.00  0.00     0.029 A 
ATOM     58  C   UNL A   1      41.454  32.751  31.325  1.00  0.00     0.049 A 
ATOM     59  H   UNL A   1      40.408  33.578  29.691  1.00  0.00     0.167 HD
ATOM     60  C   UNL A   1      43.718  32.066  30.832  1.00  0.00     0.074 A 
ATOM     61  C   UNL A   1      45.160  31.985  30.655  1.00  0.00     0.031 C 
ATOM     62  C   UNL A   1      42.810  33.092  30.893  1.00  0.00     0.034 A 
BRANCH  49  63
ATOM     63  C   UNL A   1      36.606  33.011  30.724  1.00  0.00     0.023 A 
ATOM     64  C   UNL A   1      36.181  32.672  32.031  1.00  0.00     0.012 A 
ATOM     65  C   UNL A   1      35.704  33.814  29.983  1.00  0.00     0.148 A 
ATOM     66  C   UNL A   1      34.929  33.032  32.542  1.00  0.00     0.002 A 
ATOM     67  C   UNL A   1      34.438  34.152  30.479  1.00  0.00     0.091 A 
ATOM     68  F   UNL A   1      36.068  34.323  28.808  1.00  0.00    -0.205 F 
ATOM     69  C   UNL A   1      34.046  33.757  31.759  1.00  0.00     0.022 A 
BRANCH  67  70
ATOM     70  S   UNL A   1      33.229  35.084  29.517  1.00  0.00     0.127 S 
ATOM     71  O   UNL A   1      32.190  35.358  30.511  1.00  0.00    -0.237 OA
ATOM     72  O   UNL A   1      33.997  36.258  29.103  1.00  0.00    -0.237 OA
ATOM     73  O   UNL A   1      32.800  34.209  28.432  1.00  0.00    -0.744 OA
ENDBRANCH  67  70
ENDBRANCH  49  63
BRANCH  50  74
ATOM     74  C   UNL A   1      44.802  27.589  29.434  1.00  0.00     0.023 A 
ATOM     75  C   UNL A   1      45.010  26.232  29.787  1.00  0.00     0.012 A 
ATOM     76  C   UNL A   1      44.680  27.917  28.068  1.00  0.00     0.148 A 
ATOM     77  C   UNL A   1      44.902  25.216  28.834  1.00  0.00     0.002 A 
ATOM     78  C   UNL A   1      44.580  26.894  27.121  1.00  0.00     0.091 A 
ATOM     79  F   UNL A   1      44.575  29.208  27.727  1.00  0.00    -0.205 F 
ATOM     80  C   UNL A   1      44.637  25.546  27.510  1.00  0.00     0.022 A 
BRANCH  78  81
ATOM     81  S   UNL A   1      44.251  27.236  25.384  1.00  0.00     0.127 S 
ATOM     82  O   UNL A   1      43.784  25.935  24.914  1.00  0.00    -0.237 OA
ATOM     83  O   UNL A   1      43.218  28.268  25.447  1.00  0.00    -0.237 OA
ATOM     84  O   UNL A   1      45.521  27.698  24.842  1.00  0.00    -0.744 OA
ENDBRANCH  78  81
ENDBRANCH  50  74
BRANCH  62  85
ATOM     85  C   UNL A   1      43.130  34.530  30.549  1.00  0.00     0.023 A 
ATOM     86  C   UNL A   1      43.570  35.448  31.523  1.00  0.00     0.012 A 
ATOM     87  C   UNL A   1      43.157  34.966  29.201  1.00  0.00     0.148 A 
ATOM     88  C   UNL A   1      43.939  36.755  31.190  1.00  0.00     0.002 A 
ATOM     89  C   UNL A   1      43.650  36.221  28.864  1.00  0.00     0.091 A 
ATOM     90  F   UNL A   1      42.686  34.172  28.229  1.00  0.00    -0.205 F 
ATOM     91  C   UNL A   1      44.004  37.134  29.857  1.00  0.00     0.022 A 
BRANCH  89  92
ATOM     92  S   UNL A   1      44.007  36.644  27.153  1.00  0.00     0.127 S 
ATOM     93  O   UNL A   1      44.632  37.956  27.290  1.00  0.00    -0.237 OA
ATOM     94  O   UNL A   1      44.919  35.572  26.750  1.00  0.00    -0.237 OA
ATOM     95  O   UNL A   1      42.717  36.612  26.477  1.00  0.00    -0.744 OA
ENDBRANCH  89  92
ENDBRANCH  62  85
ENDBRANCH  36  37
ENDBRANCH  28  31
ENDBRANCH  26  27
ENDBRANCH   1  26
TORSDOF 16
ENDMDL
MODEL 2
REMARK VINA RESULT:     -13.4      3.906      9.399
REMARK SMILES Cc1ccc(NC(=O)C[N@H+]2CC[C@@H](C(=O)NCCCNC(=O)c3ccc(-c4c5nc(c(-c6cccc(S(=O)(=O)[O-])c6F)c6ccc([nH]6)c(-c6cccc(S(=O)(=O)[O-])c6F)c6nc(c(-c7cccc(S(=O)(=O)[O-])c7F)c7ccc4[nH]7)C=C6)C=C5)cc3)[C@@H]2C)cc1
REMARK SMILES IDX 18 1 17 2 16 3 14 4 15 5 13 7 10 8 11 9 86 10 12 12 87 13
REMARK SMILES IDX 9 14 7 15 6 16 8 18 5 19 1 20 2 21 3 22 89 23 4 24 88 25
REMARK SMILES IDX 19 26 20 27 21 28 22 30 23 31 24 32 85 33 25 34 84 35 26 36
REMARK SMILES IDX 27 37 28 38 78 39 29 40 83 41 77 42 79 43 30 44 82 45 76 46
REMARK SMILES IDX 75 47 31 49 63 50 43 51 62 52 44 53 47 54 61 55 80 56 45 57
REMARK SMILES IDX 46 58 60 60 81 61 48 62 32 63 33 64 41 65 34 66 36 67 42 68
REMARK SMILES IDX 35 69 37 70 38 71 39 72 40 73 64 74 65 75 73 76 66 77 68 78
REMARK SMILES IDX 74 79 67 80 69 81 70 82 71 83 72 84 49 85 50 86 58 87 51 88
REMARK SMILES IDX 53 89 59 90 52 91 54 92 55 93 56 94 57 95
REMARK H PARENT 16 6 10 11 6 17 20 29 79 48 47 59
REMARK Flexibility Score: inf
ROOT
ATOM      1  C   UNL A   1      33.832  28.877  25.488  1.00  0.00     0.042 C 
ENDROOT
BRANCH   1   2
ATOM      2  C   UNL A   1      33.771  27.359  25.269  1.00  0.00     0.117 C 
BRANCH   2   3
ATOM      3  N   UNL A   1      33.904  26.876  23.888  1.00  0.00    -0.356 N 
ATOM      4  C   UNL A   1      33.000  26.586  22.901  1.00  0.00     0.229 C 
ATOM      5  O   UNL A   1      33.409  26.731  21.739  1.00  0.00    -0.275 OA
ATOM      6  H   UNL A   1      34.839  26.731  23.615  1.00  0.00     0.163 HD
BRANCH   4   7
ATOM      7  C   UNL A   1      31.573  26.016  23.088  1.00  0.00     0.142 C 
ATOM      8  N   UNL A   1      30.884  25.133  25.112  1.00  0.00    -0.324 N 
ATOM      9  C   UNL A   1      29.902  26.165  24.935  1.00  0.00     0.263 C 
ATOM     10  C   UNL A   1      31.467  24.704  23.840  1.00  0.00     0.194 C 
ATOM     11  H   UNL A   1      30.435  24.387  25.643  1.00  0.00     0.348 HD
ATOM     12  C   UNL A   1      30.376  26.852  23.635  1.00  0.00     0.081 C 
ATOM     13  C   UNL A   1      30.578  23.783  22.986  1.00  0.00     0.076 C 
BRANCH   8  14
ATOM     14  C   UNL A   1      31.431  24.734  26.400  1.00  0.00     0.364 C 
BRANCH  14  15
ATOM     15  C   UNL A   1      31.396  23.283  26.986  1.00  0.00     0.279 C 
ATOM     16  N   UNL A   1      32.171  22.168  26.794  1.00  0.00    -0.321 N 
ATOM     17  H   UNL A   1      31.677  21.358  27.061  1.00  0.00     0.170 HD
ATOM     18  O   UNL A   1      30.364  23.014  27.642  1.00  0.00    -0.268 OA
BRANCH  16  19
ATOM     19  C   UNL A   1      33.458  21.826  26.330  1.00  0.00     0.041 A 
ATOM     20  C   UNL A   1      37.356  20.596  24.824  1.00  0.00     0.044 C 
ATOM     21  C   UNL A   1      36.035  21.116  25.304  1.00  0.00    -0.051 A 
ATOM     22  C   UNL A   1      34.924  20.334  25.070  1.00  0.00     0.005 A 
ATOM     23  C   UNL A   1      35.856  22.280  26.056  1.00  0.00     0.005 A 
ATOM     24  C   UNL A   1      33.687  20.701  25.592  1.00  0.00     0.026 A 
ATOM     25  C   UNL A   1      34.574  22.640  26.553  1.00  0.00     0.026 A 
ENDBRANCH  16  19
ENDBRANCH  14  15
ENDBRANCH   8  14
ENDBRANCH   4   7
ENDBRANCH   2   3
ENDBRANCH   1   2
BRANCH   1  26
ATOM     26  C   UNL A   1      34.156  29.307  26.908  1.00  0.00     0.118 C 
BRANCH  26  27
ATOM     27  N   UNL A   1      34.710  30.675  26.981  1.00  0.00    -0.352 N 
ATOM     28  C   UNL A   1      35.669  31.193  27.853  1.00  0.00     0.251 C 
ATOM     29  H   UNL A   1      34.351  31.310  26.321  1.00  0.00     0.163 HD
ATOM     30  O   UNL A   1      35.666  32.379  28.116  1.00  0.00    -0.269 OA
BRANCH  28  31
ATOM     31  C   UNL A   1      36.694  30.269  28.378  1.00  0.00     0.039 A 
ATOM     32  C   UNL A   1      36.670  29.633  29.625  1.00  0.00     0.014 A 
ATOM     33  C   UNL A   1      37.782  30.104  27.546  1.00  0.00     0.014 A 
ATOM     34  C   UNL A   1      37.777  28.867  30.002  1.00  0.00     0.010 A 
ATOM     35  C   UNL A   1      38.603  29.053  27.727  1.00  0.00     0.010 A 
ATOM     36  C   UNL A   1      38.750  28.630  29.038  1.00  0.00    -0.014 A 
BRANCH  36  37
ATOM     37  C   UNL A   1      40.098  28.129  29.220  1.00  0.00     0.031 A 
ATOM     38  C   UNL A   1      40.384  26.730  28.910  1.00  0.00     0.074 A 
ATOM     39  C   UNL A   1      41.028  29.118  29.141  1.00  0.00     0.049 A 
ATOM     40  N   UNL A   1      41.497  26.149  29.174  1.00  0.00    -0.248 NA
ATOM     41  C   UNL A   1      39.415  25.867  28.242  1.00  0.00     0.031 C 
ATOM     42  C   UNL A   1      42.373  29.064  28.592  1.00  0.00     0.029 A 
ATOM     43  N   UNL A   1      40.885  30.480  29.458  1.00  0.00    -0.354 N 
ATOM     44  C   UNL A   1      41.525  24.992  28.420  1.00  0.00     0.074 A 
ATOM     45  C   UNL A   1      40.156  24.780  28.013  1.00  0.00     0.031 C 
ATOM     46  C   UNL A   1      43.008  30.212  28.903  1.00  0.00     0.029 A 
ATOM     47  C   UNL A   1      42.145  30.947  29.819  1.00  0.00     0.049 A 
ATOM     48  H   UNL A   1      40.052  31.003  29.430  1.00  0.00     0.167 HD
ATOM     49  C   UNL A   1      42.738  24.486  28.058  1.00  0.00     0.034 A 
ATOM     50  C   UNL A   1      42.435  31.248  31.123  1.00  0.00     0.034 A 
ATOM     51  C   UNL A   1      43.816  25.365  28.563  1.00  0.00     0.049 A 
ATOM     52  C   UNL A   1      43.422  30.251  31.711  1.00  0.00     0.074 A 
ATOM     53  C   UNL A   1      44.584  26.340  27.946  1.00  0.00     0.029 A 
ATOM     54  N   UNL A   1      43.981  25.550  29.934  1.00  0.00    -0.354 N 
ATOM     55  N   UNL A   1      43.775  29.147  31.110  1.00  0.00    -0.248 NA
ATOM     56  C   UNL A   1      44.106  30.410  32.990  1.00  0.00     0.031 C 
ATOM     57  C   UNL A   1      45.123  27.180  28.961  1.00  0.00     0.029 A 
ATOM     58  C   UNL A   1      44.714  26.702  30.196  1.00  0.00     0.049 A 
ATOM     59  H   UNL A   1      43.626  24.947  30.625  1.00  0.00     0.167 HD
ATOM     60  C   UNL A   1      44.596  28.406  31.905  1.00  0.00     0.074 A 
ATOM     61  C   UNL A   1      44.829  29.275  33.049  1.00  0.00     0.031 C 
ATOM     62  C   UNL A   1      44.966  27.129  31.573  1.00  0.00     0.034 A 
BRANCH  49  63
ATOM     63  C   UNL A   1      43.003  23.411  27.007  1.00  0.00     0.023 A 
ATOM     64  C   UNL A   1      43.653  23.831  25.821  1.00  0.00     0.012 A 
ATOM     65  C   UNL A   1      42.665  22.036  27.057  1.00  0.00     0.148 A 
ATOM     66  C   UNL A   1      43.885  22.978  24.737  1.00  0.00     0.002 A 
ATOM     67  C   UNL A   1      42.868  21.185  25.963  1.00  0.00     0.091 A 
ATOM     68  F   UNL A   1      42.198  21.501  28.183  1.00  0.00    -0.205 F 
ATOM     69  C   UNL A   1      43.475  21.656  24.798  1.00  0.00     0.022 A 
BRANCH  67  70
ATOM     70  S   UNL A   1      42.354  19.456  25.962  1.00  0.00     0.127 S 
ATOM     71  O   UNL A   1      40.912  19.564  25.732  1.00  0.00    -0.237 OA
ATOM     72  O   UNL A   1      43.108  18.906  24.836  1.00  0.00    -0.237 OA
ATOM     73  O   UNL A   1      42.710  18.917  27.269  1.00  0.00    -0.744 OA
ENDBRANCH  67  70
ENDBRANCH  49  63
BRANCH  50  74
ATOM     74  C   UNL A   1      41.279  31.894  31.833  1.00  0.00     0.023 A 
ATOM     75  C   UNL A   1      40.806  33.103  31.263  1.00  0.00     0.012 A 
ATOM     76  C   UNL A   1      40.407  31.152  32.655  1.00  0.00     0.148 A 
ATOM     77  C   UNL A   1      39.458  33.458  31.346  1.00  0.00     0.002 A 
ATOM     78  C   UNL A   1      39.060  31.519  32.737  1.00  0.00     0.091 A 
ATOM     79  F   UNL A   1      40.879  30.060  33.267  1.00  0.00    -0.205 F 
ATOM     80  C   UNL A   1      38.576  32.638  32.040  1.00  0.00     0.022 A 
BRANCH  78  81
ATOM     81  S   UNL A   1      37.856  30.520  33.628  1.00  0.00     0.127 S 
ATOM     82  O   UNL A   1      36.623  30.848  32.918  1.00  0.00    -0.237 OA
ATOM     83  O   UNL A   1      38.341  29.158  33.411  1.00  0.00    -0.237 OA
ATOM     84  O   UNL A   1      37.941  30.969  35.010  1.00  0.00    -0.744 OA
ENDBRANCH  78  81
ENDBRANCH  50  74
BRANCH  62  85
ATOM     85  C   UNL A   1      45.614  26.156  32.534  1.00  0.00     0.023 A 
ATOM     86  C   UNL A   1      47.010  26.112  32.722  1.00  0.00     0.012 A 
ATOM     87  C   UNL A   1      44.827  25.362  33.405  1.00  0.00     0.148 A 
ATOM     88  C   UNL A   1      47.600  25.267  33.665  1.00  0.00     0.002 A 
ATOM     89  C   UNL A   1      45.412  24.626  34.429  1.00  0.00     0.091 A 
ATOM     90  F   UNL A   1      43.498  25.299  33.239  1.00  0.00    -0.205 F 
ATOM     91  C   UNL A   1      46.801  24.542  34.537  1.00  0.00     0.022 A 
BRANCH  89  92
ATOM     92  S   UNL A   1      44.412  23.903  35.735  1.00  0.00     0.127 S 
ATOM     93  O   UNL A   1      45.430  23.368  36.635  1.00  0.00    -0.237 OA
ATOM     94  O   UNL A   1      43.688  25.066  36.255  1.00  0.00    -0.237 OA
ATOM     95  O   UNL A   1      43.563  22.926  35.067  1.00  0.00    -0.744 OA
ENDBRANCH  89  92
ENDBRANCH  62  85
ENDBRANCH  36  37
ENDBRANCH  28  31
ENDBRANCH  26  27
ENDBRANCH   1  26
TORSDOF 16
ENDMDL
MODEL 3
REMARK VINA RESULT:     -13.1      1.098      1.735
REMARK SMILES Cc1ccc(NC(=O)C[N@H+]2CC[C@@H](C(=O)NCCCNC(=O)c3ccc(-c4c5nc(c(-c6cccc(S(=O)(=O)[O-])c6F)c6ccc([nH]6)c(-c6cccc(S(=O)(=O)[O-])c6F)c6nc(c(-c7cccc(S(=O)(=O)[O-])c7F)c7ccc4[nH]7)C=C6)C=C5)cc3)[C@@H]2C)cc1
REMARK SMILES IDX 18 1 17 2 16 3 14 4 15 5 13 7 10 8 11 9 86 10 12 12 87 13
REMARK SMILES IDX 9 14 7 15 6 16 8 18 5 19 1 20 2 21 3 22 89 23 4 24 88 25
REMARK SMILES IDX 19 26 20 27 21 28 22 30 23 31 24 32 85 33 25 34 84 35 26 36
REMARK SMILES IDX 27 37 28 38 78 39 29 40 83 41 77 42 79 43 30 44 82 45 76 46
REMARK SMILES IDX 75 47 31 49 63 50 43 51 62 52 44 53 47 54 61 55 80 56 45 57
REMARK SMILES IDX 46 58 60 60 81 61 48 62 32 63 33 64 41 65 34 66 36 67 42 68
REMARK SMILES IDX 35 69 37 70 38 71 39 72 40 73 64 74 65 75 73 76 66 77 68 78
REMARK SMILES IDX 74 79 67 80 69 81 70 82 71 83 72 84 49 85 50 86 58 87 51 88
REMARK SMILES IDX 53 89 59 90 52 91 54 92 55 93 56 94 57 95
REMARK H PARENT 16 6 10 11 6 17 20 29 79 48 47 59
REMARK Flexibility Score: inf
ROOT
ATOM      1  C   UNL A   1      36.594  22.568  25.579  1.00  0.00     0.042 C 
ENDROOT
BRANCH   1   2
ATOM      2  C   UNL A   1      36.730  22.199  24.095  1.00  0.00     0.117 C 
BRANCH   2   3
ATOM      3  N   UNL A   1      35.921  22.965  23.138  1.00  0.00    -0.356 N 
ATOM      4  C   UNL A   1      34.620  23.391  23.135  1.00  0.00     0.229 C 
ATOM      5  O   UNL A   1      34.397  24.430  22.495  1.00  0.00    -0.275 OA
ATOM      6  H   UNL A   1      36.420  23.228  22.331  1.00  0.00     0.163 HD
BRANCH   4   7
ATOM      7  C   UNL A   1      33.405  22.666  23.762  1.00  0.00     0.142 C 
ATOM      8  N   UNL A   1      31.632  23.846  24.667  1.00  0.00    -0.324 N 
ATOM      9  C   UNL A   1      30.943  23.069  23.676  1.00  0.00     0.263 C 
ATOM     10  C   UNL A   1      32.893  23.224  25.075  1.00  0.00     0.194 C 
ATOM     11  H   UNL A   1      30.974  24.002  25.429  1.00  0.00     0.348 HD
ATOM     12  C   UNL A   1      32.102  22.327  22.973  1.00  0.00     0.081 C 
ATOM     13  C   UNL A   1      32.757  22.028  26.034  1.00  0.00     0.076 C 
BRANCH   8  14
ATOM     14  C   UNL A   1      31.271  25.204  25.040  1.00  0.00     0.364 C 
BRANCH  14  15
ATOM     15  C   UNL A   1      31.278  26.439  24.076  1.00  0.00     0.279 C 
ATOM     16  N   UNL A   1      31.491  27.781  24.262  1.00  0.00    -0.321 N 
ATOM     17  H   UNL A   1      31.099  28.295  23.519  1.00  0.00     0.170 HD
ATOM     18  O   UNL A   1      30.842  26.201  22.927  1.00  0.00    -0.268 OA
BRANCH  16  19
ATOM     19  C   UNL A   1      32.099  28.649  25.193  1.00  0.00     0.041 A 
ATOM     20  C   UNL A   1      34.121  31.186  28.100  1.00  0.00     0.044 C 
ATOM     21  C   UNL A   1      33.416  30.398  27.037  1.00  0.00    -0.051 A 
ATOM     22  C   UNL A   1      33.942  29.168  26.708  1.00  0.00     0.005 A 
ATOM     23  C   UNL A   1      32.215  30.768  26.427  1.00  0.00     0.005 A 
ATOM     24  C   UNL A   1      33.272  28.335  25.816  1.00  0.00     0.026 A 
ATOM     25  C   UNL A   1      31.569  29.905  25.500  1.00  0.00     0.026 A 
ENDBRANCH  16  19
ENDBRANCH  14  15
ENDBRANCH   8  14
ENDBRANCH   4   7
ENDBRANCH   2   3
ENDBRANCH   1   2
BRANCH   1  26
ATOM     26  C   UNL A   1      37.606  23.582  26.083  1.00  0.00     0.118 C 
BRANCH  26  27
ATOM     27  N   UNL A   1      38.720  22.960  26.827  1.00  0.00    -0.352 N 
ATOM     28  C   UNL A   1      39.967  23.493  27.157  1.00  0.00     0.251 C 
ATOM     29  H   UNL A   1      38.560  22.038  27.133  1.00  0.00     0.163 HD
ATOM     30  O   UNL A   1      40.916  22.751  27.320  1.00  0.00    -0.269 OA
BRANCH  28  31
ATOM     31  C   UNL A   1      40.063  24.952  27.352  1.00  0.00     0.039 A 
ATOM     32  C   UNL A   1      40.556  25.878  26.424  1.00  0.00     0.014 A 
ATOM     33  C   UNL A   1      39.676  25.381  28.605  1.00  0.00     0.014 A 
ATOM     34  C   UNL A   1      40.668  27.216  26.815  1.00  0.00     0.010 A 
ATOM     35  C   UNL A   1      39.384  26.680  28.803  1.00  0.00     0.010 A 
ATOM     36  C   UNL A   1      40.106  27.577  28.034  1.00  0.00    -0.014 A 
BRANCH  36  37
ATOM     37  C   UNL A   1      40.314  28.789  28.800  1.00  0.00     0.031 A 
ATOM     38  C   UNL A   1      39.309  29.848  28.743  1.00  0.00     0.074 A 
ATOM     39  C   UNL A   1      41.125  28.585  29.873  1.00  0.00     0.049 A 
ATOM     40  N   UNL A   1      39.462  31.013  29.258  1.00  0.00    -0.248 NA
ATOM     41  C   UNL A   1      38.013  29.656  28.099  1.00  0.00     0.031 C 
ATOM     42  C   UNL A   1      41.067  29.198  31.189  1.00  0.00     0.029 A 
ATOM     43  N   UNL A   1      42.154  27.639  30.023  1.00  0.00    -0.354 N 
ATOM     44  C   UNL A   1      38.204  31.579  29.329  1.00  0.00     0.074 A 
ATOM     45  C   UNL A   1      37.387  30.785  28.443  1.00  0.00     0.031 C 
ATOM     46  C   UNL A   1      42.180  28.855  31.869  1.00  0.00     0.029 A 
ATOM     47  C   UNL A   1      43.062  28.170  30.934  1.00  0.00     0.049 A 
ATOM     48  H   UNL A   1      42.218  26.768  29.572  1.00  0.00     0.167 HD
ATOM     49  C   UNL A   1      37.969  32.512  30.295  1.00  0.00     0.034 A 
ATOM     50  C   UNL A   1      44.291  28.613  30.522  1.00  0.00     0.034 A 
ATOM     51  C   UNL A   1      39.186  32.694  31.118  1.00  0.00     0.049 A 
ATOM     52  C   UNL A   1      44.393  30.127  30.626  1.00  0.00     0.074 A 
ATOM     53  C   UNL A   1      39.546  32.203  32.364  1.00  0.00     0.029 A 
ATOM     54  N   UNL A   1      40.357  33.173  30.537  1.00  0.00    -0.354 N 
ATOM     55  N   UNL A   1      43.372  30.902  30.877  1.00  0.00    -0.248 NA
ATOM     56  C   UNL A   1      45.627  30.892  30.484  1.00  0.00     0.031 C 
ATOM     57  C   UNL A   1      40.962  32.293  32.478  1.00  0.00     0.029 A 
ATOM     58  C   UNL A   1      41.464  32.866  31.320  1.00  0.00     0.049 A 
ATOM     59  H   UNL A   1      40.397  33.664  29.685  1.00  0.00     0.167 HD
ATOM     60  C   UNL A   1      43.736  32.213  30.821  1.00  0.00     0.074 A 
ATOM     61  C   UNL A   1      45.178  32.153  30.638  1.00  0.00     0.031 C 
ATOM     62  C   UNL A   1      42.813  33.225  30.879  1.00  0.00     0.034 A 
BRANCH  49  63
ATOM     63  C   UNL A   1      36.610  33.045  30.740  1.00  0.00     0.023 A 
ATOM     64  C   UNL A   1      36.174  32.668  32.033  1.00  0.00     0.012 A 
ATOM     65  C   UNL A   1      35.711  33.864  30.014  1.00  0.00     0.148 A 
ATOM     66  C   UNL A   1      34.916  33.008  32.543  1.00  0.00     0.002 A 
ATOM     67  C   UNL A   1      34.439  34.183  30.507  1.00  0.00     0.091 A 
ATOM     68  F   UNL A   1      36.084  34.408  28.857  1.00  0.00    -0.205 F 
ATOM     69  C   UNL A   1      34.038  33.751  31.772  1.00  0.00     0.022 A 
BRANCH  67  70
ATOM     70  S   UNL A   1      33.235  35.137  29.560  1.00  0.00     0.127 S 
ATOM     71  O   UNL A   1      32.193  35.392  30.557  1.00  0.00    -0.237 OA
ATOM     72  O   UNL A   1      34.007  36.318  29.173  1.00  0.00    -0.237 OA
ATOM     73  O   UNL A   1      32.809  34.286  28.457  1.00  0.00    -0.744 OA
ENDBRANCH  67  70
ENDBRANCH  49  63
BRANCH  50  74
ATOM     74  C   UNL A   1      44.884  27.743  29.450  1.00  0.00     0.023 A 
ATOM     75  C   UNL A   1      45.144  26.400  29.822  1.00  0.00     0.012 A 
ATOM     76  C   UNL A   1      44.727  28.044  28.082  1.00  0.00     0.148 A 
ATOM     77  C   UNL A   1      45.053  25.365  28.888  1.00  0.00     0.002 A 
ATOM     78  C   UNL A   1      44.643  27.001  27.154  1.00  0.00     0.091 A 
ATOM     79  F   UNL A   1      44.572  29.324  27.721  1.00  0.00    -0.205 F 
ATOM     80  C   UNL A   1      44.752  25.663  27.564  1.00  0.00     0.022 A 
BRANCH  78  81
ATOM     81  S   UNL A   1      44.270  27.302  25.418  1.00  0.00     0.127 S 
ATOM     82  O   UNL A   1      45.581  27.684  24.901  1.00  0.00    -0.237 OA
ATOM     83  O   UNL A   1      43.790  26.000  24.960  1.00  0.00    -0.237 OA
ATOM     84  O   UNL A   1      43.253  28.343  25.425  1.00  0.00    -0.744 OA
ENDBRANCH  78  81
ENDBRANCH  50  74
BRANCH  62  85
ATOM     85  C   UNL A   1      43.109  34.665  30.523  1.00  0.00     0.023 A 
ATOM     86  C   UNL A   1      43.531  35.599  31.489  1.00  0.00     0.012 A 
ATOM     87  C   UNL A   1      43.129  35.090  29.171  1.00  0.00     0.148 A 
ATOM     88  C   UNL A   1      43.878  36.909  31.146  1.00  0.00     0.002 A 
ATOM     89  C   UNL A   1      43.602  36.350  28.824  1.00  0.00     0.091 A 
ATOM     90  F   UNL A   1      42.674  34.279  28.205  1.00  0.00    -0.205 F 
ATOM     91  C   UNL A   1      43.938  37.278  29.809  1.00  0.00     0.022 A 
BRANCH  89  92
ATOM     92  S   UNL A   1      43.954  36.764  27.110  1.00  0.00     0.127 S 
ATOM     93  O   UNL A   1      42.616  36.801  26.527  1.00  0.00    -0.237 OA
ATOM     94  O   UNL A   1      44.603  38.072  27.232  1.00  0.00    -0.237 OA
ATOM     95  O   UNL A   1      44.835  35.706  26.636  1.00  0.00    -0.744 OA
ENDBRANCH  89  92
ENDBRANCH  62  85
ENDBRANCH  36  37
ENDBRANCH  28  31
ENDBRANCH  26  27
ENDBRANCH   1  26
TORSDOF 16
ENDMDL
