MODEL 1
REMARK VINA RESULT:     -13.1      0.000      0.000
REMARK SMILES O=C(NCCCNC(=O)[C@H](NC(=O)[C@H]1CC(=O)N(CC2CC2)C1)c1ccccc1C(F)(F)F)c1ccc(-c2c3nc(c(-c4cccc(S(=O)(=O)[O-])c4F)c4ccc([nH]4)c(-c4cccc(S(=O)(=O)[O-])c4F)c4nc(c(-c5cccc(S(=O)(=O)[O-])c5F)c5ccc2[nH]5)C=C4)C=C3)cc1
REMARK SMILES IDX 5 1 4 2 3 3 1 4 2 5 34 7 35 8 96 9 36 10 95 11 37 12 38 13
REMARK SMILES IDX 39 14 89 15 40 16 94 17 88 18 90 19 41 20 93 21 87 22 86 23
REMARK SMILES IDX 42 25 74 26 54 27 73 28 55 29 58 30 72 31 91 32 56 33 57 34
REMARK SMILES IDX 71 36 92 37 59 38 43 39 44 40 52 41 45 42 47 43 53 44 46 45
REMARK SMILES IDX 48 46 49 47 50 48 51 49 75 50 76 51 84 52 77 53 79 54 85 55
REMARK SMILES IDX 78 56 80 57 81 58 82 59 83 60 60 61 61 62 69 63 62 64 64 65
REMARK SMILES IDX 70 66 63 67 65 68 66 69 67 70 68 71 6 72 7 73 8 74 9 76
REMARK SMILES IDX 10 77 24 78 25 79 29 80 26 81 28 82 27 83 30 84 31 85 32 86
REMARK SMILES IDX 33 87 11 88 12 89 13 91 14 92 15 93 23 94 16 95 18 96 17 97
REMARK SMILES IDX 19 98 20 99 21 100 22 101
REMARK H PARENT 3 6 90 24 58 35 7 75 11 90
REMARK Flexibility Score: inf
ROOT
ATOM      1  C   UNL A   1      36.846  20.115  25.014  1.00  0.00     0.042 C 
ENDROOT
BRANCH   1   2
ATOM      2  C   UNL A   1      38.249  20.690  25.036  1.00  0.00     0.118 C 
BRANCH   2   3
ATOM      3  N   UNL A   1      39.149  19.821  25.777  1.00  0.00    -0.352 N 
ATOM      4  O   UNL A   1      41.196  19.258  26.513  1.00  0.00    -0.269 OA
ATOM      5  C   UNL A   1      40.356  20.137  26.353  1.00  0.00     0.251 C 
ATOM      6  H   UNL A   1      38.857  18.887  25.881  1.00  0.00     0.163 HD
BRANCH   5   7
ATOM      7  C   UNL A   1      40.612  21.526  26.786  1.00  0.00     0.039 A 
ATOM      8  C   UNL A   1      41.688  21.795  27.636  1.00  0.00     0.014 A 
ATOM      9  C   UNL A   1      39.844  22.577  26.276  1.00  0.00     0.014 A 
ATOM     10  C   UNL A   1      41.926  23.084  28.077  1.00  0.00     0.010 A 
ATOM     11  C   UNL A   1      40.171  23.893  26.610  1.00  0.00     0.010 A 
ATOM     12  C   UNL A   1      41.223  24.150  27.504  1.00  0.00    -0.014 A 
BRANCH  12  13
ATOM     13  C   UNL A   1      41.763  25.513  27.701  1.00  0.00     0.031 A 
ATOM     14  C   UNL A   1      43.129  25.892  27.225  1.00  0.00     0.074 A 
ATOM     15  C   UNL A   1      40.969  26.402  28.335  1.00  0.00     0.049 A 
ATOM     16  N   UNL A   1      43.730  27.048  27.324  1.00  0.00    -0.248 NA
ATOM     17  C   UNL A   1      43.932  24.850  26.565  1.00  0.00     0.031 C 
ATOM     18  C   UNL A   1      39.638  26.101  28.878  1.00  0.00     0.029 A 
ATOM     19  N   UNL A   1      41.150  27.726  28.633  1.00  0.00    -0.354 N 
ATOM     20  C   UNL A   1      44.998  26.863  26.790  1.00  0.00     0.074 A 
ATOM     21  C   UNL A   1      45.077  25.488  26.349  1.00  0.00     0.031 C 
ATOM     22  C   UNL A   1      39.114  27.209  29.414  1.00  0.00     0.029 A 
ATOM     23  C   UNL A   1      40.098  28.276  29.331  1.00  0.00     0.049 A 
ATOM     24  H   UNL A   1      41.951  28.235  28.374  1.00  0.00     0.167 HD
ATOM     25  C   UNL A   1      45.996  27.770  26.684  1.00  0.00     0.034 A 
ATOM     26  C   UNL A   1      39.958  29.493  29.885  1.00  0.00     0.034 A 
ATOM     27  C   UNL A   1      45.876  29.143  27.098  1.00  0.00     0.049 A 
ATOM     28  C   UNL A   1      41.081  30.472  29.729  1.00  0.00     0.074 A 
ATOM     29  C   UNL A   1      46.792  30.169  26.941  1.00  0.00     0.029 A 
ATOM     30  N   UNL A   1      44.787  29.679  27.769  1.00  0.00    -0.354 N 
ATOM     31  N   UNL A   1      42.210  30.328  29.077  1.00  0.00    -0.248 NA
ATOM     32  C   UNL A   1      40.911  31.783  30.366  1.00  0.00     0.031 C 
ATOM     33  C   UNL A   1      46.271  31.315  27.549  1.00  0.00     0.029 A 
ATOM     34  C   UNL A   1      45.020  31.011  28.062  1.00  0.00     0.049 A 
ATOM     35  H   UNL A   1      43.968  29.184  28.002  1.00  0.00     0.167 HD
ATOM     36  C   UNL A   1      42.886  31.529  29.223  1.00  0.00     0.074 A 
ATOM     37  C   UNL A   1      42.017  32.406  29.985  1.00  0.00     0.031 C 
ATOM     38  C   UNL A   1      44.124  31.870  28.793  1.00  0.00     0.034 A 
BRANCH  25  39
ATOM     39  C   UNL A   1      47.304  27.330  26.087  1.00  0.00     0.023 A 
ATOM     40  C   UNL A   1      48.212  26.583  26.861  1.00  0.00     0.012 A 
ATOM     41  C   UNL A   1      47.578  27.561  24.724  1.00  0.00     0.148 A 
ATOM     42  C   UNL A   1      49.381  26.078  26.290  1.00  0.00     0.002 A 
ATOM     43  C   UNL A   1      48.725  27.023  24.153  1.00  0.00     0.091 A 
ATOM     44  F   UNL A   1      46.709  28.293  24.014  1.00  0.00    -0.205 F 
ATOM     45  C   UNL A   1      49.630  26.287  24.936  1.00  0.00     0.022 A 
BRANCH  43  46
ATOM     46  S   UNL A   1      49.102  27.173  22.403  1.00  0.00     0.127 S 
ATOM     47  O   UNL A   1      50.564  27.144  22.414  1.00  0.00    -0.237 OA
ATOM     48  O   UNL A   1      48.472  25.973  21.852  1.00  0.00    -0.237 OA
ATOM     49  O   UNL A   1      48.511  28.431  21.968  1.00  0.00    -0.744 OA
ENDBRANCH  43  46
ENDBRANCH  25  39
BRANCH  26  50
ATOM     50  C   UNL A   1      38.721  29.831  30.643  1.00  0.00     0.023 A 
ATOM     51  C   UNL A   1      38.563  29.370  31.964  1.00  0.00     0.012 A 
ATOM     52  C   UNL A   1      37.719  30.642  30.076  1.00  0.00     0.148 A 
ATOM     53  C   UNL A   1      37.415  29.687  32.692  1.00  0.00     0.002 A 
ATOM     54  C   UNL A   1      36.611  31.009  30.829  1.00  0.00     0.091 A 
ATOM     55  F   UNL A   1      37.874  31.057  28.810  1.00  0.00    -0.205 F 
ATOM     56  C   UNL A   1      36.446  30.517  32.131  1.00  0.00     0.022 A 
BRANCH  54  57
ATOM     57  S   UNL A   1      35.412  32.201  30.225  1.00  0.00     0.127 S 
ATOM     58  O   UNL A   1      34.502  32.316  31.361  1.00  0.00    -0.237 OA
ATOM     59  O   UNL A   1      36.243  33.380  29.978  1.00  0.00    -0.237 OA
ATOM     60  O   UNL A   1      34.858  31.604  29.016  1.00  0.00    -0.744 OA
ENDBRANCH  54  57
ENDBRANCH  26  50
BRANCH  38  61
ATOM     61  C   UNL A   1      44.609  33.249  29.140  1.00  0.00     0.023 A 
ATOM     62  C   UNL A   1      45.222  33.473  30.388  1.00  0.00     0.012 A 
ATOM     63  C   UNL A   1      44.511  34.302  28.212  1.00  0.00     0.148 A 
ATOM     64  C   UNL A   1      45.705  34.736  30.721  1.00  0.00     0.002 A 
ATOM     65  C   UNL A   1      45.040  35.545  28.531  1.00  0.00     0.091 A 
ATOM     66  F   UNL A   1      43.906  34.067  27.038  1.00  0.00    -0.205 F 
ATOM     67  C   UNL A   1      45.626  35.768  29.788  1.00  0.00     0.022 A 
BRANCH  65  68
ATOM     68  S   UNL A   1      45.067  36.907  27.361  1.00  0.00     0.127 S 
ATOM     69  O   UNL A   1      45.921  36.371  26.301  1.00  0.00    -0.237 OA
ATOM     70  O   UNL A   1      43.655  37.035  27.002  1.00  0.00    -0.237 OA
ATOM     71  O   UNL A   1      45.614  38.048  28.083  1.00  0.00    -0.744 OA
ENDBRANCH  65  68
ENDBRANCH  38  61
ENDBRANCH  12  13
ENDBRANCH   5   7
ENDBRANCH   2   3
ENDBRANCH   1   2
BRANCH   1  72
ATOM     72  C   UNL A   1      35.789  21.205  25.022  1.00  0.00     0.117 C 
BRANCH  72  73
ATOM     73  N   UNL A   1      35.329  21.502  26.352  1.00  0.00    -0.354 N 
ATOM     74  C   UNL A   1      34.063  21.648  26.803  1.00  0.00     0.247 C 
ATOM     75  H   UNL A   1      36.036  21.614  27.028  1.00  0.00     0.163 HD
ATOM     76  O   UNL A   1      33.933  21.784  28.028  1.00  0.00    -0.272 OA
BRANCH  74  77
ATOM     77  C   UNL A   1      32.808  21.554  25.901  1.00  0.00     0.202 C 
BRANCH  77  78
ATOM     78  C   UNL A   1      32.584  20.312  25.039  1.00  0.00    -0.004 A 
ATOM     79  C   UNL A   1      32.736  19.067  25.710  1.00  0.00     0.007 A 
ATOM     80  C   UNL A   1      32.434  20.298  23.628  1.00  0.00     0.061 A 
ATOM     81  C   UNL A   1      32.827  17.861  25.018  1.00  0.00     0.000 A 
ATOM     82  C   UNL A   1      32.512  19.052  22.957  1.00  0.00     0.013 A 
ATOM     83  C   UNL A   1      32.729  17.856  23.638  1.00  0.00     0.001 A 
BRANCH  80  84
ATOM     84  C   UNL A   1      32.226  21.495  22.715  1.00  0.00     0.416 C 
ATOM     85  F   UNL A   1      33.331  22.286  22.645  1.00  0.00    -0.166 F 
ATOM     86  F   UNL A   1      31.970  21.097  21.435  1.00  0.00    -0.166 F 
ATOM     87  F   UNL A   1      31.200  22.326  23.030  1.00  0.00    -0.166 F 
ENDBRANCH  80  84
ENDBRANCH  77  78
BRANCH  77  88
ATOM     88  N   UNL A   1      31.581  22.207  26.356  1.00  0.00    -0.340 N 
ATOM     89  C   UNL A   1      31.276  23.550  26.380  1.00  0.00     0.226 C 
ATOM     90  H   UNL A   1      30.877  21.605  26.690  1.00  0.00     0.164 HD
ATOM     91  O   UNL A   1      30.175  23.911  26.787  1.00  0.00    -0.275 OA
BRANCH  89  92
ATOM     92  C   UNL A   1      32.314  24.535  25.881  1.00  0.00     0.107 C 
ATOM     93  C   UNL A   1      32.316  24.937  24.410  1.00  0.00     0.115 C 
ATOM     94  C   UNL A   1      32.082  25.878  26.528  1.00  0.00     0.133 C 
ATOM     95  C   UNL A   1      33.082  26.258  24.487  1.00  0.00     0.223 C 
ATOM     96  N   UNL A   1      32.879  26.782  25.770  1.00  0.00    -0.342 N 
ATOM     97  O   UNL A   1      33.774  26.725  23.610  1.00  0.00    -0.275 OA
BRANCH  96  98
ATOM     98  C   UNL A   1      33.778  27.747  26.390  1.00  0.00     0.123 C 
BRANCH  98  99
ATOM     99  C   UNL A   1      33.435  29.216  26.290  1.00  0.00     0.008 C 
ATOM    100  C   UNL A   1      32.244  29.835  25.590  1.00  0.00     0.006 C 
ATOM    101  C   UNL A   1      32.312  29.852  27.092  1.00  0.00     0.006 C 
ENDBRANCH  98  99
ENDBRANCH  96  98
ENDBRANCH  89  92
ENDBRANCH  77  88
ENDBRANCH  74  77
ENDBRANCH  72  73
ENDBRANCH   1  72
TORSDOF 19
ENDMDL
MODEL 2
REMARK VINA RESULT:     -13.1      0.682      7.273
REMARK SMILES O=C(NCCCNC(=O)[C@H](NC(=O)[C@H]1CC(=O)N(CC2CC2)C1)c1ccccc1C(F)(F)F)c1ccc(-c2c3nc(c(-c4cccc(S(=O)(=O)[O-])c4F)c4ccc([nH]4)c(-c4cccc(S(=O)(=O)[O-])c4F)c4nc(c(-c5cccc(S(=O)(=O)[O-])c5F)c5ccc2[nH]5)C=C4)C=C3)cc1
REMARK SMILES IDX 5 1 4 2 3 3 1 4 2 5 34 7 35 8 96 9 36 10 95 11 37 12 38 13
REMARK SMILES IDX 39 14 89 15 40 16 94 17 88 18 90 19 41 20 93 21 87 22 86 23
REMARK SMILES IDX 42 25 74 26 54 27 73 28 55 29 58 30 72 31 91 32 56 33 57 34
REMARK SMILES IDX 71 36 92 37 59 38 43 39 44 40 52 41 45 42 47 43 53 44 46 45
REMARK SMILES IDX 48 46 49 47 50 48 51 49 75 50 76 51 84 52 77 53 79 54 85 55
REMARK SMILES IDX 78 56 80 57 81 58 82 59 83 60 60 61 61 62 69 63 62 64 64 65
REMARK SMILES IDX 70 66 63 67 65 68 66 69 67 70 68 71 6 72 7 73 8 74 9 76
REMARK SMILES IDX 10 77 24 78 25 79 29 80 26 81 28 82 27 83 30 84 31 85 32 86
REMARK SMILES IDX 33 87 11 88 12 89 13 91 14 92 15 93 23 94 16 95 18 96 17 97
REMARK SMILES IDX 19 98 20 99 21 100 22 101
REMARK H PARENT 3 6 90 24 58 35 7 75 11 90
REMARK Flexibility Score: inf
ROOT
ATOM      1  C   UNL A   1      37.153  20.367  24.825  1.00  0.00     0.042 C 
ENDROOT
BRANCH   1   2
ATOM      2  C   UNL A   1      38.293  21.205  25.373  1.00  0.00     0.118 C 
BRANCH   2   3
ATOM      3  N   UNL A   1      39.264  20.366  26.057  1.00  0.00    -0.352 N 
ATOM      4  O   UNL A   1      41.361  19.903  26.718  1.00  0.00    -0.269 OA
ATOM      5  C   UNL A   1      40.465  20.734  26.613  1.00  0.00     0.251 C 
ATOM      6  H   UNL A   1      39.032  19.412  26.131  1.00  0.00     0.163 HD
BRANCH   5   7
ATOM      7  C   UNL A   1      40.647  22.119  27.095  1.00  0.00     0.039 A 
ATOM      8  C   UNL A   1      41.569  22.378  28.113  1.00  0.00     0.014 A 
ATOM      9  C   UNL A   1      39.976  23.176  26.473  1.00  0.00     0.014 A 
ATOM     10  C   UNL A   1      41.732  23.662  28.597  1.00  0.00     0.010 A 
ATOM     11  C   UNL A   1      40.245  24.488  26.868  1.00  0.00     0.010 A 
ATOM     12  C   UNL A   1      41.135  24.735  27.925  1.00  0.00    -0.014 A 
BRANCH  12  13
ATOM     13  C   UNL A   1      41.638  26.095  28.219  1.00  0.00     0.031 A 
ATOM     14  C   UNL A   1      40.774  27.127  28.871  1.00  0.00     0.074 A 
ATOM     15  C   UNL A   1      42.913  26.367  27.868  1.00  0.00     0.049 A 
ATOM     16  N   UNL A   1      41.081  28.355  29.193  1.00  0.00    -0.248 NA
ATOM     17  C   UNL A   1      39.390  26.747  29.197  1.00  0.00     0.031 C 
ATOM     18  C   UNL A   1      43.812  25.432  27.180  1.00  0.00     0.029 A 
ATOM     19  N   UNL A   1      43.678  27.491  28.033  1.00  0.00    -0.354 N 
ATOM     20  C   UNL A   1      39.920  28.915  29.708  1.00  0.00     0.074 A 
ATOM     21  C   UNL A   1      38.904  27.886  29.676  1.00  0.00     0.031 C 
ATOM     22  C   UNL A   1      45.008  26.006  27.008  1.00  0.00     0.029 A 
ATOM     23  C   UNL A   1      44.940  27.375  27.496  1.00  0.00     0.049 A 
ATOM     24  H   UNL A   1      43.358  28.301  28.491  1.00  0.00     0.167 HD
ATOM     25  C   UNL A   1      39.735  30.174  30.164  1.00  0.00     0.034 A 
ATOM     26  C   UNL A   1      45.921  28.285  27.365  1.00  0.00     0.034 A 
ATOM     27  C   UNL A   1      40.777  31.166  30.220  1.00  0.00     0.049 A 
ATOM     28  C   UNL A   1      45.680  29.663  27.900  1.00  0.00     0.074 A 
ATOM     29  C   UNL A   1      40.719  32.440  30.758  1.00  0.00     0.029 A 
ATOM     30  N   UNL A   1      42.053  31.008  29.701  1.00  0.00    -0.354 N 
ATOM     31  N   UNL A   1      44.628  30.125  28.532  1.00  0.00    -0.248 NA
ATOM     32  C   UNL A   1      46.758  30.642  27.721  1.00  0.00     0.031 C 
ATOM     33  C   UNL A   1      41.950  33.064  30.531  1.00  0.00     0.029 A 
ATOM     34  C   UNL A   1      42.783  32.170  29.876  1.00  0.00     0.049 A 
ATOM     35  H   UNL A   1      42.390  30.189  29.270  1.00  0.00     0.167 HD
ATOM     36  C   UNL A   1      44.916  31.448  28.828  1.00  0.00     0.074 A 
ATOM     37  C   UNL A   1      46.262  31.698  28.349  1.00  0.00     0.031 C 
ATOM     38  C   UNL A   1      44.132  32.382  29.418  1.00  0.00     0.034 A 
BRANCH  25  39
ATOM     39  C   UNL A   1      38.370  30.564  30.658  1.00  0.00     0.023 A 
ATOM     40  C   UNL A   1      37.993  30.270  31.983  1.00  0.00     0.012 A 
ATOM     41  C   UNL A   1      37.506  31.323  29.843  1.00  0.00     0.148 A 
ATOM     42  C   UNL A   1      36.772  30.718  32.488  1.00  0.00     0.002 A 
ATOM     43  C   UNL A   1      36.309  31.798  30.364  1.00  0.00     0.091 A 
ATOM     44  F   UNL A   1      37.878  31.572  28.580  1.00  0.00    -0.205 F 
ATOM     45  C   UNL A   1      35.938  31.491  31.683  1.00  0.00     0.022 A 
BRANCH  43  46
ATOM     46  S   UNL A   1      35.199  32.862  29.436  1.00  0.00     0.127 S 
ATOM     47  O   UNL A   1      36.079  33.978  29.094  1.00  0.00    -0.237 OA
ATOM     48  O   UNL A   1      34.829  32.007  28.307  1.00  0.00    -0.237 OA
ATOM     49  O   UNL A   1      34.104  33.190  30.339  1.00  0.00    -0.744 OA
ENDBRANCH  43  46
ENDBRANCH  25  39
BRANCH  26  50
ATOM     50  C   UNL A   1      47.197  27.916  26.690  1.00  0.00     0.023 A 
ATOM     51  C   UNL A   1      48.306  27.516  27.459  1.00  0.00     0.012 A 
ATOM     52  C   UNL A   1      47.303  27.919  25.285  1.00  0.00     0.148 A 
ATOM     53  C   UNL A   1      49.504  27.157  26.841  1.00  0.00     0.002 A 
ATOM     54  C   UNL A   1      48.477  27.496  24.675  1.00  0.00     0.091 A 
ATOM     55  F   UNL A   1      46.245  28.322  24.565  1.00  0.00    -0.205 F 
ATOM     56  C   UNL A   1      49.586  27.133  25.450  1.00  0.00     0.022 A 
BRANCH  54  57
ATOM     57  S   UNL A   1      48.593  27.289  22.895  1.00  0.00     0.127 S 
ATOM     58  O   UNL A   1      49.987  27.642  22.641  1.00  0.00    -0.237 OA
ATOM     59  O   UNL A   1      48.275  25.870  22.725  1.00  0.00    -0.237 OA
ATOM     60  O   UNL A   1      47.590  28.190  22.341  1.00  0.00    -0.744 OA
ENDBRANCH  54  57
ENDBRANCH  26  50
BRANCH  38  61
ATOM     61  C   UNL A   1      44.713  33.759  29.572  1.00  0.00     0.023 A 
ATOM     62  C   UNL A   1      45.390  34.095  30.760  1.00  0.00     0.012 A 
ATOM     63  C   UNL A   1      44.640  34.693  28.522  1.00  0.00     0.148 A 
ATOM     64  C   UNL A   1      45.962  35.356  30.914  1.00  0.00     0.002 A 
ATOM     65  C   UNL A   1      45.255  35.929  28.663  1.00  0.00     0.091 A 
ATOM     66  F   UNL A   1      43.972  34.355  27.408  1.00  0.00    -0.205 F 
ATOM     67  C   UNL A   1      45.905  36.268  29.862  1.00  0.00     0.022 A 
BRANCH  65  68
ATOM     68  S   UNL A   1      45.315  37.131  27.331  1.00  0.00     0.127 S 
ATOM     69  O   UNL A   1      43.894  37.342  27.056  1.00  0.00    -0.237 OA
ATOM     70  O   UNL A   1      45.990  38.263  27.965  1.00  0.00    -0.237 OA
ATOM     71  O   UNL A   1      46.070  36.502  26.255  1.00  0.00    -0.744 OA
ENDBRANCH  65  68
ENDBRANCH  38  61
ENDBRANCH  12  13
ENDBRANCH   5   7
ENDBRANCH   2   3
ENDBRANCH   1   2
BRANCH   1  72
ATOM     72  C   UNL A   1      35.828  21.105  24.893  1.00  0.00     0.117 C 
BRANCH  72  73
ATOM     73  N   UNL A   1      35.456  21.424  26.245  1.00  0.00    -0.354 N 
ATOM     74  C   UNL A   1      34.222  21.570  26.779  1.00  0.00     0.247 C 
ATOM     75  H   UNL A   1      36.206  21.555  26.870  1.00  0.00     0.163 HD
ATOM     76  O   UNL A   1      34.172  21.728  28.006  1.00  0.00    -0.272 OA
BRANCH  74  77
ATOM     77  C   UNL A   1      32.910  21.449  25.965  1.00  0.00     0.202 C 
BRANCH  77  78
ATOM     78  C   UNL A   1      32.658  20.207  25.110  1.00  0.00    -0.004 A 
ATOM     79  C   UNL A   1      32.822  18.962  25.778  1.00  0.00     0.007 A 
ATOM     80  C   UNL A   1      32.471  20.192  23.704  1.00  0.00     0.061 A 
ATOM     81  C   UNL A   1      32.890  17.755  25.086  1.00  0.00     0.000 A 
ATOM     82  C   UNL A   1      32.526  18.946  23.032  1.00  0.00     0.013 A 
ATOM     83  C   UNL A   1      32.756  17.749  23.708  1.00  0.00     0.001 A 
BRANCH  80  84
ATOM     84  C   UNL A   1      32.245  21.390  22.795  1.00  0.00     0.416 C 
ATOM     85  F   UNL A   1      31.217  22.173  23.224  1.00  0.00    -0.166 F 
ATOM     86  F   UNL A   1      33.343  22.198  22.765  1.00  0.00    -0.166 F 
ATOM     87  F   UNL A   1      31.979  21.119  21.491  1.00  0.00    -0.166 F 
ENDBRANCH  80  84
ENDBRANCH  77  78
BRANCH  77  88
ATOM     88  N   UNL A   1      31.701  22.067  26.509  1.00  0.00    -0.340 N 
ATOM     89  C   UNL A   1      31.382  23.404  26.602  1.00  0.00     0.226 C 
ATOM     90  H   UNL A   1      31.022  21.443  26.856  1.00  0.00     0.164 HD
ATOM     91  O   UNL A   1      30.299  23.733  27.080  1.00  0.00    -0.275 OA
BRANCH  89  92
ATOM     92  C   UNL A   1      32.380  24.422  26.088  1.00  0.00     0.107 C 
ATOM     93  C   UNL A   1      32.443  24.717  24.593  1.00  0.00     0.115 C 
ATOM     94  C   UNL A   1      32.021  25.788  26.617  1.00  0.00     0.133 C 
ATOM     95  C   UNL A   1      33.114  26.090  24.612  1.00  0.00     0.223 C 
ATOM     96  N   UNL A   1      32.800  26.689  25.838  1.00  0.00    -0.342 N 
ATOM     97  O   UNL A   1      33.825  26.541  23.742  1.00  0.00    -0.275 OA
BRANCH  96  98
ATOM     98  C   UNL A   1      33.594  27.757  26.432  1.00  0.00     0.123 C 
BRANCH  98  99
ATOM     99  C   UNL A   1      33.203  29.188  26.143  1.00  0.00     0.008 C 
ATOM    100  C   UNL A   1      31.901  29.683  25.550  1.00  0.00     0.006 C 
ATOM    101  C   UNL A   1      32.207  29.955  26.996  1.00  0.00     0.006 C 
ENDBRANCH  98  99
ENDBRANCH  96  98
ENDBRANCH  89  92
ENDBRANCH  77  88
ENDBRANCH  74  77
ENDBRANCH  72  73
ENDBRANCH   1  72
TORSDOF 19
ENDMDL
MODEL 3
REMARK VINA RESULT:     -12.9      1.484      1.770
REMARK SMILES O=C(NCCCNC(=O)[C@H](NC(=O)[C@H]1CC(=O)N(CC2CC2)C1)c1ccccc1C(F)(F)F)c1ccc(-c2c3nc(c(-c4cccc(S(=O)(=O)[O-])c4F)c4ccc([nH]4)c(-c4cccc(S(=O)(=O)[O-])c4F)c4nc(c(-c5cccc(S(=O)(=O)[O-])c5F)c5ccc2[nH]5)C=C4)C=C3)cc1
REMARK SMILES IDX 5 1 4 2 3 3 1 4 2 5 34 7 35 8 96 9 36 10 95 11 37 12 38 13
REMARK SMILES IDX 39 14 89 15 40 16 94 17 88 18 90 19 41 20 93 21 87 22 86 23
REMARK SMILES IDX 42 25 74 26 54 27 73 28 55 29 58 30 72 31 91 32 56 33 57 34
REMARK SMILES IDX 71 36 92 37 59 38 43 39 44 40 52 41 45 42 47 43 53 44 46 45
REMARK SMILES IDX 48 46 49 47 50 48 51 49 75 50 76 51 84 52 77 53 79 54 85 55
REMARK SMILES IDX 78 56 80 57 81 58 82 59 83 60 60 61 61 62 69 63 62 64 64 65
REMARK SMILES IDX 70 66 63 67 65 68 66 69 67 70 68 71 6 72 7 73 8 74 9 76
REMARK SMILES IDX 10 77 24 78 25 79 29 80 26 81 28 82 27 83 30 84 31 85 32 86
REMARK SMILES IDX 33 87 11 88 12 89 13 91 14 92 15 93 23 94 16 95 18 96 17 97
REMARK SMILES IDX 19 98 20 99 21 100 22 101
REMARK H PARENT 3 6 90 24 58 35 7 75 11 90
REMARK Flexibility Score: inf
ROOT
ATOM      1  C   UNL A   1      35.784  22.154  24.141  1.00  0.00     0.042 C 
ENDROOT
BRANCH   1   2
ATOM      2  C   UNL A   1      37.300  22.117  24.118  1.00  0.00     0.118 C 
BRANCH   2   3
ATOM      3  N   UNL A   1      37.802  21.058  24.979  1.00  0.00    -0.352 N 
ATOM      4  O   UNL A   1      39.462  20.033  26.093  1.00  0.00    -0.269 OA
ATOM      5  C   UNL A   1      38.894  21.084  25.812  1.00  0.00     0.251 C 
ATOM      6  H   UNL A   1      37.293  20.215  24.964  1.00  0.00     0.163 HD
BRANCH   5   7
ATOM      7  C   UNL A   1      39.352  22.373  26.369  1.00  0.00     0.039 A 
ATOM      8  C   UNL A   1      40.518  22.415  27.138  1.00  0.00     0.014 A 
ATOM      9  C   UNL A   1      38.679  23.556  26.052  1.00  0.00     0.014 A 
ATOM     10  C   UNL A   1      40.946  23.607  27.693  1.00  0.00     0.010 A 
ATOM     11  C   UNL A   1      39.190  24.778  26.497  1.00  0.00     0.010 A 
ATOM     12  C   UNL A   1      40.334  24.806  27.310  1.00  0.00    -0.014 A 
BRANCH  12  13
ATOM     13  C   UNL A   1      41.051  26.067  27.604  1.00  0.00     0.031 A 
ATOM     14  C   UNL A   1      42.445  26.308  27.119  1.00  0.00     0.074 A 
ATOM     15  C   UNL A   1      40.392  26.992  28.334  1.00  0.00     0.049 A 
ATOM     16  N   UNL A   1      43.193  27.365  27.296  1.00  0.00    -0.248 NA
ATOM     17  C   UNL A   1      43.092  25.234  26.349  1.00  0.00     0.031 C 
ATOM     18  C   UNL A   1      39.044  26.817  28.891  1.00  0.00     0.029 A 
ATOM     19  N   UNL A   1      40.749  28.250  28.737  1.00  0.00    -0.354 N 
ATOM     20  C   UNL A   1      44.415  27.067  26.710  1.00  0.00     0.074 A 
ATOM     21  C   UNL A   1      44.306  25.736  26.153  1.00  0.00     0.031 C 
ATOM     22  C   UNL A   1      38.679  27.931  29.535  1.00  0.00     0.029 A 
ATOM     23  C   UNL A   1      39.792  28.867  29.510  1.00  0.00     0.049 A 
ATOM     24  H   UNL A   1      41.605  28.673  28.497  1.00  0.00     0.167 HD
ATOM     25  C   UNL A   1      45.520  27.844  26.649  1.00  0.00     0.034 A 
ATOM     26  C   UNL A   1      39.822  30.039  30.169  1.00  0.00     0.034 A 
ATOM     27  C   UNL A   1      45.588  29.181  27.180  1.00  0.00     0.049 A 
ATOM     28  C   UNL A   1      41.059  30.877  30.060  1.00  0.00     0.074 A 
ATOM     29  C   UNL A   1      46.626  30.090  27.081  1.00  0.00     0.029 A 
ATOM     30  N   UNL A   1      44.591  29.790  27.927  1.00  0.00    -0.354 N 
ATOM     31  N   UNL A   1      42.147  30.647  29.364  1.00  0.00    -0.248 NA
ATOM     32  C   UNL A   1      41.074  32.138  30.810  1.00  0.00     0.031 C 
ATOM     33  C   UNL A   1      46.271  31.236  27.799  1.00  0.00     0.029 A 
ATOM     34  C   UNL A   1      45.001  31.051  28.323  1.00  0.00     0.049 A 
ATOM     35  H   UNL A   1      43.720  29.385  28.143  1.00  0.00     0.167 HD
ATOM     36  C   UNL A   1      42.976  31.734  29.589  1.00  0.00     0.074 A 
ATOM     37  C   UNL A   1      42.244  32.645  30.448  1.00  0.00     0.031 C 
ATOM     38  C   UNL A   1      44.239  31.950  29.151  1.00  0.00     0.034 A 
BRANCH  25  39
ATOM     39  C   UNL A   1      46.747  27.295  25.977  1.00  0.00     0.023 A 
ATOM     40  C   UNL A   1      46.958  27.526  24.604  1.00  0.00     0.012 A 
ATOM     41  C   UNL A   1      47.745  26.648  26.733  1.00  0.00     0.148 A 
ATOM     42  C   UNL A   1      48.141  27.115  23.989  1.00  0.00     0.002 A 
ATOM     43  C   UNL A   1      48.937  26.274  26.123  1.00  0.00     0.091 A 
ATOM     44  F   UNL A   1      47.513  26.420  28.033  1.00  0.00    -0.205 F 
ATOM     45  C   UNL A   1      49.133  26.501  24.751  1.00  0.00     0.022 A 
BRANCH  43  46
ATOM     46  S   UNL A   1      50.306  25.544  27.028  1.00  0.00     0.127 S 
ATOM     47  O   UNL A   1      51.278  25.319  25.959  1.00  0.00    -0.237 OA
ATOM     48  O   UNL A   1      50.660  26.615  27.961  1.00  0.00    -0.237 OA
ATOM     49  O   UNL A   1      49.780  24.337  27.652  1.00  0.00    -0.744 OA
ENDBRANCH  43  46
ENDBRANCH  25  39
BRANCH  26  50
ATOM     50  C   UNL A   1      38.655  30.465  30.991  1.00  0.00     0.023 A 
ATOM     51  C   UNL A   1      38.647  30.216  32.376  1.00  0.00     0.012 A 
ATOM     52  C   UNL A   1      37.570  31.152  30.412  1.00  0.00     0.148 A 
ATOM     53  C   UNL A   1      37.566  30.619  33.162  1.00  0.00     0.002 A 
ATOM     54  C   UNL A   1      36.529  31.609  31.211  1.00  0.00     0.091 A 
ATOM     55  F   UNL A   1      37.581  31.364  29.087  1.00  0.00    -0.205 F 
ATOM     56  C   UNL A   1      36.514  31.327  32.583  1.00  0.00     0.022 A 
BRANCH  54  57
ATOM     57  S   UNL A   1      35.230  32.662  30.557  1.00  0.00     0.127 S 
ATOM     58  O   UNL A   1      34.348  32.804  31.712  1.00  0.00    -0.237 OA
ATOM     59  O   UNL A   1      35.966  33.872  30.189  1.00  0.00    -0.237 OA
ATOM     60  O   UNL A   1      34.686  31.932  29.418  1.00  0.00    -0.744 OA
ENDBRANCH  54  57
ENDBRANCH  26  50
BRANCH  38  61
ATOM     61  C   UNL A   1      44.906  33.221  29.598  1.00  0.00     0.023 A 
ATOM     62  C   UNL A   1      45.696  33.214  30.763  1.00  0.00     0.012 A 
ATOM     63  C   UNL A   1      44.798  34.398  28.834  1.00  0.00     0.148 A 
ATOM     64  C   UNL A   1      46.348  34.373  31.181  1.00  0.00     0.002 A 
ATOM     65  C   UNL A   1      45.490  35.534  29.229  1.00  0.00     0.091 A 
ATOM     66  F   UNL A   1      44.023  34.382  27.739  1.00  0.00    -0.205 F 
ATOM     67  C   UNL A   1      46.255  35.528  30.407  1.00  0.00     0.022 A 
BRANCH  65  68
ATOM     68  S   UNL A   1      45.506  37.039  28.250  1.00  0.00     0.127 S 
ATOM     69  O   UNL A   1      44.126  37.501  28.392  1.00  0.00    -0.237 OA
ATOM     70  O   UNL A   1      46.499  37.854  28.949  1.00  0.00    -0.237 OA
ATOM     71  O   UNL A   1      45.892  36.639  26.903  1.00  0.00    -0.744 OA
ENDBRANCH  65  68
ENDBRANCH  38  61
ENDBRANCH  12  13
ENDBRANCH   5   7
ENDBRANCH   2   3
ENDBRANCH   1   2
BRANCH   1  72
ATOM     72  C   UNL A   1      35.261  23.175  25.136  1.00  0.00     0.117 C 
BRANCH  72  73
ATOM     73  N   UNL A   1      35.020  22.594  26.429  1.00  0.00    -0.354 N 
ATOM     74  C   UNL A   1      33.898  22.007  26.905  1.00  0.00     0.247 C 
ATOM     75  H   UNL A   1      35.778  22.628  27.057  1.00  0.00     0.163 HD
ATOM     76  O   UNL A   1      33.990  21.475  28.020  1.00  0.00    -0.272 OA
BRANCH  74  77
ATOM     77  C   UNL A   1      32.580  21.885  26.101  1.00  0.00     0.202 C 
BRANCH  77  78
ATOM     78  C   UNL A   1      32.419  20.767  25.071  1.00  0.00    -0.004 A 
ATOM     79  C   UNL A   1      32.611  19.448  25.567  1.00  0.00     0.007 A 
ATOM     80  C   UNL A   1      32.290  20.943  23.670  1.00  0.00     0.061 A 
ATOM     81  C   UNL A   1      32.761  18.354  24.718  1.00  0.00     0.000 A 
ATOM     82  C   UNL A   1      32.428  19.806  22.835  1.00  0.00     0.013 A 
ATOM     83  C   UNL A   1      32.683  18.536  23.348  1.00  0.00     0.001 A 
BRANCH  80  84
ATOM     84  C   UNL A   1      32.047  22.246  22.926  1.00  0.00     0.416 C 
ATOM     85  F   UNL A   1      32.896  23.232  23.326  1.00  0.00    -0.166 F 
ATOM     86  F   UNL A   1      32.257  22.093  21.587  1.00  0.00    -0.166 F 
ATOM     87  F   UNL A   1      30.801  22.775  23.022  1.00  0.00    -0.166 F 
ENDBRANCH  80  84
ENDBRANCH  77  78
BRANCH  77  88
ATOM     88  N   UNL A   1      31.335  22.297  26.750  1.00  0.00    -0.340 N 
ATOM     89  C   UNL A   1      30.672  23.501  26.658  1.00  0.00     0.226 C 
ATOM     90  H   UNL A   1      30.914  21.623  27.331  1.00  0.00     0.164 HD
ATOM     91  O   UNL A   1      29.619  23.656  27.272  1.00  0.00    -0.275 OA
BRANCH  89  92
ATOM     92  C   UNL A   1      31.263  24.586  25.782  1.00  0.00     0.107 C 
ATOM     93  C   UNL A   1      30.335  25.603  25.124  1.00  0.00     0.115 C 
ATOM     94  C   UNL A   1      32.114  25.503  26.624  1.00  0.00     0.133 C 
ATOM     95  C   UNL A   1      31.323  26.736  24.846  1.00  0.00     0.223 C 
ATOM     96  N   UNL A   1      32.349  26.636  25.794  1.00  0.00    -0.342 N 
ATOM     97  O   UNL A   1      31.245  27.533  23.938  1.00  0.00    -0.275 OA
BRANCH  96  98
ATOM     98  C   UNL A   1      33.675  27.206  25.599  1.00  0.00     0.123 C 
BRANCH  98  99
ATOM     99  C   UNL A   1      33.890  28.661  25.949  1.00  0.00     0.008 C 
ATOM    100  C   UNL A   1      33.322  29.414  27.133  1.00  0.00     0.006 C 
ATOM    101  C   UNL A   1      34.793  29.106  27.087  1.00  0.00     0.006 C 
ENDBRANCH  98  99
ENDBRANCH  96  98
ENDBRANCH  89  92
ENDBRANCH  77  88
ENDBRANCH  74  77
ENDBRANCH  72  73
ENDBRANCH   1  72
TORSDOF 19
ENDMDL
