MODEL 1
REMARK VINA RESULT:     -11.7      0.000      0.000
REMARK SMILES Cc1cccc(OCC(=O)Nc2cc(C(=O)NCCCNC(=O)c3ccc(-c4c5nc(c(-c6cccc(S(=O)(=O)[O-])c6F)c6ccc([nH]6)c(-c6cccc(S(=O)(=O)[O-])c6F)c6nc(c(-c7cccc(S(=O)(=O)[O-])c7F)c7ccc4[nH]7)C=C6)C=C5)cc3)c(Cl)cc2Cl)c1
REMARK SMILES IDX 18 1 17 2 15 3 16 4 14 6 12 7 13 8 90 9 89 10 91 11 87 12
REMARK SMILES IDX 88 13 11 14 9 15 10 16 8 18 7 19 6 20 1 21 2 22 3 23 92 24
REMARK SMILES IDX 4 25 5 26 19 27 20 28 21 29 22 30 23 32 24 33 25 34 86 35
REMARK SMILES IDX 26 36 85 37 27 38 28 39 29 40 79 41 30 42 84 43 78 44 80 45
REMARK SMILES IDX 31 46 83 47 77 48 76 49 32 51 64 52 44 53 63 54 45 55 48 56
REMARK SMILES IDX 62 57 81 58 46 59 47 60 61 62 82 63 49 64 33 65 34 66 42 67
REMARK SMILES IDX 35 68 37 69 43 70 36 71 38 72 39 73 40 74 41 75 65 76 66 77
REMARK SMILES IDX 74 78 67 79 69 80 75 81 68 82 70 83 71 84 72 85 73 86 50 87
REMARK SMILES IDX 51 88 59 89 52 90 54 91 60 92 53 93 55 94 56 95 57 96 58 97
REMARK H PARENT 17 5 11 17 21 31 80 50 48 61
REMARK Flexibility Score: inf
ROOT
ATOM      1  C   UNL A   1      37.330  23.946  25.907  1.00  0.00     0.118 C 
ENDROOT
BRANCH   1   2
ATOM      2  N   UNL A   1      37.291  22.500  25.815  1.00  0.00    -0.352 N 
ATOM      3  C   UNL A   1      36.306  21.659  25.353  1.00  0.00     0.252 C 
ATOM      4  O   UNL A   1      36.572  20.472  25.205  1.00  0.00    -0.269 OA
ATOM      5  H   UNL A   1      38.104  22.046  26.134  1.00  0.00     0.163 HD
BRANCH   3   6
ATOM      6  C   UNL A   1      34.930  22.154  25.053  1.00  0.00     0.060 A 
ATOM      7  C   UNL A   1      33.388  23.321  23.557  1.00  0.00     0.061 A 
ATOM      8  C   UNL A   1      34.608  22.682  23.778  1.00  0.00     0.043 A 
ATOM      9  C   UNL A   1      32.417  23.261  24.579  1.00  0.00     0.066 A 
ATOM     10  C   UNL A   1      32.673  22.633  25.795  1.00  0.00     0.044 A 
ATOM     11  Cl  UNL A   1      30.850  23.975  24.366  1.00  0.00    -0.082 Cl
ATOM     12  C   UNL A   1      33.939  22.107  26.050  1.00  0.00     0.055 A 
ATOM     13  Cl  UNL A   1      34.184  21.476  27.643  1.00  0.00    -0.083 Cl
BRANCH   7  14
ATOM     14  N   UNL A   1      33.072  24.111  22.433  1.00  0.00    -0.322 N 
ATOM     15  C   UNL A   1      33.054  25.429  22.098  1.00  0.00     0.262 C 
ATOM     16  O   UNL A   1      32.559  25.699  20.995  1.00  0.00    -0.271 OA
ATOM     17  H   UNL A   1      32.783  23.551  21.677  1.00  0.00     0.170 HD
BRANCH  15  18
ATOM     18  C   UNL A   1      33.695  26.537  22.929  1.00  0.00     0.329 C 
BRANCH  18  19
ATOM     19  O   UNL A   1      34.071  26.270  24.258  1.00  0.00    -0.484 OA
BRANCH  19  20
ATOM     20  C   UNL A   1      33.606  27.049  25.276  1.00  0.00     0.120 A 
ATOM     21  C   UNL A   1      34.128  29.956  27.690  1.00  0.00     0.044 C 
ATOM     22  C   UNL A   1      33.499  28.858  26.891  1.00  0.00    -0.047 A 
ATOM     23  C   UNL A   1      32.162  28.559  27.164  1.00  0.00     0.003 A 
ATOM     24  C   UNL A   1      34.214  28.118  25.922  1.00  0.00     0.049 A 
ATOM     25  C   UNL A   1      31.585  27.465  26.564  1.00  0.00     0.004 A 
ATOM     26  C   UNL A   1      32.331  26.692  25.682  1.00  0.00     0.046 A 
ENDBRANCH  19  20
ENDBRANCH  18  19
ENDBRANCH  15  18
ENDBRANCH   7  14
ENDBRANCH   3   6
ENDBRANCH   1   2
BRANCH   1  27
ATOM     27  C   UNL A   1      38.275  24.489  26.962  1.00  0.00     0.042 C 
BRANCH  27  28
ATOM     28  C   UNL A   1      39.724  24.646  26.509  1.00  0.00     0.118 C 
BRANCH  28  29
ATOM     29  N   UNL A   1      40.607  25.185  27.553  1.00  0.00    -0.352 N 
ATOM     30  C   UNL A   1      41.255  26.380  27.823  1.00  0.00     0.251 C 
ATOM     31  H   UNL A   1      40.787  24.515  28.252  1.00  0.00     0.163 HD
ATOM     32  O   UNL A   1      42.070  26.366  28.748  1.00  0.00    -0.269 OA
BRANCH  30  33
ATOM     33  C   UNL A   1      40.961  27.688  27.135  1.00  0.00     0.039 A 
ATOM     34  C   UNL A   1      41.964  28.606  27.469  1.00  0.00     0.014 A 
ATOM     35  C   UNL A   1      39.652  28.112  27.204  1.00  0.00     0.014 A 
ATOM     36  C   UNL A   1      41.710  29.465  28.523  1.00  0.00     0.010 A 
ATOM     37  C   UNL A   1      39.374  28.901  28.293  1.00  0.00     0.010 A 
ATOM     38  C   UNL A   1      40.431  29.451  29.036  1.00  0.00    -0.014 A 
BRANCH  38  39
ATOM     39  C   UNL A   1      40.025  30.010  30.302  1.00  0.00     0.031 A 
ATOM     40  C   UNL A   1      39.250  31.253  30.225  1.00  0.00     0.074 A 
ATOM     41  C   UNL A   1      40.055  29.230  31.407  1.00  0.00     0.049 A 
ATOM     42  N   UNL A   1      38.766  31.863  31.239  1.00  0.00    -0.248 NA
ATOM     43  C   UNL A   1      38.952  31.909  28.954  1.00  0.00     0.031 C 
ATOM     44  C   UNL A   1      39.194  29.312  32.582  1.00  0.00     0.029 A 
ATOM     45  N   UNL A   1      40.995  28.277  31.768  1.00  0.00    -0.354 N 
ATOM     46  C   UNL A   1      37.865  32.789  30.768  1.00  0.00     0.074 A 
ATOM     47  C   UNL A   1      38.077  32.836  29.346  1.00  0.00     0.031 C 
ATOM     48  C   UNL A   1      39.758  28.637  33.599  1.00  0.00     0.029 A 
ATOM     49  C   UNL A   1      41.091  28.261  33.168  1.00  0.00     0.049 A 
ATOM     50  H   UNL A   1      41.509  27.709  31.149  1.00  0.00     0.167 HD
ATOM     51  C   UNL A   1      36.967  33.284  31.659  1.00  0.00     0.034 A 
ATOM     52  C   UNL A   1      42.241  28.688  33.780  1.00  0.00     0.034 A 
ATOM     53  C   UNL A   1      37.358  32.889  33.023  1.00  0.00     0.049 A 
ATOM     54  C   UNL A   1      42.068  29.981  34.568  1.00  0.00     0.074 A 
ATOM     55  C   UNL A   1      36.938  31.895  33.891  1.00  0.00     0.029 A 
ATOM     56  N   UNL A   1      38.573  33.354  33.517  1.00  0.00    -0.354 N 
ATOM     57  N   UNL A   1      41.001  30.734  34.517  1.00  0.00    -0.248 NA
ATOM     58  C   UNL A   1      43.059  30.517  35.500  1.00  0.00     0.031 C 
ATOM     59  C   UNL A   1      37.966  31.703  34.860  1.00  0.00     0.029 A 
ATOM     60  C   UNL A   1      38.988  32.602  34.602  1.00  0.00     0.049 A 
ATOM     61  H   UNL A   1      39.070  34.118  33.144  1.00  0.00     0.167 HD
ATOM     62  C   UNL A   1      41.174  31.868  35.268  1.00  0.00     0.074 A 
ATOM     63  C   UNL A   1      42.457  31.647  35.918  1.00  0.00     0.031 C 
ATOM     64  C   UNL A   1      40.267  32.899  35.249  1.00  0.00     0.034 A 
BRANCH  51  65
ATOM     65  C   UNL A   1      35.641  33.946  31.340  1.00  0.00     0.023 A 
ATOM     66  C   UNL A   1      35.034  33.567  30.122  1.00  0.00     0.012 A 
ATOM     67  C   UNL A   1      34.975  34.960  32.070  1.00  0.00     0.148 A 
ATOM     68  C   UNL A   1      33.873  34.174  29.634  1.00  0.00     0.002 A 
ATOM     69  C   UNL A   1      33.807  35.562  31.592  1.00  0.00     0.091 A 
ATOM     70  F   UNL A   1      35.454  35.380  33.238  1.00  0.00    -0.205 F 
ATOM     71  C   UNL A   1      33.258  35.176  30.368  1.00  0.00     0.022 A 
BRANCH  69  72
ATOM     72  S   UNL A   1      32.949  36.877  32.482  1.00  0.00     0.127 S 
ATOM     73  O   UNL A   1      32.971  37.970  31.508  1.00  0.00    -0.237 OA
ATOM     74  O   UNL A   1      31.630  36.291  32.709  1.00  0.00    -0.237 OA
ATOM     75  O   UNL A   1      33.721  37.136  33.691  1.00  0.00    -0.744 OA
ENDBRANCH  69  72
ENDBRANCH  51  65
BRANCH  52  76
ATOM     76  C   UNL A   1      43.455  28.247  33.017  1.00  0.00     0.023 A 
ATOM     77  C   UNL A   1      43.597  26.843  32.859  1.00  0.00     0.012 A 
ATOM     78  C   UNL A   1      44.105  29.097  32.103  1.00  0.00     0.148 A 
ATOM     79  C   UNL A   1      44.164  26.308  31.703  1.00  0.00     0.002 A 
ATOM     80  C   UNL A   1      44.710  28.549  30.969  1.00  0.00     0.091 A 
ATOM     81  F   UNL A   1      44.063  30.418  32.316  1.00  0.00    -0.205 F 
ATOM     82  C   UNL A   1      44.675  27.164  30.734  1.00  0.00     0.022 A 
BRANCH  80  83
ATOM     83  S   UNL A   1      45.480  29.581  29.711  1.00  0.00     0.127 S 
ATOM     84  O   UNL A   1      46.804  29.807  30.289  1.00  0.00    -0.237 OA
ATOM     85  O   UNL A   1      45.476  28.719  28.528  1.00  0.00    -0.237 OA
ATOM     86  O   UNL A   1      44.625  30.750  29.598  1.00  0.00    -0.744 OA
ENDBRANCH  80  83
ENDBRANCH  52  76
BRANCH  64  87
ATOM     87  C   UNL A   1      40.485  34.305  35.805  1.00  0.00     0.023 A 
ATOM     88  C   UNL A   1      39.926  34.740  37.021  1.00  0.00     0.012 A 
ATOM     89  C   UNL A   1      41.407  35.197  35.188  1.00  0.00     0.148 A 
ATOM     90  C   UNL A   1      40.222  35.993  37.571  1.00  0.00     0.002 A 
ATOM     91  C   UNL A   1      41.802  36.380  35.809  1.00  0.00     0.091 A 
ATOM     92  F   UNL A   1      41.900  34.925  33.972  1.00  0.00    -0.205 F 
ATOM     93  C   UNL A   1      41.185  36.801  36.984  1.00  0.00     0.022 A 
BRANCH  91  94
ATOM     94  S   UNL A   1      43.234  37.299  35.220  1.00  0.00     0.127 S 
ATOM     95  O   UNL A   1      42.667  38.071  34.116  1.00  0.00    -0.237 OA
ATOM     96  O   UNL A   1      43.599  38.095  36.395  1.00  0.00    -0.237 OA
ATOM     97  O   UNL A   1      44.213  36.283  34.863  1.00  0.00    -0.744 OA
ENDBRANCH  91  94
ENDBRANCH  64  87
ENDBRANCH  38  39
ENDBRANCH  30  33
ENDBRANCH  28  29
ENDBRANCH  27  28
ENDBRANCH   1  27
TORSDOF 17
ENDMDL
MODEL 2
REMARK VINA RESULT:     -11.5      8.034     13.124
REMARK SMILES Cc1cccc(OCC(=O)Nc2cc(C(=O)NCCCNC(=O)c3ccc(-c4c5nc(c(-c6cccc(S(=O)(=O)[O-])c6F)c6ccc([nH]6)c(-c6cccc(S(=O)(=O)[O-])c6F)c6nc(c(-c7cccc(S(=O)(=O)[O-])c7F)c7ccc4[nH]7)C=C6)C=C5)cc3)c(Cl)cc2Cl)c1
REMARK SMILES IDX 18 1 17 2 15 3 16 4 14 6 12 7 13 8 90 9 89 10 91 11 87 12
REMARK SMILES IDX 88 13 11 14 9 15 10 16 8 18 7 19 6 20 1 21 2 22 3 23 92 24
REMARK SMILES IDX 4 25 5 26 19 27 20 28 21 29 22 30 23 32 24 33 25 34 86 35
REMARK SMILES IDX 26 36 85 37 27 38 28 39 29 40 79 41 30 42 84 43 78 44 80 45
REMARK SMILES IDX 31 46 83 47 77 48 76 49 32 51 64 52 44 53 63 54 45 55 48 56
REMARK SMILES IDX 62 57 81 58 46 59 47 60 61 62 82 63 49 64 33 65 34 66 42 67
REMARK SMILES IDX 35 68 37 69 43 70 36 71 38 72 39 73 40 74 41 75 65 76 66 77
REMARK SMILES IDX 74 78 67 79 69 80 75 81 68 82 70 83 71 84 72 85 73 86 50 87
REMARK SMILES IDX 51 88 59 89 52 90 54 91 60 92 53 93 55 94 56 95 57 96 58 97
REMARK H PARENT 17 5 11 17 21 31 80 50 48 61
REMARK Flexibility Score: inf
ROOT
ATOM      1  C   UNL A   1      46.626  22.235  38.870  1.00  0.00     0.118 C 
ENDROOT
BRANCH   1   2
ATOM      2  N   UNL A   1      46.276  21.046  38.121  1.00  0.00    -0.352 N 
ATOM      3  C   UNL A   1      46.249  19.724  38.501  1.00  0.00     0.252 C 
ATOM      4  O   UNL A   1      45.745  18.906  37.740  1.00  0.00    -0.269 OA
ATOM      5  H   UNL A   1      46.015  21.210  37.187  1.00  0.00     0.163 HD
BRANCH   3   6
ATOM      6  C   UNL A   1      46.835  19.269  39.796  1.00  0.00     0.060 A 
ATOM      7  C   UNL A   1      46.578  18.825  42.187  1.00  0.00     0.061 A 
ATOM      8  C   UNL A   1      46.014  19.058  40.932  1.00  0.00     0.043 A 
ATOM      9  C   UNL A   1      47.972  18.621  42.257  1.00  0.00     0.066 A 
ATOM     10  C   UNL A   1      48.780  18.699  41.125  1.00  0.00     0.044 A 
ATOM     11  Cl  UNL A   1      48.749  18.264  43.767  1.00  0.00    -0.082 Cl
ATOM     12  C   UNL A   1      48.221  19.056  39.899  1.00  0.00     0.055 A 
ATOM     13  Cl  UNL A   1      49.340  19.258  38.593  1.00  0.00    -0.083 Cl
BRANCH   7  14
ATOM     14  N   UNL A   1      45.885  18.872  43.414  1.00  0.00    -0.322 N 
ATOM     15  C   UNL A   1      45.033  18.086  44.123  1.00  0.00     0.262 C 
ATOM     16  O   UNL A   1      44.541  18.600  45.137  1.00  0.00    -0.271 OA
ATOM     17  H   UNL A   1      46.071  19.712  43.893  1.00  0.00     0.170 HD
BRANCH  15  18
ATOM     18  C   UNL A   1      44.753  16.618  43.809  1.00  0.00     0.329 C 
BRANCH  18  19
ATOM     19  O   UNL A   1      43.442  16.219  43.497  1.00  0.00    -0.484 OA
BRANCH  19  20
ATOM     20  C   UNL A   1      43.117  15.847  42.226  1.00  0.00     0.120 A 
ATOM     21  C   UNL A   1      43.732  16.104  38.471  1.00  0.00     0.044 C 
ATOM     22  C   UNL A   1      43.246  15.648  39.810  1.00  0.00    -0.047 A 
ATOM     23  C   UNL A   1      42.312  14.610  39.829  1.00  0.00     0.003 A 
ATOM     24  C   UNL A   1      43.671  16.249  41.018  1.00  0.00     0.049 A 
ATOM     25  C   UNL A   1      41.726  14.257  41.021  1.00  0.00     0.004 A 
ATOM     26  C   UNL A   1      42.088  14.921  42.187  1.00  0.00     0.046 A 
ENDBRANCH  19  20
ENDBRANCH  18  19
ENDBRANCH  15  18
ENDBRANCH   7  14
ENDBRANCH   3   6
ENDBRANCH   1   2
BRANCH   1  27
ATOM     27  C   UNL A   1      45.492  23.227  39.051  1.00  0.00     0.042 C 
BRANCH  27  28
ATOM     28  C   UNL A   1      45.307  24.211  37.899  1.00  0.00     0.118 C 
BRANCH  28  29
ATOM     29  N   UNL A   1      44.064  23.999  37.144  1.00  0.00    -0.352 N 
ATOM     30  C   UNL A   1      43.680  23.908  35.816  1.00  0.00     0.251 C 
ATOM     31  H   UNL A   1      43.292  23.891  37.747  1.00  0.00     0.163 HD
ATOM     32  O   UNL A   1      42.467  23.898  35.593  1.00  0.00    -0.269 OA
BRANCH  30  33
ATOM     33  C   UNL A   1      44.631  23.729  34.661  1.00  0.00     0.039 A 
ATOM     34  C   UNL A   1      45.569  24.768  34.688  1.00  0.00     0.014 A 
ATOM     35  C   UNL A   1      44.044  23.425  33.452  1.00  0.00     0.014 A 
ATOM     36  C   UNL A   1      45.312  25.874  33.898  1.00  0.00     0.010 A 
ATOM     37  C   UNL A   1      43.713  24.523  32.696  1.00  0.00     0.010 A 
ATOM     38  C   UNL A   1      44.246  25.778  33.030  1.00  0.00    -0.014 A 
BRANCH  38  39
ATOM     39  C   UNL A   1      43.608  26.881  32.353  1.00  0.00     0.031 A 
ATOM     40  C   UNL A   1      42.654  27.650  33.159  1.00  0.00     0.074 A 
ATOM     41  C   UNL A   1      44.148  27.350  31.205  1.00  0.00     0.049 A 
ATOM     42  N   UNL A   1      42.032  28.686  32.742  1.00  0.00    -0.248 NA
ATOM     43  C   UNL A   1      42.333  27.295  34.539  1.00  0.00     0.031 C 
ATOM     44  C   UNL A   1      44.100  28.714  30.688  1.00  0.00     0.029 A 
ATOM     45  N   UNL A   1      44.733  26.639  30.169  1.00  0.00    -0.354 N 
ATOM     46  C   UNL A   1      41.481  29.303  33.841  1.00  0.00     0.074 A 
ATOM     47  C   UNL A   1      41.626  28.360  34.918  1.00  0.00     0.031 C 
ATOM     48  C   UNL A   1      44.410  28.709  29.380  1.00  0.00     0.029 A 
ATOM     49  C   UNL A   1      44.480  27.319  28.968  1.00  0.00     0.049 A 
ATOM     50  H   UNL A   1      45.239  25.798  30.259  1.00  0.00     0.167 HD
ATOM     51  C   UNL A   1      41.102  30.599  33.695  1.00  0.00     0.034 A 
ATOM     52  C   UNL A   1      43.658  26.760  28.024  1.00  0.00     0.034 A 
ATOM     53  C   UNL A   1      41.134  30.964  32.269  1.00  0.00     0.049 A 
ATOM     54  C   UNL A   1      42.344  27.509  27.838  1.00  0.00     0.074 A 
ATOM     55  C   UNL A   1      42.039  31.648  31.474  1.00  0.00     0.029 A 
ATOM     56  N   UNL A   1      40.279  30.292  31.401  1.00  0.00    -0.354 N 
ATOM     57  N   UNL A   1      41.929  28.468  28.624  1.00  0.00    -0.248 NA
ATOM     58  C   UNL A   1      41.407  27.270  26.742  1.00  0.00     0.031 C 
ATOM     59  C   UNL A   1      41.775  31.299  30.117  1.00  0.00     0.029 A 
ATOM     60  C   UNL A   1      40.691  30.436  30.087  1.00  0.00     0.049 A 
ATOM     61  H   UNL A   1      39.486  29.782  31.684  1.00  0.00     0.167 HD
ATOM     62  C   UNL A   1      40.678  28.889  28.252  1.00  0.00     0.074 A 
ATOM     63  C   UNL A   1      40.428  28.151  27.024  1.00  0.00     0.031 C 
ATOM     64  C   UNL A   1      39.951  29.771  29.014  1.00  0.00     0.034 A 
BRANCH  51  65
ATOM     65  C   UNL A   1      40.889  31.613  34.802  1.00  0.00     0.023 A 
ATOM     66  C   UNL A   1      42.012  32.393  35.155  1.00  0.00     0.012 A 
ATOM     67  C   UNL A   1      39.726  31.819  35.584  1.00  0.00     0.148 A 
ATOM     68  C   UNL A   1      42.006  33.285  36.232  1.00  0.00     0.002 A 
ATOM     69  C   UNL A   1      39.712  32.719  36.655  1.00  0.00     0.091 A 
ATOM     70  F   UNL A   1      38.608  31.147  35.325  1.00  0.00    -0.205 F 
ATOM     71  C   UNL A   1      40.855  33.446  36.987  1.00  0.00     0.022 A 
BRANCH  69  72
ATOM     72  S   UNL A   1      38.257  32.983  37.690  1.00  0.00     0.127 S 
ATOM     73  O   UNL A   1      37.196  33.136  36.692  1.00  0.00    -0.237 OA
ATOM     74  O   UNL A   1      38.193  31.742  38.459  1.00  0.00    -0.237 OA
ATOM     75  O   UNL A   1      38.516  34.181  38.478  1.00  0.00    -0.744 OA
ENDBRANCH  69  72
ENDBRANCH  51  65
BRANCH  52  76
ATOM     76  C   UNL A   1      43.879  25.279  27.925  1.00  0.00     0.023 A 
ATOM     77  C   UNL A   1      42.871  24.473  28.515  1.00  0.00     0.012 A 
ATOM     78  C   UNL A   1      44.689  24.717  26.920  1.00  0.00     0.148 A 
ATOM     79  C   UNL A   1      42.528  23.238  27.964  1.00  0.00     0.002 A 
ATOM     80  C   UNL A   1      44.366  23.460  26.404  1.00  0.00     0.091 A 
ATOM     81  F   UNL A   1      45.709  25.439  26.442  1.00  0.00    -0.205 F 
ATOM     82  C   UNL A   1      43.245  22.755  26.875  1.00  0.00     0.022 A 
BRANCH  80  83
ATOM     83  S   UNL A   1      45.301  22.718  25.056  1.00  0.00     0.127 S 
ATOM     84  O   UNL A   1      46.654  22.707  25.611  1.00  0.00    -0.237 OA
ATOM     85  O   UNL A   1      44.692  21.394  24.921  1.00  0.00    -0.237 OA
ATOM     86  O   UNL A   1      45.086  23.590  23.914  1.00  0.00    -0.744 OA
ENDBRANCH  80  83
ENDBRANCH  52  76
BRANCH  64  87
ATOM     87  C   UNL A   1      38.465  30.086  28.859  1.00  0.00     0.023 A 
ATOM     88  C   UNL A   1      37.504  29.104  28.556  1.00  0.00     0.012 A 
ATOM     89  C   UNL A   1      37.957  31.378  29.178  1.00  0.00     0.148 A 
ATOM     90  C   UNL A   1      36.133  29.388  28.523  1.00  0.00     0.002 A 
ATOM     91  C   UNL A   1      36.588  31.617  29.280  1.00  0.00     0.091 A 
ATOM     92  F   UNL A   1      38.795  32.407  29.365  1.00  0.00    -0.205 F 
ATOM     93  C   UNL A   1      35.671  30.635  28.917  1.00  0.00     0.022 A 
BRANCH  91  94
ATOM     94  S   UNL A   1      35.968  33.122  30.049  1.00  0.00     0.127 S 
ATOM     95  O   UNL A   1      36.218  34.120  29.010  1.00  0.00    -0.237 OA
ATOM     96  O   UNL A   1      34.554  32.805  30.261  1.00  0.00    -0.237 OA
ATOM     97  O   UNL A   1      36.737  33.262  31.276  1.00  0.00    -0.744 OA
ENDBRANCH  91  94
ENDBRANCH  64  87
ENDBRANCH  38  39
ENDBRANCH  30  33
ENDBRANCH  28  29
ENDBRANCH  27  28
ENDBRANCH   1  27
TORSDOF 17
ENDMDL
MODEL 3
REMARK VINA RESULT:     -11.3      2.011      2.288
REMARK SMILES Cc1cccc(OCC(=O)Nc2cc(C(=O)NCCCNC(=O)c3ccc(-c4c5nc(c(-c6cccc(S(=O)(=O)[O-])c6F)c6ccc([nH]6)c(-c6cccc(S(=O)(=O)[O-])c6F)c6nc(c(-c7cccc(S(=O)(=O)[O-])c7F)c7ccc4[nH]7)C=C6)C=C5)cc3)c(Cl)cc2Cl)c1
REMARK SMILES IDX 18 1 17 2 15 3 16 4 14 6 12 7 13 8 90 9 89 10 91 11 87 12
REMARK SMILES IDX 88 13 11 14 9 15 10 16 8 18 7 19 6 20 1 21 2 22 3 23 92 24
REMARK SMILES IDX 4 25 5 26 19 27 20 28 21 29 22 30 23 32 24 33 25 34 86 35
REMARK SMILES IDX 26 36 85 37 27 38 28 39 29 40 79 41 30 42 84 43 78 44 80 45
REMARK SMILES IDX 31 46 83 47 77 48 76 49 32 51 64 52 44 53 63 54 45 55 48 56
REMARK SMILES IDX 62 57 81 58 46 59 47 60 61 62 82 63 49 64 33 65 34 66 42 67
REMARK SMILES IDX 35 68 37 69 43 70 36 71 38 72 39 73 40 74 41 75 65 76 66 77
REMARK SMILES IDX 74 78 67 79 69 80 75 81 68 82 70 83 71 84 72 85 73 86 50 87
REMARK SMILES IDX 51 88 59 89 52 90 54 91 60 92 53 93 55 94 56 95 57 96 58 97
REMARK H PARENT 17 5 11 17 21 31 80 50 48 61
REMARK Flexibility Score: inf
ROOT
ATOM      1  C   UNL A   1      37.247  23.713  25.660  1.00  0.00     0.118 C 
ENDROOT
BRANCH   1   2
ATOM      2  N   UNL A   1      37.143  22.270  25.582  1.00  0.00    -0.352 N 
ATOM      3  C   UNL A   1      36.145  21.470  25.075  1.00  0.00     0.252 C 
ATOM      4  O   UNL A   1      36.361  20.270  24.956  1.00  0.00    -0.269 OA
ATOM      5  H   UNL A   1      37.913  21.782  25.952  1.00  0.00     0.163 HD
BRANCH   3   6
ATOM      6  C   UNL A   1      34.814  22.027  24.692  1.00  0.00     0.060 A 
ATOM      7  C   UNL A   1      33.444  23.356  23.165  1.00  0.00     0.061 A 
ATOM      8  C   UNL A   1      34.625  22.667  23.442  1.00  0.00     0.043 A 
ATOM      9  C   UNL A   1      32.380  23.240  24.084  1.00  0.00     0.066 A 
ATOM     10  C   UNL A   1      32.507  22.506  25.261  1.00  0.00     0.044 A 
ATOM     11  Cl  UNL A   1      30.855  24.012  23.789  1.00  0.00    -0.082 Cl
ATOM     12  C   UNL A   1      33.733  21.926  25.586  1.00  0.00     0.055 A 
ATOM     13  Cl  UNL A   1      33.814  21.159  27.135  1.00  0.00    -0.083 Cl
BRANCH   7  14
ATOM     14  N   UNL A   1      33.252  24.245  22.088  1.00  0.00    -0.322 N 
ATOM     15  C   UNL A   1      33.175  25.588  21.888  1.00  0.00     0.262 C 
ATOM     16  O   UNL A   1      32.848  25.946  20.748  1.00  0.00    -0.271 OA
ATOM     17  H   UNL A   1      33.142  23.756  21.240  1.00  0.00     0.170 HD
BRANCH  15  18
ATOM     18  C   UNL A   1      33.570  26.636  22.925  1.00  0.00     0.329 C 
BRANCH  18  19
ATOM     19  O   UNL A   1      33.781  26.240  24.257  1.00  0.00    -0.484 OA
BRANCH  19  20
ATOM     20  C   UNL A   1      33.424  27.061  25.286  1.00  0.00     0.120 A 
ATOM     21  C   UNL A   1      34.232  30.005  27.572  1.00  0.00     0.044 C 
ATOM     22  C   UNL A   1      33.505  28.912  26.854  1.00  0.00    -0.047 A 
ATOM     23  C   UNL A   1      32.184  28.669  27.236  1.00  0.00     0.003 A 
ATOM     24  C   UNL A   1      34.117  28.122  25.854  1.00  0.00     0.049 A 
ATOM     25  C   UNL A   1      31.524  27.583  26.713  1.00  0.00     0.004 A 
ATOM     26  C   UNL A   1      32.172  26.761  25.798  1.00  0.00     0.046 A 
ENDBRANCH  19  20
ENDBRANCH  18  19
ENDBRANCH  15  18
ENDBRANCH   7  14
ENDBRANCH   3   6
ENDBRANCH   1   2
BRANCH   1  27
ATOM     27  C   UNL A   1      38.115  24.226  26.794  1.00  0.00     0.042 C 
BRANCH  27  28
ATOM     28  C   UNL A   1      39.566  23.753  26.760  1.00  0.00     0.118 C 
BRANCH  28  29
ATOM     29  N   UNL A   1      40.410  24.384  27.784  1.00  0.00    -0.352 N 
ATOM     30  C   UNL A   1      41.012  25.615  27.992  1.00  0.00     0.251 C 
ATOM     31  H   UNL A   1      40.600  23.763  28.524  1.00  0.00     0.163 HD
ATOM     32  O   UNL A   1      41.810  25.685  28.929  1.00  0.00    -0.269 OA
BRANCH  30  33
ATOM     33  C   UNL A   1      40.686  26.868  27.221  1.00  0.00     0.039 A 
ATOM     34  C   UNL A   1      41.685  27.818  27.468  1.00  0.00     0.014 A 
ATOM     35  C   UNL A   1      39.375  27.283  27.292  1.00  0.00     0.014 A 
ATOM     36  C   UNL A   1      41.445  28.745  28.465  1.00  0.00     0.010 A 
ATOM     37  C   UNL A   1      39.111  28.143  28.330  1.00  0.00     0.010 A 
ATOM     38  C   UNL A   1      40.178  28.754  29.008  1.00  0.00    -0.014 A 
BRANCH  38  39
ATOM     39  C   UNL A   1      39.794  29.396  30.241  1.00  0.00     0.031 A 
ATOM     40  C   UNL A   1      39.120  30.690  30.097  1.00  0.00     0.074 A 
ATOM     41  C   UNL A   1      39.744  28.663  31.377  1.00  0.00     0.049 A 
ATOM     42  N   UNL A   1      38.667  31.378  31.075  1.00  0.00    -0.248 NA
ATOM     43  C   UNL A   1      38.896  31.313  28.795  1.00  0.00     0.031 C 
ATOM     44  C   UNL A   1      38.871  28.861  32.530  1.00  0.00     0.029 A 
ATOM     45  N   UNL A   1      40.601  27.656  31.797  1.00  0.00    -0.354 N 
ATOM     46  C   UNL A   1      37.848  32.350  30.548  1.00  0.00     0.074 A 
ATOM     47  C   UNL A   1      38.088  32.320  29.129  1.00  0.00     0.031 C 
ATOM     48  C   UNL A   1      39.363  28.188  33.585  1.00  0.00     0.029 A 
ATOM     49  C   UNL A   1      40.670  27.692  33.198  1.00  0.00     0.049 A 
ATOM     50  H   UNL A   1      41.080  27.025  31.212  1.00  0.00     0.167 HD
ATOM     51  C   UNL A   1      36.976  32.949  31.399  1.00  0.00     0.034 A 
ATOM     52  C   UNL A   1      41.839  28.056  33.816  1.00  0.00     0.034 A 
ATOM     53  C   UNL A   1      37.311  32.584  32.785  1.00  0.00     0.049 A 
ATOM     54  C   UNL A   1      41.753  29.390  34.547  1.00  0.00     0.074 A 
ATOM     55  C   UNL A   1      36.799  31.662  33.684  1.00  0.00     0.029 A 
ATOM     56  N   UNL A   1      38.549  32.974  33.286  1.00  0.00    -0.354 N 
ATOM     57  N   UNL A   1      40.748  30.221  34.443  1.00  0.00    -0.248 NA
ATOM     58  C   UNL A   1      42.766  29.888  35.476  1.00  0.00     0.031 C 
ATOM     59  C   UNL A   1      37.792  31.433  34.682  1.00  0.00     0.029 A 
ATOM     60  C   UNL A   1      38.886  32.239  34.409  1.00  0.00     0.049 A 
ATOM     61  H   UNL A   1      39.111  33.681  32.892  1.00  0.00     0.167 HD
ATOM     62  C   UNL A   1      40.996  31.369  35.150  1.00  0.00     0.074 A 
ATOM     63  C   UNL A   1      42.245  31.077  35.835  1.00  0.00     0.031 C 
ATOM     64  C   UNL A   1      40.171  32.464  35.070  1.00  0.00     0.034 A 
BRANCH  51  65
ATOM     65  C   UNL A   1      35.711  33.697  31.025  1.00  0.00     0.023 A 
ATOM     66  C   UNL A   1      35.143  33.371  29.774  1.00  0.00     0.012 A 
ATOM     67  C   UNL A   1      35.074  34.742  31.737  1.00  0.00     0.148 A 
ATOM     68  C   UNL A   1      34.047  34.055  29.238  1.00  0.00     0.002 A 
ATOM     69  C   UNL A   1      33.971  35.422  31.211  1.00  0.00     0.091 A 
ATOM     70  F   UNL A   1      35.520  35.118  32.932  1.00  0.00    -0.205 F 
ATOM     71  C   UNL A   1      33.461  35.086  29.956  1.00  0.00     0.022 A 
BRANCH  69  72
ATOM     72  S   UNL A   1      33.154  36.778  32.078  1.00  0.00     0.127 S 
ATOM     73  O   UNL A   1      34.246  37.328  32.882  1.00  0.00    -0.237 OA
ATOM     74  O   UNL A   1      32.720  37.635  30.976  1.00  0.00    -0.237 OA
ATOM     75  O   UNL A   1      32.074  36.186  32.857  1.00  0.00    -0.744 OA
ENDBRANCH  69  72
ENDBRANCH  51  65
BRANCH  52  76
ATOM     76  C   UNL A   1      43.029  27.491  33.097  1.00  0.00     0.023 A 
ATOM     77  C   UNL A   1      43.742  28.410  32.285  1.00  0.00     0.012 A 
ATOM     78  C   UNL A   1      43.698  26.343  33.561  1.00  0.00     0.148 A 
ATOM     79  C   UNL A   1      45.125  28.312  32.137  1.00  0.00     0.002 A 
ATOM     80  C   UNL A   1      45.077  26.230  33.371  1.00  0.00     0.091 A 
ATOM     81  F   UNL A   1      42.997  25.422  34.235  1.00  0.00    -0.205 F 
ATOM     82  C   UNL A   1      45.799  27.248  32.725  1.00  0.00     0.022 A 
BRANCH  80  83
ATOM     83  S   UNL A   1      46.014  24.835  34.017  1.00  0.00     0.127 S 
ATOM     84  O   UNL A   1      45.787  24.971  35.455  1.00  0.00    -0.237 OA
ATOM     85  O   UNL A   1      45.351  23.681  33.406  1.00  0.00    -0.237 OA
ATOM     86  O   UNL A   1      47.378  25.045  33.563  1.00  0.00    -0.744 OA
ENDBRANCH  80  83
ENDBRANCH  52  76
BRANCH  64  87
ATOM     87  C   UNL A   1      40.488  33.872  35.572  1.00  0.00     0.023 A 
ATOM     88  C   UNL A   1      40.824  34.932  34.710  1.00  0.00     0.012 A 
ATOM     89  C   UNL A   1      40.298  34.216  36.940  1.00  0.00     0.148 A 
ATOM     90  C   UNL A   1      41.005  36.241  35.175  1.00  0.00     0.002 A 
ATOM     91  C   UNL A   1      40.344  35.540  37.370  1.00  0.00     0.091 A 
ATOM     92  F   UNL A   1      40.093  33.260  37.857  1.00  0.00    -0.205 F 
ATOM     93  C   UNL A   1      40.733  36.553  36.499  1.00  0.00     0.022 A 
BRANCH  91  94
ATOM     94  S   UNL A   1      39.730  36.005  38.998  1.00  0.00     0.127 S 
ATOM     95  O   UNL A   1      38.944  37.200  38.697  1.00  0.00    -0.237 OA
ATOM     96  O   UNL A   1      38.935  34.834  39.378  1.00  0.00    -0.237 OA
ATOM     97  O   UNL A   1      40.922  36.203  39.808  1.00  0.00    -0.744 OA
ENDBRANCH  91  94
ENDBRANCH  64  87
ENDBRANCH  38  39
ENDBRANCH  30  33
ENDBRANCH  28  29
ENDBRANCH  27  28
ENDBRANCH   1  27
TORSDOF 17
ENDMDL
