MODEL 1
REMARK VINA RESULT:     -13.7      0.000      0.000
REMARK SMILES Cc1ccc2c(c1)OCCN2c1sc(C(=O)NCCCNC(=O)c2ccc(-c3c4nc(c(-c5cccc(S(=O)(=O)[O-])c5F)c5ccc([nH]5)c(-c5cccc(S(=O)(=O)[O-])c5F)c5nc(c(-c6cccc(S(=O)(=O)[O-])c6F)c6ccc3[nH]6)C=C5)C=C4)cc2)cc1C
REMARK SMILES IDX 20 1 19 2 18 3 17 4 15 5 16 6 14 8 12 9 13 10 88 11 87 12
REMARK SMILES IDX 89 13 11 14 1 15 2 16 3 17 7 18 4 19 6 20 5 21 8 22 9 23
REMARK SMILES IDX 10 24 21 25 22 26 23 28 24 29 25 30 86 31 26 32 85 33 27 34
REMARK SMILES IDX 28 35 29 36 79 37 30 38 84 39 78 40 80 41 31 42 83 43 77 44
REMARK SMILES IDX 76 45 32 47 64 48 44 49 63 50 45 51 48 52 62 53 81 54 46 55
REMARK SMILES IDX 47 56 61 58 82 59 49 60 33 61 34 62 42 63 35 64 37 65 43 66
REMARK SMILES IDX 36 67 38 68 39 69 40 70 41 71 65 72 66 73 74 74 67 75 69 76
REMARK SMILES IDX 75 77 68 78 70 79 71 80 72 81 73 82 50 83 51 84 59 85 52 86
REMARK SMILES IDX 54 87 60 88 53 89 55 90 56 91 57 92 58 93
REMARK H PARENT 17 7 21 27 80 46 48 57
REMARK Flexibility Score: inf
ROOT
ATOM      1  C   UNL A   1      32.128  30.362  26.612  1.00  0.00     0.118 C 
ENDROOT
BRANCH   1   2
ATOM      2  C   UNL A   1      31.398  29.919  25.346  1.00  0.00     0.042 C 
BRANCH   2   3
ATOM      3  C   UNL A   1      31.393  28.406  25.154  1.00  0.00     0.118 C 
BRANCH   3   4
ATOM      4  N   UNL A   1      31.169  28.048  23.765  1.00  0.00    -0.351 N 
ATOM      5  C   UNL A   1      31.224  26.861  23.078  1.00  0.00     0.261 C 
ATOM      6  O   UNL A   1      30.896  26.940  21.889  1.00  0.00    -0.268 OA
ATOM      7  H   UNL A   1      30.928  28.816  23.198  1.00  0.00     0.163 HD
BRANCH   5   8
ATOM      8  C   UNL A   1      31.560  25.580  23.682  1.00  0.00     0.094 A 
ATOM      9  C   UNL A   1      32.605  23.513  24.593  1.00  0.00     0.099 A 
ATOM     10  S   UNL A   1      32.932  24.635  23.332  1.00  0.00    -0.112 S 
ATOM     11  C   UNL A   1      31.327  23.706  25.099  1.00  0.00    -0.015 A 
ATOM     12  C   UNL A   1      30.740  24.898  24.565  1.00  0.00     0.031 A 
ATOM     13  C   UNL A   1      30.638  22.853  26.111  1.00  0.00     0.047 C 
BRANCH   9  14
ATOM     14  N   UNL A   1      33.486  22.538  24.960  1.00  0.00    -0.327 N 
ATOM     15  C   UNL A   1      33.410  16.975  23.443  1.00  0.00     0.044 C 
ATOM     16  C   UNL A   1      33.430  18.429  23.808  1.00  0.00    -0.047 A 
ATOM     17  C   UNL A   1      32.403  19.287  23.414  1.00  0.00     0.006 A 
ATOM     18  C   UNL A   1      34.484  18.947  24.565  1.00  0.00     0.052 A 
ATOM     19  C   UNL A   1      32.426  20.641  23.772  1.00  0.00     0.030 A 
ATOM     20  C   UNL A   1      34.504  20.300  24.924  1.00  0.00     0.143 A 
ATOM     21  C   UNL A   1      33.458  21.177  24.560  1.00  0.00     0.085 A 
ATOM     22  O   UNL A   1      35.608  20.690  25.652  1.00  0.00    -0.490 OA
ATOM     23  C   UNL A   1      35.768  22.112  25.682  1.00  0.00     0.251 C 
ATOM     24  C   UNL A   1      34.460  22.815  26.017  1.00  0.00     0.165 C 
ENDBRANCH   9  14
ENDBRANCH   5   8
ENDBRANCH   3   4
ENDBRANCH   2   3
ENDBRANCH   1   2
BRANCH   1  25
ATOM     25  N   UNL A   1      32.083  31.807  26.813  1.00  0.00    -0.352 N 
ATOM     26  C   UNL A   1      32.969  32.637  27.458  1.00  0.00     0.251 C 
ATOM     27  H   UNL A   1      31.296  32.256  26.428  1.00  0.00     0.163 HD
ATOM     28  O   UNL A   1      32.656  33.805  27.674  1.00  0.00    -0.269 OA
BRANCH  26  29
ATOM     29  C   UNL A   1      34.277  32.118  27.913  1.00  0.00     0.039 A 
ATOM     30  C   UNL A   1      34.434  30.771  28.241  1.00  0.00     0.014 A 
ATOM     31  C   UNL A   1      35.360  32.996  28.022  1.00  0.00     0.014 A 
ATOM     32  C   UNL A   1      35.612  30.341  28.843  1.00  0.00     0.010 A 
ATOM     33  C   UNL A   1      36.573  32.542  28.549  1.00  0.00     0.010 A 
ATOM     34  C   UNL A   1      36.690  31.225  29.018  1.00  0.00    -0.014 A 
BRANCH  34  35
ATOM     35  C   UNL A   1      37.916  30.747  29.711  1.00  0.00     0.031 A 
ATOM     36  C   UNL A   1      38.191  31.126  31.141  1.00  0.00     0.074 A 
ATOM     37  C   UNL A   1      38.756  29.914  29.065  1.00  0.00     0.049 A 
ATOM     38  N   UNL A   1      39.175  30.747  31.916  1.00  0.00    -0.248 NA
ATOM     39  C   UNL A   1      37.245  32.050  31.790  1.00  0.00     0.031 C 
ATOM     40  C   UNL A   1      38.608  29.486  27.674  1.00  0.00     0.029 A 
ATOM     41  N   UNL A   1      39.880  29.259  29.499  1.00  0.00    -0.354 N 
ATOM     42  C   UNL A   1      38.988  31.408  33.124  1.00  0.00     0.074 A 
ATOM     43  C   UNL A   1      37.804  32.224  32.980  1.00  0.00     0.031 C 
ATOM     44  C   UNL A   1      39.571  28.598  27.384  1.00  0.00     0.029 A 
ATOM     45  C   UNL A   1      40.430  28.429  28.552  1.00  0.00     0.049 A 
ATOM     46  H   UNL A   1      40.257  29.373  30.402  1.00  0.00     0.167 HD
ATOM     47  C   UNL A   1      39.718  31.321  34.261  1.00  0.00     0.034 A 
ATOM     48  C   UNL A   1      41.503  27.617  28.612  1.00  0.00     0.034 A 
ATOM     49  C   UNL A   1      40.862  30.467  34.427  1.00  0.00     0.049 A 
ATOM     50  C   UNL A   1      42.293  27.531  29.884  1.00  0.00     0.074 A 
ATOM     51  C   UNL A   1      41.636  30.281  35.559  1.00  0.00     0.029 A 
ATOM     52  N   UNL A   1      41.391  29.651  33.439  1.00  0.00    -0.354 N 
ATOM     53  N   UNL A   1      42.057  28.110  31.036  1.00  0.00    -0.248 NA
ATOM     54  C   UNL A   1      43.490  26.677  29.871  1.00  0.00     0.031 C 
ATOM     55  C   UNL A   1      42.638  29.354  35.254  1.00  0.00     0.029 A 
ATOM     56  C   UNL A   1      42.484  28.962  33.934  1.00  0.00     0.049 A 
ATOM     57  H   UNL A   1      41.042  29.575  32.523  1.00  0.00     0.167 HD
ATOM     58  C   UNL A   1      43.071  27.690  31.888  1.00  0.00     0.074 A 
ATOM     59  C   UNL A   1      43.912  26.789  31.126  1.00  0.00     0.031 C 
ATOM     60  C   UNL A   1      43.292  28.040  33.177  1.00  0.00     0.034 A 
BRANCH  47  61
ATOM     61  C   UNL A   1      39.265  32.128  35.447  1.00  0.00     0.023 A 
ATOM     62  C   UNL A   1      39.501  33.516  35.461  1.00  0.00     0.012 A 
ATOM     63  C   UNL A   1      38.550  31.533  36.504  1.00  0.00     0.148 A 
ATOM     64  C   UNL A   1      39.048  34.302  36.519  1.00  0.00     0.002 A 
ATOM     65  C   UNL A   1      38.075  32.327  37.542  1.00  0.00     0.091 A 
ATOM     66  F   UNL A   1      38.353  30.207  36.476  1.00  0.00    -0.205 F 
ATOM     67  C   UNL A   1      38.328  33.709  37.553  1.00  0.00     0.022 A 
BRANCH  65  68
ATOM     68  S   UNL A   1      37.093  31.671  38.895  1.00  0.00     0.127 S 
ATOM     69  O   UNL A   1      35.926  32.553  38.865  1.00  0.00    -0.237 OA
ATOM     70  O   UNL A   1      36.834  30.301  38.454  1.00  0.00    -0.237 OA
ATOM     71  O   UNL A   1      37.926  31.780  40.085  1.00  0.00    -0.744 OA
ENDBRANCH  65  68
ENDBRANCH  47  61
BRANCH  48  72
ATOM     72  C   UNL A   1      41.833  26.777  27.429  1.00  0.00     0.023 A 
ATOM     73  C   UNL A   1      42.539  27.351  26.357  1.00  0.00     0.012 A 
ATOM     74  C   UNL A   1      41.559  25.395  27.419  1.00  0.00     0.148 A 
ATOM     75  C   UNL A   1      42.973  26.562  25.291  1.00  0.00     0.002 A 
ATOM     76  C   UNL A   1      42.031  24.608  26.376  1.00  0.00     0.091 A 
ATOM     77  F   UNL A   1      40.888  24.876  28.456  1.00  0.00    -0.205 F 
ATOM     78  C   UNL A   1      42.732  25.190  25.308  1.00  0.00     0.022 A 
BRANCH  76  79
ATOM     79  S   UNL A   1      41.875  22.819  26.363  1.00  0.00     0.127 S 
ATOM     80  O   UNL A   1      42.503  22.473  25.090  1.00  0.00    -0.237 OA
ATOM     81  O   UNL A   1      42.643  22.447  27.552  1.00  0.00    -0.237 OA
ATOM     82  O   UNL A   1      40.447  22.543  26.448  1.00  0.00    -0.744 OA
ENDBRANCH  76  79
ENDBRANCH  48  72
BRANCH  60  83
ATOM     83  C   UNL A   1      44.498  27.467  33.867  1.00  0.00     0.023 A 
ATOM     84  C   UNL A   1      45.715  28.173  33.812  1.00  0.00     0.012 A 
ATOM     85  C   UNL A   1      44.393  26.318  34.674  1.00  0.00     0.148 A 
ATOM     86  C   UNL A   1      46.815  27.742  34.550  1.00  0.00     0.002 A 
ATOM     87  C   UNL A   1      45.486  25.911  35.430  1.00  0.00     0.091 A 
ATOM     88  F   UNL A   1      43.224  25.663  34.702  1.00  0.00    -0.205 F 
ATOM     89  C   UNL A   1      46.698  26.619  35.367  1.00  0.00     0.022 A 
BRANCH  87  90
ATOM     90  S   UNL A   1      45.417  24.522  36.567  1.00  0.00     0.127 S 
ATOM     91  O   UNL A   1      44.327  24.919  37.457  1.00  0.00    -0.237 OA
ATOM     92  O   UNL A   1      45.099  23.408  35.673  1.00  0.00    -0.237 OA
ATOM     93  O   UNL A   1      46.729  24.446  37.195  1.00  0.00    -0.744 OA
ENDBRANCH  87  90
ENDBRANCH  60  83
ENDBRANCH  34  35
ENDBRANCH  26  29
ENDBRANCH   1  25
TORSDOF 14
ENDMDL
MODEL 2
REMARK VINA RESULT:     -13.7      1.453      1.732
REMARK SMILES Cc1ccc2c(c1)OCCN2c1sc(C(=O)NCCCNC(=O)c2ccc(-c3c4nc(c(-c5cccc(S(=O)(=O)[O-])c5F)c5ccc([nH]5)c(-c5cccc(S(=O)(=O)[O-])c5F)c5nc(c(-c6cccc(S(=O)(=O)[O-])c6F)c6ccc3[nH]6)C=C5)C=C4)cc2)cc1C
REMARK SMILES IDX 20 1 19 2 18 3 17 4 15 5 16 6 14 8 12 9 13 10 88 11 87 12
REMARK SMILES IDX 89 13 11 14 1 15 2 16 3 17 7 18 4 19 6 20 5 21 8 22 9 23
REMARK SMILES IDX 10 24 21 25 22 26 23 28 24 29 25 30 86 31 26 32 85 33 27 34
REMARK SMILES IDX 28 35 29 36 79 37 30 38 84 39 78 40 80 41 31 42 83 43 77 44
REMARK SMILES IDX 76 45 32 47 64 48 44 49 63 50 45 51 48 52 62 53 81 54 46 55
REMARK SMILES IDX 47 56 61 58 82 59 49 60 33 61 34 62 42 63 35 64 37 65 43 66
REMARK SMILES IDX 36 67 38 68 39 69 40 70 41 71 65 72 66 73 74 74 67 75 69 76
REMARK SMILES IDX 75 77 68 78 70 79 71 80 72 81 73 82 50 83 51 84 59 85 52 86
REMARK SMILES IDX 54 87 60 88 53 89 55 90 56 91 57 92 58 93
REMARK H PARENT 17 7 21 27 80 46 48 57
REMARK Flexibility Score: inf
ROOT
ATOM      1  C   UNL A   1      32.101  30.660  26.700  1.00  0.00     0.118 C 
ENDROOT
BRANCH   1   2
ATOM      2  C   UNL A   1      31.463  30.238  25.378  1.00  0.00     0.042 C 
BRANCH   2   3
ATOM      3  C   UNL A   1      32.337  29.288  24.566  1.00  0.00     0.118 C 
BRANCH   3   4
ATOM      4  N   UNL A   1      31.640  28.798  23.391  1.00  0.00    -0.351 N 
ATOM      5  C   UNL A   1      31.315  27.541  22.945  1.00  0.00     0.261 C 
ATOM      6  O   UNL A   1      30.643  27.523  21.908  1.00  0.00    -0.268 OA
ATOM      7  H   UNL A   1      31.340  29.516  22.788  1.00  0.00     0.163 HD
BRANCH   5   8
ATOM      8  C   UNL A   1      31.646  26.311  23.649  1.00  0.00     0.094 A 
ATOM      9  C   UNL A   1      32.677  24.296  24.684  1.00  0.00     0.099 A 
ATOM     10  S   UNL A   1      32.948  25.273  23.295  1.00  0.00    -0.112 S 
ATOM     11  C   UNL A   1      31.452  24.598  25.261  1.00  0.00    -0.015 A 
ATOM     12  C   UNL A   1      30.872  25.758  24.654  1.00  0.00     0.031 A 
ATOM     13  C   UNL A   1      30.812  23.881  26.402  1.00  0.00     0.047 C 
BRANCH   9  14
ATOM     14  N   UNL A   1      33.546  23.322  25.081  1.00  0.00    -0.327 N 
ATOM     15  C   UNL A   1      33.341  17.699  23.818  1.00  0.00     0.044 C 
ATOM     16  C   UNL A   1      33.394  19.167  24.117  1.00  0.00    -0.047 A 
ATOM     17  C   UNL A   1      32.377  20.027  23.700  1.00  0.00     0.006 A 
ATOM     18  C   UNL A   1      34.469  19.698  24.833  1.00  0.00     0.052 A 
ATOM     19  C   UNL A   1      32.432  21.395  23.996  1.00  0.00     0.030 A 
ATOM     20  C   UNL A   1      34.521  21.065  25.130  1.00  0.00     0.143 A 
ATOM     21  C   UNL A   1      33.486  21.945  24.743  1.00  0.00     0.085 A 
ATOM     22  O   UNL A   1      35.643  21.465  25.823  1.00  0.00    -0.490 OA
ATOM     23  C   UNL A   1      35.831  22.884  25.787  1.00  0.00     0.251 C 
ATOM     24  C   UNL A   1      34.542  23.627  26.109  1.00  0.00     0.165 C 
ENDBRANCH   9  14
ENDBRANCH   5   8
ENDBRANCH   3   4
ENDBRANCH   2   3
ENDBRANCH   1   2
BRANCH   1  25
ATOM     25  N   UNL A   1      32.097  32.107  26.892  1.00  0.00    -0.352 N 
ATOM     26  C   UNL A   1      33.007  32.916  27.529  1.00  0.00     0.251 C 
ATOM     27  H   UNL A   1      31.321  32.575  26.505  1.00  0.00     0.163 HD
ATOM     28  O   UNL A   1      32.728  34.093  27.738  1.00  0.00    -0.269 OA
BRANCH  26  29
ATOM     29  C   UNL A   1      34.302  32.364  27.983  1.00  0.00     0.039 A 
ATOM     30  C   UNL A   1      34.409  31.027  28.372  1.00  0.00     0.014 A 
ATOM     31  C   UNL A   1      35.422  33.199  28.030  1.00  0.00     0.014 A 
ATOM     32  C   UNL A   1      35.580  30.577  28.971  1.00  0.00     0.010 A 
ATOM     33  C   UNL A   1      36.626  32.719  28.556  1.00  0.00     0.010 A 
ATOM     34  C   UNL A   1      36.697  31.421  29.084  1.00  0.00    -0.014 A 
BRANCH  34  35
ATOM     35  C   UNL A   1      37.916  30.924  29.776  1.00  0.00     0.031 A 
ATOM     36  C   UNL A   1      38.223  31.339  31.190  1.00  0.00     0.074 A 
ATOM     37  C   UNL A   1      38.718  30.043  29.148  1.00  0.00     0.049 A 
ATOM     38  N   UNL A   1      39.206  30.951  31.964  1.00  0.00    -0.248 NA
ATOM     39  C   UNL A   1      37.318  32.314  31.821  1.00  0.00     0.031 C 
ATOM     40  C   UNL A   1      38.538  29.576  27.772  1.00  0.00     0.029 A 
ATOM     41  N   UNL A   1      39.826  29.365  29.587  1.00  0.00    -0.354 N 
ATOM     42  C   UNL A   1      39.057  31.656  33.153  1.00  0.00     0.074 A 
ATOM     43  C   UNL A   1      37.899  32.507  32.998  1.00  0.00     0.031 C 
ATOM     44  C   UNL A   1      39.466  28.648  27.499  1.00  0.00     0.029 A 
ATOM     45  C   UNL A   1      40.336  28.487  28.661  1.00  0.00     0.049 A 
ATOM     46  H   UNL A   1      40.220  29.494  30.481  1.00  0.00     0.167 HD
ATOM     47  C   UNL A   1      39.800  31.580  34.282  1.00  0.00     0.034 A 
ATOM     48  C   UNL A   1      41.381  27.641  28.733  1.00  0.00     0.034 A 
ATOM     49  C   UNL A   1      40.917  30.694  34.461  1.00  0.00     0.049 A 
ATOM     50  C   UNL A   1      42.186  27.569  29.997  1.00  0.00     0.074 A 
ATOM     51  C   UNL A   1      41.700  30.518  35.588  1.00  0.00     0.029 A 
ATOM     52  N   UNL A   1      41.405  29.830  33.493  1.00  0.00    -0.354 N 
ATOM     53  N   UNL A   1      41.985  28.192  31.132  1.00  0.00    -0.248 NA
ATOM     54  C   UNL A   1      43.354  26.676  29.996  1.00  0.00     0.031 C 
ATOM     55  C   UNL A   1      42.666  29.549  35.300  1.00  0.00     0.029 A 
ATOM     56  C   UNL A   1      42.481  29.120  33.996  1.00  0.00     0.049 A 
ATOM     57  H   UNL A   1      41.040  29.736  32.584  1.00  0.00     0.167 HD
ATOM     58  C   UNL A   1      42.996  27.765  31.984  1.00  0.00     0.074 A 
ATOM     59  C   UNL A   1      43.797  26.813  31.241  1.00  0.00     0.031 C 
ATOM     60  C   UNL A   1      43.246  28.148  33.259  1.00  0.00     0.034 A 
BRANCH  47  61
ATOM     61  C   UNL A   1      39.390  32.439  35.447  1.00  0.00     0.023 A 
ATOM     62  C   UNL A   1      38.560  31.892  36.444  1.00  0.00     0.012 A 
ATOM     63  C   UNL A   1      39.879  33.752  35.593  1.00  0.00     0.148 A 
ATOM     64  C   UNL A   1      38.206  32.643  37.564  1.00  0.00     0.002 A 
ATOM     65  C   UNL A   1      39.545  34.486  36.726  1.00  0.00     0.091 A 
ATOM     66  F   UNL A   1      40.653  34.258  34.623  1.00  0.00    -0.205 F 
ATOM     67  C   UNL A   1      38.705  33.935  37.709  1.00  0.00     0.022 A 
BRANCH  65  68
ATOM     68  S   UNL A   1      40.177  36.139  37.034  1.00  0.00     0.127 S 
ATOM     69  O   UNL A   1      39.829  36.822  35.789  1.00  0.00    -0.237 OA
ATOM     70  O   UNL A   1      39.395  36.556  38.198  1.00  0.00    -0.237 OA
ATOM     71  O   UNL A   1      41.603  35.984  37.284  1.00  0.00    -0.744 OA
ENDBRANCH  65  68
ENDBRANCH  47  61
BRANCH  48  72
ATOM     72  C   UNL A   1      41.667  26.754  27.574  1.00  0.00     0.023 A 
ATOM     73  C   UNL A   1      42.432  27.251  26.503  1.00  0.00     0.012 A 
ATOM     74  C   UNL A   1      41.289  25.397  27.585  1.00  0.00     0.148 A 
ATOM     75  C   UNL A   1      42.823  26.408  25.461  1.00  0.00     0.002 A 
ATOM     76  C   UNL A   1      41.717  24.554  26.568  1.00  0.00     0.091 A 
ATOM     77  F   UNL A   1      40.563  24.953  28.620  1.00  0.00    -0.205 F 
ATOM     78  C   UNL A   1      42.478  25.059  25.501  1.00  0.00     0.022 A 
BRANCH  76  79
ATOM     79  S   UNL A   1      41.426  22.782  26.588  1.00  0.00     0.127 S 
ATOM     80  O   UNL A   1      42.049  22.391  27.850  1.00  0.00    -0.237 OA
ATOM     81  O   UNL A   1      39.964  22.723  26.577  1.00  0.00    -0.237 OA
ATOM     82  O   UNL A   1      42.067  22.259  25.389  1.00  0.00    -0.744 OA
ENDBRANCH  76  79
ENDBRANCH  48  72
BRANCH  60  83
ATOM     83  C   UNL A   1      44.443  27.557  33.951  1.00  0.00     0.023 A 
ATOM     84  C   UNL A   1      45.659  28.266  33.936  1.00  0.00     0.012 A 
ATOM     85  C   UNL A   1      44.327  26.385  34.722  1.00  0.00     0.148 A 
ATOM     86  C   UNL A   1      46.748  27.815  34.678  1.00  0.00     0.002 A 
ATOM     87  C   UNL A   1      45.408  25.958  35.484  1.00  0.00     0.091 A 
ATOM     88  F   UNL A   1      43.158  25.728  34.713  1.00  0.00    -0.205 F 
ATOM     89  C   UNL A   1      46.620  26.669  35.461  1.00  0.00     0.022 A 
BRANCH  87  90
ATOM     90  S   UNL A   1      45.323  24.537  36.580  1.00  0.00     0.127 S 
ATOM     91  O   UNL A   1      46.687  24.482  37.104  1.00  0.00    -0.237 OA
ATOM     92  O   UNL A   1      44.312  24.957  37.550  1.00  0.00    -0.237 OA
ATOM     93  O   UNL A   1      44.936  23.405  35.747  1.00  0.00    -0.744 OA
ENDBRANCH  87  90
ENDBRANCH  60  83
ENDBRANCH  34  35
ENDBRANCH  26  29
ENDBRANCH   1  25
TORSDOF 14
ENDMDL
MODEL 3
REMARK VINA RESULT:     -13.6      5.182     10.594
REMARK SMILES Cc1ccc2c(c1)OCCN2c1sc(C(=O)NCCCNC(=O)c2ccc(-c3c4nc(c(-c5cccc(S(=O)(=O)[O-])c5F)c5ccc([nH]5)c(-c5cccc(S(=O)(=O)[O-])c5F)c5nc(c(-c6cccc(S(=O)(=O)[O-])c6F)c6ccc3[nH]6)C=C5)C=C4)cc2)cc1C
REMARK SMILES IDX 20 1 19 2 18 3 17 4 15 5 16 6 14 8 12 9 13 10 88 11 87 12
REMARK SMILES IDX 89 13 11 14 1 15 2 16 3 17 7 18 4 19 6 20 5 21 8 22 9 23
REMARK SMILES IDX 10 24 21 25 22 26 23 28 24 29 25 30 86 31 26 32 85 33 27 34
REMARK SMILES IDX 28 35 29 36 79 37 30 38 84 39 78 40 80 41 31 42 83 43 77 44
REMARK SMILES IDX 76 45 32 47 64 48 44 49 63 50 45 51 48 52 62 53 81 54 46 55
REMARK SMILES IDX 47 56 61 58 82 59 49 60 33 61 34 62 42 63 35 64 37 65 43 66
REMARK SMILES IDX 36 67 38 68 39 69 40 70 41 71 65 72 66 73 74 74 67 75 69 76
REMARK SMILES IDX 75 77 68 78 70 79 71 80 72 81 73 82 50 83 51 84 59 85 52 86
REMARK SMILES IDX 54 87 60 88 53 89 55 90 56 91 57 92 58 93
REMARK H PARENT 17 7 21 27 80 46 48 57
REMARK Flexibility Score: inf
ROOT
ATOM      1  C   UNL A   1      37.366  21.960  24.861  1.00  0.00     0.118 C 
ENDROOT
BRANCH   1   2
ATOM      2  C   UNL A   1      35.910  21.522  24.710  1.00  0.00     0.042 C 
BRANCH   2   3
ATOM      3  C   UNL A   1      35.143  21.523  26.029  1.00  0.00     0.118 C 
BRANCH   3   4
ATOM      4  N   UNL A   1      33.801  20.995  25.863  1.00  0.00    -0.351 N 
ATOM      5  C   UNL A   1      32.650  21.505  25.316  1.00  0.00     0.261 C 
ATOM      6  O   UNL A   1      31.699  20.715  25.295  1.00  0.00    -0.268 OA
ATOM      7  H   UNL A   1      33.695  20.083  26.217  1.00  0.00     0.163 HD
BRANCH   5   8
ATOM      8  C   UNL A   1      32.539  22.831  24.728  1.00  0.00     0.094 A 
ATOM      9  C   UNL A   1      32.415  25.259  24.193  1.00  0.00     0.099 A 
ATOM     10  S   UNL A   1      32.041  24.246  25.531  1.00  0.00    -0.112 S 
ATOM     11  C   UNL A   1      32.664  24.497  23.060  1.00  0.00    -0.015 A 
ATOM     12  C   UNL A   1      32.731  23.104  23.384  1.00  0.00     0.031 A 
ATOM     13  C   UNL A   1      32.899  25.015  21.681  1.00  0.00     0.047 C 
BRANCH   9  14
ATOM     14  N   UNL A   1      32.386  26.620  24.267  1.00  0.00    -0.327 N 
ATOM     15  C   UNL A   1      27.989  30.123  22.982  1.00  0.00     0.044 C 
ATOM     16  C   UNL A   1      29.114  29.198  23.336  1.00  0.00    -0.047 A 
ATOM     17  C   UNL A   1      29.012  27.822  23.126  1.00  0.00     0.006 A 
ATOM     18  C   UNL A   1      30.297  29.708  23.877  1.00  0.00     0.052 A 
ATOM     19  C   UNL A   1      30.076  26.969  23.449  1.00  0.00     0.030 A 
ATOM     20  C   UNL A   1      31.360  28.854  24.196  1.00  0.00     0.143 A 
ATOM     21  C   UNL A   1      31.286  27.463  23.962  1.00  0.00     0.085 A 
ATOM     22  O   UNL A   1      32.461  29.478  24.742  1.00  0.00    -0.490 OA
ATOM     23  C   UNL A   1      33.353  28.557  25.376  1.00  0.00     0.251 C 
ATOM     24  C   UNL A   1      33.635  27.351  24.490  1.00  0.00     0.165 C 
ENDBRANCH   9  14
ENDBRANCH   5   8
ENDBRANCH   3   4
ENDBRANCH   2   3
ENDBRANCH   1   2
BRANCH   1  25
ATOM     25  N   UNL A   1      38.227  20.893  25.359  1.00  0.00    -0.352 N 
ATOM     26  C   UNL A   1      39.383  20.964  26.099  1.00  0.00     0.251 C 
ATOM     27  H   UNL A   1      37.935  19.981  25.127  1.00  0.00     0.163 HD
ATOM     28  O   UNL A   1      40.059  19.952  26.263  1.00  0.00    -0.269 OA
BRANCH  26  29
ATOM     29  C   UNL A   1      39.823  22.256  26.669  1.00  0.00     0.039 A 
ATOM     30  C   UNL A   1      39.255  23.455  26.235  1.00  0.00     0.014 A 
ATOM     31  C   UNL A   1      40.825  22.267  27.644  1.00  0.00     0.014 A 
ATOM     32  C   UNL A   1      39.809  24.665  26.642  1.00  0.00     0.010 A 
ATOM     33  C   UNL A   1      41.323  23.486  28.115  1.00  0.00     0.010 A 
ATOM     34  C   UNL A   1      40.858  24.695  27.575  1.00  0.00    -0.014 A 
BRANCH  34  35
ATOM     35  C   UNL A   1      41.461  26.001  27.949  1.00  0.00     0.031 A 
ATOM     36  C   UNL A   1      42.853  26.364  27.505  1.00  0.00     0.074 A 
ATOM     37  C   UNL A   1      40.724  26.894  28.640  1.00  0.00     0.049 A 
ATOM     38  N   UNL A   1      43.506  27.484  27.688  1.00  0.00    -0.248 NA
ATOM     39  C   UNL A   1      43.614  25.345  26.764  1.00  0.00     0.031 C 
ATOM     40  C   UNL A   1      39.370  26.655  29.141  1.00  0.00     0.029 A 
ATOM     41  N   UNL A   1      40.998  28.183  29.017  1.00  0.00    -0.354 N 
ATOM     42  C   UNL A   1      44.759  27.292  27.118  1.00  0.00     0.074 A 
ATOM     43  C   UNL A   1      44.784  25.945  26.594  1.00  0.00     0.031 C 
ATOM     44  C   UNL A   1      38.909  27.779  29.710  1.00  0.00     0.029 A 
ATOM     45  C   UNL A   1      39.950  28.801  29.657  1.00  0.00     0.049 A 
ATOM     46  H   UNL A   1      41.861  28.625  28.846  1.00  0.00     0.167 HD
ATOM     47  C   UNL A   1      45.787  28.168  27.013  1.00  0.00     0.034 A 
ATOM     48  C   UNL A   1      39.831  30.052  30.144  1.00  0.00     0.034 A 
ATOM     49  C   UNL A   1      45.746  29.526  27.480  1.00  0.00     0.049 A 
ATOM     50  C   UNL A   1      40.980  31.007  30.010  1.00  0.00     0.074 A 
ATOM     51  C   UNL A   1      46.725  30.499  27.377  1.00  0.00     0.029 A 
ATOM     52  N   UNL A   1      44.669  30.107  28.132  1.00  0.00    -0.354 N 
ATOM     53  N   UNL A   1      42.129  30.828  29.406  1.00  0.00    -0.248 NA
ATOM     54  C   UNL A   1      40.817  32.336  30.617  1.00  0.00     0.031 C 
ATOM     55  C   UNL A   1      46.240  31.669  27.969  1.00  0.00     0.029 A 
ATOM     56  C   UNL A   1      44.960  31.425  28.439  1.00  0.00     0.049 A 
ATOM     57  H   UNL A   1      43.824  29.650  28.344  1.00  0.00     0.167 HD
ATOM     58  C   UNL A   1      42.826  32.020  29.553  1.00  0.00     0.074 A 
ATOM     59  C   UNL A   1      41.962  32.924  30.285  1.00  0.00     0.031 C 
ATOM     60  C   UNL A   1      44.078  32.325  29.135  1.00  0.00     0.034 A 
BRANCH  47  61
ATOM     61  C   UNL A   1      47.032  27.705  26.307  1.00  0.00     0.023 A 
ATOM     62  C   UNL A   1      48.019  27.017  27.040  1.00  0.00     0.012 A 
ATOM     63  C   UNL A   1      47.193  27.882  24.920  1.00  0.00     0.148 A 
ATOM     64  C   UNL A   1      49.160  26.528  26.406  1.00  0.00     0.002 A 
ATOM     65  C   UNL A   1      48.320  27.367  24.289  1.00  0.00     0.091 A 
ATOM     66  F   UNL A   1      46.248  28.555  24.247  1.00  0.00    -0.205 F 
ATOM     67  C   UNL A   1      49.305  26.694  25.031  1.00  0.00     0.022 A 
BRANCH  65  68
ATOM     68  S   UNL A   1      48.578  27.481  22.515  1.00  0.00     0.127 S 
ATOM     69  O   UNL A   1      49.851  28.198  22.450  1.00  0.00    -0.237 OA
ATOM     70  O   UNL A   1      48.651  26.074  22.122  1.00  0.00    -0.237 OA
ATOM     71  O   UNL A   1      47.428  28.202  21.988  1.00  0.00    -0.744 OA
ENDBRANCH  65  68
ENDBRANCH  47  61
BRANCH  48  72
ATOM     72  C   UNL A   1      38.535  30.468  30.743  1.00  0.00     0.023 A 
ATOM     73  C   UNL A   1      38.331  30.290  32.123  1.00  0.00     0.012 A 
ATOM     74  C   UNL A   1      37.563  31.142  29.979  1.00  0.00     0.148 A 
ATOM     75  C   UNL A   1      37.179  30.782  32.738  1.00  0.00     0.002 A 
ATOM     76  C   UNL A   1      36.439  31.668  30.604  1.00  0.00     0.091 A 
ATOM     77  F   UNL A   1      37.788  31.299  28.668  1.00  0.00    -0.205 F 
ATOM     78  C   UNL A   1      36.241  31.483  31.981  1.00  0.00     0.022 A 
BRANCH  76  79
ATOM     79  S   UNL A   1      35.235  32.684  29.741  1.00  0.00     0.127 S 
ATOM     80  O   UNL A   1      34.678  31.735  28.780  1.00  0.00    -0.237 OA
ATOM     81  O   UNL A   1      34.333  33.061  30.830  1.00  0.00    -0.237 OA
ATOM     82  O   UNL A   1      35.988  33.788  29.162  1.00  0.00    -0.744 OA
ENDBRANCH  76  79
ENDBRANCH  48  72
BRANCH  60  83
ATOM     83  C   UNL A   1      44.618  33.689  29.463  1.00  0.00     0.023 A 
ATOM     84  C   UNL A   1      45.355  33.865  30.650  1.00  0.00     0.012 A 
ATOM     85  C   UNL A   1      44.515  34.749  28.541  1.00  0.00     0.148 A 
ATOM     86  C   UNL A   1      45.983  35.079  30.917  1.00  0.00     0.002 A 
ATOM     87  C   UNL A   1      45.169  35.947  28.801  1.00  0.00     0.091 A 
ATOM     88  F   UNL A   1      43.802  34.554  27.422  1.00  0.00    -0.205 F 
ATOM     89  C   UNL A   1      45.900  36.116  29.990  1.00  0.00     0.022 A 
BRANCH  87  90
ATOM     90  S   UNL A   1      45.184  37.317  27.638  1.00  0.00     0.127 S 
ATOM     91  O   UNL A   1      45.925  38.333  28.385  1.00  0.00    -0.237 OA
ATOM     92  O   UNL A   1      45.907  36.747  26.501  1.00  0.00    -0.237 OA
ATOM     93  O   UNL A   1      43.789  37.640  27.374  1.00  0.00    -0.744 OA
ENDBRANCH  87  90
ENDBRANCH  60  83
ENDBRANCH  34  35
ENDBRANCH  26  29
ENDBRANCH   1  25
TORSDOF 14
ENDMDL
