MODEL 1
REMARK VINA RESULT:     -13.3      0.000      0.000
REMARK SMILES Cc1nc(S[C@@H](C(=O)NCCCNC(=O)c2ccc(-c3c4nc(c(-c5cccc(S(=O)(=O)[O-])c5F)c5ccc([nH]5)c(-c5cccc(S(=O)(=O)[O-])c5F)c5nc(c(-c6cccc(S(=O)(=O)[O-])c6F)c6ccc3[nH]6)C=C5)C=C4)cc2)c2ccccc2)nc2ccccc12
REMARK SMILES IDX 11 1 10 2 9 3 7 4 8 5 6 7 5 8 4 9 1 10 2 11 3 12 91 13 86 14
REMARK SMILES IDX 90 15 85 16 87 17 89 18 88 19 79 20 80 21 84 22 81 23 83 24
REMARK SMILES IDX 82 25 12 26 13 27 14 28 15 30 16 31 17 32 78 33 18 34 77 35
REMARK SMILES IDX 19 36 20 37 21 38 71 39 22 40 76 41 70 42 72 43 23 44 75 45
REMARK SMILES IDX 69 46 68 47 24 49 56 50 36 51 55 52 37 53 40 54 54 55 73 56
REMARK SMILES IDX 38 57 39 58 53 60 74 61 41 62 25 63 26 64 34 65 27 66 29 67
REMARK SMILES IDX 35 68 28 69 30 70 31 71 32 72 33 73 57 74 58 75 66 76 59 77
REMARK SMILES IDX 61 78 67 79 60 80 62 81 63 82 64 83 65 84 42 85 43 86 51 87
REMARK SMILES IDX 44 88 46 89 52 90 45 91 47 92 48 93 49 94 50 95
REMARK H PARENT 9 6 13 29 72 48 40 59
REMARK Flexibility Score: inf
ROOT
ATOM      1  C   UNL A   1      36.048  21.393  25.523  1.00  0.00     0.042 C 
ENDROOT
BRANCH   1   2
ATOM      2  C   UNL A   1      35.497  22.708  26.064  1.00  0.00     0.117 C 
BRANCH   2   3
ATOM      3  N   UNL A   1      34.611  22.513  27.201  1.00  0.00    -0.355 N 
ATOM      4  C   UNL A   1      33.242  22.565  27.296  1.00  0.00     0.238 C 
ATOM      5  O   UNL A   1      32.781  22.271  28.404  1.00  0.00    -0.273 OA
ATOM      6  H   UNL A   1      35.071  22.308  28.046  1.00  0.00     0.163 HD
BRANCH   4   7
ATOM      7  C   UNL A   1      32.387  22.847  26.045  1.00  0.00     0.174 C 
BRANCH   7   8
ATOM      8  S   UNL A   1      30.733  23.543  26.437  1.00  0.00    -0.068 SA
BRANCH   8   9
ATOM      9  C   UNL A   1      30.836  25.231  25.911  1.00  0.00     0.189 A 
ATOM     10  C   UNL A   1      30.686  27.105  22.800  1.00  0.00     0.067 C 
ATOM     11  C   UNL A   1      30.838  26.836  24.270  1.00  0.00     0.050 A 
ATOM     12  N   UNL A   1      30.632  25.550  24.635  1.00  0.00    -0.227 NA
ATOM     13  C   UNL A   1      31.239  27.822  25.178  1.00  0.00     0.022 A 
ATOM     14  C   UNL A   1      31.360  27.383  26.503  1.00  0.00     0.075 A 
ATOM     15  C   UNL A   1      31.519  29.175  24.858  1.00  0.00     0.012 A 
ATOM     16  N   UNL A   1      31.165  26.110  26.866  1.00  0.00    -0.222 NA
ATOM     17  C   UNL A   1      31.716  28.308  27.476  1.00  0.00     0.029 A 
ATOM     18  C   UNL A   1      31.888  30.079  25.852  1.00  0.00     0.001 A 
ATOM     19  C   UNL A   1      31.978  29.646  27.167  1.00  0.00     0.002 A 
ENDBRANCH   8   9
ENDBRANCH   7   8
BRANCH   7  20
ATOM     20  C   UNL A   1      32.324  21.773  24.958  1.00  0.00    -0.025 A 
ATOM     21  C   UNL A   1      32.476  20.421  25.321  1.00  0.00     0.005 A 
ATOM     22  C   UNL A   1      32.174  22.066  23.594  1.00  0.00     0.005 A 
ATOM     23  C   UNL A   1      32.480  19.411  24.355  1.00  0.00     0.000 A 
ATOM     24  C   UNL A   1      32.192  21.059  22.628  1.00  0.00     0.000 A 
ATOM     25  C   UNL A   1      32.346  19.731  23.007  1.00  0.00     0.000 A 
ENDBRANCH   7  20
ENDBRANCH   4   7
ENDBRANCH   2   3
ENDBRANCH   1   2
BRANCH   1  26
ATOM     26  C   UNL A   1      37.417  21.507  24.860  1.00  0.00     0.118 C 
BRANCH  26  27
ATOM     27  N   UNL A   1      38.359  20.485  25.301  1.00  0.00    -0.352 N 
ATOM     28  C   UNL A   1      39.500  20.615  26.059  1.00  0.00     0.251 C 
ATOM     29  H   UNL A   1      38.147  19.567  25.015  1.00  0.00     0.163 HD
ATOM     30  O   UNL A   1      40.234  19.645  26.223  1.00  0.00    -0.269 OA
BRANCH  28  31
ATOM     31  C   UNL A   1      39.860  21.931  26.634  1.00  0.00     0.039 A 
ATOM     32  C   UNL A   1      39.275  23.106  26.156  1.00  0.00     0.014 A 
ATOM     33  C   UNL A   1      40.826  21.990  27.643  1.00  0.00     0.014 A 
ATOM     34  C   UNL A   1      39.784  24.340  26.552  1.00  0.00     0.010 A 
ATOM     35  C   UNL A   1      41.282  23.231  28.095  1.00  0.00     0.010 A 
ATOM     36  C   UNL A   1      40.809  24.415  27.510  1.00  0.00    -0.014 A 
BRANCH  36  37
ATOM     37  C   UNL A   1      41.399  25.734  27.859  1.00  0.00     0.031 A 
ATOM     38  C   UNL A   1      42.797  26.086  27.421  1.00  0.00     0.074 A 
ATOM     39  C   UNL A   1      40.663  26.636  28.535  1.00  0.00     0.049 A 
ATOM     40  N   UNL A   1      43.478  27.181  27.644  1.00  0.00    -0.248 NA
ATOM     41  C   UNL A   1      43.527  25.081  26.630  1.00  0.00     0.031 C 
ATOM     42  C   UNL A   1      39.297  26.421  29.012  1.00  0.00     0.029 A 
ATOM     43  N   UNL A   1      40.956  27.919  28.926  1.00  0.00    -0.354 N 
ATOM     44  C   UNL A   1      44.723  26.983  27.061  1.00  0.00     0.074 A 
ATOM     45  C   UNL A   1      44.710  25.660  26.476  1.00  0.00     0.031 C 
ATOM     46  C   UNL A   1      38.855  27.545  29.596  1.00  0.00     0.029 A 
ATOM     47  C   UNL A   1      39.921  28.543  29.579  1.00  0.00     0.049 A 
ATOM     48  H   UNL A   1      41.824  28.350  28.754  1.00  0.00     0.167 HD
ATOM     49  C   UNL A   1      45.775  27.834  26.994  1.00  0.00     0.034 A 
ATOM     50  C   UNL A   1      39.836  29.777  30.112  1.00  0.00     0.034 A 
ATOM     51  C   UNL A   1      45.773  29.171  27.522  1.00  0.00     0.049 A 
ATOM     52  C   UNL A   1      41.017  30.700  30.030  1.00  0.00     0.074 A 
ATOM     53  C   UNL A   1      46.787  30.113  27.478  1.00  0.00     0.029 A 
ATOM     54  N   UNL A   1      44.707  29.761  28.180  1.00  0.00    -0.354 N 
ATOM     55  N   UNL A   1      42.169  30.508  29.437  1.00  0.00    -0.248 NA
ATOM     56  C   UNL A   1      40.883  32.011  30.682  1.00  0.00     0.031 C 
ATOM     57  C   UNL A   1      46.331  31.275  28.107  1.00  0.00     0.029 A 
ATOM     58  C   UNL A   1      45.034  31.056  28.542  1.00  0.00     0.049 A 
ATOM     59  H   UNL A   1      43.844  29.323  28.363  1.00  0.00     0.167 HD
ATOM     60  C   UNL A   1      42.898  31.673  29.638  1.00  0.00     0.074 A 
ATOM     61  C   UNL A   1      42.048  32.577  30.387  1.00  0.00     0.031 C 
ATOM     62  C   UNL A   1      44.166  31.958  29.253  1.00  0.00     0.034 A 
BRANCH  49  63
ATOM     63  C   UNL A   1      47.006  27.366  26.269  1.00  0.00     0.023 A 
ATOM     64  C   UNL A   1      47.163  27.687  24.906  1.00  0.00     0.012 A 
ATOM     65  C   UNL A   1      48.033  26.677  26.943  1.00  0.00     0.148 A 
ATOM     66  C   UNL A   1      48.318  27.316  24.219  1.00  0.00     0.002 A 
ATOM     67  C   UNL A   1      49.193  26.334  26.258  1.00  0.00     0.091 A 
ATOM     68  F   UNL A   1      47.852  26.365  28.234  1.00  0.00    -0.205 F 
ATOM     69  C   UNL A   1      49.335  26.649  24.896  1.00  0.00     0.022 A 
BRANCH  67  70
ATOM     70  S   UNL A   1      50.584  25.518  27.051  1.00  0.00     0.127 S 
ATOM     71  O   UNL A   1      50.998  26.525  28.027  1.00  0.00    -0.237 OA
ATOM     72  O   UNL A   1      49.958  24.329  27.628  1.00  0.00    -0.237 OA
ATOM     73  O   UNL A   1      51.545  25.245  25.991  1.00  0.00    -0.744 OA
ENDBRANCH  67  70
ENDBRANCH  49  63
BRANCH  50  74
ATOM     74  C   UNL A   1      38.551  30.213  30.720  1.00  0.00     0.023 A 
ATOM     75  C   UNL A   1      38.344  30.011  32.097  1.00  0.00     0.012 A 
ATOM     76  C   UNL A   1      37.588  30.912  29.969  1.00  0.00     0.148 A 
ATOM     77  C   UNL A   1      37.196  30.500  32.719  1.00  0.00     0.002 A 
ATOM     78  C   UNL A   1      36.466  31.433  30.602  1.00  0.00     0.091 A 
ATOM     79  F   UNL A   1      37.813  31.088  28.659  1.00  0.00    -0.205 F 
ATOM     80  C   UNL A   1      36.264  31.221  31.975  1.00  0.00     0.022 A 
BRANCH  78  81
ATOM     81  S   UNL A   1      35.268  32.470  29.757  1.00  0.00     0.127 S 
ATOM     82  O   UNL A   1      34.302  32.737  30.820  1.00  0.00    -0.237 OA
ATOM     83  O   UNL A   1      36.091  33.616  29.371  1.00  0.00    -0.237 OA
ATOM     84  O   UNL A   1      34.767  31.675  28.646  1.00  0.00    -0.744 OA
ENDBRANCH  78  81
ENDBRANCH  50  74
BRANCH  62  85
ATOM     85  C   UNL A   1      44.730  33.297  29.638  1.00  0.00     0.023 A 
ATOM     86  C   UNL A   1      45.447  33.417  30.844  1.00  0.00     0.012 A 
ATOM     87  C   UNL A   1      44.644  34.400  28.766  1.00  0.00     0.148 A 
ATOM     88  C   UNL A   1      46.065  34.620  31.182  1.00  0.00     0.002 A 
ATOM     89  C   UNL A   1      45.288  35.587  29.095  1.00  0.00     0.091 A 
ATOM     90  F   UNL A   1      43.944  34.262  27.631  1.00  0.00    -0.205 F 
ATOM     91  C   UNL A   1      45.994  35.700  30.305  1.00  0.00     0.022 A 
BRANCH  89  92
ATOM     92  S   UNL A   1      45.313  37.009  27.999  1.00  0.00     0.127 S 
ATOM     93  O   UNL A   1      46.045  37.989  28.801  1.00  0.00    -0.237 OA
ATOM     94  O   UNL A   1      46.045  36.497  26.841  1.00  0.00    -0.237 OA
ATOM     95  O   UNL A   1      43.917  37.338  27.736  1.00  0.00    -0.744 OA
ENDBRANCH  89  92
ENDBRANCH  62  85
ENDBRANCH  36  37
ENDBRANCH  28  31
ENDBRANCH  26  27
ENDBRANCH   1  26
TORSDOF 16
ENDMDL
MODEL 2
REMARK VINA RESULT:     -13.3      1.384      1.981
REMARK SMILES Cc1nc(S[C@@H](C(=O)NCCCNC(=O)c2ccc(-c3c4nc(c(-c5cccc(S(=O)(=O)[O-])c5F)c5ccc([nH]5)c(-c5cccc(S(=O)(=O)[O-])c5F)c5nc(c(-c6cccc(S(=O)(=O)[O-])c6F)c6ccc3[nH]6)C=C5)C=C4)cc2)c2ccccc2)nc2ccccc12
REMARK SMILES IDX 11 1 10 2 9 3 7 4 8 5 6 7 5 8 4 9 1 10 2 11 3 12 91 13 86 14
REMARK SMILES IDX 90 15 85 16 87 17 89 18 88 19 79 20 80 21 84 22 81 23 83 24
REMARK SMILES IDX 82 25 12 26 13 27 14 28 15 30 16 31 17 32 78 33 18 34 77 35
REMARK SMILES IDX 19 36 20 37 21 38 71 39 22 40 76 41 70 42 72 43 23 44 75 45
REMARK SMILES IDX 69 46 68 47 24 49 56 50 36 51 55 52 37 53 40 54 54 55 73 56
REMARK SMILES IDX 38 57 39 58 53 60 74 61 41 62 25 63 26 64 34 65 27 66 29 67
REMARK SMILES IDX 35 68 28 69 30 70 31 71 32 72 33 73 57 74 58 75 66 76 59 77
REMARK SMILES IDX 61 78 67 79 60 80 62 81 63 82 64 83 65 84 42 85 43 86 51 87
REMARK SMILES IDX 44 88 46 89 52 90 45 91 47 92 48 93 49 94 50 95
REMARK H PARENT 9 6 13 29 72 48 40 59
REMARK Flexibility Score: inf
ROOT
ATOM      1  C   UNL A   1      36.218  21.372  25.641  1.00  0.00     0.042 C 
ENDROOT
BRANCH   1   2
ATOM      2  C   UNL A   1      35.680  22.714  26.126  1.00  0.00     0.117 C 
BRANCH   2   3
ATOM      3  N   UNL A   1      34.751  22.572  27.237  1.00  0.00    -0.355 N 
ATOM      4  C   UNL A   1      33.381  22.487  27.260  1.00  0.00     0.238 C 
ATOM      5  O   UNL A   1      32.886  22.289  28.375  1.00  0.00    -0.273 OA
ATOM      6  H   UNL A   1      35.178  22.529  28.122  1.00  0.00     0.163 HD
BRANCH   4   7
ATOM      7  C   UNL A   1      32.578  22.511  25.945  1.00  0.00     0.174 C 
BRANCH   7   8
ATOM      8  S   UNL A   1      30.886  23.195  26.138  1.00  0.00    -0.068 SA
BRANCH   8   9
ATOM      9  C   UNL A   1      31.064  24.914  25.750  1.00  0.00     0.189 A 
ATOM     10  C   UNL A   1      31.726  28.026  27.509  1.00  0.00     0.067 C 
ATOM     11  C   UNL A   1      31.420  27.095  26.370  1.00  0.00     0.050 A 
ATOM     12  N   UNL A   1      31.413  25.783  26.696  1.00  0.00    -0.227 NA
ATOM     13  C   UNL A   1      31.089  27.556  25.091  1.00  0.00     0.022 A 
ATOM     14  C   UNL A   1      30.801  26.547  24.163  1.00  0.00     0.075 A 
ATOM     15  C   UNL A   1      31.028  28.915  24.693  1.00  0.00     0.012 A 
ATOM     16  N   UNL A   1      30.785  25.248  24.484  1.00  0.00    -0.222 NA
ATOM     17  C   UNL A   1      30.500  26.915  22.858  1.00  0.00     0.029 A 
ATOM     18  C   UNL A   1      30.710  29.258  23.380  1.00  0.00     0.001 A 
ATOM     19  C   UNL A   1      30.455  28.254  22.457  1.00  0.00     0.002 A 
ENDBRANCH   8   9
ENDBRANCH   7   8
BRANCH   7  20
ATOM     20  C   UNL A   1      32.604  21.262  25.062  1.00  0.00    -0.025 A 
ATOM     21  C   UNL A   1      32.262  21.378  23.701  1.00  0.00     0.005 A 
ATOM     22  C   UNL A   1      32.902  19.981  25.549  1.00  0.00     0.005 A 
ATOM     23  C   UNL A   1      32.218  20.255  22.869  1.00  0.00     0.000 A 
ATOM     24  C   UNL A   1      32.846  18.857  24.722  1.00  0.00     0.000 A 
ATOM     25  C   UNL A   1      32.504  18.993  23.383  1.00  0.00     0.000 A 
ENDBRANCH   7  20
ENDBRANCH   4   7
ENDBRANCH   2   3
ENDBRANCH   1   2
BRANCH   1  26
ATOM     26  C   UNL A   1      37.559  21.452  24.920  1.00  0.00     0.118 C 
BRANCH  26  27
ATOM     27  N   UNL A   1      38.519  20.453  25.372  1.00  0.00    -0.352 N 
ATOM     28  C   UNL A   1      39.664  20.613  26.117  1.00  0.00     0.251 C 
ATOM     29  H   UNL A   1      38.317  19.526  25.106  1.00  0.00     0.163 HD
ATOM     30  O   UNL A   1      40.414  19.657  26.294  1.00  0.00    -0.269 OA
BRANCH  28  31
ATOM     31  C   UNL A   1      40.011  21.944  26.663  1.00  0.00     0.039 A 
ATOM     32  C   UNL A   1      39.416  23.103  26.158  1.00  0.00     0.014 A 
ATOM     33  C   UNL A   1      40.974  22.035  27.672  1.00  0.00     0.014 A 
ATOM     34  C   UNL A   1      39.913  24.350  26.527  1.00  0.00     0.010 A 
ATOM     35  C   UNL A   1      41.417  23.290  28.098  1.00  0.00     0.010 A 
ATOM     36  C   UNL A   1      40.935  24.457  27.485  1.00  0.00    -0.014 A 
BRANCH  36  37
ATOM     37  C   UNL A   1      41.512  25.788  27.806  1.00  0.00     0.031 A 
ATOM     38  C   UNL A   1      42.891  26.160  27.326  1.00  0.00     0.074 A 
ATOM     39  C   UNL A   1      40.780  26.685  28.495  1.00  0.00     0.049 A 
ATOM     40  N   UNL A   1      43.559  27.269  27.520  1.00  0.00    -0.248 NA
ATOM     41  C   UNL A   1      43.615  25.160  26.523  1.00  0.00     0.031 C 
ATOM     42  C   UNL A   1      39.432  26.450  29.013  1.00  0.00     0.029 A 
ATOM     43  N   UNL A   1      41.062  27.975  28.866  1.00  0.00    -0.354 N 
ATOM     44  C   UNL A   1      44.790  27.086  26.903  1.00  0.00     0.074 A 
ATOM     45  C   UNL A   1      44.784  25.758  26.330  1.00  0.00     0.031 C 
ATOM     46  C   UNL A   1      38.988  27.572  29.599  1.00  0.00     0.029 A 
ATOM     47  C   UNL A   1      40.035  28.588  29.543  1.00  0.00     0.049 A 
ATOM     48  H   UNL A   1      41.918  28.419  28.666  1.00  0.00     0.167 HD
ATOM     49  C   UNL A   1      45.825  27.954  26.799  1.00  0.00     0.034 A 
ATOM     50  C   UNL A   1      39.944  29.825  30.068  1.00  0.00     0.034 A 
ATOM     51  C   UNL A   1      45.815  29.296  27.315  1.00  0.00     0.049 A 
ATOM     52  C   UNL A   1      41.106  30.767  29.944  1.00  0.00     0.074 A 
ATOM     53  C   UNL A   1      46.811  30.254  27.234  1.00  0.00     0.029 A 
ATOM     54  N   UNL A   1      44.759  29.873  27.998  1.00  0.00    -0.354 N 
ATOM     55  N   UNL A   1      42.244  30.589  29.319  1.00  0.00    -0.248 NA
ATOM     56  C   UNL A   1      40.969  32.081  30.587  1.00  0.00     0.031 C 
ATOM     57  C   UNL A   1      46.353  31.414  27.865  1.00  0.00     0.029 A 
ATOM     58  C   UNL A   1      45.073  31.177  28.339  1.00  0.00     0.049 A 
ATOM     59  H   UNL A   1      43.909  29.423  28.209  1.00  0.00     0.167 HD
ATOM     60  C   UNL A   1      42.959  31.769  29.490  1.00  0.00     0.074 A 
ATOM     61  C   UNL A   1      42.114  32.664  30.255  1.00  0.00     0.031 C 
ATOM     62  C   UNL A   1      44.210  32.071  29.067  1.00  0.00     0.034 A 
BRANCH  49  63
ATOM     63  C   UNL A   1      47.043  27.500  26.043  1.00  0.00     0.023 A 
ATOM     64  C   UNL A   1      48.016  26.729  26.710  1.00  0.00     0.012 A 
ATOM     65  C   UNL A   1      47.194  27.772  24.669  1.00  0.00     0.148 A 
ATOM     66  C   UNL A   1      49.129  26.246  26.024  1.00  0.00     0.002 A 
ATOM     67  C   UNL A   1      48.292  27.265  23.986  1.00  0.00     0.091 A 
ATOM     68  F   UNL A   1      46.265  28.524  24.062  1.00  0.00    -0.205 F 
ATOM     69  C   UNL A   1      49.263  26.506  24.663  1.00  0.00     0.022 A 
BRANCH  67  70
ATOM     70  S   UNL A   1      48.533  27.499  22.221  1.00  0.00     0.127 S 
ATOM     71  O   UNL A   1      49.779  28.263  22.193  1.00  0.00    -0.237 OA
ATOM     72  O   UNL A   1      48.651  26.123  21.740  1.00  0.00    -0.237 OA
ATOM     73  O   UNL A   1      47.354  28.210  21.746  1.00  0.00    -0.744 OA
ENDBRANCH  67  70
ENDBRANCH  49  63
BRANCH  50  74
ATOM     74  C   UNL A   1      38.670  30.245  30.708  1.00  0.00     0.023 A 
ATOM     75  C   UNL A   1      38.499  30.037  32.089  1.00  0.00     0.012 A 
ATOM     76  C   UNL A   1      37.680  30.934  29.982  1.00  0.00     0.148 A 
ATOM     77  C   UNL A   1      37.361  30.512  32.740  1.00  0.00     0.002 A 
ATOM     78  C   UNL A   1      36.569  31.441  30.644  1.00  0.00     0.091 A 
ATOM     79  F   UNL A   1      37.871  31.117  28.668  1.00  0.00    -0.205 F 
ATOM     80  C   UNL A   1      36.403  31.223  32.021  1.00  0.00     0.022 A 
BRANCH  78  81
ATOM     81  S   UNL A   1      35.339  32.466  29.832  1.00  0.00     0.127 S 
ATOM     82  O   UNL A   1      36.157  33.561  29.315  1.00  0.00    -0.237 OA
ATOM     83  O   UNL A   1      34.819  31.552  28.815  1.00  0.00    -0.237 OA
ATOM     84  O   UNL A   1      34.383  32.838  30.865  1.00  0.00    -0.744 OA
ENDBRANCH  78  81
ENDBRANCH  50  74
BRANCH  62  85
ATOM     85  C   UNL A   1      44.762  33.423  29.423  1.00  0.00     0.023 A 
ATOM     86  C   UNL A   1      45.520  33.563  30.602  1.00  0.00     0.012 A 
ATOM     87  C   UNL A   1      44.623  34.518  28.550  1.00  0.00     0.148 A 
ATOM     88  C   UNL A   1      46.125  34.780  30.912  1.00  0.00     0.002 A 
ATOM     89  C   UNL A   1      45.255  35.719  28.849  1.00  0.00     0.091 A 
ATOM     90  F   UNL A   1      43.885  34.360  27.441  1.00  0.00    -0.205 F 
ATOM     91  C   UNL A   1      46.002  35.853  30.032  1.00  0.00     0.022 A 
BRANCH  89  92
ATOM     92  S   UNL A   1      45.213  37.135  27.745  1.00  0.00     0.127 S 
ATOM     93  O   UNL A   1      45.982  38.124  28.500  1.00  0.00    -0.237 OA
ATOM     94  O   UNL A   1      45.886  36.620  26.552  1.00  0.00    -0.237 OA
ATOM     95  O   UNL A   1      43.804  37.455  27.555  1.00  0.00    -0.744 OA
ENDBRANCH  89  92
ENDBRANCH  62  85
ENDBRANCH  36  37
ENDBRANCH  28  31
ENDBRANCH  26  27
ENDBRANCH   1  26
TORSDOF 16
ENDMDL
MODEL 3
REMARK VINA RESULT:     -13.2      1.246      7.588
REMARK SMILES Cc1nc(S[C@@H](C(=O)NCCCNC(=O)c2ccc(-c3c4nc(c(-c5cccc(S(=O)(=O)[O-])c5F)c5ccc([nH]5)c(-c5cccc(S(=O)(=O)[O-])c5F)c5nc(c(-c6cccc(S(=O)(=O)[O-])c6F)c6ccc3[nH]6)C=C5)C=C4)cc2)c2ccccc2)nc2ccccc12
REMARK SMILES IDX 11 1 10 2 9 3 7 4 8 5 6 7 5 8 4 9 1 10 2 11 3 12 91 13 86 14
REMARK SMILES IDX 90 15 85 16 87 17 89 18 88 19 79 20 80 21 84 22 81 23 83 24
REMARK SMILES IDX 82 25 12 26 13 27 14 28 15 30 16 31 17 32 78 33 18 34 77 35
REMARK SMILES IDX 19 36 20 37 21 38 71 39 22 40 76 41 70 42 72 43 23 44 75 45
REMARK SMILES IDX 69 46 68 47 24 49 56 50 36 51 55 52 37 53 40 54 54 55 73 56
REMARK SMILES IDX 38 57 39 58 53 60 74 61 41 62 25 63 26 64 34 65 27 66 29 67
REMARK SMILES IDX 35 68 28 69 30 70 31 71 32 72 33 73 57 74 58 75 66 76 59 77
REMARK SMILES IDX 61 78 67 79 60 80 62 81 63 82 64 83 65 84 42 85 43 86 51 87
REMARK SMILES IDX 44 88 46 89 52 90 45 91 47 92 48 93 49 94 50 95
REMARK H PARENT 9 6 13 29 72 48 40 59
REMARK Flexibility Score: inf
ROOT
ATOM      1  C   UNL A   1      36.100  21.575  25.481  1.00  0.00     0.042 C 
ENDROOT
BRANCH   1   2
ATOM      2  C   UNL A   1      35.551  22.867  26.076  1.00  0.00     0.117 C 
BRANCH   2   3
ATOM      3  N   UNL A   1      34.654  22.627  27.194  1.00  0.00    -0.355 N 
ATOM      4  C   UNL A   1      33.282  22.607  27.261  1.00  0.00     0.238 C 
ATOM      5  O   UNL A   1      32.814  22.289  28.359  1.00  0.00    -0.273 OA
ATOM      6  H   UNL A   1      35.106  22.446  28.049  1.00  0.00     0.163 HD
BRANCH   4   7
ATOM      7  C   UNL A   1      32.439  22.843  25.992  1.00  0.00     0.174 C 
BRANCH   7   8
ATOM      8  S   UNL A   1      30.763  23.504  26.345  1.00  0.00    -0.068 SA
BRANCH   8   9
ATOM      9  C   UNL A   1      30.850  25.201  25.846  1.00  0.00     0.189 A 
ATOM     10  C   UNL A   1      30.724  27.117  22.759  1.00  0.00     0.067 C 
ATOM     11  C   UNL A   1      30.855  26.828  24.227  1.00  0.00     0.050 A 
ATOM     12  N   UNL A   1      30.662  25.535  24.571  1.00  0.00    -0.227 NA
ATOM     13  C   UNL A   1      31.228  27.807  25.156  1.00  0.00     0.022 A 
ATOM     14  C   UNL A   1      31.334  27.351  26.476  1.00  0.00     0.075 A 
ATOM     15  C   UNL A   1      31.494  29.168  24.859  1.00  0.00     0.012 A 
ATOM     16  N   UNL A   1      31.151  26.071  26.818  1.00  0.00    -0.222 NA
ATOM     17  C   UNL A   1      31.661  28.267  27.468  1.00  0.00     0.029 A 
ATOM     18  C   UNL A   1      31.834  30.063  25.872  1.00  0.00     0.001 A 
ATOM     19  C   UNL A   1      31.908  29.613  27.182  1.00  0.00     0.002 A 
ENDBRANCH   8   9
ENDBRANCH   7   8
BRANCH   7  20
ATOM     20  C   UNL A   1      32.420  21.747  24.925  1.00  0.00    -0.025 A 
ATOM     21  C   UNL A   1      32.206  22.104  23.580  1.00  0.00     0.005 A 
ATOM     22  C   UNL A   1      32.553  20.383  25.221  1.00  0.00     0.005 A 
ATOM     23  C   UNL A   1      32.126  21.133  22.579  1.00  0.00     0.000 A 
ATOM     24  C   UNL A   1      32.459  19.410  24.224  1.00  0.00     0.000 A 
ATOM     25  C   UNL A   1      32.246  19.784  22.902  1.00  0.00     0.000 A 
ENDBRANCH   7  20
ENDBRANCH   4   7
ENDBRANCH   2   3
ENDBRANCH   1   2
BRANCH   1  26
ATOM     26  C   UNL A   1      37.521  21.683  24.937  1.00  0.00     0.118 C 
BRANCH  26  27
ATOM     27  N   UNL A   1      38.423  20.671  25.473  1.00  0.00    -0.352 N 
ATOM     28  C   UNL A   1      39.544  20.824  26.255  1.00  0.00     0.251 C 
ATOM     29  H   UNL A   1      38.195  19.741  25.243  1.00  0.00     0.163 HD
ATOM     30  O   UNL A   1      40.248  19.849  26.505  1.00  0.00    -0.269 OA
BRANCH  28  31
ATOM     31  C   UNL A   1      39.923  22.166  26.751  1.00  0.00     0.039 A 
ATOM     32  C   UNL A   1      39.319  23.316  26.238  1.00  0.00     0.014 A 
ATOM     33  C   UNL A   1      40.924  22.274  27.721  1.00  0.00     0.014 A 
ATOM     34  C   UNL A   1      39.839  24.568  26.554  1.00  0.00     0.010 A 
ATOM     35  C   UNL A   1      41.393  23.536  28.096  1.00  0.00     0.010 A 
ATOM     36  C   UNL A   1      40.898  24.690  27.470  1.00  0.00    -0.014 A 
BRANCH  36  37
ATOM     37  C   UNL A   1      41.498  26.024  27.733  1.00  0.00     0.031 A 
ATOM     38  C   UNL A   1      40.727  27.075  28.488  1.00  0.00     0.074 A 
ATOM     39  C   UNL A   1      42.757  26.280  27.328  1.00  0.00     0.049 A 
ATOM     40  N   UNL A   1      41.085  28.296  28.797  1.00  0.00    -0.248 NA
ATOM     41  C   UNL A   1      39.380  26.712  28.958  1.00  0.00     0.031 C 
ATOM     42  C   UNL A   1      43.611  25.347  26.592  1.00  0.00     0.029 A 
ATOM     43  N   UNL A   1      43.541  27.395  27.491  1.00  0.00    -0.354 N 
ATOM     44  C   UNL A   1      40.000  28.857  29.458  1.00  0.00     0.074 A 
ATOM     45  C   UNL A   1      38.964  27.848  29.503  1.00  0.00     0.031 C 
ATOM     46  C   UNL A   1      44.813  25.913  26.402  1.00  0.00     0.029 A 
ATOM     47  C   UNL A   1      44.800  27.263  26.957  1.00  0.00     0.049 A 
ATOM     48  H   UNL A   1      43.230  28.210  27.947  1.00  0.00     0.167 HD
ATOM     49  C   UNL A   1      39.882  30.091  30.003  1.00  0.00     0.034 A 
ATOM     50  C   UNL A   1      45.830  28.130  26.911  1.00  0.00     0.034 A 
ATOM     51  C   UNL A   1      40.929  31.078  30.012  1.00  0.00     0.049 A 
ATOM     52  C   UNL A   1      45.674  29.494  27.517  1.00  0.00     0.074 A 
ATOM     53  C   UNL A   1      40.906  32.347  30.564  1.00  0.00     0.029 A 
ATOM     54  N   UNL A   1      42.185  30.905  29.457  1.00  0.00    -0.354 N 
ATOM     55  N   UNL A   1      44.655  29.989  28.175  1.00  0.00    -0.248 NA
ATOM     56  C   UNL A   1      46.811  30.416  27.383  1.00  0.00     0.031 C 
ATOM     57  C   UNL A   1      42.153  32.941  30.344  1.00  0.00     0.029 A 
ATOM     58  C   UNL A   1      42.950  32.040  29.656  1.00  0.00     0.049 A 
ATOM     59  H   UNL A   1      42.489  30.093  28.989  1.00  0.00     0.167 HD
ATOM     60  C   UNL A   1      45.026  31.278  28.538  1.00  0.00     0.074 A 
ATOM     61  C   UNL A   1      46.376  31.479  28.049  1.00  0.00     0.031 C 
ATOM     62  C   UNL A   1      44.304  32.214  29.198  1.00  0.00     0.034 A 
BRANCH  49  63
ATOM     63  C   UNL A   1      38.590  30.431  30.691  1.00  0.00     0.023 A 
ATOM     64  C   UNL A   1      38.406  30.044  32.034  1.00  0.00     0.012 A 
ATOM     65  C   UNL A   1      37.594  31.187  30.043  1.00  0.00     0.148 A 
ATOM     66  C   UNL A   1      37.242  30.391  32.718  1.00  0.00     0.002 A 
ATOM     67  C   UNL A   1      36.448  31.552  30.740  1.00  0.00     0.091 A 
ATOM     68  F   UNL A   1      37.783  31.526  28.760  1.00  0.00    -0.205 F 
ATOM     69  C   UNL A   1      36.269  31.151  32.076  1.00  0.00     0.022 A 
BRANCH  67  70
ATOM     70  S   UNL A   1      35.157  32.574  30.021  1.00  0.00     0.127 S 
ATOM     71  O   UNL A   1      34.662  31.710  28.950  1.00  0.00    -0.237 OA
ATOM     72  O   UNL A   1      34.235  32.743  31.143  1.00  0.00    -0.237 OA
ATOM     73  O   UNL A   1      35.812  33.798  29.582  1.00  0.00    -0.744 OA
ENDBRANCH  67  70
ENDBRANCH  49  63
BRANCH  50  74
ATOM     74  C   UNL A   1      47.116  27.690  26.309  1.00  0.00     0.023 A 
ATOM     75  C   UNL A   1      48.047  27.006  27.111  1.00  0.00     0.012 A 
ATOM     76  C   UNL A   1      47.373  27.855  24.934  1.00  0.00     0.148 A 
ATOM     77  C   UNL A   1      49.216  26.490  26.554  1.00  0.00     0.002 A 
ATOM     78  C   UNL A   1      48.519  27.302  24.377  1.00  0.00     0.091 A 
ATOM     79  F   UNL A   1      46.466  28.512  24.195  1.00  0.00    -0.205 F 
ATOM     80  C   UNL A   1      49.446  26.627  25.187  1.00  0.00     0.022 A 
BRANCH  78  81
ATOM     81  S   UNL A   1      48.849  27.325  22.613  1.00  0.00     0.127 S 
ATOM     82  O   UNL A   1      50.295  27.533  22.582  1.00  0.00    -0.237 OA
ATOM     83  O   UNL A   1      48.410  25.988  22.213  1.00  0.00    -0.237 OA
ATOM     84  O   UNL A   1      48.052  28.416  22.072  1.00  0.00    -0.744 OA
ENDBRANCH  78  81
ENDBRANCH  50  74
BRANCH  62  85
ATOM     85  C   UNL A   1      44.943  33.555  29.432  1.00  0.00     0.023 A 
ATOM     86  C   UNL A   1      45.738  33.743  30.579  1.00  0.00     0.012 A 
ATOM     87  C   UNL A   1      44.846  34.583  28.475  1.00  0.00     0.148 A 
ATOM     88  C   UNL A   1      46.421  34.942  30.775  1.00  0.00     0.002 A 
ATOM     89  C   UNL A   1      45.554  35.764  28.663  1.00  0.00     0.091 A 
ATOM     90  F   UNL A   1      44.071  34.382  27.399  1.00  0.00    -0.205 F 
ATOM     91  C   UNL A   1      46.338  35.947  29.815  1.00  0.00     0.022 A 
BRANCH  89  92
ATOM     92  S   UNL A   1      45.566  37.087  27.448  1.00  0.00     0.127 S 
ATOM     93  O   UNL A   1      46.376  36.503  26.380  1.00  0.00    -0.237 OA
ATOM     94  O   UNL A   1      44.146  37.230  27.129  1.00  0.00    -0.237 OA
ATOM     95  O   UNL A   1      46.155  38.241  28.117  1.00  0.00    -0.744 OA
ENDBRANCH  89  92
ENDBRANCH  62  85
ENDBRANCH  36  37
ENDBRANCH  28  31
ENDBRANCH  26  27
ENDBRANCH   1  26
TORSDOF 16
ENDMDL
