MODEL 1
REMARK VINA RESULT:     -12.6      0.000      0.000
REMARK SMILES Cc1ccccc1Sc1cncc(C(=O)NCCCNC(=O)c2ccc(-c3c4nc(c(-c5cccc(S(=O)(=O)[O-])c5F)c5ccc([nH]5)c(-c5cccc(S(=O)(=O)[O-])c5F)c5nc(c(-c6cccc(S(=O)(=O)[O-])c6F)c6ccc3[nH]6)C=C5)C=C4)cc2)n1
REMARK SMILES IDX 18 1 17 2 16 3 14 4 15 5 13 7 9 8 10 9 86 10 11 11 12 12
REMARK SMILES IDX 8 13 7 14 1 15 2 16 3 17 4 18 6 19 5 20 19 21 20 22 21 23
REMARK SMILES IDX 22 25 23 26 24 27 85 28 25 29 84 30 26 31 27 32 28 33 78 34
REMARK SMILES IDX 29 35 83 36 77 37 79 38 30 39 82 40 76 41 75 42 31 44 63 45
REMARK SMILES IDX 43 46 62 47 44 48 47 49 61 50 80 51 45 52 46 53 60 55 81 56
REMARK SMILES IDX 48 57 32 58 33 59 41 60 34 61 36 62 42 63 35 64 37 65 38 66
REMARK SMILES IDX 39 67 40 68 64 69 65 70 73 71 66 72 68 73 74 74 67 75 69 76
REMARK SMILES IDX 70 77 71 78 72 79 49 80 50 81 58 82 51 83 53 84 59 85 52 86
REMARK SMILES IDX 54 87 55 88 56 89 57 90
REMARK H PARENT 16 6 20 24 79 43 47 54
REMARK Flexibility Score: inf
ROOT
ATOM      1  C   UNL A   1      32.168  30.608  26.564  1.00  0.00     0.042 C 
ENDROOT
BRANCH   1   2
ATOM      2  C   UNL A   1      31.859  29.698  25.377  1.00  0.00     0.118 C 
BRANCH   2   3
ATOM      3  N   UNL A   1      32.928  29.705  24.383  1.00  0.00    -0.351 N 
ATOM      4  C   UNL A   1      33.406  28.676  23.596  1.00  0.00     0.271 C 
ATOM      5  O   UNL A   1      34.258  28.920  22.742  1.00  0.00    -0.267 OA
ATOM      6  H   UNL A   1      33.375  30.574  24.254  1.00  0.00     0.163 HD
BRANCH   4   7
ATOM      7  C   UNL A   1      32.907  27.278  23.730  1.00  0.00     0.147 A 
ATOM      8  C   UNL A   1      32.902  25.236  24.799  1.00  0.00     0.120 A 
ATOM      9  C   UNL A   1      31.896  24.803  23.943  1.00  0.00     0.146 A 
ATOM     10  N   UNL A   1      33.407  26.485  24.709  1.00  0.00    -0.233 NA
ATOM     11  N   UNL A   1      31.406  25.568  22.933  1.00  0.00    -0.259 NA
ATOM     12  C   UNL A   1      31.942  26.815  22.845  1.00  0.00     0.145 A 
BRANCH   8  13
ATOM     13  S   UNL A   1      33.510  24.259  26.126  1.00  0.00    -0.068 SA
BRANCH  13  14
ATOM     14  C   UNL A   1      34.891  23.272  25.556  1.00  0.00     0.017 A 
ATOM     15  C   UNL A   1      33.708  21.199  24.556  1.00  0.00     0.045 C 
ATOM     16  C   UNL A   1      34.918  22.005  24.939  1.00  0.00    -0.037 A 
ATOM     17  C   UNL A   1      36.168  21.414  24.643  1.00  0.00     0.004 A 
ATOM     18  C   UNL A   1      37.370  22.074  24.889  1.00  0.00     0.000 A 
ATOM     19  C   UNL A   1      36.126  23.926  25.773  1.00  0.00     0.016 A 
ATOM     20  C   UNL A   1      37.349  23.342  25.441  1.00  0.00     0.001 A 
ENDBRANCH  13  14
ENDBRANCH   8  13
ENDBRANCH   4   7
ENDBRANCH   2   3
ENDBRANCH   1   2
BRANCH   1  21
ATOM     21  C   UNL A   1      33.542  30.326  27.158  1.00  0.00     0.118 C 
BRANCH  21  22
ATOM     22  N   UNL A   1      34.088  31.433  27.934  1.00  0.00    -0.352 N 
ATOM     23  C   UNL A   1      35.199  31.484  28.761  1.00  0.00     0.251 C 
ATOM     24  H   UNL A   1      33.591  32.278  27.857  1.00  0.00     0.163 HD
ATOM     25  O   UNL A   1      35.385  32.488  29.431  1.00  0.00    -0.269 OA
BRANCH  23  26
ATOM     26  C   UNL A   1      36.190  30.375  28.752  1.00  0.00     0.039 A 
ATOM     27  C   UNL A   1      36.551  29.784  29.971  1.00  0.00     0.014 A 
ATOM     28  C   UNL A   1      36.873  30.033  27.589  1.00  0.00     0.014 A 
ATOM     29  C   UNL A   1      37.731  29.043  30.062  1.00  0.00     0.010 A 
ATOM     30  C   UNL A   1      38.087  29.388  27.690  1.00  0.00     0.010 A 
ATOM     31  C   UNL A   1      38.545  28.946  28.935  1.00  0.00    -0.014 A 
BRANCH  31  32
ATOM     32  C   UNL A   1      39.935  28.515  28.947  1.00  0.00     0.031 A 
ATOM     33  C   UNL A   1      40.302  27.110  28.688  1.00  0.00     0.074 A 
ATOM     34  C   UNL A   1      40.889  29.473  28.947  1.00  0.00     0.049 A 
ATOM     35  N   UNL A   1      41.460  26.603  28.949  1.00  0.00    -0.248 NA
ATOM     36  C   UNL A   1      39.362  26.150  28.128  1.00  0.00     0.031 C 
ATOM     37  C   UNL A   1      42.270  29.339  28.503  1.00  0.00     0.029 A 
ATOM     38  N   UNL A   1      40.842  30.731  29.555  1.00  0.00    -0.354 N 
ATOM     39  C   UNL A   1      41.516  25.362  28.348  1.00  0.00     0.074 A 
ATOM     40  C   UNL A   1      40.159  25.096  27.930  1.00  0.00     0.031 C 
ATOM     41  C   UNL A   1      42.999  30.308  29.076  1.00  0.00     0.029 A 
ATOM     42  C   UNL A   1      42.138  30.982  30.032  1.00  0.00     0.049 A 
ATOM     43  H   UNL A   1      40.058  31.322  29.633  1.00  0.00     0.167 HD
ATOM     44  C   UNL A   1      42.732  24.778  28.140  1.00  0.00     0.034 A 
ATOM     45  C   UNL A   1      42.437  31.213  31.342  1.00  0.00     0.034 A 
ATOM     46  C   UNL A   1      43.814  25.605  28.698  1.00  0.00     0.049 A 
ATOM     47  C   UNL A   1      43.464  30.246  31.900  1.00  0.00     0.074 A 
ATOM     48  C   UNL A   1      44.690  26.510  28.120  1.00  0.00     0.029 A 
ATOM     49  N   UNL A   1      43.943  25.752  30.072  1.00  0.00    -0.354 N 
ATOM     50  N   UNL A   1      43.884  29.184  31.270  1.00  0.00    -0.248 NA
ATOM     51  C   UNL A   1      44.077  30.379  33.219  1.00  0.00     0.031 C 
ATOM     52  C   UNL A   1      45.298  27.257  29.161  1.00  0.00     0.029 A 
ATOM     53  C   UNL A   1      44.812  26.791  30.370  1.00  0.00     0.049 A 
ATOM     54  H   UNL A   1      43.482  25.197  30.742  1.00  0.00     0.167 HD
ATOM     55  C   UNL A   1      44.676  28.432  32.098  1.00  0.00     0.074 A 
ATOM     56  C   UNL A   1      44.832  29.267  33.277  1.00  0.00     0.031 C 
ATOM     57  C   UNL A   1      45.074  27.166  31.757  1.00  0.00     0.034 A 
BRANCH  44  58
ATOM     58  C   UNL A   1      43.016  23.639  27.165  1.00  0.00     0.023 A 
ATOM     59  C   UNL A   1      43.716  23.964  25.978  1.00  0.00     0.012 A 
ATOM     60  C   UNL A   1      42.595  22.295  27.271  1.00  0.00     0.148 A 
ATOM     61  C   UNL A   1      43.871  23.064  24.917  1.00  0.00     0.002 A 
ATOM     62  C   UNL A   1      42.687  21.411  26.189  1.00  0.00     0.091 A 
ATOM     63  F   UNL A   1      42.186  21.815  28.447  1.00  0.00    -0.205 F 
ATOM     64  C   UNL A   1      43.318  21.797  25.005  1.00  0.00     0.022 A 
BRANCH  62  65
ATOM     65  S   UNL A   1      41.936  19.773  26.213  1.00  0.00     0.127 S 
ATOM     66  O   UNL A   1      40.511  20.085  26.080  1.00  0.00    -0.237 OA
ATOM     67  O   UNL A   1      42.530  19.137  25.039  1.00  0.00    -0.237 OA
ATOM     68  O   UNL A   1      42.294  19.180  27.496  1.00  0.00    -0.744 OA
ENDBRANCH  62  65
ENDBRANCH  44  58
BRANCH  45  69
ATOM     69  C   UNL A   1      41.331  31.846  32.116  1.00  0.00     0.023 A 
ATOM     70  C   UNL A   1      41.017  33.187  31.792  1.00  0.00     0.012 A 
ATOM     71  C   UNL A   1      40.391  31.081  32.827  1.00  0.00     0.148 A 
ATOM     72  C   UNL A   1      39.756  33.717  32.067  1.00  0.00     0.002 A 
ATOM     73  C   UNL A   1      39.130  31.616  33.094  1.00  0.00     0.091 A 
ATOM     74  F   UNL A   1      40.707  29.822  33.156  1.00  0.00    -0.205 F 
ATOM     75  C   UNL A   1      38.803  32.920  32.689  1.00  0.00     0.022 A 
BRANCH  73  76
ATOM     76  S   UNL A   1      37.817  30.626  33.821  1.00  0.00     0.127 S 
ATOM     77  O   UNL A   1      38.000  30.897  35.244  1.00  0.00    -0.237 OA
ATOM     78  O   UNL A   1      36.617  31.215  33.228  1.00  0.00    -0.237 OA
ATOM     79  O   UNL A   1      38.089  29.265  33.382  1.00  0.00    -0.744 OA
ENDBRANCH  73  76
ENDBRANCH  45  69
BRANCH  57  80
ATOM     80  C   UNL A   1      45.733  26.160  32.684  1.00  0.00     0.023 A 
ATOM     81  C   UNL A   1      47.131  26.067  32.829  1.00  0.00     0.012 A 
ATOM     82  C   UNL A   1      44.953  25.366  33.568  1.00  0.00     0.148 A 
ATOM     83  C   UNL A   1      47.727  25.204  33.757  1.00  0.00     0.002 A 
ATOM     84  C   UNL A   1      45.550  24.592  34.562  1.00  0.00     0.091 A 
ATOM     85  F   UNL A   1      43.618  25.339  33.446  1.00  0.00    -0.205 F 
ATOM     86  C   UNL A   1      46.938  24.485  34.642  1.00  0.00     0.022 A 
BRANCH  84  87
ATOM     87  S   UNL A   1      44.552  23.844  35.859  1.00  0.00     0.127 S 
ATOM     88  O   UNL A   1      45.565  23.234  36.716  1.00  0.00    -0.237 OA
ATOM     89  O   UNL A   1      43.873  24.999  36.451  1.00  0.00    -0.237 OA
ATOM     90  O   UNL A   1      43.661  22.930  35.154  1.00  0.00    -0.744 OA
ENDBRANCH  84  87
ENDBRANCH  57  80
ENDBRANCH  31  32
ENDBRANCH  23  26
ENDBRANCH  21  22
ENDBRANCH   1  21
TORSDOF 15
ENDMDL
MODEL 2
REMARK VINA RESULT:     -12.4      1.753      2.149
REMARK SMILES Cc1ccccc1Sc1cncc(C(=O)NCCCNC(=O)c2ccc(-c3c4nc(c(-c5cccc(S(=O)(=O)[O-])c5F)c5ccc([nH]5)c(-c5cccc(S(=O)(=O)[O-])c5F)c5nc(c(-c6cccc(S(=O)(=O)[O-])c6F)c6ccc3[nH]6)C=C5)C=C4)cc2)n1
REMARK SMILES IDX 18 1 17 2 16 3 14 4 15 5 13 7 9 8 10 9 86 10 11 11 12 12
REMARK SMILES IDX 8 13 7 14 1 15 2 16 3 17 4 18 6 19 5 20 19 21 20 22 21 23
REMARK SMILES IDX 22 25 23 26 24 27 85 28 25 29 84 30 26 31 27 32 28 33 78 34
REMARK SMILES IDX 29 35 83 36 77 37 79 38 30 39 82 40 76 41 75 42 31 44 63 45
REMARK SMILES IDX 43 46 62 47 44 48 47 49 61 50 80 51 45 52 46 53 60 55 81 56
REMARK SMILES IDX 48 57 32 58 33 59 41 60 34 61 36 62 42 63 35 64 37 65 38 66
REMARK SMILES IDX 39 67 40 68 64 69 65 70 73 71 66 72 68 73 74 74 67 75 69 76
REMARK SMILES IDX 70 77 71 78 72 79 49 80 50 81 58 82 51 83 53 84 59 85 52 86
REMARK SMILES IDX 54 87 55 88 56 89 57 90
REMARK H PARENT 16 6 20 24 79 43 47 54
REMARK Flexibility Score: inf
ROOT
ATOM      1  C   UNL A   1      34.293  29.330  26.507  1.00  0.00     0.042 C 
ENDROOT
BRANCH   1   2
ATOM      2  C   UNL A   1      33.251  29.440  25.394  1.00  0.00     0.118 C 
BRANCH   2   3
ATOM      3  N   UNL A   1      33.848  29.334  24.067  1.00  0.00    -0.351 N 
ATOM      4  C   UNL A   1      33.775  28.306  23.148  1.00  0.00     0.271 C 
ATOM      5  O   UNL A   1      34.276  28.460  22.034  1.00  0.00    -0.267 OA
ATOM      6  H   UNL A   1      34.382  30.112  23.784  1.00  0.00     0.163 HD
BRANCH   4   7
ATOM      7  C   UNL A   1      33.086  27.019  23.451  1.00  0.00     0.147 A 
ATOM      8  C   UNL A   1      32.880  25.092  24.698  1.00  0.00     0.120 A 
ATOM      9  C   UNL A   1      31.739  24.760  23.976  1.00  0.00     0.146 A 
ATOM     10  N   UNL A   1      33.557  26.234  24.451  1.00  0.00    -0.233 NA
ATOM     11  N   UNL A   1      31.271  25.514  22.948  1.00  0.00    -0.259 NA
ATOM     12  C   UNL A   1      31.978  26.650  22.700  1.00  0.00     0.145 A 
BRANCH   8  13
ATOM     13  S   UNL A   1      33.464  24.134  26.050  1.00  0.00    -0.068 SA
BRANCH  13  14
ATOM     14  C   UNL A   1      34.898  23.191  25.538  1.00  0.00     0.017 A 
ATOM     15  C   UNL A   1      33.878  20.860  25.061  1.00  0.00     0.045 C 
ATOM     16  C   UNL A   1      35.017  21.836  25.166  1.00  0.00    -0.037 A 
ATOM     17  C   UNL A   1      36.298  21.320  24.862  1.00  0.00     0.004 A 
ATOM     18  C   UNL A   1      37.434  22.126  24.861  1.00  0.00     0.000 A 
ATOM     19  C   UNL A   1      36.065  23.988  25.507  1.00  0.00     0.016 A 
ATOM     20  C   UNL A   1      37.315  23.470  25.169  1.00  0.00     0.001 A 
ENDBRANCH  13  14
ENDBRANCH   8  13
ENDBRANCH   4   7
ENDBRANCH   2   3
ENDBRANCH   1   2
BRANCH   1  21
ATOM     21  C   UNL A   1      33.980  30.256  27.676  1.00  0.00     0.118 C 
BRANCH  21  22
ATOM     22  N   UNL A   1      34.916  31.364  27.818  1.00  0.00    -0.352 N 
ATOM     23  C   UNL A   1      36.258  31.364  28.163  1.00  0.00     0.251 C 
ATOM     24  H   UNL A   1      34.535  32.254  27.638  1.00  0.00     0.163 HD
ATOM     25  O   UNL A   1      36.812  32.434  28.364  1.00  0.00    -0.269 OA
BRANCH  23  26
ATOM     26  C   UNL A   1      37.023  30.089  28.189  1.00  0.00     0.039 A 
ATOM     27  C   UNL A   1      37.048  29.343  29.377  1.00  0.00     0.014 A 
ATOM     28  C   UNL A   1      37.834  29.717  27.122  1.00  0.00     0.014 A 
ATOM     29  C   UNL A   1      38.043  28.383  29.574  1.00  0.00     0.010 A 
ATOM     30  C   UNL A   1      38.876  28.843  27.345  1.00  0.00     0.010 A 
ATOM     31  C   UNL A   1      39.016  28.221  28.590  1.00  0.00    -0.014 A 
BRANCH  31  32
ATOM     32  C   UNL A   1      40.284  27.530  28.779  1.00  0.00     0.031 A 
ATOM     33  C   UNL A   1      40.404  26.078  28.551  1.00  0.00     0.074 A 
ATOM     34  C   UNL A   1      41.396  28.286  28.918  1.00  0.00     0.049 A 
ATOM     35  N   UNL A   1      41.397  25.360  28.955  1.00  0.00    -0.248 NA
ATOM     36  C   UNL A   1      39.378  25.312  27.859  1.00  0.00     0.031 C 
ATOM     37  C   UNL A   1      42.772  27.882  28.658  1.00  0.00     0.029 A 
ATOM     38  N   UNL A   1      41.512  29.537  29.532  1.00  0.00    -0.354 N 
ATOM     39  C   UNL A   1      41.291  24.124  28.349  1.00  0.00     0.074 A 
ATOM     40  C   UNL A   1      39.976  24.121  27.753  1.00  0.00     0.031 C 
ATOM     41  C   UNL A   1      43.592  28.700  29.335  1.00  0.00     0.029 A 
ATOM     42  C   UNL A   1      42.758  29.538  30.179  1.00  0.00     0.049 A 
ATOM     43  H   UNL A   1      40.854  30.269  29.514  1.00  0.00     0.167 HD
ATOM     44  C   UNL A   1      42.388  23.314  28.295  1.00  0.00     0.034 A 
ATOM     45  C   UNL A   1      42.921  29.722  31.520  1.00  0.00     0.034 A 
ATOM     46  C   UNL A   1      43.526  23.923  29.002  1.00  0.00     0.049 A 
ATOM     47  C   UNL A   1      43.659  28.582  32.195  1.00  0.00     0.074 A 
ATOM     48  C   UNL A   1      44.629  24.635  28.558  1.00  0.00     0.029 A 
ATOM     49  N   UNL A   1      43.499  24.059  30.384  1.00  0.00    -0.354 N 
ATOM     50  N   UNL A   1      43.945  27.452  31.611  1.00  0.00    -0.248 NA
ATOM     51  C   UNL A   1      44.107  28.610  33.585  1.00  0.00     0.031 C 
ATOM     52  C   UNL A   1      45.227  25.263  29.680  1.00  0.00     0.029 A 
ATOM     53  C   UNL A   1      44.505  24.913  30.808  1.00  0.00     0.049 A 
ATOM     54  H   UNL A   1      42.855  23.612  30.978  1.00  0.00     0.167 HD
ATOM     55  C   UNL A   1      44.461  26.571  32.525  1.00  0.00     0.074 A 
ATOM     56  C   UNL A   1      44.618  27.373  33.726  1.00  0.00     0.031 C 
ATOM     57  C   UNL A   1      44.649  25.248  32.222  1.00  0.00     0.034 A 
BRANCH  44  58
ATOM     58  C   UNL A   1      42.574  22.130  27.351  1.00  0.00     0.023 A 
ATOM     59  C   UNL A   1      41.803  20.971  27.609  1.00  0.00     0.012 A 
ATOM     60  C   UNL A   1      43.489  22.023  26.279  1.00  0.00     0.148 A 
ATOM     61  C   UNL A   1      42.014  19.755  26.947  1.00  0.00     0.002 A 
ATOM     62  C   UNL A   1      43.750  20.795  25.661  1.00  0.00     0.091 A 
ATOM     63  F   UNL A   1      44.052  23.121  25.772  1.00  0.00    -0.205 F 
ATOM     64  C   UNL A   1      43.020  19.655  26.000  1.00  0.00     0.022 A 
BRANCH  62  65
ATOM     65  S   UNL A   1      45.084  20.580  24.467  1.00  0.00     0.127 S 
ATOM     66  O   UNL A   1      44.668  21.465  23.377  1.00  0.00    -0.237 OA
ATOM     67  O   UNL A   1      46.253  21.042  25.213  1.00  0.00    -0.237 OA
ATOM     68  O   UNL A   1      45.086  19.165  24.112  1.00  0.00    -0.744 OA
ENDBRANCH  62  65
ENDBRANCH  44  58
BRANCH  45  69
ATOM     69  C   UNL A   1      41.866  30.566  32.150  1.00  0.00     0.023 A 
ATOM     70  C   UNL A   1      41.793  31.914  31.725  1.00  0.00     0.012 A 
ATOM     71  C   UNL A   1      40.761  30.002  32.811  1.00  0.00     0.148 A 
ATOM     72  C   UNL A   1      40.611  32.644  31.851  1.00  0.00     0.002 A 
ATOM     73  C   UNL A   1      39.581  30.737  32.928  1.00  0.00     0.091 A 
ATOM     74  F   UNL A   1      40.848  28.736  33.238  1.00  0.00    -0.205 F 
ATOM     75  C   UNL A   1      39.496  32.045  32.423  1.00  0.00     0.022 A 
BRANCH  73  76
ATOM     76  S   UNL A   1      38.072  30.008  33.582  1.00  0.00     0.127 S 
ATOM     77  O   UNL A   1      38.284  30.140  35.021  1.00  0.00    -0.237 OA
ATOM     78  O   UNL A   1      37.038  30.879  33.026  1.00  0.00    -0.237 OA
ATOM     79  O   UNL A   1      38.055  28.652  33.053  1.00  0.00    -0.744 OA
ENDBRANCH  73  76
ENDBRANCH  45  69
BRANCH  57  80
ATOM     80  C   UNL A   1      44.973  24.144  33.214  1.00  0.00     0.023 A 
ATOM     81  C   UNL A   1      44.107  23.058  33.446  1.00  0.00     0.012 A 
ATOM     82  C   UNL A   1      46.246  24.080  33.841  1.00  0.00     0.148 A 
ATOM     83  C   UNL A   1      44.455  21.995  34.288  1.00  0.00     0.002 A 
ATOM     84  C   UNL A   1      46.629  22.969  34.591  1.00  0.00     0.091 A 
ATOM     85  F   UNL A   1      47.101  25.109  33.733  1.00  0.00    -0.205 F 
ATOM     86  C   UNL A   1      45.726  21.935  34.841  1.00  0.00     0.022 A 
BRANCH  84  87
ATOM     87  S   UNL A   1      48.338  22.765  35.115  1.00  0.00     0.127 S 
ATOM     88  O   UNL A   1      48.359  21.377  35.569  1.00  0.00    -0.237 OA
ATOM     89  O   UNL A   1      49.086  23.011  33.880  1.00  0.00    -0.237 OA
ATOM     90  O   UNL A   1      48.531  23.787  36.136  1.00  0.00    -0.744 OA
ENDBRANCH  84  87
ENDBRANCH  57  80
ENDBRANCH  31  32
ENDBRANCH  23  26
ENDBRANCH  21  22
ENDBRANCH   1  21
TORSDOF 15
ENDMDL
MODEL 3
REMARK VINA RESULT:     -12.4      3.996      9.572
REMARK SMILES Cc1ccccc1Sc1cncc(C(=O)NCCCNC(=O)c2ccc(-c3c4nc(c(-c5cccc(S(=O)(=O)[O-])c5F)c5ccc([nH]5)c(-c5cccc(S(=O)(=O)[O-])c5F)c5nc(c(-c6cccc(S(=O)(=O)[O-])c6F)c6ccc3[nH]6)C=C5)C=C4)cc2)n1
REMARK SMILES IDX 18 1 17 2 16 3 14 4 15 5 13 7 9 8 10 9 86 10 11 11 12 12
REMARK SMILES IDX 8 13 7 14 1 15 2 16 3 17 4 18 6 19 5 20 19 21 20 22 21 23
REMARK SMILES IDX 22 25 23 26 24 27 85 28 25 29 84 30 26 31 27 32 28 33 78 34
REMARK SMILES IDX 29 35 83 36 77 37 79 38 30 39 82 40 76 41 75 42 31 44 63 45
REMARK SMILES IDX 43 46 62 47 44 48 47 49 61 50 80 51 45 52 46 53 60 55 81 56
REMARK SMILES IDX 48 57 32 58 33 59 41 60 34 61 36 62 42 63 35 64 37 65 38 66
REMARK SMILES IDX 39 67 40 68 64 69 65 70 73 71 66 72 68 73 74 74 67 75 69 76
REMARK SMILES IDX 70 77 71 78 72 79 49 80 50 81 58 82 51 83 53 84 59 85 52 86
REMARK SMILES IDX 54 87 55 88 56 89 57 90
REMARK H PARENT 16 6 20 24 79 43 47 54
REMARK Flexibility Score: inf
ROOT
ATOM      1  C   UNL A   1      37.751  20.961  25.130  1.00  0.00     0.042 C 
ENDROOT
BRANCH   1   2
ATOM      2  C   UNL A   1      36.252  21.087  24.864  1.00  0.00     0.118 C 
BRANCH   2   3
ATOM      3  N   UNL A   1      35.468  21.065  26.094  1.00  0.00    -0.351 N 
ATOM      4  C   UNL A   1      34.209  21.572  26.346  1.00  0.00     0.271 C 
ATOM      5  O   UNL A   1      33.684  21.358  27.439  1.00  0.00    -0.267 OA
ATOM      6  H   UNL A   1      35.903  20.623  26.860  1.00  0.00     0.163 HD
BRANCH   4   7
ATOM      7  C   UNL A   1      33.450  22.352  25.327  1.00  0.00     0.147 A 
ATOM      8  C   UNL A   1      33.012  24.324  24.219  1.00  0.00     0.120 A 
ATOM      9  C   UNL A   1      32.091  23.657  23.419  1.00  0.00     0.146 A 
ATOM     10  N   UNL A   1      33.712  23.673  25.173  1.00  0.00    -0.233 NA
ATOM     11  N   UNL A   1      31.788  22.343  23.581  1.00  0.00    -0.259 NA
ATOM     12  C   UNL A   1      32.487  21.709  24.560  1.00  0.00     0.145 A 
BRANCH   8  13
ATOM     13  S   UNL A   1      33.428  26.015  23.986  1.00  0.00    -0.068 SA
BRANCH  13  14
ATOM     14  C   UNL A   1      32.892  26.963  25.408  1.00  0.00     0.017 A 
ATOM     15  C   UNL A   1      30.420  26.234  25.650  1.00  0.00     0.045 C 
ATOM     16  C   UNL A   1      31.632  27.036  26.036  1.00  0.00    -0.037 A 
ATOM     17  C   UNL A   1      31.459  27.926  27.122  1.00  0.00     0.004 A 
ATOM     18  C   UNL A   1      32.512  28.687  27.623  1.00  0.00     0.000 A 
ATOM     19  C   UNL A   1      33.946  27.730  25.953  1.00  0.00     0.016 A 
ATOM     20  C   UNL A   1      33.766  28.577  27.047  1.00  0.00     0.001 A 
ENDBRANCH  13  14
ENDBRANCH   8  13
ENDBRANCH   4   7
ENDBRANCH   2   3
ENDBRANCH   1   2
BRANCH   1  21
ATOM     21  C   UNL A   1      38.339  22.243  25.706  1.00  0.00     0.118 C 
BRANCH  21  22
ATOM     22  N   UNL A   1      39.752  22.143  26.051  1.00  0.00    -0.352 N 
ATOM     23  C   UNL A   1      40.655  23.127  26.420  1.00  0.00     0.251 C 
ATOM     24  H   UNL A   1      40.122  21.232  26.018  1.00  0.00     0.163 HD
ATOM     25  O   UNL A   1      41.835  22.829  26.523  1.00  0.00    -0.269 OA
BRANCH  23  26
ATOM     26  C   UNL A   1      40.174  24.487  26.778  1.00  0.00     0.039 A 
ATOM     27  C   UNL A   1      40.759  25.596  26.149  1.00  0.00     0.014 A 
ATOM     28  C   UNL A   1      39.282  24.680  27.829  1.00  0.00     0.014 A 
ATOM     29  C   UNL A   1      40.636  26.864  26.720  1.00  0.00     0.010 A 
ATOM     30  C   UNL A   1      39.236  25.908  28.452  1.00  0.00     0.010 A 
ATOM     31  C   UNL A   1      39.960  26.986  27.932  1.00  0.00    -0.014 A 
BRANCH  31  32
ATOM     32  C   UNL A   1      40.032  28.144  28.812  1.00  0.00     0.031 A 
ATOM     33  C   UNL A   1      39.120  29.291  28.642  1.00  0.00     0.074 A 
ATOM     34  C   UNL A   1      40.774  28.032  29.936  1.00  0.00     0.049 A 
ATOM     35  N   UNL A   1      39.298  30.445  29.190  1.00  0.00    -0.248 NA
ATOM     36  C   UNL A   1      37.931  29.222  27.805  1.00  0.00     0.031 C 
ATOM     37  C   UNL A   1      40.645  28.817  31.157  1.00  0.00     0.029 A 
ATOM     38  N   UNL A   1      41.953  27.303  30.117  1.00  0.00    -0.354 N 
ATOM     39  C   UNL A   1      38.136  31.171  29.018  1.00  0.00     0.074 A 
ATOM     40  C   UNL A   1      37.358  30.398  28.079  1.00  0.00     0.031 C 
ATOM     41  C   UNL A   1      41.804  28.754  31.830  1.00  0.00     0.029 A 
ATOM     42  C   UNL A   1      42.757  28.069  30.975  1.00  0.00     0.049 A 
ATOM     43  H   UNL A   1      42.175  26.428  29.722  1.00  0.00     0.167 HD
ATOM     44  C   UNL A   1      37.908  32.258  29.811  1.00  0.00     0.034 A 
ATOM     45  C   UNL A   1      44.001  28.526  30.650  1.00  0.00     0.034 A 
ATOM     46  C   UNL A   1      39.052  32.507  30.703  1.00  0.00     0.049 A 
ATOM     47  C   UNL A   1      44.131  30.034  30.761  1.00  0.00     0.074 A 
ATOM     48  C   UNL A   1      39.286  32.192  32.032  1.00  0.00     0.029 A 
ATOM     49  N   UNL A   1      40.263  32.943  30.181  1.00  0.00    -0.354 N 
ATOM     50  N   UNL A   1      43.125  30.840  30.956  1.00  0.00    -0.248 NA
ATOM     51  C   UNL A   1      45.394  30.754  30.631  1.00  0.00     0.031 C 
ATOM     52  C   UNL A   1      40.669  32.374  32.289  1.00  0.00     0.029 A 
ATOM     53  C   UNL A   1      41.270  32.823  31.126  1.00  0.00     0.049 A 
ATOM     54  H   UNL A   1      40.388  33.289  29.268  1.00  0.00     0.167 HD
ATOM     55  C   UNL A   1      43.540  32.141  30.842  1.00  0.00     0.074 A 
ATOM     56  C   UNL A   1      44.984  32.032  30.721  1.00  0.00     0.031 C 
ATOM     57  C   UNL A   1      42.647  33.179  30.794  1.00  0.00     0.034 A 
BRANCH  44  58
ATOM     58  C   UNL A   1      36.554  32.922  30.042  1.00  0.00     0.023 A 
ATOM     59  C   UNL A   1      35.965  33.589  28.941  1.00  0.00     0.012 A 
ATOM     60  C   UNL A   1      35.842  33.017  31.259  1.00  0.00     0.148 A 
ATOM     61  C   UNL A   1      34.830  34.399  29.061  1.00  0.00     0.002 A 
ATOM     62  C   UNL A   1      34.748  33.878  31.401  1.00  0.00     0.091 A 
ATOM     63  F   UNL A   1      36.147  32.208  32.274  1.00  0.00    -0.205 F 
ATOM     64  C   UNL A   1      34.244  34.579  30.304  1.00  0.00     0.022 A 
BRANCH  62  65
ATOM     65  S   UNL A   1      33.977  34.206  32.998  1.00  0.00     0.127 S 
ATOM     66  O   UNL A   1      33.195  35.412  32.719  1.00  0.00    -0.237 OA
ATOM     67  O   UNL A   1      33.180  33.001  33.216  1.00  0.00    -0.237 OA
ATOM     68  O   UNL A   1      35.070  34.415  33.940  1.00  0.00    -0.744 OA
ENDBRANCH  62  65
ENDBRANCH  44  58
BRANCH  45  69
ATOM     69  C   UNL A   1      44.732  27.661  29.682  1.00  0.00     0.023 A 
ATOM     70  C   UNL A   1      45.009  26.337  30.098  1.00  0.00     0.012 A 
ATOM     71  C   UNL A   1      44.797  27.970  28.312  1.00  0.00     0.148 A 
ATOM     72  C   UNL A   1      45.231  25.322  29.166  1.00  0.00     0.002 A 
ATOM     73  C   UNL A   1      45.016  26.949  27.387  1.00  0.00     0.091 A 
ATOM     74  F   UNL A   1      44.564  29.232  27.929  1.00  0.00    -0.205 F 
ATOM     75  C   UNL A   1      45.202  25.623  27.810  1.00  0.00     0.022 A 
BRANCH  73  76
ATOM     76  S   UNL A   1      44.914  27.241  25.615  1.00  0.00     0.127 S 
ATOM     77  O   UNL A   1      44.944  25.878  25.093  1.00  0.00    -0.237 OA
ATOM     78  O   UNL A   1      43.628  27.924  25.484  1.00  0.00    -0.237 OA
ATOM     79  O   UNL A   1      46.065  28.077  25.308  1.00  0.00    -0.744 OA
ENDBRANCH  73  76
ENDBRANCH  45  69
BRANCH  57  80
ATOM     80  C   UNL A   1      42.971  34.616  30.424  1.00  0.00     0.023 A 
ATOM     81  C   UNL A   1      43.304  35.588  31.387  1.00  0.00     0.012 A 
ATOM     82  C   UNL A   1      43.102  35.005  29.064  1.00  0.00     0.148 A 
ATOM     83  C   UNL A   1      43.696  36.885  31.030  1.00  0.00     0.002 A 
ATOM     84  C   UNL A   1      43.596  36.261  28.714  1.00  0.00     0.091 A 
ATOM     85  F   UNL A   1      42.732  34.164  28.086  1.00  0.00    -0.205 F 
ATOM     86  C   UNL A   1      43.868  37.215  29.695  1.00  0.00     0.022 A 
BRANCH  84  87
ATOM     87  S   UNL A   1      44.046  36.624  27.010  1.00  0.00     0.127 S 
ATOM     88  O   UNL A   1      45.129  35.675  26.767  1.00  0.00    -0.237 OA
ATOM     89  O   UNL A   1      42.809  36.333  26.281  1.00  0.00    -0.237 OA
ATOM     90  O   UNL A   1      44.408  38.035  27.021  1.00  0.00    -0.744 OA
ENDBRANCH  84  87
ENDBRANCH  57  80
ENDBRANCH  31  32
ENDBRANCH  23  26
ENDBRANCH  21  22
ENDBRANCH   1  21
TORSDOF 15
ENDMDL
