MODEL 1
REMARK VINA RESULT:     -12.1      0.000      0.000
REMARK SMILES C[C@@H](C1CC1)N(C)C(=O)N1Cc2nc[nH]c2C[C@H]1C(=O)NCCCNC(=O)c1ccc(-c2c3nc(c(-c4cccc(S(=O)(=O)[O-])c4F)c4ccc([nH]4)c(-c4cccc(S(=O)(=O)[O-])c4F)c4nc(c(-c5cccc(S(=O)(=O)[O-])c5F)c5ccc2[nH]5)C=C4)C=C3)cc1
REMARK SMILES IDX 22 1 21 2 19 3 20 4 18 6 10 7 11 8 12 9 17 10 13 11 16 12
REMARK SMILES IDX 14 13 15 14 8 16 9 17 6 18 7 19 2 20 1 21 3 22 4 23 5 24
REMARK SMILES IDX 23 25 24 26 25 27 26 28 27 30 28 31 29 32 90 33 30 34 89 35
REMARK SMILES IDX 31 36 32 37 33 38 83 39 34 40 88 41 82 42 84 43 35 44 87 45
REMARK SMILES IDX 81 46 80 47 36 49 68 50 48 51 67 52 49 53 52 54 66 55 85 56
REMARK SMILES IDX 50 57 51 58 65 60 86 61 53 62 37 63 38 64 46 65 39 66 41 67
REMARK SMILES IDX 47 68 40 69 42 70 43 71 44 72 45 73 69 74 70 75 78 76 71 77
REMARK SMILES IDX 73 78 79 79 72 80 74 81 75 82 76 83 77 84 54 85 55 86 63 87
REMARK SMILES IDX 56 88 58 89 64 90 57 91 59 92 60 93 61 94 62 95
REMARK H PARENT 21 5 15 15 25 29 84 48 52 59
REMARK Flexibility Score: inf
ROOT
ATOM      1  C   UNL A   1      37.884  21.948  25.332  1.00  0.00     0.117 C 
ENDROOT
BRANCH   1   2
ATOM      2  N   UNL A   1      37.139  22.299  24.131  1.00  0.00    -0.354 N 
ATOM      3  C   UNL A   1      35.846  22.631  23.879  1.00  0.00     0.243 C 
ATOM      4  O   UNL A   1      35.664  23.211  22.797  1.00  0.00    -0.273 OA
ATOM      5  H   UNL A   1      37.697  22.297  23.321  1.00  0.00     0.163 HD
BRANCH   3   6
ATOM      6  C   UNL A   1      34.621  22.415  24.819  1.00  0.00     0.182 C 
ATOM      7  N   UNL A   1      33.241  22.721  24.299  1.00  0.00    -0.306 N 
ATOM      8  C   UNL A   1      32.518  21.661  23.563  1.00  0.00     0.180 C 
ATOM      9  C   UNL A   1      32.909  20.306  24.028  1.00  0.00     0.081 A 
ATOM     10  C   UNL A   1      34.721  21.076  25.607  1.00  0.00     0.091 C 
ATOM     11  N   UNL A   1      32.458  19.133  23.476  1.00  0.00    -0.240 NA
ATOM     12  C   UNL A   1      33.892  20.048  24.949  1.00  0.00     0.042 A 
ATOM     13  C   UNL A   1      33.163  18.186  24.053  1.00  0.00     0.197 A 
ATOM     14  N   UNL A   1      34.022  18.691  24.993  1.00  0.00    -0.348 N 
ATOM     15  H   UNL A   1      34.616  18.176  25.585  1.00  0.00     0.167 HD
BRANCH   7  16
ATOM     16  C   UNL A   1      32.467  23.845  24.530  1.00  0.00     0.321 C 
ATOM     17  O   UNL A   1      31.989  24.443  23.557  1.00  0.00    -0.248 OA
BRANCH  16  18
ATOM     18  N   UNL A   1      32.191  24.301  25.805  1.00  0.00    -0.325 N 
ATOM     19  C   UNL A   1      31.787  23.451  26.920  1.00  0.00     0.149 C 
BRANCH  18  20
ATOM     20  C   UNL A   1      32.785  25.594  26.211  1.00  0.00     0.086 C 
ATOM     21  C   UNL A   1      34.068  25.898  25.416  1.00  0.00     0.031 C 
BRANCH  20  22
ATOM     22  C   UNL A   1      31.824  26.774  26.205  1.00  0.00     0.011 C 
ATOM     23  C   UNL A   1      31.685  27.817  27.296  1.00  0.00     0.006 C 
ATOM     24  C   UNL A   1      32.380  28.170  26.020  1.00  0.00     0.006 C 
ENDBRANCH  20  22
ENDBRANCH  18  20
ENDBRANCH  16  18
ENDBRANCH   7  16
ENDBRANCH   3   6
ENDBRANCH   1   2
BRANCH   1  25
ATOM     25  C   UNL A   1      38.597  20.598  25.247  1.00  0.00     0.042 C 
BRANCH  25  26
ATOM     26  C   UNL A   1      39.579  20.341  26.366  1.00  0.00     0.118 C 
BRANCH  26  27
ATOM     27  N   UNL A   1      40.685  19.437  26.003  1.00  0.00    -0.352 N 
ATOM     28  C   UNL A   1      42.008  19.784  25.755  1.00  0.00     0.251 C 
ATOM     29  H   UNL A   1      40.463  18.480  25.927  1.00  0.00     0.163 HD
ATOM     30  O   UNL A   1      42.753  19.053  25.105  1.00  0.00    -0.269 OA
BRANCH  28  31
ATOM     31  C   UNL A   1      42.491  21.063  26.305  1.00  0.00     0.039 A 
ATOM     32  C   UNL A   1      42.579  22.241  25.562  1.00  0.00     0.014 A 
ATOM     33  C   UNL A   1      42.669  21.074  27.677  1.00  0.00     0.014 A 
ATOM     34  C   UNL A   1      42.721  23.442  26.256  1.00  0.00     0.010 A 
ATOM     35  C   UNL A   1      42.429  22.245  28.330  1.00  0.00     0.010 A 
ATOM     36  C   UNL A   1      42.594  23.437  27.657  1.00  0.00    -0.014 A 
BRANCH  36  37
ATOM     37  C   UNL A   1      42.532  24.652  28.460  1.00  0.00     0.031 A 
ATOM     38  C   UNL A   1      41.300  25.443  28.248  1.00  0.00     0.074 A 
ATOM     39  C   UNL A   1      43.421  24.958  29.435  1.00  0.00     0.049 A 
ATOM     40  N   UNL A   1      41.174  26.462  27.465  1.00  0.00    -0.248 NA
ATOM     41  C   UNL A   1      40.027  24.932  28.774  1.00  0.00     0.031 C 
ATOM     42  C   UNL A   1      44.505  24.131  29.994  1.00  0.00     0.029 A 
ATOM     43  N   UNL A   1      43.473  26.063  30.225  1.00  0.00    -0.354 N 
ATOM     44  C   UNL A   1      39.869  26.899  27.647  1.00  0.00     0.074 A 
ATOM     45  C   UNL A   1      39.160  25.789  28.225  1.00  0.00     0.031 C 
ATOM     46  C   UNL A   1      44.925  24.650  31.167  1.00  0.00     0.029 A 
ATOM     47  C   UNL A   1      44.299  25.943  31.340  1.00  0.00     0.049 A 
ATOM     48  H   UNL A   1      42.966  26.883  30.025  1.00  0.00     0.167 HD
ATOM     49  C   UNL A   1      39.579  28.230  27.600  1.00  0.00     0.034 A 
ATOM     50  C   UNL A   1      44.453  26.846  32.338  1.00  0.00     0.034 A 
ATOM     51  C   UNL A   1      40.700  28.979  27.072  1.00  0.00     0.049 A 
ATOM     52  C   UNL A   1      44.032  28.154  31.791  1.00  0.00     0.074 A 
ATOM     53  C   UNL A   1      41.438  28.955  25.906  1.00  0.00     0.029 A 
ATOM     54  N   UNL A   1      41.474  29.638  27.999  1.00  0.00    -0.354 N 
ATOM     55  N   UNL A   1      44.672  28.772  30.840  1.00  0.00    -0.248 NA
ATOM     56  C   UNL A   1      42.653  28.563  31.991  1.00  0.00     0.031 C 
ATOM     57  C   UNL A   1      42.785  29.192  26.315  1.00  0.00     0.029 A 
ATOM     58  C   UNL A   1      42.791  29.432  27.691  1.00  0.00     0.049 A 
ATOM     59  H   UNL A   1      41.137  30.169  28.756  1.00  0.00     0.167 HD
ATOM     60  C   UNL A   1      43.666  29.276  30.025  1.00  0.00     0.074 A 
ATOM     61  C   UNL A   1      42.458  29.228  30.849  1.00  0.00     0.031 C 
ATOM     62  C   UNL A   1      43.851  29.398  28.678  1.00  0.00     0.034 A 
BRANCH  49  63
ATOM     63  C   UNL A   1      38.499  28.923  28.405  1.00  0.00     0.023 A 
ATOM     64  C   UNL A   1      37.667  29.825  27.701  1.00  0.00     0.012 A 
ATOM     65  C   UNL A   1      38.433  28.966  29.816  1.00  0.00     0.148 A 
ATOM     66  C   UNL A   1      36.876  30.769  28.364  1.00  0.00     0.002 A 
ATOM     67  C   UNL A   1      37.588  29.854  30.472  1.00  0.00     0.091 A 
ATOM     68  F   UNL A   1      39.276  28.244  30.555  1.00  0.00    -0.205 F 
ATOM     69  C   UNL A   1      36.835  30.783  29.751  1.00  0.00     0.022 A 
BRANCH  67  70
ATOM     70  S   UNL A   1      37.464  29.889  32.265  1.00  0.00     0.127 S 
ATOM     71  O   UNL A   1      38.755  30.461  32.634  1.00  0.00    -0.237 OA
ATOM     72  O   UNL A   1      36.314  30.771  32.464  1.00  0.00    -0.237 OA
ATOM     73  O   UNL A   1      37.236  28.509  32.672  1.00  0.00    -0.744 OA
ENDBRANCH  67  70
ENDBRANCH  49  63
BRANCH  50  74
ATOM     74  C   UNL A   1      44.710  26.648  33.782  1.00  0.00     0.023 A 
ATOM     75  C   UNL A   1      45.942  27.059  34.332  1.00  0.00     0.012 A 
ATOM     76  C   UNL A   1      43.649  26.355  34.667  1.00  0.00     0.148 A 
ATOM     77  C   UNL A   1      46.095  27.226  35.714  1.00  0.00     0.002 A 
ATOM     78  C   UNL A   1      43.806  26.524  36.039  1.00  0.00     0.091 A 
ATOM     79  F   UNL A   1      42.463  26.004  34.154  1.00  0.00    -0.205 F 
ATOM     80  C   UNL A   1      45.024  26.973  36.566  1.00  0.00     0.022 A 
BRANCH  78  81
ATOM     81  S   UNL A   1      42.458  26.260  37.201  1.00  0.00     0.127 S 
ATOM     82  O   UNL A   1      41.522  27.320  36.823  1.00  0.00    -0.237 OA
ATOM     83  O   UNL A   1      42.025  24.909  36.859  1.00  0.00    -0.237 OA
ATOM     84  O   UNL A   1      43.041  26.419  38.528  1.00  0.00    -0.744 OA
ENDBRANCH  78  81
ENDBRANCH  50  74
BRANCH  62  85
ATOM     85  C   UNL A   1      45.258  29.270  28.142  1.00  0.00     0.023 A 
ATOM     86  C   UNL A   1      46.198  30.321  28.191  1.00  0.00     0.012 A 
ATOM     87  C   UNL A   1      45.686  27.999  27.722  1.00  0.00     0.148 A 
ATOM     88  C   UNL A   1      47.528  30.113  27.808  1.00  0.00     0.002 A 
ATOM     89  C   UNL A   1      47.017  27.784  27.389  1.00  0.00     0.091 A 
ATOM     90  F   UNL A   1      44.780  27.011  27.680  1.00  0.00    -0.205 F 
ATOM     91  C   UNL A   1      47.940  28.840  27.421  1.00  0.00     0.022 A 
BRANCH  89  92
ATOM     92  S   UNL A   1      47.629  26.143  27.002  1.00  0.00     0.127 S 
ATOM     93  O   UNL A   1      47.288  25.397  28.212  1.00  0.00    -0.237 OA
ATOM     94  O   UNL A   1      46.841  25.785  25.820  1.00  0.00    -0.237 OA
ATOM     95  O   UNL A   1      49.054  26.297  26.740  1.00  0.00    -0.744 OA
ENDBRANCH  89  92
ENDBRANCH  62  85
ENDBRANCH  36  37
ENDBRANCH  28  31
ENDBRANCH  26  27
ENDBRANCH  25  26
ENDBRANCH   1  25
TORSDOF 17
ENDMDL
MODEL 2
REMARK VINA RESULT:     -11.3      3.319      7.945
REMARK SMILES C[C@@H](C1CC1)N(C)C(=O)N1Cc2nc[nH]c2C[C@H]1C(=O)NCCCNC(=O)c1ccc(-c2c3nc(c(-c4cccc(S(=O)(=O)[O-])c4F)c4ccc([nH]4)c(-c4cccc(S(=O)(=O)[O-])c4F)c4nc(c(-c5cccc(S(=O)(=O)[O-])c5F)c5ccc2[nH]5)C=C4)C=C3)cc1
REMARK SMILES IDX 22 1 21 2 19 3 20 4 18 6 10 7 11 8 12 9 17 10 13 11 16 12
REMARK SMILES IDX 14 13 15 14 8 16 9 17 6 18 7 19 2 20 1 21 3 22 4 23 5 24
REMARK SMILES IDX 23 25 24 26 25 27 26 28 27 30 28 31 29 32 90 33 30 34 89 35
REMARK SMILES IDX 31 36 32 37 33 38 83 39 34 40 88 41 82 42 84 43 35 44 87 45
REMARK SMILES IDX 81 46 80 47 36 49 68 50 48 51 67 52 49 53 52 54 66 55 85 56
REMARK SMILES IDX 50 57 51 58 65 60 86 61 53 62 37 63 38 64 46 65 39 66 41 67
REMARK SMILES IDX 47 68 40 69 42 70 43 71 44 72 45 73 69 74 70 75 78 76 71 77
REMARK SMILES IDX 73 78 79 79 72 80 74 81 75 82 76 83 77 84 54 85 55 86 63 87
REMARK SMILES IDX 56 88 58 89 64 90 57 91 59 92 60 93 61 94 62 95
REMARK H PARENT 21 5 15 15 25 29 84 48 52 59
REMARK Flexibility Score: inf
ROOT
ATOM      1  C   UNL A   1      32.985  30.333  26.068  1.00  0.00     0.117 C 
ENDROOT
BRANCH   1   2
ATOM      2  N   UNL A   1      33.429  29.053  25.533  1.00  0.00    -0.354 N 
ATOM      3  C   UNL A   1      32.792  27.941  25.080  1.00  0.00     0.243 C 
ATOM      4  O   UNL A   1      33.492  27.199  24.373  1.00  0.00    -0.273 OA
ATOM      5  H   UNL A   1      34.408  28.977  25.489  1.00  0.00     0.163 HD
BRANCH   3   6
ATOM      6  C   UNL A   1      31.298  27.557  25.304  1.00  0.00     0.182 C 
ATOM      7  N   UNL A   1      30.459  27.170  24.115  1.00  0.00    -0.306 N 
ATOM      8  C   UNL A   1      30.473  25.758  23.677  1.00  0.00     0.180 C 
ATOM      9  C   UNL A   1      30.714  24.833  24.814  1.00  0.00     0.081 A 
ATOM     10  C   UNL A   1      31.116  26.629  26.541  1.00  0.00     0.091 C 
ATOM     11  N   UNL A   1      30.854  23.473  24.694  1.00  0.00    -0.240 NA
ATOM     12  C   UNL A   1      30.996  25.226  26.097  1.00  0.00     0.042 A 
ATOM     13  C   UNL A   1      31.219  23.057  25.887  1.00  0.00     0.197 A 
ATOM     14  N   UNL A   1      31.276  24.086  26.790  1.00  0.00    -0.348 N 
ATOM     15  H   UNL A   1      31.479  24.015  27.751  1.00  0.00     0.167 HD
BRANCH   7  16
ATOM     16  C   UNL A   1      29.540  27.942  23.427  1.00  0.00     0.321 C 
ATOM     17  O   UNL A   1      28.385  27.514  23.304  1.00  0.00    -0.248 OA
BRANCH  16  18
ATOM     18  N   UNL A   1      29.860  29.179  22.901  1.00  0.00    -0.325 N 
ATOM     19  C   UNL A   1      31.097  29.480  22.186  1.00  0.00     0.149 C 
BRANCH  18  20
ATOM     20  C   UNL A   1      28.745  30.104  22.600  1.00  0.00     0.086 C 
ATOM     21  C   UNL A   1      28.442  31.026  23.795  1.00  0.00     0.031 C 
BRANCH  20  22
ATOM     22  C   UNL A   1      28.892  30.888  21.305  1.00  0.00     0.011 C 
ATOM     23  C   UNL A   1      27.764  31.307  20.383  1.00  0.00     0.006 C 
ATOM     24  C   UNL A   1      28.418  32.326  21.261  1.00  0.00     0.006 C 
ENDBRANCH  20  22
ENDBRANCH  18  20
ENDBRANCH  16  18
ENDBRANCH   7  16
ENDBRANCH   3   6
ENDBRANCH   1   2
BRANCH   1  25
ATOM     25  C   UNL A   1      33.324  30.539  27.544  1.00  0.00     0.042 C 
BRANCH  25  26
ATOM     26  C   UNL A   1      34.316  31.648  27.806  1.00  0.00     0.118 C 
BRANCH  26  27
ATOM     27  N   UNL A   1      34.370  32.091  29.211  1.00  0.00    -0.352 N 
ATOM     28  C   UNL A   1      35.337  31.773  30.157  1.00  0.00     0.251 C 
ATOM     29  H   UNL A   1      33.638  32.678  29.513  1.00  0.00     0.163 HD
ATOM     30  O   UNL A   1      35.111  31.863  31.362  1.00  0.00    -0.269 OA
BRANCH  28  31
ATOM     31  C   UNL A   1      36.651  31.327  29.663  1.00  0.00     0.039 A 
ATOM     32  C   UNL A   1      37.806  32.108  29.723  1.00  0.00     0.014 A 
ATOM     33  C   UNL A   1      36.716  29.989  29.313  1.00  0.00     0.014 A 
ATOM     34  C   UNL A   1      39.035  31.473  29.545  1.00  0.00     0.010 A 
ATOM     35  C   UNL A   1      37.899  29.345  29.518  1.00  0.00     0.010 A 
ATOM     36  C   UNL A   1      39.073  30.068  29.492  1.00  0.00    -0.014 A 
BRANCH  36  37
ATOM     37  C   UNL A   1      40.311  29.298  29.503  1.00  0.00     0.031 A 
ATOM     38  C   UNL A   1      40.837  29.039  30.862  1.00  0.00     0.074 A 
ATOM     39  C   UNL A   1      40.851  28.721  28.403  1.00  0.00     0.049 A 
ATOM     40  N   UNL A   1      41.752  29.719  31.467  1.00  0.00    -0.248 NA
ATOM     41  C   UNL A   1      40.136  28.078  31.725  1.00  0.00     0.031 C 
ATOM     42  C   UNL A   1      40.288  28.604  27.047  1.00  0.00     0.029 A 
ATOM     43  N   UNL A   1      42.002  28.007  28.294  1.00  0.00    -0.354 N 
ATOM     44  C   UNL A   1      41.948  29.067  32.677  1.00  0.00     0.074 A 
ATOM     45  C   UNL A   1      40.770  28.267  32.886  1.00  0.00     0.031 C 
ATOM     46  C   UNL A   1      40.963  27.670  26.345  1.00  0.00     0.029 A 
ATOM     47  C   UNL A   1      42.124  27.277  27.114  1.00  0.00     0.049 A 
ATOM     48  H   UNL A   1      42.695  28.005  28.994  1.00  0.00     0.167 HD
ATOM     49  C   UNL A   1      43.193  29.003  33.227  1.00  0.00     0.034 A 
ATOM     50  C   UNL A   1      43.112  26.407  26.795  1.00  0.00     0.034 A 
ATOM     51  C   UNL A   1      44.098  29.908  32.551  1.00  0.00     0.049 A 
ATOM     52  C   UNL A   1      44.272  26.758  27.642  1.00  0.00     0.074 A 
ATOM     53  C   UNL A   1      44.126  31.265  32.298  1.00  0.00     0.029 A 
ATOM     54  N   UNL A   1      44.959  29.333  31.645  1.00  0.00    -0.354 N 
ATOM     55  N   UNL A   1      44.927  27.879  27.530  1.00  0.00    -0.248 NA
ATOM     56  C   UNL A   1      44.428  26.062  28.907  1.00  0.00     0.031 C 
ATOM     57  C   UNL A   1      44.644  31.383  30.973  1.00  0.00     0.029 A 
ATOM     58  C   UNL A   1      44.983  30.107  30.517  1.00  0.00     0.049 A 
ATOM     59  H   UNL A   1      45.472  28.505  31.785  1.00  0.00     0.167 HD
ATOM     60  C   UNL A   1      45.169  28.263  28.842  1.00  0.00     0.074 A 
ATOM     61  C   UNL A   1      44.956  27.051  29.633  1.00  0.00     0.031 C 
ATOM     62  C   UNL A   1      45.223  29.583  29.188  1.00  0.00     0.034 A 
BRANCH  49  63
ATOM     63  C   UNL A   1      43.728  27.855  34.058  1.00  0.00     0.023 A 
ATOM     64  C   UNL A   1      44.208  26.730  33.347  1.00  0.00     0.012 A 
ATOM     65  C   UNL A   1      43.531  27.691  35.448  1.00  0.00     0.148 A 
ATOM     66  C   UNL A   1      44.404  25.493  33.969  1.00  0.00     0.002 A 
ATOM     67  C   UNL A   1      43.800  26.481  36.077  1.00  0.00     0.091 A 
ATOM     68  F   UNL A   1      42.960  28.656  36.168  1.00  0.00    -0.205 F 
ATOM     69  C   UNL A   1      44.201  25.368  35.336  1.00  0.00     0.022 A 
BRANCH  67  70
ATOM     70  S   UNL A   1      43.593  26.273  37.851  1.00  0.00     0.127 S 
ATOM     71  O   UNL A   1      44.271  25.000  38.075  1.00  0.00    -0.237 OA
ATOM     72  O   UNL A   1      44.292  27.449  38.369  1.00  0.00    -0.237 OA
ATOM     73  O   UNL A   1      42.155  26.281  38.084  1.00  0.00    -0.744 OA
ENDBRANCH  67  70
ENDBRANCH  49  63
BRANCH  50  74
ATOM     74  C   UNL A   1      43.075  25.161  25.997  1.00  0.00     0.023 A 
ATOM     75  C   UNL A   1      44.054  24.939  25.007  1.00  0.00     0.012 A 
ATOM     76  C   UNL A   1      42.286  24.065  26.413  1.00  0.00     0.148 A 
ATOM     77  C   UNL A   1      44.279  23.658  24.489  1.00  0.00     0.002 A 
ATOM     78  C   UNL A   1      42.515  22.794  25.896  1.00  0.00     0.091 A 
ATOM     79  F   UNL A   1      41.382  24.255  27.382  1.00  0.00    -0.205 F 
ATOM     80  C   UNL A   1      43.520  22.583  24.943  1.00  0.00     0.022 A 
BRANCH  78  81
ATOM     81  S   UNL A   1      41.607  21.348  26.463  1.00  0.00     0.127 S 
ATOM     82  O   UNL A   1      42.100  20.308  25.559  1.00  0.00    -0.237 OA
ATOM     83  O   UNL A   1      42.064  21.226  27.844  1.00  0.00    -0.237 OA
ATOM     84  O   UNL A   1      40.196  21.672  26.292  1.00  0.00    -0.744 OA
ENDBRANCH  78  81
ENDBRANCH  50  74
BRANCH  62  85
ATOM     85  C   UNL A   1      45.323  30.602  28.076  1.00  0.00     0.023 A 
ATOM     86  C   UNL A   1      44.199  31.091  27.378  1.00  0.00     0.012 A 
ATOM     87  C   UNL A   1      46.575  31.194  27.842  1.00  0.00     0.148 A 
ATOM     88  C   UNL A   1      44.327  32.133  26.452  1.00  0.00     0.002 A 
ATOM     89  C   UNL A   1      46.691  32.260  26.959  1.00  0.00     0.091 A 
ATOM     90  F   UNL A   1      47.634  30.717  28.513  1.00  0.00    -0.205 F 
ATOM     91  C   UNL A   1      45.572  32.726  26.254  1.00  0.00     0.022 A 
BRANCH  89  92
ATOM     92  S   UNL A   1      48.241  33.140  26.756  1.00  0.00     0.127 S 
ATOM     93  O   UNL A   1      49.157  32.064  26.385  1.00  0.00    -0.237 OA
ATOM     94  O   UNL A   1      47.930  34.079  25.677  1.00  0.00    -0.237 OA
ATOM     95  O   UNL A   1      48.510  33.779  28.038  1.00  0.00    -0.744 OA
ENDBRANCH  89  92
ENDBRANCH  62  85
ENDBRANCH  36  37
ENDBRANCH  28  31
ENDBRANCH  26  27
ENDBRANCH  25  26
ENDBRANCH   1  25
TORSDOF 17
ENDMDL
MODEL 3
REMARK VINA RESULT:     -11.2      2.840      8.123
REMARK SMILES C[C@@H](C1CC1)N(C)C(=O)N1Cc2nc[nH]c2C[C@H]1C(=O)NCCCNC(=O)c1ccc(-c2c3nc(c(-c4cccc(S(=O)(=O)[O-])c4F)c4ccc([nH]4)c(-c4cccc(S(=O)(=O)[O-])c4F)c4nc(c(-c5cccc(S(=O)(=O)[O-])c5F)c5ccc2[nH]5)C=C4)C=C3)cc1
REMARK SMILES IDX 22 1 21 2 19 3 20 4 18 6 10 7 11 8 12 9 17 10 13 11 16 12
REMARK SMILES IDX 14 13 15 14 8 16 9 17 6 18 7 19 2 20 1 21 3 22 4 23 5 24
REMARK SMILES IDX 23 25 24 26 25 27 26 28 27 30 28 31 29 32 90 33 30 34 89 35
REMARK SMILES IDX 31 36 32 37 33 38 83 39 34 40 88 41 82 42 84 43 35 44 87 45
REMARK SMILES IDX 81 46 80 47 36 49 68 50 48 51 67 52 49 53 52 54 66 55 85 56
REMARK SMILES IDX 50 57 51 58 65 60 86 61 53 62 37 63 38 64 46 65 39 66 41 67
REMARK SMILES IDX 47 68 40 69 42 70 43 71 44 72 45 73 69 74 70 75 78 76 71 77
REMARK SMILES IDX 73 78 79 79 72 80 74 81 75 82 76 83 77 84 54 85 55 86 63 87
REMARK SMILES IDX 56 88 58 89 64 90 57 91 59 92 60 93 61 94 62 95
REMARK H PARENT 21 5 15 15 25 29 84 48 52 59
REMARK Flexibility Score: inf
ROOT
ATOM      1  C   UNL A   1      32.616  30.230  26.707  1.00  0.00     0.117 C 
ENDROOT
BRANCH   1   2
ATOM      2  N   UNL A   1      31.687  29.167  27.066  1.00  0.00    -0.354 N 
ATOM      3  C   UNL A   1      31.443  27.918  26.590  1.00  0.00     0.243 C 
ATOM      4  O   UNL A   1      30.828  27.178  27.375  1.00  0.00    -0.273 OA
ATOM      5  H   UNL A   1      31.107  29.407  27.824  1.00  0.00     0.163 HD
BRANCH   3   6
ATOM      6  C   UNL A   1      31.904  27.327  25.224  1.00  0.00     0.182 C 
ATOM      7  N   UNL A   1      31.099  26.218  24.601  1.00  0.00    -0.306 N 
ATOM      8  C   UNL A   1      29.949  26.581  23.745  1.00  0.00     0.180 C 
ATOM      9  C   UNL A   1      30.159  27.887  23.069  1.00  0.00     0.081 A 
ATOM     10  C   UNL A   1      32.334  28.440  24.224  1.00  0.00     0.091 C 
ATOM     11  N   UNL A   1      29.229  28.511  22.276  1.00  0.00    -0.240 NA
ATOM     12  C   UNL A   1      31.232  28.714  23.281  1.00  0.00     0.042 A 
ATOM     13  C   UNL A   1      29.734  29.697  22.019  1.00  0.00     0.197 A 
ATOM     14  N   UNL A   1      30.978  29.852  22.575  1.00  0.00    -0.348 N 
ATOM     15  H   UNL A   1      31.571  30.633  22.482  1.00  0.00     0.167 HD
BRANCH   7  16
ATOM     16  C   UNL A   1      31.365  24.860  24.603  1.00  0.00     0.321 C 
ATOM     17  O   UNL A   1      30.716  24.132  25.366  1.00  0.00    -0.248 OA
BRANCH  16  18
ATOM     18  N   UNL A   1      32.306  24.290  23.766  1.00  0.00    -0.325 N 
ATOM     19  C   UNL A   1      32.878  24.946  22.594  1.00  0.00     0.149 C 
BRANCH  18  20
ATOM     20  C   UNL A   1      33.138  23.197  24.316  1.00  0.00     0.086 C 
ATOM     21  C   UNL A   1      32.967  21.899  23.506  1.00  0.00     0.031 C 
BRANCH  20  22
ATOM     22  C   UNL A   1      34.604  23.546  24.520  1.00  0.00     0.011 C 
ATOM     23  C   UNL A   1      35.153  24.539  25.525  1.00  0.00     0.006 C 
ATOM     24  C   UNL A   1      35.302  23.073  25.778  1.00  0.00     0.006 C 
ENDBRANCH  20  22
ENDBRANCH  18  20
ENDBRANCH  16  18
ENDBRANCH   7  16
ENDBRANCH   3   6
ENDBRANCH   1   2
BRANCH   1  25
ATOM     25  C   UNL A   1      33.911  30.221  27.517  1.00  0.00     0.042 C 
BRANCH  25  26
ATOM     26  C   UNL A   1      34.537  31.584  27.705  1.00  0.00     0.118 C 
BRANCH  26  27
ATOM     27  N   UNL A   1      34.552  32.054  29.102  1.00  0.00    -0.352 N 
ATOM     28  C   UNL A   1      35.380  31.615  30.129  1.00  0.00     0.251 C 
ATOM     29  H   UNL A   1      33.903  32.758  29.334  1.00  0.00     0.163 HD
ATOM     30  O   UNL A   1      35.078  31.776  31.310  1.00  0.00    -0.269 OA
BRANCH  28  31
ATOM     31  C   UNL A   1      36.640  30.953  29.751  1.00  0.00     0.039 A 
ATOM     32  C   UNL A   1      37.824  31.640  29.477  1.00  0.00     0.014 A 
ATOM     33  C   UNL A   1      36.633  29.575  29.880  1.00  0.00     0.014 A 
ATOM     34  C   UNL A   1      39.014  30.912  29.465  1.00  0.00     0.010 A 
ATOM     35  C   UNL A   1      37.802  28.973  30.232  1.00  0.00     0.010 A 
ATOM     36  C   UNL A   1      38.997  29.574  29.897  1.00  0.00    -0.014 A 
BRANCH  36  37
ATOM     37  C   UNL A   1      40.204  28.785  30.109  1.00  0.00     0.031 A 
ATOM     38  C   UNL A   1      40.650  28.746  31.519  1.00  0.00     0.074 A 
ATOM     39  C   UNL A   1      40.780  28.016  29.153  1.00  0.00     0.049 A 
ATOM     40  N   UNL A   1      41.556  29.494  32.053  1.00  0.00    -0.248 NA
ATOM     41  C   UNL A   1      39.871  27.965  32.489  1.00  0.00     0.031 C 
ATOM     42  C   UNL A   1      40.284  27.686  27.806  1.00  0.00     0.029 A 
ATOM     43  N   UNL A   1      41.908  27.263  29.232  1.00  0.00    -0.354 N 
ATOM     44  C   UNL A   1      41.666  29.052  33.364  1.00  0.00     0.074 A 
ATOM     45  C   UNL A   1      40.451  28.331  33.637  1.00  0.00     0.031 C 
ATOM     46  C   UNL A   1      40.961  26.628  27.311  1.00  0.00     0.029 A 
ATOM     47  C   UNL A   1      42.066  26.341  28.200  1.00  0.00     0.049 A 
ATOM     48  H   UNL A   1      42.563  27.361  29.960  1.00  0.00     0.167 HD
ATOM     49  C   UNL A   1      42.877  29.049  33.987  1.00  0.00     0.034 A 
ATOM     50  C   UNL A   1      43.037  25.403  28.089  1.00  0.00     0.034 A 
ATOM     51  C   UNL A   1      43.848  29.802  33.222  1.00  0.00     0.049 A 
ATOM     52  C   UNL A   1      44.163  25.862  28.929  1.00  0.00     0.074 A 
ATOM     53  C   UNL A   1      43.938  31.095  32.747  1.00  0.00     0.029 A 
ATOM     54  N   UNL A   1      44.733  29.059  32.476  1.00  0.00    -0.354 N 
ATOM     55  N   UNL A   1      44.863  26.930  28.668  1.00  0.00    -0.248 NA
ATOM     56  C   UNL A   1      44.229  25.387  30.300  1.00  0.00     0.031 C 
ATOM     57  C   UNL A   1      44.527  30.973  31.453  1.00  0.00     0.029 A 
ATOM     58  C   UNL A   1      44.843  29.630  31.237  1.00  0.00     0.049 A 
ATOM     59  H   UNL A   1      45.209  28.254  32.782  1.00  0.00     0.167 HD
ATOM     60  C   UNL A   1      45.051  27.524  29.909  1.00  0.00     0.074 A 
ATOM     61  C   UNL A   1      44.754  26.470  30.879  1.00  0.00     0.031 C 
ATOM     62  C   UNL A   1      45.133  28.882  30.031  1.00  0.00     0.034 A 
BRANCH  49  63
ATOM     63  C   UNL A   1      43.327  28.045  35.028  1.00  0.00     0.023 A 
ATOM     64  C   UNL A   1      43.932  28.571  36.194  1.00  0.00     0.012 A 
ATOM     65  C   UNL A   1      43.455  26.653  34.820  1.00  0.00     0.148 A 
ATOM     66  C   UNL A   1      44.688  27.771  37.058  1.00  0.00     0.002 A 
ATOM     67  C   UNL A   1      44.142  25.848  35.721  1.00  0.00     0.091 A 
ATOM     68  F   UNL A   1      43.028  26.098  33.685  1.00  0.00    -0.205 F 
ATOM     69  C   UNL A   1      44.792  26.407  36.822  1.00  0.00     0.022 A 
BRANCH  67  70
ATOM     70  S   UNL A   1      44.274  24.070  35.488  1.00  0.00     0.127 S 
ATOM     71  O   UNL A   1      44.959  23.667  36.712  1.00  0.00    -0.237 OA
ATOM     72  O   UNL A   1      42.868  23.678  35.403  1.00  0.00    -0.237 OA
ATOM     73  O   UNL A   1      45.021  23.889  34.249  1.00  0.00    -0.744 OA
ENDBRANCH  67  70
ENDBRANCH  49  63
BRANCH  50  74
ATOM     74  C   UNL A   1      42.996  24.041  27.510  1.00  0.00     0.023 A 
ATOM     75  C   UNL A   1      41.805  23.291  27.579  1.00  0.00     0.012 A 
ATOM     76  C   UNL A   1      44.007  23.607  26.624  1.00  0.00     0.148 A 
ATOM     77  C   UNL A   1      41.603  22.178  26.754  1.00  0.00     0.002 A 
ATOM     78  C   UNL A   1      43.802  22.502  25.805  1.00  0.00     0.091 A 
ATOM     79  F   UNL A   1      45.127  24.336  26.520  1.00  0.00    -0.205 F 
ATOM     80  C   UNL A   1      42.595  21.792  25.856  1.00  0.00     0.022 A 
BRANCH  78  81
ATOM     81  S   UNL A   1      45.016  21.966  24.590  1.00  0.00     0.127 S 
ATOM     82  O   UNL A   1      46.200  21.749  25.422  1.00  0.00    -0.237 OA
ATOM     83  O   UNL A   1      44.403  20.748  24.067  1.00  0.00    -0.237 OA
ATOM     84  O   UNL A   1      45.142  23.066  23.642  1.00  0.00    -0.744 OA
ENDBRANCH  78  81
ENDBRANCH  50  74
BRANCH  62  85
ATOM     85  C   UNL A   1      45.327  29.695  28.772  1.00  0.00     0.023 A 
ATOM     86  C   UNL A   1      44.255  30.131  27.965  1.00  0.00     0.012 A 
ATOM     87  C   UNL A   1      46.622  30.161  28.486  1.00  0.00     0.148 A 
ATOM     88  C   UNL A   1      44.474  30.994  26.886  1.00  0.00     0.002 A 
ATOM     89  C   UNL A   1      46.829  31.056  27.445  1.00  0.00     0.091 A 
ATOM     90  F   UNL A   1      47.630  29.736  29.262  1.00  0.00    -0.205 F 
ATOM     91  C   UNL A   1      45.760  31.468  26.636  1.00  0.00     0.022 A 
BRANCH  89  92
ATOM     92  S   UNL A   1      48.439  31.792  27.153  1.00  0.00     0.127 S 
ATOM     93  O   UNL A   1      49.215  30.649  26.677  1.00  0.00    -0.237 OA
ATOM     94  O   UNL A   1      48.143  32.800  26.133  1.00  0.00    -0.237 OA
ATOM     95  O   UNL A   1      48.863  32.349  28.432  1.00  0.00    -0.744 OA
ENDBRANCH  89  92
ENDBRANCH  62  85
ENDBRANCH  36  37
ENDBRANCH  28  31
ENDBRANCH  26  27
ENDBRANCH  25  26
ENDBRANCH   1  25
TORSDOF 17
ENDMDL
