MODEL 1
REMARK VINA RESULT:     -12.1      0.000      0.000
REMARK SMILES COc1ccc(-c2ccc(C#N)c(S[C@@H](C)C(=O)NCCCNC(=O)c3ccc(-c4c5nc(c(-c6cccc(S(=O)(=O)[O-])c6F)c6ccc([nH]6)c(-c6cccc(S(=O)(=O)[O-])c6F)c6nc(c(-c7cccc(S(=O)(=O)[O-])c7F)c7ccc4[nH]7)C=C6)C=C5)cc3)n2)cc1
REMARK SMILES IDX 20 1 19 2 17 3 18 4 15 6 16 7 14 8 13 9 7 10 8 11 89 12 9 13
REMARK SMILES IDX 10 14 6 15 3 16 4 17 91 18 5 19 90 20 2 21 1 22 11 23 12 24
REMARK SMILES IDX 21 25 22 26 23 27 24 28 25 30 26 31 27 32 88 33 28 34 87 35
REMARK SMILES IDX 29 36 30 37 31 38 81 39 32 40 86 41 80 42 82 43 33 44 85 45
REMARK SMILES IDX 79 46 78 47 34 49 66 50 46 51 65 52 47 53 50 54 64 55 83 56
REMARK SMILES IDX 48 57 49 58 63 60 84 61 51 62 35 63 36 64 44 65 37 66 39 67
REMARK SMILES IDX 45 68 38 69 40 70 41 71 42 72 43 73 67 74 68 75 76 76 69 77
REMARK SMILES IDX 71 78 77 79 70 80 72 81 73 82 74 83 75 84 52 85 53 86 61 87
REMARK SMILES IDX 54 88 56 89 62 90 55 91 57 92 58 93 59 94 60 95
REMARK H PARENT 19 5 23 29 82 48 50 59
REMARK Flexibility Score: inf
ROOT
ATOM      1  C   UNL A   1      35.985  20.550  25.038  1.00  0.00     0.117 C 
ENDROOT
BRANCH   1   2
ATOM      2  N   UNL A   1      36.430  21.881  25.349  1.00  0.00    -0.355 N 
ATOM      3  C   UNL A   1      35.871  22.939  25.971  1.00  0.00     0.233 C 
ATOM      4  O   UNL A   1      36.665  23.871  26.182  1.00  0.00    -0.274 OA
ATOM      5  H   UNL A   1      37.348  22.060  25.042  1.00  0.00     0.163 HD
BRANCH   3   6
ATOM      6  C   UNL A   1      34.450  23.051  26.523  1.00  0.00     0.139 C 
ATOM      7  C   UNL A   1      34.149  22.191  27.740  1.00  0.00     0.030 C 
BRANCH   6   8
ATOM      8  S   UNL A   1      33.058  23.565  25.465  1.00  0.00    -0.092 SA
BRANCH   8   9
ATOM      9  C   UNL A   1      32.770  22.543  24.045  1.00  0.00     0.115 A 
ATOM     10  C   UNL A   1      32.453  20.250  23.560  1.00  0.00     0.072 A 
ATOM     11  C   UNL A   1      32.091  20.539  22.254  1.00  0.00     0.030 A 
ATOM     12  N   UNL A   1      32.722  21.236  24.449  1.00  0.00    -0.240 NA
ATOM     13  C   UNL A   1      32.213  21.844  21.813  1.00  0.00     0.024 A 
ATOM     14  C   UNL A   1      32.631  22.854  22.693  1.00  0.00     0.084 A 
BRANCH  10  15
ATOM     15  C   UNL A   1      32.782  18.868  23.940  1.00  0.00     0.000 A 
ATOM     16  C   UNL A   1      33.376  16.272  24.848  1.00  0.00     0.118 A 
ATOM     17  C   UNL A   1      33.573  16.603  23.508  1.00  0.00     0.047 A 
ATOM     18  C   UNL A   1      32.907  17.220  25.744  1.00  0.00     0.047 A 
ATOM     19  C   UNL A   1      33.263  17.895  23.049  1.00  0.00     0.014 A 
ATOM     20  C   UNL A   1      32.598  18.495  25.289  1.00  0.00     0.014 A 
BRANCH  16  21
ATOM     21  O   UNL A   1      33.721  15.031  25.300  1.00  0.00    -0.497 OA
ATOM     22  C   UNL A   1      32.569  14.293  25.711  1.00  0.00     0.278 C 
ENDBRANCH  16  21
ENDBRANCH  10  15
BRANCH  14  23
ATOM     23  C   UNL A   1      32.861  24.124  22.097  1.00  0.00     0.102 C 
ATOM     24  N   UNL A   1      32.935  25.164  21.576  1.00  0.00    -0.192 NA
ENDBRANCH  14  23
ENDBRANCH   8   9
ENDBRANCH   6   8
ENDBRANCH   3   6
ENDBRANCH   1   2
BRANCH   1  25
ATOM     25  C   UNL A   1      37.134  19.555  25.011  1.00  0.00     0.042 C 
BRANCH  25  26
ATOM     26  C   UNL A   1      38.505  20.205  25.091  1.00  0.00     0.118 C 
BRANCH  26  27
ATOM     27  N   UNL A   1      39.582  19.316  25.508  1.00  0.00    -0.352 N 
ATOM     28  C   UNL A   1      40.740  19.581  26.205  1.00  0.00     0.251 C 
ATOM     29  H   UNL A   1      39.464  18.373  25.250  1.00  0.00     0.163 HD
ATOM     30  O   UNL A   1      41.531  18.661  26.402  1.00  0.00    -0.269 OA
BRANCH  28  31
ATOM     31  C   UNL A   1      41.071  20.955  26.660  1.00  0.00     0.039 A 
ATOM     32  C   UNL A   1      41.953  21.113  27.735  1.00  0.00     0.014 A 
ATOM     33  C   UNL A   1      40.556  22.085  26.029  1.00  0.00     0.014 A 
ATOM     34  C   UNL A   1      42.391  22.390  28.099  1.00  0.00     0.010 A 
ATOM     35  C   UNL A   1      41.096  23.337  26.297  1.00  0.00     0.010 A 
ATOM     36  C   UNL A   1      42.012  23.509  27.342  1.00  0.00    -0.014 A 
BRANCH  36  37
ATOM     37  C   UNL A   1      42.550  24.867  27.617  1.00  0.00     0.031 A 
ATOM     38  C   UNL A   1      41.667  25.913  28.257  1.00  0.00     0.074 A 
ATOM     39  C   UNL A   1      43.784  25.197  27.181  1.00  0.00     0.049 A 
ATOM     40  N   UNL A   1      41.908  27.180  28.471  1.00  0.00    -0.248 NA
ATOM     41  C   UNL A   1      40.315  25.491  28.667  1.00  0.00     0.031 C 
ATOM     42  C   UNL A   1      44.695  24.313  26.445  1.00  0.00     0.029 A 
ATOM     43  N   UNL A   1      44.472  26.381  27.263  1.00  0.00    -0.354 N 
ATOM     44  C   UNL A   1      40.726  27.714  28.976  1.00  0.00     0.074 A 
ATOM     45  C   UNL A   1      39.756  26.644  29.002  1.00  0.00     0.031 C 
ATOM     46  C   UNL A   1      45.822  24.983  26.151  1.00  0.00     0.029 A 
ATOM     47  C   UNL A   1      45.704  26.348  26.649  1.00  0.00     0.049 A 
ATOM     48  H   UNL A   1      44.119  27.179  27.717  1.00  0.00     0.167 HD
ATOM     49  C   UNL A   1      40.478  28.973  29.411  1.00  0.00     0.034 A 
ATOM     50  C   UNL A   1      46.628  27.314  26.497  1.00  0.00     0.034 A 
ATOM     51  C   UNL A   1      41.467  30.013  29.445  1.00  0.00     0.049 A 
ATOM     52  C   UNL A   1      46.361  28.677  27.075  1.00  0.00     0.074 A 
ATOM     53  C   UNL A   1      41.356  31.288  29.972  1.00  0.00     0.029 A 
ATOM     54  N   UNL A   1      42.749  29.902  28.930  1.00  0.00    -0.354 N 
ATOM     55  N   UNL A   1      45.296  29.115  27.700  1.00  0.00    -0.248 NA
ATOM     56  C   UNL A   1      47.442  29.667  26.958  1.00  0.00     0.031 C 
ATOM     57  C   UNL A   1      42.563  31.958  29.747  1.00  0.00     0.029 A 
ATOM     58  C   UNL A   1      43.437  31.087  29.117  1.00  0.00     0.049 A 
ATOM     59  H   UNL A   1      43.115  29.098  28.496  1.00  0.00     0.167 HD
ATOM     60  C   UNL A   1      45.585  30.423  28.071  1.00  0.00     0.074 A 
ATOM     61  C   UNL A   1      46.937  30.695  27.625  1.00  0.00     0.031 C 
ATOM     62  C   UNL A   1      44.797  31.325  28.709  1.00  0.00     0.034 A 
BRANCH  49  63
ATOM     63  C   UNL A   1      39.097  29.280  29.933  1.00  0.00     0.023 A 
ATOM     64  C   UNL A   1      38.727  28.865  31.229  1.00  0.00     0.012 A 
ATOM     65  C   UNL A   1      38.183  30.031  29.165  1.00  0.00     0.148 A 
ATOM     66  C   UNL A   1      37.461  29.153  31.737  1.00  0.00     0.002 A 
ATOM     67  C   UNL A   1      36.942  30.358  29.697  1.00  0.00     0.091 A 
ATOM     68  F   UNL A   1      38.542  30.402  27.928  1.00  0.00    -0.205 F 
ATOM     69  C   UNL A   1      36.574  29.908  30.976  1.00  0.00     0.022 A 
BRANCH  67  70
ATOM     70  S   UNL A   1      35.758  31.398  28.834  1.00  0.00     0.127 S 
ATOM     71  O   UNL A   1      36.627  32.432  28.275  1.00  0.00    -0.237 OA
ATOM     72  O   UNL A   1      35.201  30.472  27.846  1.00  0.00    -0.237 OA
ATOM     73  O   UNL A   1      34.812  31.854  29.842  1.00  0.00    -0.744 OA
ENDBRANCH  67  70
ENDBRANCH  49  63
BRANCH  50  74
ATOM     74  C   UNL A   1      47.920  27.024  25.816  1.00  0.00     0.023 A 
ATOM     75  C   UNL A   1      49.022  26.600  26.584  1.00  0.00     0.012 A 
ATOM     76  C   UNL A   1      48.076  27.205  24.431  1.00  0.00     0.148 A 
ATOM     77  C   UNL A   1      50.266  26.393  25.986  1.00  0.00     0.002 A 
ATOM     78  C   UNL A   1      49.315  26.988  23.839  1.00  0.00     0.091 A 
ATOM     79  F   UNL A   1      47.020  27.623  23.717  1.00  0.00    -0.205 F 
ATOM     80  C   UNL A   1      50.413  26.582  24.613  1.00  0.00     0.022 A 
BRANCH  78  81
ATOM     81  S   UNL A   1      49.557  27.256  22.078  1.00  0.00     0.127 S 
ATOM     82  O   UNL A   1      48.720  26.208  21.500  1.00  0.00    -0.237 OA
ATOM     83  O   UNL A   1      49.046  28.614  21.876  1.00  0.00    -0.237 OA
ATOM     84  O   UNL A   1      50.993  27.121  21.869  1.00  0.00    -0.744 OA
ENDBRANCH  78  81
ENDBRANCH  50  74
BRANCH  62  85
ATOM     85  C   UNL A   1      45.383  32.680  29.003  1.00  0.00     0.023 A 
ATOM     86  C   UNL A   1      46.319  32.833  30.044  1.00  0.00     0.012 A 
ATOM     87  C   UNL A   1      45.064  33.787  28.190  1.00  0.00     0.148 A 
ATOM     88  C   UNL A   1      46.904  34.073  30.293  1.00  0.00     0.002 A 
ATOM     89  C   UNL A   1      45.691  35.006  28.411  1.00  0.00     0.091 A 
ATOM     90  F   UNL A   1      44.157  33.624  27.216  1.00  0.00    -0.205 F 
ATOM     91  C   UNL A   1      46.601  35.155  29.470  1.00  0.00     0.022 A 
BRANCH  89  92
ATOM     92  S   UNL A   1      45.439  36.424  27.338  1.00  0.00     0.127 S 
ATOM     93  O   UNL A   1      44.997  37.443  28.289  1.00  0.00    -0.237 OA
ATOM     94  O   UNL A   1      46.779  36.640  26.792  1.00  0.00    -0.237 OA
ATOM     95  O   UNL A   1      44.444  36.016  26.356  1.00  0.00    -0.744 OA
ENDBRANCH  89  92
ENDBRANCH  62  85
ENDBRANCH  36  37
ENDBRANCH  28  31
ENDBRANCH  26  27
ENDBRANCH  25  26
ENDBRANCH   1  25
TORSDOF 18
ENDMDL
MODEL 2
REMARK VINA RESULT:     -12.0      2.696      8.756
REMARK SMILES COc1ccc(-c2ccc(C#N)c(S[C@@H](C)C(=O)NCCCNC(=O)c3ccc(-c4c5nc(c(-c6cccc(S(=O)(=O)[O-])c6F)c6ccc([nH]6)c(-c6cccc(S(=O)(=O)[O-])c6F)c6nc(c(-c7cccc(S(=O)(=O)[O-])c7F)c7ccc4[nH]7)C=C6)C=C5)cc3)n2)cc1
REMARK SMILES IDX 20 1 19 2 17 3 18 4 15 6 16 7 14 8 13 9 7 10 8 11 89 12 9 13
REMARK SMILES IDX 10 14 6 15 3 16 4 17 91 18 5 19 90 20 2 21 1 22 11 23 12 24
REMARK SMILES IDX 21 25 22 26 23 27 24 28 25 30 26 31 27 32 88 33 28 34 87 35
REMARK SMILES IDX 29 36 30 37 31 38 81 39 32 40 86 41 80 42 82 43 33 44 85 45
REMARK SMILES IDX 79 46 78 47 34 49 66 50 46 51 65 52 47 53 50 54 64 55 83 56
REMARK SMILES IDX 48 57 49 58 63 60 84 61 51 62 35 63 36 64 44 65 37 66 39 67
REMARK SMILES IDX 45 68 38 69 40 70 41 71 42 72 43 73 67 74 68 75 76 76 69 77
REMARK SMILES IDX 71 78 77 79 70 80 72 81 73 82 74 83 75 84 52 85 53 86 61 87
REMARK SMILES IDX 54 88 56 89 62 90 55 91 57 92 58 93 59 94 60 95
REMARK H PARENT 19 5 23 29 82 48 50 59
REMARK Flexibility Score: inf
ROOT
ATOM      1  C   UNL A   1      35.329  21.583  25.376  1.00  0.00     0.117 C 
ENDROOT
BRANCH   1   2
ATOM      2  N   UNL A   1      34.093  20.866  25.220  1.00  0.00    -0.355 N 
ATOM      3  C   UNL A   1      32.794  21.180  25.395  1.00  0.00     0.233 C 
ATOM      4  O   UNL A   1      32.009  20.307  24.987  1.00  0.00    -0.274 OA
ATOM      5  H   UNL A   1      34.224  19.939  24.915  1.00  0.00     0.163 HD
BRANCH   3   6
ATOM      6  C   UNL A   1      32.216  22.497  25.914  1.00  0.00     0.139 C 
ATOM      7  C   UNL A   1      32.167  22.642  27.426  1.00  0.00     0.030 C 
BRANCH   6   8
ATOM      8  S   UNL A   1      31.051  23.481  24.915  1.00  0.00    -0.092 SA
BRANCH   8   9
ATOM      9  C   UNL A   1      31.757  24.886  24.097  1.00  0.00     0.115 A 
ATOM     10  C   UNL A   1      31.222  27.160  23.722  1.00  0.00     0.072 A 
ATOM     11  C   UNL A   1      32.484  27.410  23.210  1.00  0.00     0.030 A 
ATOM     12  N   UNL A   1      30.892  25.941  24.213  1.00  0.00    -0.240 NA
ATOM     13  C   UNL A   1      33.337  26.339  23.013  1.00  0.00     0.024 A 
ATOM     14  C   UNL A   1      32.947  25.044  23.389  1.00  0.00     0.084 A 
BRANCH  10  15
ATOM     15  C   UNL A   1      30.144  28.141  23.526  1.00  0.00     0.000 A 
ATOM     16  C   UNL A   1      28.206  30.154  23.204  1.00  0.00     0.118 A 
ATOM     17  C   UNL A   1      27.847  28.814  23.065  1.00  0.00     0.047 A 
ATOM     18  C   UNL A   1      29.509  30.503  23.520  1.00  0.00     0.047 A 
ATOM     19  C   UNL A   1      28.818  27.807  23.211  1.00  0.00     0.014 A 
ATOM     20  C   UNL A   1      30.467  29.508  23.661  1.00  0.00     0.014 A 
BRANCH  16  21
ATOM     21  O   UNL A   1      27.252  31.126  23.107  1.00  0.00    -0.497 OA
ATOM     22  C   UNL A   1      27.837  32.392  22.791  1.00  0.00     0.278 C 
ENDBRANCH  16  21
ENDBRANCH  10  15
BRANCH  14  23
ATOM     23  C   UNL A   1      33.840  24.005  23.007  1.00  0.00     0.102 C 
ATOM     24  N   UNL A   1      34.551  23.186  22.581  1.00  0.00    -0.192 NA
ENDBRANCH  14  23
ENDBRANCH   8   9
ENDBRANCH   6   8
ENDBRANCH   3   6
ENDBRANCH   1   2
BRANCH   1  25
ATOM     25  C   UNL A   1      36.536  20.721  25.046  1.00  0.00     0.042 C 
BRANCH  25  26
ATOM     26  C   UNL A   1      37.865  21.427  25.256  1.00  0.00     0.118 C 
BRANCH  26  27
ATOM     27  N   UNL A   1      38.941  20.576  25.748  1.00  0.00    -0.352 N 
ATOM     28  C   UNL A   1      40.057  20.888  26.493  1.00  0.00     0.251 C 
ATOM     29  H   UNL A   1      38.858  19.625  25.509  1.00  0.00     0.163 HD
ATOM     30  O   UNL A   1      40.859  19.993  26.752  1.00  0.00    -0.269 OA
BRANCH  28  31
ATOM     31  C   UNL A   1      40.332  22.280  26.927  1.00  0.00     0.039 A 
ATOM     32  C   UNL A   1      41.203  22.489  28.003  1.00  0.00     0.014 A 
ATOM     33  C   UNL A   1      39.777  23.380  26.276  1.00  0.00     0.014 A 
ATOM     34  C   UNL A   1      41.590  23.788  28.347  1.00  0.00     0.010 A 
ATOM     35  C   UNL A   1      40.267  24.656  26.526  1.00  0.00     0.010 A 
ATOM     36  C   UNL A   1      41.171  24.880  27.572  1.00  0.00    -0.014 A 
BRANCH  36  37
ATOM     37  C   UNL A   1      41.655  26.262  27.827  1.00  0.00     0.031 A 
ATOM     38  C   UNL A   1      43.063  26.651  27.446  1.00  0.00     0.074 A 
ATOM     39  C   UNL A   1      40.874  27.125  28.511  1.00  0.00     0.049 A 
ATOM     40  N   UNL A   1      43.709  27.762  27.688  1.00  0.00    -0.248 NA
ATOM     41  C   UNL A   1      43.872  25.639  26.740  1.00  0.00     0.031 C 
ATOM     42  C   UNL A   1      39.536  26.836  29.039  1.00  0.00     0.029 A 
ATOM     43  N   UNL A   1      41.111  28.417  28.911  1.00  0.00    -0.354 N 
ATOM     44  C   UNL A   1      45.006  27.559  27.226  1.00  0.00     0.074 A 
ATOM     45  C   UNL A   1      45.068  26.206  26.723  1.00  0.00     0.031 C 
ATOM     46  C   UNL A   1      39.070  27.918  29.685  1.00  0.00     0.029 A 
ATOM     47  C   UNL A   1      40.083  28.965  29.644  1.00  0.00     0.049 A 
ATOM     48  H   UNL A   1      41.938  28.904  28.696  1.00  0.00     0.167 HD
ATOM     49  C   UNL A   1      46.044  28.428  27.192  1.00  0.00     0.034 A 
ATOM     50  C   UNL A   1      39.976  30.174  30.224  1.00  0.00     0.034 A 
ATOM     51  C   UNL A   1      45.954  29.793  27.631  1.00  0.00     0.049 A 
ATOM     52  C   UNL A   1      41.110  31.154  30.088  1.00  0.00     0.074 A 
ATOM     53  C   UNL A   1      46.908  30.791  27.536  1.00  0.00     0.029 A 
ATOM     54  N   UNL A   1      44.849  30.352  28.253  1.00  0.00    -0.354 N 
ATOM     55  N   UNL A   1      42.270  30.997  29.499  1.00  0.00    -0.248 NA
ATOM     56  C   UNL A   1      40.902  32.490  30.666  1.00  0.00     0.031 C 
ATOM     57  C   UNL A   1      46.388  31.947  28.128  1.00  0.00     0.029 A 
ATOM     58  C   UNL A   1      45.098  31.678  28.556  1.00  0.00     0.049 A 
ATOM     59  H   UNL A   1      44.011  29.874  28.450  1.00  0.00     0.167 HD
ATOM     60  C   UNL A   1      42.922  32.219  29.614  1.00  0.00     0.074 A 
ATOM     61  C   UNL A   1      42.014  33.114  30.304  1.00  0.00     0.031 C 
ATOM     62  C   UNL A   1      44.166  32.566  29.201  1.00  0.00     0.034 A 
BRANCH  49  63
ATOM     63  C   UNL A   1      47.351  27.947  26.614  1.00  0.00     0.023 A 
ATOM     64  C   UNL A   1      48.377  27.502  27.473  1.00  0.00     0.012 A 
ATOM     65  C   UNL A   1      47.544  27.880  25.219  1.00  0.00     0.148 A 
ATOM     66  C   UNL A   1      49.588  27.039  26.958  1.00  0.00     0.002 A 
ATOM     67  C   UNL A   1      48.733  27.369  24.712  1.00  0.00     0.091 A 
ATOM     68  F   UNL A   1      46.567  28.324  24.416  1.00  0.00    -0.205 F 
ATOM     69  C   UNL A   1      49.761  26.961  25.580  1.00  0.00     0.022 A 
BRANCH  67  70
ATOM     70  S   UNL A   1      49.025  27.148  22.954  1.00  0.00     0.127 S 
ATOM     71  O   UNL A   1      48.286  25.915  22.685  1.00  0.00    -0.237 OA
ATOM     72  O   UNL A   1      48.420  28.355  22.389  1.00  0.00    -0.237 OA
ATOM     73  O   UNL A   1      50.469  27.058  22.792  1.00  0.00    -0.744 OA
ENDBRANCH  67  70
ENDBRANCH  49  63
BRANCH  50  74
ATOM     74  C   UNL A   1      38.731  30.559  30.945  1.00  0.00     0.023 A 
ATOM     75  C   UNL A   1      38.527  30.099  32.261  1.00  0.00     0.012 A 
ATOM     76  C   UNL A   1      37.735  31.334  30.325  1.00  0.00     0.148 A 
ATOM     77  C   UNL A   1      37.337  30.380  32.935  1.00  0.00     0.002 A 
ATOM     78  C   UNL A   1      36.555  31.619  31.005  1.00  0.00     0.091 A 
ATOM     79  F   UNL A   1      37.938  31.752  29.067  1.00  0.00    -0.205 F 
ATOM     80  C   UNL A   1      36.353  31.143  32.310  1.00  0.00     0.022 A 
BRANCH  78  81
ATOM     81  S   UNL A   1      35.245  32.569  30.223  1.00  0.00     0.127 S 
ATOM     82  O   UNL A   1      34.834  31.676  29.143  1.00  0.00    -0.237 OA
ATOM     83  O   UNL A   1      34.256  32.714  31.294  1.00  0.00    -0.237 OA
ATOM     84  O   UNL A   1      35.875  33.819  29.820  1.00  0.00    -0.744 OA
ENDBRANCH  78  81
ENDBRANCH  50  74
BRANCH  62  85
ATOM     85  C   UNL A   1      44.613  33.983  29.444  1.00  0.00     0.023 A 
ATOM     86  C   UNL A   1      45.232  34.329  30.661  1.00  0.00     0.012 A 
ATOM     87  C   UNL A   1      44.491  34.954  28.428  1.00  0.00     0.148 A 
ATOM     88  C   UNL A   1      45.693  35.627  30.877  1.00  0.00     0.002 A 
ATOM     89  C   UNL A   1      45.001  36.229  28.631  1.00  0.00     0.091 A 
ATOM     90  F   UNL A   1      43.883  34.608  27.284  1.00  0.00    -0.205 F 
ATOM     91  C   UNL A   1      45.590  36.571  29.859  1.00  0.00     0.022 A 
BRANCH  89  92
ATOM     92  S   UNL A   1      45.005  37.479  27.341  1.00  0.00     0.127 S 
ATOM     93  O   UNL A   1      45.556  38.635  28.046  1.00  0.00    -0.237 OA
ATOM     94  O   UNL A   1      45.900  36.890  26.343  1.00  0.00    -0.237 OA
ATOM     95  O   UNL A   1      43.622  37.615  26.906  1.00  0.00    -0.744 OA
ENDBRANCH  89  92
ENDBRANCH  62  85
ENDBRANCH  36  37
ENDBRANCH  28  31
ENDBRANCH  26  27
ENDBRANCH  25  26
ENDBRANCH   1  25
TORSDOF 18
ENDMDL
MODEL 3
REMARK VINA RESULT:     -11.8      2.614      5.015
REMARK SMILES COc1ccc(-c2ccc(C#N)c(S[C@@H](C)C(=O)NCCCNC(=O)c3ccc(-c4c5nc(c(-c6cccc(S(=O)(=O)[O-])c6F)c6ccc([nH]6)c(-c6cccc(S(=O)(=O)[O-])c6F)c6nc(c(-c7cccc(S(=O)(=O)[O-])c7F)c7ccc4[nH]7)C=C6)C=C5)cc3)n2)cc1
REMARK SMILES IDX 20 1 19 2 17 3 18 4 15 6 16 7 14 8 13 9 7 10 8 11 89 12 9 13
REMARK SMILES IDX 10 14 6 15 3 16 4 17 91 18 5 19 90 20 2 21 1 22 11 23 12 24
REMARK SMILES IDX 21 25 22 26 23 27 24 28 25 30 26 31 27 32 88 33 28 34 87 35
REMARK SMILES IDX 29 36 30 37 31 38 81 39 32 40 86 41 80 42 82 43 33 44 85 45
REMARK SMILES IDX 79 46 78 47 34 49 66 50 46 51 65 52 47 53 50 54 64 55 83 56
REMARK SMILES IDX 48 57 49 58 63 60 84 61 51 62 35 63 36 64 44 65 37 66 39 67
REMARK SMILES IDX 45 68 38 69 40 70 41 71 42 72 43 73 67 74 68 75 76 76 69 77
REMARK SMILES IDX 71 78 77 79 70 80 72 81 73 82 74 83 75 84 52 85 53 86 61 87
REMARK SMILES IDX 54 88 56 89 62 90 55 91 57 92 58 93 59 94 60 95
REMARK H PARENT 19 5 23 29 82 48 50 59
REMARK Flexibility Score: inf
ROOT
ATOM      1  C   UNL A   1      37.130  20.966  25.012  1.00  0.00     0.117 C 
ENDROOT
BRANCH   1   2
ATOM      2  N   UNL A   1      37.624  22.245  25.445  1.00  0.00    -0.355 N 
ATOM      3  C   UNL A   1      37.045  23.363  25.927  1.00  0.00     0.233 C 
ATOM      4  O   UNL A   1      37.859  24.206  26.343  1.00  0.00    -0.274 OA
ATOM      5  H   UNL A   1      38.603  22.320  25.377  1.00  0.00     0.163 HD
BRANCH   3   6
ATOM      6  C   UNL A   1      35.553  23.634  26.113  1.00  0.00     0.139 C 
ATOM      7  C   UNL A   1      34.842  22.734  27.111  1.00  0.00     0.030 C 
BRANCH   6   8
ATOM      8  S   UNL A   1      34.560  24.423  24.804  1.00  0.00    -0.092 SA
BRANCH   8   9
ATOM      9  C   UNL A   1      33.086  25.237  25.359  1.00  0.00     0.115 A 
ATOM     10  C   UNL A   1      32.386  27.427  25.914  1.00  0.00     0.072 A 
ATOM     11  C   UNL A   1      31.062  27.025  25.985  1.00  0.00     0.030 A 
ATOM     12  N   UNL A   1      33.363  26.565  25.545  1.00  0.00    -0.240 NA
ATOM     13  C   UNL A   1      30.780  25.675  25.879  1.00  0.00     0.024 A 
ATOM     14  C   UNL A   1      31.810  24.752  25.639  1.00  0.00     0.084 A 
BRANCH  10  15
ATOM     15  C   UNL A   1      32.785  28.731  26.463  1.00  0.00     0.000 A 
ATOM     16  C   UNL A   1      33.713  31.146  27.571  1.00  0.00     0.118 A 
ATOM     17  C   UNL A   1      32.414  31.062  27.072  1.00  0.00     0.047 A 
ATOM     18  C   UNL A   1      34.548  30.039  27.544  1.00  0.00     0.047 A 
ATOM     19  C   UNL A   1      31.953  29.861  26.504  1.00  0.00     0.014 A 
ATOM     20  C   UNL A   1      34.093  28.855  26.981  1.00  0.00     0.014 A 
BRANCH  16  21
ATOM     21  O   UNL A   1      34.141  32.299  28.162  1.00  0.00    -0.497 OA
ATOM     22  C   UNL A   1      35.270  32.057  29.005  1.00  0.00     0.278 C 
ENDBRANCH  16  21
ENDBRANCH  10  15
BRANCH  14  23
ATOM     23  C   UNL A   1      31.427  23.384  25.695  1.00  0.00     0.102 C 
ATOM     24  N   UNL A   1      31.006  22.297  25.699  1.00  0.00    -0.192 NA
ENDBRANCH  14  23
ENDBRANCH   8   9
ENDBRANCH   6   8
ENDBRANCH   3   6
ENDBRANCH   1   2
BRANCH   1  25
ATOM     25  C   UNL A   1      38.243  19.941  24.871  1.00  0.00     0.042 C 
BRANCH  25  26
ATOM     26  C   UNL A   1      39.408  20.171  25.818  1.00  0.00     0.118 C 
BRANCH  26  27
ATOM     27  N   UNL A   1      40.356  19.068  25.905  1.00  0.00    -0.352 N 
ATOM     28  C   UNL A   1      41.697  19.066  26.217  1.00  0.00     0.251 C 
ATOM     29  H   UNL A   1      39.977  18.181  25.709  1.00  0.00     0.163 HD
ATOM     30  O   UNL A   1      42.307  17.998  26.181  1.00  0.00    -0.269 OA
BRANCH  28  31
ATOM     31  C   UNL A   1      42.420  20.324  26.529  1.00  0.00     0.039 A 
ATOM     32  C   UNL A   1      43.112  20.974  25.501  1.00  0.00     0.014 A 
ATOM     33  C   UNL A   1      42.403  20.889  27.802  1.00  0.00     0.014 A 
ATOM     34  C   UNL A   1      43.686  22.229  25.729  1.00  0.00     0.010 A 
ATOM     35  C   UNL A   1      42.850  22.191  27.991  1.00  0.00     0.010 A 
ATOM     36  C   UNL A   1      43.508  22.875  26.961  1.00  0.00    -0.014 A 
BRANCH  36  37
ATOM     37  C   UNL A   1      43.996  24.257  27.207  1.00  0.00     0.031 A 
ATOM     38  C   UNL A   1      43.045  25.313  27.719  1.00  0.00     0.074 A 
ATOM     39  C   UNL A   1      45.254  24.593  26.852  1.00  0.00     0.049 A 
ATOM     40  N   UNL A   1      43.244  26.595  27.886  1.00  0.00    -0.248 NA
ATOM     41  C   UNL A   1      41.673  24.880  28.043  1.00  0.00     0.031 C 
ATOM     42  C   UNL A   1      46.238  23.695  26.238  1.00  0.00     0.029 A 
ATOM     43  N   UNL A   1      45.911  25.795  26.927  1.00  0.00    -0.354 N 
ATOM     44  C   UNL A   1      42.015  27.126  28.268  1.00  0.00     0.074 A 
ATOM     45  C   UNL A   1      41.067  26.036  28.273  1.00  0.00     0.031 C 
ATOM     46  C   UNL A   1      47.372  24.375  25.998  1.00  0.00     0.029 A 
ATOM     47  C   UNL A   1      47.188  25.760  26.414  1.00  0.00     0.049 A 
ATOM     48  H   UNL A   1      45.507  26.607  27.310  1.00  0.00     0.167 HD
ATOM     49  C   UNL A   1      41.708  28.398  28.615  1.00  0.00     0.034 A 
ATOM     50  C   UNL A   1      48.103  26.738  26.286  1.00  0.00     0.034 A 
ATOM     51  C   UNL A   1      42.672  29.462  28.674  1.00  0.00     0.049 A 
ATOM     52  C   UNL A   1      47.764  28.123  26.769  1.00  0.00     0.074 A 
ATOM     53  C   UNL A   1      42.495  30.759  29.122  1.00  0.00     0.029 A 
ATOM     54  N   UNL A   1      43.993  29.355  28.268  1.00  0.00    -0.354 N 
ATOM     55  N   UNL A   1      46.644  28.567  27.284  1.00  0.00    -0.248 NA
ATOM     56  C   UNL A   1      48.831  29.131  26.686  1.00  0.00     0.031 C 
ATOM     57  C   UNL A   1      43.703  31.445  28.959  1.00  0.00     0.029 A 
ATOM     58  C   UNL A   1      44.641  30.563  28.446  1.00  0.00     0.049 A 
ATOM     59  H   UNL A   1      44.407  28.539  27.906  1.00  0.00     0.167 HD
ATOM     60  C   UNL A   1      46.878  29.898  27.608  1.00  0.00     0.074 A 
ATOM     61  C   UNL A   1      48.255  30.178  27.257  1.00  0.00     0.031 C 
ATOM     62  C   UNL A   1      46.024  30.812  28.134  1.00  0.00     0.034 A 
BRANCH  49  63
ATOM     63  C   UNL A   1      40.285  28.700  29.011  1.00  0.00     0.023 A 
ATOM     64  C   UNL A   1      39.315  28.935  28.014  1.00  0.00     0.012 A 
ATOM     65  C   UNL A   1      39.892  28.693  30.364  1.00  0.00     0.148 A 
ATOM     66  C   UNL A   1      37.989  29.200  28.358  1.00  0.00     0.002 A 
ATOM     67  C   UNL A   1      38.560  28.907  30.697  1.00  0.00     0.091 A 
ATOM     68  F   UNL A   1      40.829  28.487  31.300  1.00  0.00    -0.205 F 
ATOM     69  C   UNL A   1      37.610  29.175  29.696  1.00  0.00     0.022 A 
BRANCH  67  70
ATOM     70  S   UNL A   1      37.952  28.813  32.384  1.00  0.00     0.127 S 
ATOM     71  O   UNL A   1      38.157  27.398  32.692  1.00  0.00    -0.237 OA
ATOM     72  O   UNL A   1      38.855  29.725  33.087  1.00  0.00    -0.237 OA
ATOM     73  O   UNL A   1      36.563  29.247  32.337  1.00  0.00    -0.744 OA
ENDBRANCH  67  70
ENDBRANCH  49  63
BRANCH  50  74
ATOM     74  C   UNL A   1      49.450  26.445  25.725  1.00  0.00     0.023 A 
ATOM     75  C   UNL A   1      50.396  25.773  26.523  1.00  0.00     0.012 A 
ATOM     76  C   UNL A   1      49.813  26.862  24.432  1.00  0.00     0.148 A 
ATOM     77  C   UNL A   1      51.691  25.550  26.053  1.00  0.00     0.002 A 
ATOM     78  C   UNL A   1      51.102  26.628  23.965  1.00  0.00     0.091 A 
ATOM     79  F   UNL A   1      48.905  27.513  23.690  1.00  0.00    -0.205 F 
ATOM     80  C   UNL A   1      52.044  25.972  24.773  1.00  0.00     0.022 A 
BRANCH  78  81
ATOM     81  S   UNL A   1      51.609  27.189  22.335  1.00  0.00     0.127 S 
ATOM     82  O   UNL A   1      52.206  28.487  22.638  1.00  0.00    -0.237 OA
ATOM     83  O   UNL A   1      52.572  26.167  21.917  1.00  0.00    -0.237 OA
ATOM     84  O   UNL A   1      50.384  27.213  21.546  1.00  0.00    -0.744 OA
ENDBRANCH  78  81
ENDBRANCH  50  74
BRANCH  62  85
ATOM     85  C   UNL A   1      46.559  32.193  28.403  1.00  0.00     0.023 A 
ATOM     86  C   UNL A   1      47.079  32.514  29.672  1.00  0.00     0.012 A 
ATOM     87  C   UNL A   1      46.618  33.149  27.368  1.00  0.00     0.148 A 
ATOM     88  C   UNL A   1      47.620  33.775  29.916  1.00  0.00     0.002 A 
ATOM     89  C   UNL A   1      47.208  34.384  27.605  1.00  0.00     0.091 A 
ATOM     90  F   UNL A   1      46.102  32.829  26.172  1.00  0.00    -0.205 F 
ATOM     91  C   UNL A   1      47.697  34.704  28.881  1.00  0.00     0.022 A 
BRANCH  89  92
ATOM     92  S   UNL A   1      47.442  35.601  26.305  1.00  0.00     0.127 S 
ATOM     93  O   UNL A   1      46.161  36.306  26.321  1.00  0.00    -0.237 OA
ATOM     94  O   UNL A   1      48.573  36.380  26.812  1.00  0.00    -0.237 OA
ATOM     95  O   UNL A   1      47.723  34.847  25.091  1.00  0.00    -0.744 OA
ENDBRANCH  89  92
ENDBRANCH  62  85
ENDBRANCH  36  37
ENDBRANCH  28  31
ENDBRANCH  26  27
ENDBRANCH  25  26
ENDBRANCH   1  25
TORSDOF 18
ENDMDL
