MODEL 1
REMARK VINA RESULT:     -10.5      0.000      0.000
REMARK SMILES Cc1oc2cc3c(cc2c1C)[C@H](C)[C@@H](CC(=O)N[C@H](CC1=c2ccccc2=NC1)C(=O)NCCCNC(=O)c1ccc(-c2c4nc(c(-c5cccc(S(=O)(=O)[O-])c5F)c5ccc([nH]5)c(-c5cccc(S(=O)(=O)[O-])c5F)c5nc(c(-c6cccc(S(=O)(=O)[O-])c6F)c6ccc2[nH]6)C=C5)C=C4)cc1)C(=O)O3
REMARK SMILES IDX 34 1 33 2 32 3 30 4 31 5 19 7 18 8 16 9 17 10 15 12 14 13
REMARK SMILES IDX 1 14 2 15 3 16 10 17 4 18 9 19 11 20 5 21 8 22 6 23 7 24
REMARK SMILES IDX 104 25 12 26 102 27 13 28 103 29 20 30 21 31 22 32 29 33
REMARK SMILES IDX 23 34 27 35 28 36 24 37 26 38 25 39 35 40 36 41 37 42 38 44
REMARK SMILES IDX 39 45 40 46 101 47 41 48 100 49 42 50 43 51 44 52 94 53
REMARK SMILES IDX 45 54 99 55 93 56 95 57 46 58 98 59 92 60 91 61 47 63 79 64
REMARK SMILES IDX 59 65 78 66 60 67 63 68 77 69 96 70 61 71 62 72 76 74 97 75
REMARK SMILES IDX 64 76 48 77 49 78 57 79 50 80 52 81 58 82 51 83 53 84 54 85
REMARK SMILES IDX 55 86 56 87 80 88 81 89 89 90 82 91 84 92 90 93 83 94 85 95
REMARK SMILES IDX 86 96 87 97 88 98 65 99 66 100 74 101 67 102 69 103 75 104
REMARK SMILES IDX 68 105 70 106 71 107 72 108 73 109
REMARK H PARENT 32 6 18 11 36 43 95 62 63 73
REMARK Flexibility Score: inf
ROOT
ATOM      1  C   UNL A   1      41.871  28.303  35.785  1.00  0.00     0.042 C 
ENDROOT
BRANCH   1   2
ATOM      2  C   UNL A   1      40.866  29.322  35.287  1.00  0.00     0.117 C 
BRANCH   2   3
ATOM      3  N   UNL A   1      39.806  29.696  36.193  1.00  0.00    -0.354 N 
ATOM      4  C   UNL A   1      38.803  30.600  36.131  1.00  0.00     0.242 C 
ATOM      5  O   UNL A   1      37.868  30.383  36.912  1.00  0.00    -0.273 OA
ATOM      6  H   UNL A   1      39.816  29.185  37.035  1.00  0.00     0.163 HD
BRANCH   4   7
ATOM      7  C   UNL A   1      38.751  31.807  35.181  1.00  0.00     0.175 C 
BRANCH   7   8
ATOM      8  N   UNL A   1      39.806  32.727  35.622  1.00  0.00    -0.344 N 
ATOM      9  C   UNL A   1      41.098  32.851  35.196  1.00  0.00     0.221 C 
ATOM     10  O   UNL A   1      41.905  33.359  35.982  1.00  0.00    -0.275 OA
ATOM     11  H   UNL A   1      39.542  33.352  36.336  1.00  0.00     0.164 HD
BRANCH   9  12
ATOM     12  C   UNL A   1      41.566  32.490  33.782  1.00  0.00     0.116 C 
BRANCH  12  13
ATOM     13  C   UNL A   1      42.051  33.652  32.896  1.00  0.00     0.116 C 
ATOM     14  C   UNL A   1      45.156  38.410  26.614  1.00  0.00     0.088 C 
ATOM     15  C   UNL A   1      44.432  37.511  27.536  1.00  0.00     0.105 A 
ATOM     16  O   UNL A   1      44.699  37.706  28.851  1.00  0.00    -0.461 OA
ATOM     17  C   UNL A   1      43.555  36.449  27.372  1.00  0.00    -0.002 A 
ATOM     18  C   UNL A   1      44.034  36.751  29.541  1.00  0.00     0.138 A 
ATOM     19  C   UNL A   1      43.249  35.979  28.694  1.00  0.00     0.024 A 
ATOM     20  C   UNL A   1      43.099  35.866  26.088  1.00  0.00     0.049 C 
ATOM     21  C   UNL A   1      44.188  36.521  30.892  1.00  0.00     0.095 A 
ATOM     22  C   UNL A   1      42.452  34.951  29.267  1.00  0.00     0.020 A 
ATOM     23  C   UNL A   1      43.524  35.398  31.375  1.00  0.00     0.138 A 
ATOM     24  C   UNL A   1      42.567  34.671  30.647  1.00  0.00    -0.001 A 
ATOM     25  O   UNL A   1      44.045  34.933  32.588  1.00  0.00    -0.426 OA
ATOM     26  C   UNL A   1      41.778  33.560  31.361  1.00  0.00     0.035 C 
ATOM     27  C   UNL A   1      43.560  33.704  32.950  1.00  0.00     0.315 C 
ATOM     28  C   UNL A   1      40.279  33.634  31.038  1.00  0.00     0.014 C 
ATOM     29  O   UNL A   1      44.293  32.771  33.255  1.00  0.00    -0.251 OA
ENDBRANCH  12  13
ENDBRANCH   9  12
ENDBRANCH   7   8
BRANCH   7  30
ATOM     30  C   UNL A   1      37.341  32.436  34.998  1.00  0.00     0.068 C 
BRANCH  30  31
ATOM     31  C   UNL A   1      37.013  32.979  33.619  1.00  0.00    -0.037 C 
ATOM     32  C   UNL A   1      36.154  33.919  33.218  1.00  0.00     0.001 A 
ATOM     33  C   UNL A   1      37.651  32.361  32.399  1.00  0.00     0.174 C 
ATOM     34  C   UNL A   1      35.381  34.953  33.816  1.00  0.00     0.010 A 
ATOM     35  C   UNL A   1      35.963  33.587  31.793  1.00  0.00     0.065 A 
ATOM     36  N   UNL A   1      36.785  32.741  31.254  1.00  0.00    -0.280 NA
ATOM     37  C   UNL A   1      34.329  35.468  33.163  1.00  0.00     0.001 A 
ATOM     38  C   UNL A   1      34.758  34.159  31.142  1.00  0.00     0.028 A 
ATOM     39  C   UNL A   1      33.974  34.999  31.840  1.00  0.00     0.002 A 
ENDBRANCH  30  31
ENDBRANCH   7  30
ENDBRANCH   4   7
ENDBRANCH   2   3
ENDBRANCH   1   2
BRANCH   1  40
ATOM     40  C   UNL A   1      42.030  26.974  35.058  1.00  0.00     0.118 C 
BRANCH  40  41
ATOM     41  N   UNL A   1      42.393  25.793  35.835  1.00  0.00    -0.352 N 
ATOM     42  C   UNL A   1      43.549  25.040  35.640  1.00  0.00     0.251 C 
ATOM     43  H   UNL A   1      41.777  25.508  36.548  1.00  0.00     0.163 HD
ATOM     44  O   UNL A   1      43.884  24.151  36.386  1.00  0.00    -0.269 OA
BRANCH  42  45
ATOM     45  C   UNL A   1      44.378  25.432  34.473  1.00  0.00     0.039 A 
ATOM     46  C   UNL A   1      45.247  26.517  34.600  1.00  0.00     0.014 A 
ATOM     47  C   UNL A   1      44.043  24.914  33.222  1.00  0.00     0.014 A 
ATOM     48  C   UNL A   1      45.659  27.191  33.451  1.00  0.00     0.010 A 
ATOM     49  C   UNL A   1      44.451  25.591  32.081  1.00  0.00     0.010 A 
ATOM     50  C   UNL A   1      45.218  26.761  32.191  1.00  0.00    -0.014 A 
BRANCH  50  51
ATOM     51  C   UNL A   1      45.524  27.584  31.002  1.00  0.00     0.031 A 
ATOM     52  C   UNL A   1      45.673  26.824  29.726  1.00  0.00     0.074 A 
ATOM     53  C   UNL A   1      45.060  28.852  30.909  1.00  0.00     0.049 A 
ATOM     54  N   UNL A   1      44.645  26.396  29.053  1.00  0.00    -0.248 NA
ATOM     55  C   UNL A   1      46.949  26.268  29.283  1.00  0.00     0.031 C 
ATOM     56  C   UNL A   1      43.876  29.342  31.635  1.00  0.00     0.029 A 
ATOM     57  N   UNL A   1      45.341  29.857  30.011  1.00  0.00    -0.354 N 
ATOM     58  C   UNL A   1      45.106  25.440  28.172  1.00  0.00     0.074 A 
ATOM     59  C   UNL A   1      46.547  25.425  28.316  1.00  0.00     0.031 C 
ATOM     60  C   UNL A   1      43.421  30.453  31.023  1.00  0.00     0.029 A 
ATOM     61  C   UNL A   1      44.363  30.849  29.984  1.00  0.00     0.049 A 
ATOM     62  H   UNL A   1      46.149  29.873  29.449  1.00  0.00     0.167 HD
ATOM     63  C   UNL A   1      44.278  24.680  27.408  1.00  0.00     0.034 A 
ATOM     64  C   UNL A   1      44.051  31.619  28.904  1.00  0.00     0.034 A 
ATOM     65  C   UNL A   1      42.874  24.919  27.579  1.00  0.00     0.049 A 
ATOM     66  C   UNL A   1      43.366  30.614  28.013  1.00  0.00     0.074 A 
ATOM     67  C   UNL A   1      41.860  24.386  28.346  1.00  0.00     0.029 A 
ATOM     68  N   UNL A   1      42.304  25.996  26.942  1.00  0.00    -0.354 N 
ATOM     69  N   UNL A   1      42.127  30.203  28.130  1.00  0.00    -0.248 NA
ATOM     70  C   UNL A   1      44.212  29.761  27.179  1.00  0.00     0.031 C 
ATOM     71  C   UNL A   1      40.880  25.422  28.467  1.00  0.00     0.029 A 
ATOM     72  C   UNL A   1      41.382  26.540  27.804  1.00  0.00     0.049 A 
ATOM     73  H   UNL A   1      42.516  26.317  26.036  1.00  0.00     0.167 HD
ATOM     74  C   UNL A   1      42.132  28.889  27.651  1.00  0.00     0.074 A 
ATOM     75  C   UNL A   1      43.432  28.698  27.043  1.00  0.00     0.031 C 
ATOM     76  C   UNL A   1      41.165  27.967  27.931  1.00  0.00     0.034 A 
BRANCH  63  77
ATOM     77  C   UNL A   1      44.760  23.741  26.375  1.00  0.00     0.023 A 
ATOM     78  C   UNL A   1      45.578  24.278  25.362  1.00  0.00     0.012 A 
ATOM     79  C   UNL A   1      44.323  22.409  26.288  1.00  0.00     0.148 A 
ATOM     80  C   UNL A   1      45.934  23.511  24.256  1.00  0.00     0.002 A 
ATOM     81  C   UNL A   1      44.686  21.647  25.181  1.00  0.00     0.091 A 
ATOM     82  F   UNL A   1      43.535  21.928  27.260  1.00  0.00    -0.205 F 
ATOM     83  C   UNL A   1      45.483  22.198  24.163  1.00  0.00     0.022 A 
BRANCH  81  84
ATOM     84  S   UNL A   1      44.169  19.941  24.958  1.00  0.00     0.127 S 
ATOM     85  O   UNL A   1      44.402  19.739  23.529  1.00  0.00    -0.237 OA
ATOM     86  O   UNL A   1      45.098  19.225  25.834  1.00  0.00    -0.237 OA
ATOM     87  O   UNL A   1      42.778  19.887  25.384  1.00  0.00    -0.744 OA
ENDBRANCH  81  84
ENDBRANCH  63  77
BRANCH  64  88
ATOM     88  C   UNL A   1      45.160  32.535  28.473  1.00  0.00     0.023 A 
ATOM     89  C   UNL A   1      45.192  32.870  27.095  1.00  0.00     0.012 A 
ATOM     90  C   UNL A   1      46.140  33.113  29.298  1.00  0.00     0.148 A 
ATOM     91  C   UNL A   1      46.076  33.823  26.585  1.00  0.00     0.002 A 
ATOM     92  C   UNL A   1      46.971  34.119  28.803  1.00  0.00     0.091 A 
ATOM     93  F   UNL A   1      46.269  32.685  30.558  1.00  0.00    -0.205 F 
ATOM     94  C   UNL A   1      46.942  34.477  27.449  1.00  0.00     0.022 A 
BRANCH  92  95
ATOM     95  S   UNL A   1      48.037  35.099  29.871  1.00  0.00     0.127 S 
ATOM     96  O   UNL A   1      47.097  35.582  30.880  1.00  0.00    -0.237 OA
ATOM     97  O   UNL A   1      48.982  34.087  30.341  1.00  0.00    -0.237 OA
ATOM     98  O   UNL A   1      48.611  36.130  29.018  1.00  0.00    -0.744 OA
ENDBRANCH  92  95
ENDBRANCH  64  88
BRANCH  76  99
ATOM     99  C   UNL A   1      39.916  28.475  28.586  1.00  0.00     0.023 A 
ATOM    100  C   UNL A   1      38.874  28.940  27.761  1.00  0.00     0.012 A 
ATOM    101  C   UNL A   1      39.714  28.417  29.980  1.00  0.00     0.148 A 
ATOM    102  C   UNL A   1      37.645  29.310  28.304  1.00  0.00     0.002 A 
ATOM    103  C   UNL A   1      38.474  28.756  30.513  1.00  0.00     0.091 A 
ATOM    104  F   UNL A   1      40.719  28.004  30.765  1.00  0.00    -0.205 F 
ATOM    105  C   UNL A   1      37.438  29.204  29.677  1.00  0.00     0.022 A 
BRANCH 103 106
ATOM    106  S   UNL A   1      38.103  28.607  32.265  1.00  0.00     0.127 S 
ATOM    107  O   UNL A   1      36.735  29.119  32.342  1.00  0.00    -0.237 OA
ATOM    108  O   UNL A   1      38.226  27.166  32.480  1.00  0.00    -0.237 OA
ATOM    109  O   UNL A   1      39.083  29.429  32.966  1.00  0.00    -0.744 OA
ENDBRANCH 103 106
ENDBRANCH  76  99
ENDBRANCH  50  51
ENDBRANCH  42  45
ENDBRANCH  40  41
ENDBRANCH   1  40
TORSDOF 18
ENDMDL
MODEL 2
REMARK VINA RESULT:     -10.4      4.105     10.465
REMARK SMILES Cc1oc2cc3c(cc2c1C)[C@H](C)[C@@H](CC(=O)N[C@H](CC1=c2ccccc2=NC1)C(=O)NCCCNC(=O)c1ccc(-c2c4nc(c(-c5cccc(S(=O)(=O)[O-])c5F)c5ccc([nH]5)c(-c5cccc(S(=O)(=O)[O-])c5F)c5nc(c(-c6cccc(S(=O)(=O)[O-])c6F)c6ccc2[nH]6)C=C5)C=C4)cc1)C(=O)O3
REMARK SMILES IDX 34 1 33 2 32 3 30 4 31 5 19 7 18 8 16 9 17 10 15 12 14 13
REMARK SMILES IDX 1 14 2 15 3 16 10 17 4 18 9 19 11 20 5 21 8 22 6 23 7 24
REMARK SMILES IDX 104 25 12 26 102 27 13 28 103 29 20 30 21 31 22 32 29 33
REMARK SMILES IDX 23 34 27 35 28 36 24 37 26 38 25 39 35 40 36 41 37 42 38 44
REMARK SMILES IDX 39 45 40 46 101 47 41 48 100 49 42 50 43 51 44 52 94 53
REMARK SMILES IDX 45 54 99 55 93 56 95 57 46 58 98 59 92 60 91 61 47 63 79 64
REMARK SMILES IDX 59 65 78 66 60 67 63 68 77 69 96 70 61 71 62 72 76 74 97 75
REMARK SMILES IDX 64 76 48 77 49 78 57 79 50 80 52 81 58 82 51 83 53 84 54 85
REMARK SMILES IDX 55 86 56 87 80 88 81 89 89 90 82 91 84 92 90 93 83 94 85 95
REMARK SMILES IDX 86 96 87 97 88 98 65 99 66 100 74 101 67 102 69 103 75 104
REMARK SMILES IDX 68 105 70 106 71 107 72 108 73 109
REMARK H PARENT 32 6 18 11 36 43 95 62 63 73
REMARK Flexibility Score: inf
ROOT
ATOM      1  C   UNL A   1      44.613  26.574  31.635  1.00  0.00     0.042 C 
ENDROOT
BRANCH   1   2
ATOM      2  C   UNL A   1      44.292  25.367  30.777  1.00  0.00     0.117 C 
BRANCH   2   3
ATOM      3  N   UNL A   1      45.234  25.030  29.737  1.00  0.00    -0.354 N 
ATOM      4  C   UNL A   1      45.298  25.298  28.414  1.00  0.00     0.242 C 
ATOM      5  O   UNL A   1      46.426  25.179  27.920  1.00  0.00    -0.273 OA
ATOM      6  H   UNL A   1      45.992  24.489  30.059  1.00  0.00     0.163 HD
BRANCH   4   7
ATOM      7  C   UNL A   1      44.114  25.739  27.538  1.00  0.00     0.175 C 
BRANCH   7   8
ATOM      8  N   UNL A   1      44.039  24.781  26.428  1.00  0.00    -0.344 N 
ATOM      9  C   UNL A   1      43.469  23.540  26.375  1.00  0.00     0.221 C 
ATOM     10  O   UNL A   1      43.899  22.758  25.521  1.00  0.00    -0.275 OA
ATOM     11  H   UNL A   1      44.468  25.077  25.592  1.00  0.00     0.164 HD
BRANCH   9  12
ATOM     12  C   UNL A   1      42.278  23.115  27.239  1.00  0.00     0.116 C 
BRANCH  12  13
ATOM     13  C   UNL A   1      40.956  22.827  26.503  1.00  0.00     0.116 C 
ATOM     14  C   UNL A   1      32.816  21.871  24.368  1.00  0.00     0.088 C 
ATOM     15  C   UNL A   1      34.173  22.289  24.774  1.00  0.00     0.105 A 
ATOM     16  O   UNL A   1      35.162  21.423  24.439  1.00  0.00    -0.461 OA
ATOM     17  C   UNL A   1      34.690  23.365  25.481  1.00  0.00    -0.002 A 
ATOM     18  C   UNL A   1      36.312  21.908  24.960  1.00  0.00     0.138 A 
ATOM     19  C   UNL A   1      36.107  23.143  25.561  1.00  0.00     0.024 A 
ATOM     20  C   UNL A   1      33.922  24.470  26.102  1.00  0.00     0.049 C 
ATOM     21  C   UNL A   1      37.508  21.220  24.972  1.00  0.00     0.095 A 
ATOM     22  C   UNL A   1      37.227  23.811  26.126  1.00  0.00     0.020 A 
ATOM     23  C   UNL A   1      38.531  21.835  25.687  1.00  0.00     0.138 A 
ATOM     24  C   UNL A   1      38.478  23.156  26.164  1.00  0.00    -0.001 A 
ATOM     25  O   UNL A   1      39.544  20.948  26.066  1.00  0.00    -0.426 OA
ATOM     26  C   UNL A   1      39.746  23.773  26.782  1.00  0.00     0.035 C 
ATOM     27  C   UNL A   1      40.429  21.488  26.962  1.00  0.00     0.315 C 
ATOM     28  C   UNL A   1      39.995  25.195  26.259  1.00  0.00     0.014 C 
ATOM     29  O   UNL A   1      40.719  20.933  28.016  1.00  0.00    -0.251 OA
ENDBRANCH  12  13
ENDBRANCH   9  12
ENDBRANCH   7   8
BRANCH   7  30
ATOM     30  C   UNL A   1      44.122  27.240  27.133  1.00  0.00     0.068 C 
BRANCH  30  31
ATOM     31  C   UNL A   1      42.800  27.978  27.235  1.00  0.00    -0.037 C 
ATOM     32  C   UNL A   1      41.871  28.007  28.193  1.00  0.00     0.001 A 
ATOM     33  C   UNL A   1      42.303  28.791  26.063  1.00  0.00     0.174 C 
ATOM     34  C   UNL A   1      41.764  27.616  29.557  1.00  0.00     0.010 A 
ATOM     35  C   UNL A   1      40.675  28.465  27.463  1.00  0.00     0.065 A 
ATOM     36  N   UNL A   1      40.842  28.947  26.270  1.00  0.00    -0.280 NA
ATOM     37  C   UNL A   1      40.556  27.443  30.113  1.00  0.00     0.001 A 
ATOM     38  C   UNL A   1      39.368  28.208  28.118  1.00  0.00     0.028 A 
ATOM     39  C   UNL A   1      39.348  27.667  29.348  1.00  0.00     0.002 A 
ENDBRANCH  30  31
ENDBRANCH   7  30
ENDBRANCH   4   7
ENDBRANCH   2   3
ENDBRANCH   1   2
BRANCH   1  40
ATOM     40  C   UNL A   1      44.634  26.446  33.152  1.00  0.00     0.118 C 
BRANCH  40  41
ATOM     41  N   UNL A   1      43.991  25.287  33.764  1.00  0.00    -0.352 N 
ATOM     42  C   UNL A   1      42.855  25.341  34.567  1.00  0.00     0.251 C 
ATOM     43  H   UNL A   1      44.390  24.402  33.595  1.00  0.00     0.163 HD
ATOM     44  O   UNL A   1      42.273  24.352  34.945  1.00  0.00    -0.269 OA
BRANCH  42  45
ATOM     45  C   UNL A   1      42.368  26.704  34.895  1.00  0.00     0.039 A 
ATOM     46  C   UNL A   1      41.938  27.532  33.857  1.00  0.00     0.014 A 
ATOM     47  C   UNL A   1      42.644  27.216  36.163  1.00  0.00     0.014 A 
ATOM     48  C   UNL A   1      41.937  28.913  34.050  1.00  0.00     0.010 A 
ATOM     49  C   UNL A   1      42.646  28.591  36.350  1.00  0.00     0.010 A 
ATOM     50  C   UNL A   1      42.342  29.449  35.282  1.00  0.00    -0.014 A 
BRANCH  50  51
ATOM     51  C   UNL A   1      42.498  30.912  35.413  1.00  0.00     0.031 A 
ATOM     52  C   UNL A   1      43.303  31.563  34.337  1.00  0.00     0.074 A 
ATOM     53  C   UNL A   1      41.522  31.657  35.983  1.00  0.00     0.049 A 
ATOM     54  N   UNL A   1      42.810  31.813  33.160  1.00  0.00    -0.248 NA
ATOM     55  C   UNL A   1      44.754  31.715  34.420  1.00  0.00     0.031 C 
ATOM     56  C   UNL A   1      40.111  31.240  36.044  1.00  0.00     0.029 A 
ATOM     57  N   UNL A   1      41.497  32.978  36.369  1.00  0.00    -0.354 N 
ATOM     58  C   UNL A   1      43.875  32.048  32.315  1.00  0.00     0.074 A 
ATOM     59  C   UNL A   1      45.059  32.024  33.149  1.00  0.00     0.031 C 
ATOM     60  C   UNL A   1      39.345  32.329  36.253  1.00  0.00     0.029 A 
ATOM     61  C   UNL A   1      40.204  33.479  36.508  1.00  0.00     0.049 A 
ATOM     62  H   UNL A   1      42.308  33.511  36.532  1.00  0.00     0.167 HD
ATOM     63  C   UNL A   1      43.731  32.204  30.973  1.00  0.00     0.034 A 
ATOM     64  C   UNL A   1      39.839  34.778  36.327  1.00  0.00     0.034 A 
ATOM     65  C   UNL A   1      42.393  32.094  30.470  1.00  0.00     0.049 A 
ATOM     66  C   UNL A   1      39.965  34.914  34.830  1.00  0.00     0.074 A 
ATOM     67  C   UNL A   1      41.606  31.090  29.947  1.00  0.00     0.029 A 
ATOM     68  N   UNL A   1      41.553  33.177  30.580  1.00  0.00    -0.354 N 
ATOM     69  N   UNL A   1      39.090  34.501  33.946  1.00  0.00    -0.248 NA
ATOM     70  C   UNL A   1      41.292  35.196  34.285  1.00  0.00     0.031 C 
ATOM     71  C   UNL A   1      40.254  31.491  30.189  1.00  0.00     0.029 A 
ATOM     72  C   UNL A   1      40.303  32.695  30.888  1.00  0.00     0.049 A 
ATOM     73  H   UNL A   1      41.800  34.122  30.461  1.00  0.00     0.167 HD
ATOM     74  C   UNL A   1      39.844  34.174  32.814  1.00  0.00     0.074 A 
ATOM     75  C   UNL A   1      41.180  34.666  33.076  1.00  0.00     0.031 C 
ATOM     76  C   UNL A   1      39.403  33.363  31.808  1.00  0.00     0.034 A 
BRANCH  63  77
ATOM     77  C   UNL A   1      44.843  32.579  30.075  1.00  0.00     0.023 A 
ATOM     78  C   UNL A   1      45.336  33.893  30.190  1.00  0.00     0.012 A 
ATOM     79  C   UNL A   1      45.308  31.745  29.045  1.00  0.00     0.148 A 
ATOM     80  C   UNL A   1      46.258  34.387  29.272  1.00  0.00     0.002 A 
ATOM     81  C   UNL A   1      46.233  32.245  28.133  1.00  0.00     0.091 A 
ATOM     82  F   UNL A   1      44.813  30.502  28.952  1.00  0.00    -0.205 F 
ATOM     83  C   UNL A   1      46.702  33.565  28.241  1.00  0.00     0.022 A 
BRANCH  81  84
ATOM     84  S   UNL A   1      46.881  31.274  26.767  1.00  0.00     0.127 S 
ATOM     85  O   UNL A   1      47.974  32.118  26.288  1.00  0.00    -0.237 OA
ATOM     86  O   UNL A   1      47.309  30.048  27.442  1.00  0.00    -0.237 OA
ATOM     87  O   UNL A   1      45.771  31.096  25.843  1.00  0.00    -0.744 OA
ENDBRANCH  81  84
ENDBRANCH  63  77
BRANCH  64  88
ATOM     88  C   UNL A   1      40.438  35.721  37.329  1.00  0.00     0.023 A 
ATOM     89  C   UNL A   1      41.812  36.027  37.155  1.00  0.00     0.012 A 
ATOM     90  C   UNL A   1      39.770  36.349  38.394  1.00  0.00     0.148 A 
ATOM     91  C   UNL A   1      42.459  36.997  37.923  1.00  0.00     0.002 A 
ATOM     92  C   UNL A   1      40.396  37.372  39.111  1.00  0.00     0.091 A 
ATOM     93  F   UNL A   1      38.534  35.954  38.716  1.00  0.00    -0.205 F 
ATOM     94  C   UNL A   1      41.738  37.698  38.878  1.00  0.00     0.022 A 
BRANCH  92  95
ATOM     95  S   UNL A   1      39.507  38.410  40.280  1.00  0.00     0.127 S 
ATOM     96  O   UNL A   1      39.479  37.568  41.475  1.00  0.00    -0.237 OA
ATOM     97  O   UNL A   1      40.391  39.571  40.365  1.00  0.00    -0.237 OA
ATOM     98  O   UNL A   1      38.208  38.666  39.674  1.00  0.00    -0.744 OA
ENDBRANCH  92  95
ENDBRANCH  64  88
BRANCH  76  99
ATOM     99  C   UNL A   1      37.946  33.010  31.812  1.00  0.00     0.023 A 
ATOM    100  C   UNL A   1      37.433  32.319  32.926  1.00  0.00     0.012 A 
ATOM    101  C   UNL A   1      37.063  33.423  30.793  1.00  0.00     0.148 A 
ATOM    102  C   UNL A   1      36.066  32.069  33.043  1.00  0.00     0.002 A 
ATOM    103  C   UNL A   1      35.697  33.202  30.932  1.00  0.00     0.091 A 
ATOM    104  F   UNL A   1      37.560  34.054  29.720  1.00  0.00    -0.205 F 
ATOM    105  C   UNL A   1      35.197  32.524  32.056  1.00  0.00     0.022 A 
BRANCH 103 106
ATOM    106  S   UNL A   1      34.496  33.792  29.732  1.00  0.00     0.127 S 
ATOM    107  O   UNL A   1      35.293  34.704  28.911  1.00  0.00    -0.237 OA
ATOM    108  O   UNL A   1      34.104  32.553  29.061  1.00  0.00    -0.237 OA
ATOM    109  O   UNL A   1      33.441  34.450  30.494  1.00  0.00    -0.744 OA
ENDBRANCH 103 106
ENDBRANCH  76  99
ENDBRANCH  50  51
ENDBRANCH  42  45
ENDBRANCH  40  41
ENDBRANCH   1  40
TORSDOF 18
ENDMDL
MODEL 3
REMARK VINA RESULT:     -10.3      3.598     11.081
REMARK SMILES Cc1oc2cc3c(cc2c1C)[C@H](C)[C@@H](CC(=O)N[C@H](CC1=c2ccccc2=NC1)C(=O)NCCCNC(=O)c1ccc(-c2c4nc(c(-c5cccc(S(=O)(=O)[O-])c5F)c5ccc([nH]5)c(-c5cccc(S(=O)(=O)[O-])c5F)c5nc(c(-c6cccc(S(=O)(=O)[O-])c6F)c6ccc2[nH]6)C=C5)C=C4)cc1)C(=O)O3
REMARK SMILES IDX 34 1 33 2 32 3 30 4 31 5 19 7 18 8 16 9 17 10 15 12 14 13
REMARK SMILES IDX 1 14 2 15 3 16 10 17 4 18 9 19 11 20 5 21 8 22 6 23 7 24
REMARK SMILES IDX 104 25 12 26 102 27 13 28 103 29 20 30 21 31 22 32 29 33
REMARK SMILES IDX 23 34 27 35 28 36 24 37 26 38 25 39 35 40 36 41 37 42 38 44
REMARK SMILES IDX 39 45 40 46 101 47 41 48 100 49 42 50 43 51 44 52 94 53
REMARK SMILES IDX 45 54 99 55 93 56 95 57 46 58 98 59 92 60 91 61 47 63 79 64
REMARK SMILES IDX 59 65 78 66 60 67 63 68 77 69 96 70 61 71 62 72 76 74 97 75
REMARK SMILES IDX 64 76 48 77 49 78 57 79 50 80 52 81 58 82 51 83 53 84 54 85
REMARK SMILES IDX 55 86 56 87 80 88 81 89 89 90 82 91 84 92 90 93 83 94 85 95
REMARK SMILES IDX 86 96 87 97 88 98 65 99 66 100 74 101 67 102 69 103 75 104
REMARK SMILES IDX 68 105 70 106 71 107 72 108 73 109
REMARK H PARENT 32 6 18 11 36 43 95 62 63 73
REMARK Flexibility Score: inf
ROOT
ATOM      1  C   UNL A   1      45.188  32.872  26.482  1.00  0.00     0.042 C 
ENDROOT
BRANCH   1   2
ATOM      2  C   UNL A   1      45.193  31.364  26.628  1.00  0.00     0.117 C 
BRANCH   2   3
ATOM      3  N   UNL A   1      46.060  30.620  25.746  1.00  0.00    -0.354 N 
ATOM      4  C   UNL A   1      46.273  29.301  25.541  1.00  0.00     0.242 C 
ATOM      5  O   UNL A   1      46.798  29.029  24.455  1.00  0.00    -0.273 OA
ATOM      6  H   UNL A   1      46.615  31.196  25.171  1.00  0.00     0.163 HD
BRANCH   4   7
ATOM      7  C   UNL A   1      45.900  28.178  26.522  1.00  0.00     0.175 C 
BRANCH   7   8
ATOM      8  N   UNL A   1      47.065  27.288  26.596  1.00  0.00    -0.344 N 
ATOM      9  C   UNL A   1      47.791  26.879  27.678  1.00  0.00     0.221 C 
ATOM     10  O   UNL A   1      48.952  26.510  27.471  1.00  0.00    -0.275 OA
ATOM     11  H   UNL A   1      47.371  26.931  25.730  1.00  0.00     0.164 HD
BRANCH   9  12
ATOM     12  C   UNL A   1      47.216  26.761  29.093  1.00  0.00     0.116 C 
BRANCH  12  13
ATOM     13  C   UNL A   1      47.945  27.539  30.203  1.00  0.00     0.116 C 
ATOM     14  C   UNL A   1      49.953  31.836  37.221  1.00  0.00     0.088 C 
ATOM     15  C   UNL A   1      49.537  30.894  36.161  1.00  0.00     0.105 A 
ATOM     16  O   UNL A   1      50.001  31.189  34.921  1.00  0.00    -0.461 OA
ATOM     17  C   UNL A   1      48.720  29.774  36.120  1.00  0.00    -0.002 A 
ATOM     18  C   UNL A   1      49.457  30.292  34.067  1.00  0.00     0.138 A 
ATOM     19  C   UNL A   1      48.707  29.343  34.750  1.00  0.00     0.024 A 
ATOM     20  C   UNL A   1      47.950  29.196  37.246  1.00  0.00     0.049 C 
ATOM     21  C   UNL A   1      49.562  30.368  32.694  1.00  0.00     0.095 A 
ATOM     22  C   UNL A   1      48.096  28.301  34.000  1.00  0.00     0.020 A 
ATOM     23  C   UNL A   1      48.806  29.430  31.996  1.00  0.00     0.138 A 
ATOM     24  C   UNL A   1      48.173  28.326  32.590  1.00  0.00    -0.001 A 
ATOM     25  O   UNL A   1      48.566  29.801  30.668  1.00  0.00    -0.426 OA
ATOM     26  C   UNL A   1      47.520  27.268  31.682  1.00  0.00     0.035 C 
ATOM     27  C   UNL A   1      47.635  29.010  30.046  1.00  0.00     0.315 C 
ATOM     28  C   UNL A   1      47.874  25.843  32.129  1.00  0.00     0.014 C 
ATOM     29  O   UNL A   1      46.665  29.473  29.458  1.00  0.00    -0.251 OA
ENDBRANCH  12  13
ENDBRANCH   9  12
ENDBRANCH   7   8
BRANCH   7  30
ATOM     30  C   UNL A   1      44.538  27.485  26.237  1.00  0.00     0.068 C 
BRANCH  30  31
ATOM     31  C   UNL A   1      44.290  26.160  26.935  1.00  0.00    -0.037 C 
ATOM     32  C   UNL A   1      44.030  25.865  28.210  1.00  0.00     0.001 A 
ATOM     33  C   UNL A   1      44.419  24.870  26.162  1.00  0.00     0.174 C 
ATOM     34  C   UNL A   1      43.643  26.565  29.388  1.00  0.00     0.010 A 
ATOM     35  C   UNL A   1      44.411  24.443  28.292  1.00  0.00     0.065 A 
ATOM     36  N   UNL A   1      44.618  23.807  27.179  1.00  0.00    -0.280 NA
ATOM     37  C   UNL A   1      43.840  26.011  30.593  1.00  0.00     0.001 A 
ATOM     38  C   UNL A   1      44.652  23.905  29.654  1.00  0.00     0.028 A 
ATOM     39  C   UNL A   1      44.429  24.695  30.718  1.00  0.00     0.002 A 
ENDBRANCH  30  31
ENDBRANCH   7  30
ENDBRANCH   4   7
ENDBRANCH   2   3
ENDBRANCH   1   2
BRANCH   1  40
ATOM     40  C   UNL A   1      43.867  33.628  26.426  1.00  0.00     0.118 C 
BRANCH  40  41
ATOM     41  N   UNL A   1      43.878  35.024  26.002  1.00  0.00    -0.352 N 
ATOM     42  C   UNL A   1      43.610  36.108  26.834  1.00  0.00     0.251 C 
ATOM     43  H   UNL A   1      44.092  35.213  25.060  1.00  0.00     0.163 HD
ATOM     44  O   UNL A   1      43.759  37.254  26.484  1.00  0.00    -0.269 OA
BRANCH  42  45
ATOM     45  C   UNL A   1      43.170  35.765  28.209  1.00  0.00     0.039 A 
ATOM     46  C   UNL A   1      44.138  35.547  29.190  1.00  0.00     0.014 A 
ATOM     47  C   UNL A   1      41.844  35.374  28.399  1.00  0.00     0.014 A 
ATOM     48  C   UNL A   1      43.807  34.783  30.309  1.00  0.00     0.010 A 
ATOM     49  C   UNL A   1      41.519  34.610  29.512  1.00  0.00     0.010 A 
ATOM     50  C   UNL A   1      42.509  34.268  30.446  1.00  0.00    -0.014 A 
BRANCH  50  51
ATOM     51  C   UNL A   1      42.222  33.324  31.546  1.00  0.00     0.031 A 
ATOM     52  C   UNL A   1      40.832  33.386  32.087  1.00  0.00     0.074 A 
ATOM     53  C   UNL A   1      42.849  32.126  31.602  1.00  0.00     0.049 A 
ATOM     54  N   UNL A   1      39.827  32.833  31.473  1.00  0.00    -0.248 NA
ATOM     55  C   UNL A   1      40.446  34.283  33.174  1.00  0.00     0.031 C 
ATOM     56  C   UNL A   1      43.422  31.451  30.425  1.00  0.00     0.029 A 
ATOM     57  N   UNL A   1      42.886  31.167  32.589  1.00  0.00    -0.354 N 
ATOM     58  C   UNL A   1      38.677  33.379  32.005  1.00  0.00     0.074 A 
ATOM     59  C   UNL A   1      39.106  34.238  33.089  1.00  0.00     0.031 C 
ATOM     60  C   UNL A   1      43.568  30.140  30.705  1.00  0.00     0.029 A 
ATOM     61  C   UNL A   1      43.268  29.914  32.114  1.00  0.00     0.049 A 
ATOM     62  H   UNL A   1      42.666  31.348  33.531  1.00  0.00     0.167 HD
ATOM     63  C   UNL A   1      37.440  33.133  31.498  1.00  0.00     0.034 A 
ATOM     64  C   UNL A   1      42.885  28.719  32.644  1.00  0.00     0.034 A 
ATOM     65  C   UNL A   1      37.394  32.272  30.352  1.00  0.00     0.049 A 
ATOM     66  C   UNL A   1      41.432  28.670  32.243  1.00  0.00     0.074 A 
ATOM     67  C   UNL A   1      37.390  32.437  28.983  1.00  0.00     0.029 A 
ATOM     68  N   UNL A   1      37.473  30.913  30.541  1.00  0.00    -0.354 N 
ATOM     69  N   UNL A   1      40.973  28.339  31.061  1.00  0.00    -0.248 NA
ATOM     70  C   UNL A   1      40.471  29.372  33.093  1.00  0.00     0.031 C 
ATOM     71  C   UNL A   1      37.909  31.218  28.444  1.00  0.00     0.029 A 
ATOM     72  C   UNL A   1      38.242  30.402  29.523  1.00  0.00     0.049 A 
ATOM     73  H   UNL A   1      37.056  30.400  31.270  1.00  0.00     0.167 HD
ATOM     74  C   UNL A   1      39.788  29.068  30.913  1.00  0.00     0.074 A 
ATOM     75  C   UNL A   1      39.519  29.645  32.213  1.00  0.00     0.031 C 
ATOM     76  C   UNL A   1      39.189  29.321  29.713  1.00  0.00     0.034 A 
BRANCH  63  77
ATOM     77  C   UNL A   1      36.193  33.610  32.130  1.00  0.00     0.023 A 
ATOM     78  C   UNL A   1      35.890  33.093  33.405  1.00  0.00     0.012 A 
ATOM     79  C   UNL A   1      35.258  34.418  31.463  1.00  0.00     0.148 A 
ATOM     80  C   UNL A   1      34.658  33.349  33.999  1.00  0.00     0.002 A 
ATOM     81  C   UNL A   1      34.029  34.672  32.065  1.00  0.00     0.091 A 
ATOM     82  F   UNL A   1      35.568  34.886  30.245  1.00  0.00    -0.205 F 
ATOM     83  C   UNL A   1      33.726  34.133  33.327  1.00  0.00     0.022 A 
BRANCH  81  84
ATOM     84  S   UNL A   1      32.753  35.675  31.295  1.00  0.00     0.127 S 
ATOM     85  O   UNL A   1      32.544  34.978  30.028  1.00  0.00    -0.237 OA
ATOM     86  O   UNL A   1      31.651  35.550  32.249  1.00  0.00    -0.237 OA
ATOM     87  O   UNL A   1      33.309  37.017  31.191  1.00  0.00    -0.744 OA
ENDBRANCH  81  84
ENDBRANCH  63  77
BRANCH  64  88
ATOM     88  C   UNL A   1      43.402  28.480  34.034  1.00  0.00     0.023 A 
ATOM     89  C   UNL A   1      44.296  29.457  34.543  1.00  0.00     0.012 A 
ATOM     90  C   UNL A   1      43.067  27.411  34.882  1.00  0.00     0.148 A 
ATOM     91  C   UNL A   1      44.738  29.438  35.867  1.00  0.00     0.002 A 
ATOM     92  C   UNL A   1      43.448  27.434  36.225  1.00  0.00     0.091 A 
ATOM     93  F   UNL A   1      42.384  26.373  34.388  1.00  0.00    -0.205 F 
ATOM     94  C   UNL A   1      44.282  28.445  36.720  1.00  0.00     0.022 A 
BRANCH  92  95
ATOM     95  S   UNL A   1      42.810  26.257  37.426  1.00  0.00     0.127 S 
ATOM     96  O   UNL A   1      43.544  26.625  38.634  1.00  0.00    -0.237 OA
ATOM     97  O   UNL A   1      41.389  26.599  37.438  1.00  0.00    -0.237 OA
ATOM     98  O   UNL A   1      43.121  24.938  36.892  1.00  0.00    -0.744 OA
ENDBRANCH  92  95
ENDBRANCH  64  88
BRANCH  76  99
ATOM     99  C   UNL A   1      39.707  28.567  28.526  1.00  0.00     0.023 A 
ATOM    100  C   UNL A   1      40.386  29.287  27.526  1.00  0.00     0.012 A 
ATOM    101  C   UNL A   1      39.618  27.163  28.422  1.00  0.00     0.148 A 
ATOM    102  C   UNL A   1      40.995  28.626  26.459  1.00  0.00     0.002 A 
ATOM    103  C   UNL A   1      40.255  26.507  27.374  1.00  0.00     0.091 A 
ATOM    104  F   UNL A   1      38.942  26.484  29.360  1.00  0.00    -0.205 F 
ATOM    105  C   UNL A   1      40.944  27.237  26.391  1.00  0.00     0.022 A 
BRANCH 103 106
ATOM    106  S   UNL A   1      40.281  24.715  27.230  1.00  0.00     0.127 S 
ATOM    107  O   UNL A   1      41.058  24.509  26.007  1.00  0.00    -0.237 OA
ATOM    108  O   UNL A   1      40.964  24.321  28.460  1.00  0.00    -0.237 OA
ATOM    109  O   UNL A   1      38.890  24.291  27.125  1.00  0.00    -0.744 OA
ENDBRANCH 103 106
ENDBRANCH  76  99
ENDBRANCH  50  51
ENDBRANCH  42  45
ENDBRANCH  40  41
ENDBRANCH   1  40
TORSDOF 18
ENDMDL
