MODEL 1
REMARK VINA RESULT:     -11.7      0.000      0.000
REMARK SMILES COc1ccccc1-c1nnc(SCCC(=O)NCCCNC(=O)c2ccc(-c3c4nc(c(-c5cccc(S(=O)(=O)[O-])c5F)c5ccc([nH]5)c(-c5cccc(S(=O)(=O)[O-])c5F)c5nc(c(-c6cccc(S(=O)(=O)[O-])c6F)c6ccc3[nH]6)C=C5)C=C4)cc2)o1
REMARK SMILES IDX 19 1 18 2 16 3 17 4 15 6 14 7 13 8 12 9 9 10 10 11 88 12
REMARK SMILES IDX 11 13 8 14 3 15 4 16 5 17 7 18 6 19 2 20 1 21 20 22 21 23
REMARK SMILES IDX 22 24 23 25 24 27 25 28 26 29 87 30 27 31 86 32 28 33 29 34
REMARK SMILES IDX 30 35 80 36 31 37 85 38 79 39 81 40 32 41 84 42 78 43 77 44
REMARK SMILES IDX 33 46 65 47 45 48 64 49 46 50 49 51 63 52 82 53 47 54 48 55
REMARK SMILES IDX 62 57 83 58 50 59 34 60 35 61 43 62 36 63 38 64 44 65 37 66
REMARK SMILES IDX 39 67 40 68 41 69 42 70 66 71 67 72 75 73 68 74 70 75 76 76
REMARK SMILES IDX 69 77 71 78 72 79 73 80 74 81 51 82 52 83 60 84 53 85 55 86
REMARK SMILES IDX 61 87 54 88 56 89 57 90 58 91 59 92
REMARK H PARENT 18 5 22 26 81 45 49 56
REMARK Flexibility Score: inf
ROOT
ATOM      1  C   UNL A   1      35.372  20.429  24.810  1.00  0.00     0.117 C 
ENDROOT
BRANCH   1   2
ATOM      2  N   UNL A   1      34.249  19.719  25.397  1.00  0.00    -0.356 N 
ATOM      3  C   UNL A   1      32.932  19.705  25.055  1.00  0.00     0.220 C 
ATOM      4  O   UNL A   1      32.226  18.753  25.390  1.00  0.00    -0.275 OA
ATOM      5  H   UNL A   1      34.478  19.156  26.172  1.00  0.00     0.163 HD
BRANCH   3   6
ATOM      6  C   UNL A   1      32.318  20.878  24.351  1.00  0.00     0.111 C 
BRANCH   6   7
ATOM      7  C   UNL A   1      31.724  21.839  25.380  1.00  0.00     0.090 C 
BRANCH   7   8
ATOM      8  S   UNL A   1      32.801  23.211  25.850  1.00  0.00    -0.065 SA
BRANCH   8   9
ATOM      9  C   UNL A   1      31.818  24.648  25.782  1.00  0.00     0.276 A 
ATOM     10  C   UNL A   1      30.659  26.351  25.205  1.00  0.00     0.252 A 
ATOM     11  N   UNL A   1      30.542  26.240  26.513  1.00  0.00    -0.107 NA
ATOM     12  O   UNL A   1      31.471  25.377  24.665  1.00  0.00    -0.411 OA
ATOM     13  N   UNL A   1      31.272  25.137  26.878  1.00  0.00    -0.101 NA
BRANCH  10  14
ATOM     14  C   UNL A   1      30.105  27.400  24.357  1.00  0.00     0.081 A 
ATOM     15  C   UNL A   1      30.752  28.600  24.033  1.00  0.00     0.131 A 
ATOM     16  C   UNL A   1      30.095  29.579  23.270  1.00  0.00     0.047 A 
ATOM     17  C   UNL A   1      28.844  29.321  22.713  1.00  0.00     0.004 A 
ATOM     18  C   UNL A   1      28.857  27.147  23.754  1.00  0.00     0.018 A 
ATOM     19  C   UNL A   1      28.238  28.091  22.930  1.00  0.00     0.001 A 
BRANCH  15  20
ATOM     20  O   UNL A   1      32.034  28.831  24.457  1.00  0.00    -0.496 OA
ATOM     21  C   UNL A   1      32.980  28.797  23.384  1.00  0.00     0.278 C 
ENDBRANCH  15  20
ENDBRANCH  10  14
ENDBRANCH   8   9
ENDBRANCH   7   8
ENDBRANCH   6   7
ENDBRANCH   3   6
ENDBRANCH   1   2
BRANCH   1  22
ATOM     22  C   UNL A   1      36.081  21.414  25.737  1.00  0.00     0.042 C 
BRANCH  22  23
ATOM     23  C   UNL A   1      37.503  21.806  25.335  1.00  0.00     0.118 C 
BRANCH  23  24
ATOM     24  N   UNL A   1      38.517  20.856  25.754  1.00  0.00    -0.352 N 
ATOM     25  C   UNL A   1      39.708  21.089  26.404  1.00  0.00     0.251 C 
ATOM     26  H   UNL A   1      38.327  19.913  25.544  1.00  0.00     0.163 HD
ATOM     27  O   UNL A   1      40.458  20.141  26.635  1.00  0.00    -0.269 OA
BRANCH  25  28
ATOM     28  C   UNL A   1      40.125  22.462  26.788  1.00  0.00     0.039 A 
ATOM     29  C   UNL A   1      41.081  22.598  27.800  1.00  0.00     0.014 A 
ATOM     30  C   UNL A   1      39.577  23.606  26.200  1.00  0.00     0.014 A 
ATOM     31  C   UNL A   1      41.521  23.867  28.186  1.00  0.00     0.010 A 
ATOM     32  C   UNL A   1      40.053  24.875  26.556  1.00  0.00     0.010 A 
ATOM     33  C   UNL A   1      41.030  25.021  27.553  1.00  0.00    -0.014 A 
BRANCH  33  34
ATOM     34  C   UNL A   1      41.568  26.363  27.918  1.00  0.00     0.031 A 
ATOM     35  C   UNL A   1      42.988  26.750  27.593  1.00  0.00     0.074 A 
ATOM     36  C   UNL A   1      40.781  27.242  28.571  1.00  0.00     0.049 A 
ATOM     37  N   UNL A   1      43.598  27.891  27.795  1.00  0.00    -0.248 NA
ATOM     38  C   UNL A   1      43.834  25.721  26.971  1.00  0.00     0.031 C 
ATOM     39  C   UNL A   1      39.408  26.980  29.005  1.00  0.00     0.029 A 
ATOM     40  N   UNL A   1      41.023  28.526  28.997  1.00  0.00    -0.354 N 
ATOM     41  C   UNL A   1      44.903  27.714  27.349  1.00  0.00     0.074 A 
ATOM     42  C   UNL A   1      45.003  26.344  26.888  1.00  0.00     0.031 C 
ATOM     43  C   UNL A   1      38.929  28.067  29.629  1.00  0.00     0.029 A 
ATOM     44  C   UNL A   1      39.964  29.095  29.666  1.00  0.00     0.049 A 
ATOM     45  H   UNL A   1      41.875  28.995  28.839  1.00  0.00     0.167 HD
ATOM     46  C   UNL A   1      45.920  28.610  27.305  1.00  0.00     0.034 A 
ATOM     47  C   UNL A   1      39.839  30.303  30.253  1.00  0.00     0.034 A 
ATOM     48  C   UNL A   1      45.820  29.976  27.747  1.00  0.00     0.049 A 
ATOM     49  C   UNL A   1      40.979  31.284  30.180  1.00  0.00     0.074 A 
ATOM     50  C   UNL A   1      46.773  30.978  27.666  1.00  0.00     0.029 A 
ATOM     51  N   UNL A   1      44.716  30.532  28.374  1.00  0.00    -0.354 N 
ATOM     52  N   UNL A   1      42.147  31.151  29.602  1.00  0.00    -0.248 NA
ATOM     53  C   UNL A   1      40.768  32.597  30.808  1.00  0.00     0.031 C 
ATOM     54  C   UNL A   1      46.259  32.126  28.279  1.00  0.00     0.029 A 
ATOM     55  C   UNL A   1      44.970  31.854  28.703  1.00  0.00     0.049 A 
ATOM     56  H   UNL A   1      43.873  30.057  28.557  1.00  0.00     0.167 HD
ATOM     57  C   UNL A   1      42.796  32.370  29.765  1.00  0.00     0.074 A 
ATOM     58  C   UNL A   1      41.881  33.239  30.477  1.00  0.00     0.031 C 
ATOM     59  C   UNL A   1      44.042  32.732  29.369  1.00  0.00     0.034 A 
BRANCH  46  60
ATOM     60  C   UNL A   1      47.234  28.151  26.722  1.00  0.00     0.023 A 
ATOM     61  C   UNL A   1      48.291  27.790  27.582  1.00  0.00     0.012 A 
ATOM     62  C   UNL A   1      47.401  28.011  25.329  1.00  0.00     0.148 A 
ATOM     63  C   UNL A   1      49.505  27.337  27.068  1.00  0.00     0.002 A 
ATOM     64  C   UNL A   1      48.598  27.514  24.825  1.00  0.00     0.091 A 
ATOM     65  F   UNL A   1      46.390  28.370  24.524  1.00  0.00    -0.205 F 
ATOM     66  C   UNL A   1      49.654  27.189  25.692  1.00  0.00     0.022 A 
BRANCH  64  67
ATOM     67  S   UNL A   1      48.861  27.210  23.075  1.00  0.00     0.127 S 
ATOM     68  O   UNL A   1      50.320  27.133  23.006  1.00  0.00    -0.237 OA
ATOM     69  O   UNL A   1      48.176  25.932  22.878  1.00  0.00    -0.237 OA
ATOM     70  O   UNL A   1      48.261  28.336  22.375  1.00  0.00    -0.744 OA
ENDBRANCH  64  67
ENDBRANCH  46  60
BRANCH  47  71
ATOM     71  C   UNL A   1      38.558  30.676  30.920  1.00  0.00     0.023 A 
ATOM     72  C   UNL A   1      38.360  30.354  32.278  1.00  0.00     0.012 A 
ATOM     73  C   UNL A   1      37.545  31.362  30.222  1.00  0.00     0.148 A 
ATOM     74  C   UNL A   1      37.164  30.679  32.919  1.00  0.00     0.002 A 
ATOM     75  C   UNL A   1      36.380  31.734  30.883  1.00  0.00     0.091 A 
ATOM     76  F   UNL A   1      37.748  31.648  28.930  1.00  0.00    -0.205 F 
ATOM     77  C   UNL A   1      36.179  31.377  32.225  1.00  0.00     0.022 A 
BRANCH  75  78
ATOM     78  S   UNL A   1      35.113  32.745  30.110  1.00  0.00     0.127 S 
ATOM     79  O   UNL A   1      35.893  33.888  29.634  1.00  0.00    -0.237 OA
ATOM     80  O   UNL A   1      34.621  31.855  29.057  1.00  0.00    -0.237 OA
ATOM     81  O   UNL A   1      34.143  33.036  31.154  1.00  0.00    -0.744 OA
ENDBRANCH  75  78
ENDBRANCH  47  71
BRANCH  59  82
ATOM     82  C   UNL A   1      44.490  34.144  29.657  1.00  0.00     0.023 A 
ATOM     83  C   UNL A   1      45.162  34.441  30.860  1.00  0.00     0.012 A 
ATOM     84  C   UNL A   1      44.303  35.164  28.702  1.00  0.00     0.148 A 
ATOM     85  C   UNL A   1      45.610  35.737  31.122  1.00  0.00     0.002 A 
ATOM     86  C   UNL A   1      44.798  36.440  28.948  1.00  0.00     0.091 A 
ATOM     87  F   UNL A   1      43.645  34.869  27.571  1.00  0.00    -0.205 F 
ATOM     88  C   UNL A   1      45.439  36.731  30.162  1.00  0.00     0.022 A 
BRANCH  86  89
ATOM     89  S   UNL A   1      44.711  37.761  27.732  1.00  0.00     0.127 S 
ATOM     90  O   UNL A   1      45.229  38.899  28.491  1.00  0.00    -0.237 OA
ATOM     91  O   UNL A   1      45.602  37.272  26.680  1.00  0.00    -0.237 OA
ATOM     92  O   UNL A   1      43.310  37.859  27.343  1.00  0.00    -0.744 OA
ENDBRANCH  86  89
ENDBRANCH  59  82
ENDBRANCH  33  34
ENDBRANCH  25  28
ENDBRANCH  23  24
ENDBRANCH  22  23
ENDBRANCH   1  22
TORSDOF 18
ENDMDL
MODEL 2
REMARK VINA RESULT:     -11.6      5.040     10.113
REMARK SMILES COc1ccccc1-c1nnc(SCCC(=O)NCCCNC(=O)c2ccc(-c3c4nc(c(-c5cccc(S(=O)(=O)[O-])c5F)c5ccc([nH]5)c(-c5cccc(S(=O)(=O)[O-])c5F)c5nc(c(-c6cccc(S(=O)(=O)[O-])c6F)c6ccc3[nH]6)C=C5)C=C4)cc2)o1
REMARK SMILES IDX 19 1 18 2 16 3 17 4 15 6 14 7 13 8 12 9 9 10 10 11 88 12
REMARK SMILES IDX 11 13 8 14 3 15 4 16 5 17 7 18 6 19 2 20 1 21 20 22 21 23
REMARK SMILES IDX 22 24 23 25 24 27 25 28 26 29 87 30 27 31 86 32 28 33 29 34
REMARK SMILES IDX 30 35 80 36 31 37 85 38 79 39 81 40 32 41 84 42 78 43 77 44
REMARK SMILES IDX 33 46 65 47 45 48 64 49 46 50 49 51 63 52 82 53 47 54 48 55
REMARK SMILES IDX 62 57 83 58 50 59 34 60 35 61 43 62 36 63 38 64 44 65 37 66
REMARK SMILES IDX 39 67 40 68 41 69 42 70 66 71 67 72 75 73 68 74 70 75 76 76
REMARK SMILES IDX 69 77 71 78 72 79 73 80 74 81 51 82 52 83 60 84 53 85 55 86
REMARK SMILES IDX 61 87 54 88 56 89 57 90 58 91 59 92
REMARK H PARENT 18 5 22 26 81 45 49 56
REMARK Flexibility Score: inf
ROOT
ATOM      1  C   UNL A   1      31.853  29.060  24.925  1.00  0.00     0.117 C 
ENDROOT
BRANCH   1   2
ATOM      2  N   UNL A   1      31.401  29.396  23.586  1.00  0.00    -0.356 N 
ATOM      3  C   UNL A   1      30.628  28.699  22.710  1.00  0.00     0.220 C 
ATOM      4  O   UNL A   1      30.022  29.299  21.822  1.00  0.00    -0.275 OA
ATOM      5  H   UNL A   1      31.705  30.273  23.257  1.00  0.00     0.163 HD
BRANCH   3   6
ATOM      6  C   UNL A   1      30.580  27.201  22.766  1.00  0.00     0.111 C 
BRANCH   6   7
ATOM      7  C   UNL A   1      29.479  26.760  23.729  1.00  0.00     0.090 C 
BRANCH   7   8
ATOM      8  S   UNL A   1      30.050  25.804  25.152  1.00  0.00    -0.065 SA
BRANCH   8   9
ATOM      9  C   UNL A   1      31.156  24.611  24.526  1.00  0.00     0.276 A 
ATOM     10  C   UNL A   1      32.813  23.323  24.118  1.00  0.00     0.252 A 
ATOM     11  N   UNL A   1      31.822  22.919  23.349  1.00  0.00    -0.107 NA
ATOM     12  O   UNL A   1      32.469  24.410  24.892  1.00  0.00    -0.411 OA
ATOM     13  N   UNL A   1      30.755  23.735  23.626  1.00  0.00    -0.101 NA
BRANCH  10  14
ATOM     14  C   UNL A   1      34.174  22.799  24.149  1.00  0.00     0.081 A 
ATOM     15  C   UNL A   1      34.596  21.694  24.903  1.00  0.00     0.131 A 
ATOM     16  C   UNL A   1      35.949  21.321  24.921  1.00  0.00     0.047 A 
ATOM     17  C   UNL A   1      36.870  21.956  24.091  1.00  0.00     0.004 A 
ATOM     18  C   UNL A   1      35.115  23.402  23.291  1.00  0.00     0.018 A 
ATOM     19  C   UNL A   1      36.446  22.978  23.252  1.00  0.00     0.001 A 
BRANCH  15  20
ATOM     20  O   UNL A   1      33.690  20.968  25.631  1.00  0.00    -0.496 OA
ATOM     21  C   UNL A   1      33.437  19.681  25.059  1.00  0.00     0.278 C 
ENDBRANCH  15  20
ENDBRANCH  10  14
ENDBRANCH   8   9
ENDBRANCH   7   8
ENDBRANCH   6   7
ENDBRANCH   3   6
ENDBRANCH   1   2
BRANCH   1  22
ATOM     22  C   UNL A   1      33.169  28.289  24.998  1.00  0.00     0.042 C 
BRANCH  22  23
ATOM     23  C   UNL A   1      34.182  28.789  26.029  1.00  0.00     0.118 C 
BRANCH  23  24
ATOM     24  N   UNL A   1      33.780  30.009  26.705  1.00  0.00    -0.352 N 
ATOM     25  C   UNL A   1      34.463  30.743  27.649  1.00  0.00     0.251 C 
ATOM     26  H   UNL A   1      32.896  30.363  26.452  1.00  0.00     0.163 HD
ATOM     27  O   UNL A   1      33.925  31.735  28.137  1.00  0.00    -0.269 OA
BRANCH  25  28
ATOM     28  C   UNL A   1      35.809  30.332  28.122  1.00  0.00     0.039 A 
ATOM     29  C   UNL A   1      35.898  29.664  29.348  1.00  0.00     0.014 A 
ATOM     30  C   UNL A   1      36.977  30.615  27.405  1.00  0.00     0.014 A 
ATOM     31  C   UNL A   1      37.140  29.240  29.830  1.00  0.00     0.010 A 
ATOM     32  C   UNL A   1      38.215  30.148  27.868  1.00  0.00     0.010 A 
ATOM     33  C   UNL A   1      38.311  29.455  29.085  1.00  0.00    -0.014 A 
BRANCH  33  34
ATOM     34  C   UNL A   1      39.618  28.926  29.572  1.00  0.00     0.031 A 
ATOM     35  C   UNL A   1      40.358  29.593  30.702  1.00  0.00     0.074 A 
ATOM     36  C   UNL A   1      40.161  27.843  28.979  1.00  0.00     0.049 A 
ATOM     37  N   UNL A   1      41.478  29.235  31.279  1.00  0.00    -0.248 NA
ATOM     38  C   UNL A   1      39.772  30.827  31.248  1.00  0.00     0.031 C 
ATOM     39  C   UNL A   1      39.587  27.135  27.834  1.00  0.00     0.029 A 
ATOM     40  N   UNL A   1      41.323  27.158  29.243  1.00  0.00    -0.354 N 
ATOM     41  C   UNL A   1      41.745  30.206  32.237  1.00  0.00     0.074 A 
ATOM     42  C   UNL A   1      40.681  31.184  32.146  1.00  0.00     0.031 C 
ATOM     43  C   UNL A   1      40.392  26.115  27.499  1.00  0.00     0.029 A 
ATOM     44  C   UNL A   1      41.554  26.109  28.384  1.00  0.00     0.049 A 
ATOM     45  H   UNL A   1      41.933  27.396  29.979  1.00  0.00     0.167 HD
ATOM     46  C   UNL A   1      42.767  30.270  33.126  1.00  0.00     0.034 A 
ATOM     47  C   UNL A   1      42.585  25.244  28.305  1.00  0.00     0.034 A 
ATOM     48  C   UNL A   1      43.818  29.291  33.231  1.00  0.00     0.049 A 
ATOM     49  C   UNL A   1      43.703  25.330  29.311  1.00  0.00     0.074 A 
ATOM     50  C   UNL A   1      44.849  29.232  34.154  1.00  0.00     0.029 A 
ATOM     51  N   UNL A   1      43.991  28.215  32.375  1.00  0.00    -0.354 N 
ATOM     52  N   UNL A   1      43.846  26.159  30.317  1.00  0.00    -0.248 NA
ATOM     53  C   UNL A   1      44.781  24.337  29.195  1.00  0.00     0.031 C 
ATOM     54  C   UNL A   1      45.667  28.143  33.832  1.00  0.00     0.029 A 
ATOM     55  C   UNL A   1      45.122  27.498  32.735  1.00  0.00     0.049 A 
ATOM     56  H   UNL A   1      43.397  27.991  31.622  1.00  0.00     0.167 HD
ATOM     57  C   UNL A   1      45.008  25.766  30.973  1.00  0.00     0.074 A 
ATOM     58  C   UNL A   1      45.519  24.611  30.263  1.00  0.00     0.031 C 
ATOM     59  C   UNL A   1      45.603  26.321  32.058  1.00  0.00     0.034 A 
BRANCH  46  60
ATOM     60  C   UNL A   1      42.784  31.429  34.092  1.00  0.00     0.023 A 
ATOM     61  C   UNL A   1      43.396  32.643  33.716  1.00  0.00     0.012 A 
ATOM     62  C   UNL A   1      42.137  31.342  35.341  1.00  0.00     0.148 A 
ATOM     63  C   UNL A   1      43.399  33.737  34.580  1.00  0.00     0.002 A 
ATOM     64  C   UNL A   1      42.103  32.452  36.179  1.00  0.00     0.091 A 
ATOM     65  F   UNL A   1      41.570  30.178  35.689  1.00  0.00    -0.205 F 
ATOM     66  C   UNL A   1      42.745  33.644  35.806  1.00  0.00     0.022 A 
BRANCH  64  67
ATOM     67  S   UNL A   1      41.219  32.461  37.742  1.00  0.00     0.127 S 
ATOM     68  O   UNL A   1      42.037  31.556  38.549  1.00  0.00    -0.237 OA
ATOM     69  O   UNL A   1      41.302  33.868  38.135  1.00  0.00    -0.237 OA
ATOM     70  O   UNL A   1      39.873  31.992  37.447  1.00  0.00    -0.744 OA
ENDBRANCH  64  67
ENDBRANCH  46  60
BRANCH  47  71
ATOM     71  C   UNL A   1      42.586  24.180  27.260  1.00  0.00     0.023 A 
ATOM     72  C   UNL A   1      43.466  24.280  26.164  1.00  0.00     0.012 A 
ATOM     73  C   UNL A   1      41.733  23.064  27.356  1.00  0.00     0.148 A 
ATOM     74  C   UNL A   1      43.473  23.305  25.166  1.00  0.00     0.002 A 
ATOM     75  C   UNL A   1      41.786  22.067  26.388  1.00  0.00     0.091 A 
ATOM     76  F   UNL A   1      40.895  22.994  28.398  1.00  0.00    -0.205 F 
ATOM     77  C   UNL A   1      42.641  22.195  25.283  1.00  0.00     0.022 A 
BRANCH  75  78
ATOM     78  S   UNL A   1      40.847  20.541  26.521  1.00  0.00     0.127 S 
ATOM     79  O   UNL A   1      41.572  19.664  25.602  1.00  0.00    -0.237 OA
ATOM     80  O   UNL A   1      41.009  20.214  27.939  1.00  0.00    -0.237 OA
ATOM     81  O   UNL A   1      39.487  20.877  26.132  1.00  0.00    -0.744 OA
ENDBRANCH  75  78
ENDBRANCH  47  71
BRANCH  59  82
ATOM     82  C   UNL A   1      46.859  25.670  32.583  1.00  0.00     0.023 A 
ATOM     83  C   UNL A   1      48.118  26.047  32.073  1.00  0.00     0.012 A 
ATOM     84  C   UNL A   1      46.794  24.730  33.632  1.00  0.00     0.148 A 
ATOM     85  C   UNL A   1      49.288  25.475  32.574  1.00  0.00     0.002 A 
ATOM     86  C   UNL A   1      47.967  24.203  34.161  1.00  0.00     0.091 A 
ATOM     87  F   UNL A   1      45.588  24.368  34.093  1.00  0.00    -0.205 F 
ATOM     88  C   UNL A   1      49.213  24.564  33.625  1.00  0.00     0.022 A 
BRANCH  86  89
ATOM     89  S   UNL A   1      47.976  23.098  35.578  1.00  0.00     0.127 S 
ATOM     90  O   UNL A   1      49.408  22.881  35.778  1.00  0.00    -0.237 OA
ATOM     91  O   UNL A   1      47.332  23.911  36.609  1.00  0.00    -0.237 OA
ATOM     92  O   UNL A   1      47.219  21.920  35.175  1.00  0.00    -0.744 OA
ENDBRANCH  86  89
ENDBRANCH  59  82
ENDBRANCH  33  34
ENDBRANCH  25  28
ENDBRANCH  23  24
ENDBRANCH  22  23
ENDBRANCH   1  22
TORSDOF 18
ENDMDL
MODEL 3
REMARK VINA RESULT:     -11.6      4.669      9.958
REMARK SMILES COc1ccccc1-c1nnc(SCCC(=O)NCCCNC(=O)c2ccc(-c3c4nc(c(-c5cccc(S(=O)(=O)[O-])c5F)c5ccc([nH]5)c(-c5cccc(S(=O)(=O)[O-])c5F)c5nc(c(-c6cccc(S(=O)(=O)[O-])c6F)c6ccc3[nH]6)C=C5)C=C4)cc2)o1
REMARK SMILES IDX 19 1 18 2 16 3 17 4 15 6 14 7 13 8 12 9 9 10 10 11 88 12
REMARK SMILES IDX 11 13 8 14 3 15 4 16 5 17 7 18 6 19 2 20 1 21 20 22 21 23
REMARK SMILES IDX 22 24 23 25 24 27 25 28 26 29 87 30 27 31 86 32 28 33 29 34
REMARK SMILES IDX 30 35 80 36 31 37 85 38 79 39 81 40 32 41 84 42 78 43 77 44
REMARK SMILES IDX 33 46 65 47 45 48 64 49 46 50 49 51 63 52 82 53 47 54 48 55
REMARK SMILES IDX 62 57 83 58 50 59 34 60 35 61 43 62 36 63 38 64 44 65 37 66
REMARK SMILES IDX 39 67 40 68 41 69 42 70 66 71 67 72 75 73 68 74 70 75 76 76
REMARK SMILES IDX 69 77 71 78 72 79 73 80 74 81 51 82 52 83 60 84 53 85 55 86
REMARK SMILES IDX 61 87 54 88 56 89 57 90 58 91 59 92
REMARK H PARENT 18 5 22 26 81 45 49 56
REMARK Flexibility Score: inf
ROOT
ATOM      1  C   UNL A   1      31.461  29.478  25.547  1.00  0.00     0.117 C 
ENDROOT
BRANCH   1   2
ATOM      2  N   UNL A   1      31.217  29.842  24.162  1.00  0.00    -0.356 N 
ATOM      3  C   UNL A   1      30.495  29.215  23.193  1.00  0.00     0.220 C 
ATOM      4  O   UNL A   1      30.069  29.863  22.237  1.00  0.00    -0.275 OA
ATOM      5  H   UNL A   1      31.645  30.682  23.876  1.00  0.00     0.163 HD
BRANCH   3   6
ATOM      6  C   UNL A   1      30.293  27.730  23.240  1.00  0.00     0.111 C 
BRANCH   6   7
ATOM      7  C   UNL A   1      31.126  27.066  22.144  1.00  0.00     0.090 C 
BRANCH   7   8
ATOM      8  S   UNL A   1      32.913  27.135  22.399  1.00  0.00    -0.065 SA
BRANCH   8   9
ATOM      9  C   UNL A   1      33.460  25.482  22.469  1.00  0.00     0.276 A 
ATOM     10  C   UNL A   1      34.284  23.584  23.013  1.00  0.00     0.252 A 
ATOM     11  N   UNL A   1      33.682  23.417  21.853  1.00  0.00    -0.107 NA
ATOM     12  O   UNL A   1      34.197  24.883  23.467  1.00  0.00    -0.411 OA
ATOM     13  N   UNL A   1      33.140  24.631  21.514  1.00  0.00    -0.101 NA
BRANCH  10  14
ATOM     14  C   UNL A   1      35.051  22.594  23.759  1.00  0.00     0.081 A 
ATOM     15  C   UNL A   1      34.505  21.498  24.442  1.00  0.00     0.131 A 
ATOM     16  C   UNL A   1      35.329  20.648  25.196  1.00  0.00     0.047 A 
ATOM     17  C   UNL A   1      36.714  20.798  25.170  1.00  0.00     0.004 A 
ATOM     18  C   UNL A   1      36.455  22.704  23.719  1.00  0.00     0.018 A 
ATOM     19  C   UNL A   1      37.279  21.809  24.406  1.00  0.00     0.001 A 
BRANCH  15  20
ATOM     20  O   UNL A   1      33.160  21.247  24.381  1.00  0.00    -0.496 OA
ATOM     21  C   UNL A   1      32.862  19.848  24.431  1.00  0.00     0.278 C 
ENDBRANCH  15  20
ENDBRANCH  10  14
ENDBRANCH   8   9
ENDBRANCH   7   8
ENDBRANCH   6   7
ENDBRANCH   3   6
ENDBRANCH   1   2
BRANCH   1  22
ATOM     22  C   UNL A   1      32.619  28.509  25.774  1.00  0.00     0.042 C 
BRANCH  22  23
ATOM     23  C   UNL A   1      33.955  29.143  26.164  1.00  0.00     0.118 C 
BRANCH  23  24
ATOM     24  N   UNL A   1      33.833  30.480  26.717  1.00  0.00    -0.352 N 
ATOM     25  C   UNL A   1      34.653  31.125  27.615  1.00  0.00     0.251 C 
ATOM     26  H   UNL A   1      33.055  30.998  26.407  1.00  0.00     0.163 HD
ATOM     27  O   UNL A   1      34.349  32.254  27.996  1.00  0.00    -0.269 OA
BRANCH  25  28
ATOM     28  C   UNL A   1      35.867  30.468  28.164  1.00  0.00     0.039 A 
ATOM     29  C   UNL A   1      37.062  30.596  27.449  1.00  0.00     0.014 A 
ATOM     30  C   UNL A   1      35.845  29.713  29.341  1.00  0.00     0.014 A 
ATOM     31  C   UNL A   1      38.237  30.013  27.933  1.00  0.00     0.010 A 
ATOM     32  C   UNL A   1      37.034  29.169  29.848  1.00  0.00     0.010 A 
ATOM     33  C   UNL A   1      38.243  29.312  29.149  1.00  0.00    -0.014 A 
BRANCH  33  34
ATOM     34  C   UNL A   1      39.520  28.765  29.694  1.00  0.00     0.031 A 
ATOM     35  C   UNL A   1      40.175  29.375  30.905  1.00  0.00     0.074 A 
ATOM     36  C   UNL A   1      40.112  27.720  29.081  1.00  0.00     0.049 A 
ATOM     37  N   UNL A   1      41.258  28.993  31.537  1.00  0.00    -0.248 NA
ATOM     38  C   UNL A   1      39.542  30.573  31.476  1.00  0.00     0.031 C 
ATOM     39  C   UNL A   1      39.623  27.071  27.863  1.00  0.00     0.029 A 
ATOM     40  N   UNL A   1      41.261  27.028  29.386  1.00  0.00    -0.354 N 
ATOM     41  C   UNL A   1      41.450  29.912  32.561  1.00  0.00     0.074 A 
ATOM     42  C   UNL A   1      40.385  30.887  32.451  1.00  0.00     0.031 C 
ATOM     43  C   UNL A   1      40.459  26.076  27.530  1.00  0.00     0.029 A 
ATOM     44  C   UNL A   1      41.559  26.030  28.488  1.00  0.00     0.049 A 
ATOM     45  H   UNL A   1      41.817  27.230  30.173  1.00  0.00     0.167 HD
ATOM     46  C   UNL A   1      42.410  29.935  33.519  1.00  0.00     0.034 A 
ATOM     47  C   UNL A   1      42.603  25.177  28.434  1.00  0.00     0.034 A 
ATOM     48  C   UNL A   1      43.461  28.958  33.642  1.00  0.00     0.049 A 
ATOM     49  C   UNL A   1      43.649  25.215  29.516  1.00  0.00     0.074 A 
ATOM     50  C   UNL A   1      44.429  28.856  34.628  1.00  0.00     0.029 A 
ATOM     51  N   UNL A   1      43.702  27.931  32.743  1.00  0.00    -0.354 N 
ATOM     52  N   UNL A   1      43.716  25.989  30.571  1.00  0.00    -0.248 NA
ATOM     53  C   UNL A   1      44.743  24.237  29.419  1.00  0.00     0.031 C 
ATOM     54  C   UNL A   1      45.277  27.791  34.303  1.00  0.00     0.029 A 
ATOM     55  C   UNL A   1      44.814  27.203  33.139  1.00  0.00     0.049 A 
ATOM     56  H   UNL A   1      43.163  27.745  31.941  1.00  0.00     0.167 HD
ATOM     57  C   UNL A   1      44.836  25.569  31.282  1.00  0.00     0.074 A 
ATOM     58  C   UNL A   1      45.404  24.457  30.548  1.00  0.00     0.031 C 
ATOM     59  C   UNL A   1      45.351  26.068  32.433  1.00  0.00     0.034 A 
BRANCH  46  60
ATOM     60  C   UNL A   1      42.350  31.039  34.545  1.00  0.00     0.023 A 
ATOM     61  C   UNL A   1      41.652  30.833  35.753  1.00  0.00     0.012 A 
ATOM     62  C   UNL A   1      43.040  32.252  34.347  1.00  0.00     0.148 A 
ATOM     63  C   UNL A   1      41.607  31.828  36.729  1.00  0.00     0.002 A 
ATOM     64  C   UNL A   1      43.030  33.222  35.344  1.00  0.00     0.091 A 
ATOM     65  F   UNL A   1      43.689  32.437  33.188  1.00  0.00    -0.205 F 
ATOM     66  C   UNL A   1      42.303  33.017  36.528  1.00  0.00     0.022 A 
BRANCH  64  67
ATOM     67  S   UNL A   1      43.961  34.753  35.217  1.00  0.00     0.127 S 
ATOM     68  O   UNL A   1      43.297  35.408  34.090  1.00  0.00    -0.237 OA
ATOM     69  O   UNL A   1      43.707  35.375  36.517  1.00  0.00    -0.237 OA
ATOM     70  O   UNL A   1      45.345  34.366  34.988  1.00  0.00    -0.744 OA
ENDBRANCH  64  67
ENDBRANCH  46  60
BRANCH  47  71
ATOM     71  C   UNL A   1      42.684  24.171  27.334  1.00  0.00     0.023 A 
ATOM     72  C   UNL A   1      43.431  24.464  26.177  1.00  0.00     0.012 A 
ATOM     73  C   UNL A   1      42.040  22.923  27.440  1.00  0.00     0.148 A 
ATOM     74  C   UNL A   1      43.508  23.546  25.129  1.00  0.00     0.002 A 
ATOM     75  C   UNL A   1      42.169  21.990  26.418  1.00  0.00     0.091 A 
ATOM     76  F   UNL A   1      41.324  22.670  28.543  1.00  0.00    -0.205 F 
ATOM     77  C   UNL A   1      42.887  22.305  25.254  1.00  0.00     0.022 A 
BRANCH  75  78
ATOM     78  S   UNL A   1      41.513  20.323  26.544  1.00  0.00     0.127 S 
ATOM     79  O   UNL A   1      40.075  20.559  26.421  1.00  0.00    -0.237 OA
ATOM     80  O   UNL A   1      42.131  19.670  25.389  1.00  0.00    -0.237 OA
ATOM     81  O   UNL A   1      41.960  19.816  27.832  1.00  0.00    -0.744 OA
ENDBRANCH  75  78
ENDBRANCH  47  71
BRANCH  59  82
ATOM     82  C   UNL A   1      46.576  25.397  33.006  1.00  0.00     0.023 A 
ATOM     83  C   UNL A   1      46.441  24.413  34.006  1.00  0.00     0.012 A 
ATOM     84  C   UNL A   1      47.858  25.697  32.503  1.00  0.00     0.148 A 
ATOM     85  C   UNL A   1      47.564  23.764  34.520  1.00  0.00     0.002 A 
ATOM     86  C   UNL A   1      48.967  25.008  32.983  1.00  0.00     0.091 A 
ATOM     87  F   UNL A   1      47.971  26.648  31.565  1.00  0.00    -0.205 F 
ATOM     88  C   UNL A   1      48.823  24.053  34.000  1.00  0.00     0.022 A 
BRANCH  86  89
ATOM     89  S   UNL A   1      50.616  25.242  32.308  1.00  0.00     0.127 S 
ATOM     90  O   UNL A   1      51.455  25.011  33.483  1.00  0.00    -0.237 OA
ATOM     91  O   UNL A   1      50.685  24.192  31.292  1.00  0.00    -0.237 OA
ATOM     92  O   UNL A   1      50.646  26.599  31.779  1.00  0.00    -0.744 OA
ENDBRANCH  86  89
ENDBRANCH  59  82
ENDBRANCH  33  34
ENDBRANCH  25  28
ENDBRANCH  23  24
ENDBRANCH  22  23
ENDBRANCH   1  22
TORSDOF 18
ENDMDL
