MODEL 1
REMARK VINA RESULT:      -9.0      0.000      0.000
REMARK SMILES CCCCCCNC(=O)Oc1cccc(-c2ccc(CC(=O)NCCCNC(=O)c3ccc(-c4c5nc(c(-c6cccc(S(=O)(=O)[O-])c6F)c6ccc([nH]6)c(-c6cccc(S(=O)(=O)[O-])c6F)c6nc(c(-c7cccc(S(=O)(=O)[O-])c7F)c7ccc4[nH]7)C=C6)C=C5)cc3)cc2F)c1
REMARK SMILES IDX 20 1 19 2 16 3 17 4 94 5 18 6 93 7 95 8 15 9 11 10 12 11
REMARK SMILES IDX 96 12 13 13 14 14 10 15 8 16 7 17 9 19 6 20 5 21 4 22 3 23
REMARK SMILES IDX 2 24 1 25 21 26 22 27 23 28 24 30 25 31 26 32 27 33 28 34
REMARK SMILES IDX 29 36 30 37 31 38 92 39 32 40 91 41 33 42 34 43 35 44 85 45
REMARK SMILES IDX 36 46 90 47 84 48 86 49 37 50 89 51 83 52 82 53 38 55 70 56
REMARK SMILES IDX 50 57 69 58 51 59 54 60 68 61 87 62 52 63 53 64 67 66 88 67
REMARK SMILES IDX 55 68 39 69 40 70 48 71 41 72 43 73 49 74 42 75 44 76 45 77
REMARK SMILES IDX 46 78 47 79 71 80 72 81 80 82 73 83 75 84 81 85 74 86 76 87
REMARK SMILES IDX 77 88 78 89 79 90 56 91 57 92 65 93 58 94 60 95 66 96 59 97
REMARK SMILES IDX 61 98 62 99 63 100 64 101
REMARK H PARENT 7 18 23 29 27 35 86 54 54 65
REMARK Flexibility Score: inf
ROOT
ATOM      1  C   UNL A   1      42.348  21.383  27.618  1.00  0.00     0.135 C 
ENDROOT
BRANCH   1   2
ATOM      2  C   UNL A   1      41.774  22.764  27.814  1.00  0.00    -0.036 A 
ATOM      3  C   UNL A   1      40.693  25.377  28.079  1.00  0.00     0.018 A 
ATOM      4  C   UNL A   1      42.029  25.107  28.420  1.00  0.00     0.012 A 
ATOM      5  C   UNL A   1      39.912  24.301  27.632  1.00  0.00     0.131 A 
ATOM      6  C   UNL A   1      42.563  23.818  28.292  1.00  0.00     0.005 A 
ATOM      7  C   UNL A   1      40.432  23.015  27.511  1.00  0.00     0.044 A 
ATOM      8  F   UNL A   1      38.630  24.486  27.281  1.00  0.00    -0.206 F 
BRANCH   3   9
ATOM      9  C   UNL A   1      40.132  26.732  28.190  1.00  0.00    -0.012 A 
ATOM     10  C   UNL A   1      38.707  28.333  29.338  1.00  0.00     0.133 A 
ATOM     11  C   UNL A   1      38.943  29.288  28.355  1.00  0.00     0.047 A 
ATOM     12  C   UNL A   1      39.279  27.063  29.255  1.00  0.00     0.056 A 
ATOM     13  C   UNL A   1      39.796  28.981  27.296  1.00  0.00     0.004 A 
ATOM     14  C   UNL A   1      40.391  27.717  27.219  1.00  0.00     0.009 A 
BRANCH  10  15
ATOM     15  O   UNL A   1      37.764  28.656  30.328  1.00  0.00    -0.410 OA
BRANCH  15  16
ATOM     16  C   UNL A   1      36.686  29.467  30.018  1.00  0.00     0.412 C 
ATOM     17  N   UNL A   1      36.377  30.357  31.008  1.00  0.00    -0.321 N 
ATOM     18  H   UNL A   1      35.606  30.948  30.849  1.00  0.00     0.167 HD
ATOM     19  O   UNL A   1      36.026  29.445  28.979  1.00  0.00    -0.224 OA
BRANCH  17  20
ATOM     20  C   UNL A   1      37.074  30.519  32.269  1.00  0.00     0.119 C 
BRANCH  20  21
ATOM     21  C   UNL A   1      37.731  31.896  32.381  1.00  0.00     0.021 C 
BRANCH  21  22
ATOM     22  C   UNL A   1      37.076  32.995  31.534  1.00  0.00     0.002 C 
BRANCH  22  23
ATOM     23  C   UNL A   1      38.026  34.078  31.010  1.00  0.00    -0.000 C 
BRANCH  23  24
ATOM     24  C   UNL A   1      38.238  34.087  29.494  1.00  0.00    -0.003 C 
ATOM     25  C   UNL A   1      37.398  33.051  28.764  1.00  0.00     0.004 C 
ENDBRANCH  23  24
ENDBRANCH  22  23
ENDBRANCH  21  22
ENDBRANCH  20  21
ENDBRANCH  17  20
ENDBRANCH  15  16
ENDBRANCH  10  15
ENDBRANCH   3   9
ENDBRANCH   1   2
BRANCH   1  26
ATOM     26  C   UNL A   1      42.280  20.882  26.187  1.00  0.00     0.224 C 
ATOM     27  O   UNL A   1      41.250  20.380  25.733  1.00  0.00    -0.275 OA
ATOM     28  N   UNL A   1      43.356  21.023  25.358  1.00  0.00    -0.356 N 
ATOM     29  H   UNL A   1      43.216  20.726  24.430  1.00  0.00     0.163 HD
BRANCH  28  30
ATOM     30  C   UNL A   1      44.677  21.550  25.652  1.00  0.00     0.117 C 
BRANCH  30  31
ATOM     31  C   UNL A   1      44.785  23.047  25.371  1.00  0.00     0.042 C 
BRANCH  31  32
ATOM     32  C   UNL A   1      46.019  23.709  25.979  1.00  0.00     0.118 C 
BRANCH  32  33
ATOM     33  N   UNL A   1      46.660  24.647  25.066  1.00  0.00    -0.352 N 
ATOM     34  C   UNL A   1      46.595  26.016  25.012  1.00  0.00     0.251 C 
ATOM     35  H   UNL A   1      47.230  24.231  24.379  1.00  0.00     0.163 HD
ATOM     36  O   UNL A   1      47.076  26.600  24.043  1.00  0.00    -0.269 OA
BRANCH  34  37
ATOM     37  C   UNL A   1      45.953  26.792  26.096  1.00  0.00     0.039 A 
ATOM     38  C   UNL A   1      44.566  26.968  26.066  1.00  0.00     0.014 A 
ATOM     39  C   UNL A   1      46.708  27.383  27.112  1.00  0.00     0.014 A 
ATOM     40  C   UNL A   1      43.933  27.694  27.080  1.00  0.00     0.010 A 
ATOM     41  C   UNL A   1      46.069  28.041  28.160  1.00  0.00     0.010 A 
ATOM     42  C   UNL A   1      44.678  28.216  28.149  1.00  0.00    -0.014 A 
BRANCH  42  43
ATOM     43  C   UNL A   1      44.024  28.954  29.261  1.00  0.00     0.031 A 
ATOM     44  C   UNL A   1      43.699  30.417  29.112  1.00  0.00     0.074 A 
ATOM     45  C   UNL A   1      43.799  28.331  30.434  1.00  0.00     0.049 A 
ATOM     46  N   UNL A   1      43.191  31.244  29.988  1.00  0.00    -0.248 NA
ATOM     47  C   UNL A   1      44.012  31.038  27.814  1.00  0.00     0.031 C 
ATOM     48  C   UNL A   1      44.130  26.936  30.728  1.00  0.00     0.029 A 
ATOM     49  N   UNL A   1      43.261  28.798  31.608  1.00  0.00    -0.354 N 
ATOM     50  C   UNL A   1      43.158  32.486  29.364  1.00  0.00     0.074 A 
ATOM     51  C   UNL A   1      43.733  32.312  28.049  1.00  0.00     0.031 C 
ATOM     52  C   UNL A   1      43.781  26.657  31.994  1.00  0.00     0.029 A 
ATOM     53  C   UNL A   1      43.230  27.859  32.612  1.00  0.00     0.049 A 
ATOM     54  H   UNL A   1      42.929  29.719  31.719  1.00  0.00     0.167 HD
ATOM     55  C   UNL A   1      42.663  33.659  29.830  1.00  0.00     0.034 A 
ATOM     56  C   UNL A   1      42.806  27.956  33.887  1.00  0.00     0.034 A 
ATOM     57  C   UNL A   1      42.054  33.820  31.123  1.00  0.00     0.049 A 
ATOM     58  C   UNL A   1      42.231  29.261  34.370  1.00  0.00     0.074 A 
ATOM     59  C   UNL A   1      41.457  34.946  31.660  1.00  0.00     0.029 A 
ATOM     60  N   UNL A   1      41.966  32.823  32.082  1.00  0.00    -0.354 N 
ATOM     61  N   UNL A   1      42.077  30.387  33.718  1.00  0.00    -0.248 NA
ATOM     62  C   UNL A   1      41.738  29.298  35.755  1.00  0.00     0.031 C 
ATOM     63  C   UNL A   1      41.024  34.635  32.954  1.00  0.00     0.029 A 
ATOM     64  C   UNL A   1      41.328  33.308  33.212  1.00  0.00     0.049 A 
ATOM     65  H   UNL A   1      42.307  31.906  31.977  1.00  0.00     0.167 HD
ATOM     66  C   UNL A   1      41.431  31.252  34.594  1.00  0.00     0.074 A 
ATOM     67  C   UNL A   1      41.211  30.513  35.821  1.00  0.00     0.031 C 
ATOM     68  C   UNL A   1      41.064  32.543  34.405  1.00  0.00     0.034 A 
BRANCH  55  69
ATOM     69  C   UNL A   1      42.714  34.849  28.905  1.00  0.00     0.023 A 
ATOM     70  C   UNL A   1      41.548  35.242  28.216  1.00  0.00     0.012 A 
ATOM     71  C   UNL A   1      43.896  35.598  28.740  1.00  0.00     0.148 A 
ATOM     72  C   UNL A   1      41.568  36.331  27.344  1.00  0.00     0.002 A 
ATOM     73  C   UNL A   1      43.896  36.711  27.906  1.00  0.00     0.091 A 
ATOM     74  F   UNL A   1      45.003  35.200  29.385  1.00  0.00    -0.205 F 
ATOM     75  C   UNL A   1      42.738  37.069  27.197  1.00  0.00     0.022 A 
BRANCH  73  76
ATOM     76  S   UNL A   1      45.331  37.774  27.711  1.00  0.00     0.127 S 
ATOM     77  O   UNL A   1      46.288  36.866  27.082  1.00  0.00    -0.237 OA
ATOM     78  O   UNL A   1      44.821  38.826  26.832  1.00  0.00    -0.237 OA
ATOM     79  O   UNL A   1      45.678  38.223  29.053  1.00  0.00    -0.744 OA
ENDBRANCH  73  76
ENDBRANCH  55  69
BRANCH  56  80
ATOM     80  C   UNL A   1      42.829  26.755  34.769  1.00  0.00     0.023 A 
ATOM     81  C   UNL A   1      41.650  25.999  34.926  1.00  0.00     0.012 A 
ATOM     82  C   UNL A   1      44.005  26.335  35.419  1.00  0.00     0.148 A 
ATOM     83  C   UNL A   1      41.634  24.864  35.736  1.00  0.00     0.002 A 
ATOM     84  C   UNL A   1      43.997  25.174  36.184  1.00  0.00     0.091 A 
ATOM     85  F   UNL A   1      45.114  27.072  35.264  1.00  0.00    -0.205 F 
ATOM     86  C   UNL A   1      42.807  24.446  36.357  1.00  0.00     0.022 A 
BRANCH  84  87
ATOM     87  S   UNL A   1      45.486  24.490  36.921  1.00  0.00     0.127 S 
ATOM     88  O   UNL A   1      46.354  24.335  35.757  1.00  0.00    -0.237 OA
ATOM     89  O   UNL A   1      45.882  25.553  37.846  1.00  0.00    -0.237 OA
ATOM     90  O   UNL A   1      45.075  23.252  37.571  1.00  0.00    -0.744 OA
ENDBRANCH  84  87
ENDBRANCH  56  80
BRANCH  68  91
ATOM     91  C   UNL A   1      40.345  33.239  35.531  1.00  0.00     0.023 A 
ATOM     92  C   UNL A   1      38.949  33.104  35.665  1.00  0.00     0.012 A 
ATOM     93  C   UNL A   1      41.064  33.966  36.501  1.00  0.00     0.148 A 
ATOM     94  C   UNL A   1      38.277  33.706  36.728  1.00  0.00     0.002 A 
ATOM     95  C   UNL A   1      40.395  34.522  37.585  1.00  0.00     0.091 A 
ATOM     96  F   UNL A   1      42.390  34.102  36.346  1.00  0.00    -0.205 F 
ATOM     97  C   UNL A   1      39.000  34.403  37.694  1.00  0.00     0.022 A 
BRANCH  95  98
ATOM     98  S   UNL A   1      41.256  35.353  38.924  1.00  0.00     0.127 S 
ATOM     99  O   UNL A   1      41.811  36.522  38.242  1.00  0.00    -0.237 OA
ATOM    100  O   UNL A   1      40.167  35.651  39.856  1.00  0.00    -0.237 OA
ATOM    101  O   UNL A   1      42.235  34.398  39.425  1.00  0.00    -0.744 OA
ENDBRANCH  95  98
ENDBRANCH  68  91
ENDBRANCH  42  43
ENDBRANCH  34  37
ENDBRANCH  32  33
ENDBRANCH  31  32
ENDBRANCH  30  31
ENDBRANCH  28  30
ENDBRANCH   1  26
TORSDOF 22
ENDMDL
MODEL 2
REMARK VINA RESULT:      -8.9      1.106      7.350
REMARK SMILES CCCCCCNC(=O)Oc1cccc(-c2ccc(CC(=O)NCCCNC(=O)c3ccc(-c4c5nc(c(-c6cccc(S(=O)(=O)[O-])c6F)c6ccc([nH]6)c(-c6cccc(S(=O)(=O)[O-])c6F)c6nc(c(-c7cccc(S(=O)(=O)[O-])c7F)c7ccc4[nH]7)C=C6)C=C5)cc3)cc2F)c1
REMARK SMILES IDX 20 1 19 2 16 3 17 4 94 5 18 6 93 7 95 8 15 9 11 10 12 11
REMARK SMILES IDX 96 12 13 13 14 14 10 15 8 16 7 17 9 19 6 20 5 21 4 22 3 23
REMARK SMILES IDX 2 24 1 25 21 26 22 27 23 28 24 30 25 31 26 32 27 33 28 34
REMARK SMILES IDX 29 36 30 37 31 38 92 39 32 40 91 41 33 42 34 43 35 44 85 45
REMARK SMILES IDX 36 46 90 47 84 48 86 49 37 50 89 51 83 52 82 53 38 55 70 56
REMARK SMILES IDX 50 57 69 58 51 59 54 60 68 61 87 62 52 63 53 64 67 66 88 67
REMARK SMILES IDX 55 68 39 69 40 70 48 71 41 72 43 73 49 74 42 75 44 76 45 77
REMARK SMILES IDX 46 78 47 79 71 80 72 81 80 82 73 83 75 84 81 85 74 86 76 87
REMARK SMILES IDX 77 88 78 89 79 90 56 91 57 92 65 93 58 94 60 95 66 96 59 97
REMARK SMILES IDX 61 98 62 99 63 100 64 101
REMARK H PARENT 7 18 23 29 27 35 86 54 54 65
REMARK Flexibility Score: inf
ROOT
ATOM      1  C   UNL A   1      41.731  20.500  27.625  1.00  0.00     0.135 C 
ENDROOT
BRANCH   1   2
ATOM      2  C   UNL A   1      41.355  21.955  27.757  1.00  0.00    -0.036 A 
ATOM      3  C   UNL A   1      40.666  24.706  27.902  1.00  0.00     0.018 A 
ATOM      4  C   UNL A   1      41.869  24.231  28.449  1.00  0.00     0.012 A 
ATOM      5  C   UNL A   1      39.811  23.765  27.309  1.00  0.00     0.131 A 
ATOM      6  C   UNL A   1      42.209  22.873  28.381  1.00  0.00     0.005 A 
ATOM      7  C   UNL A   1      40.136  22.414  27.245  1.00  0.00     0.044 A 
ATOM      8  F   UNL A   1      38.648  24.149  26.759  1.00  0.00    -0.206 F 
BRANCH   3   9
ATOM      9  C   UNL A   1      40.311  26.134  27.951  1.00  0.00    -0.012 A 
ATOM     10  C   UNL A   1      39.240  27.999  29.084  1.00  0.00     0.133 A 
ATOM     11  C   UNL A   1      39.512  28.841  28.010  1.00  0.00     0.047 A 
ATOM     12  C   UNL A   1      39.620  26.656  29.055  1.00  0.00     0.056 A 
ATOM     13  C   UNL A   1      40.207  28.342  26.911  1.00  0.00     0.004 A 
ATOM     14  C   UNL A   1      40.610  27.002  26.885  1.00  0.00     0.009 A 
BRANCH  10  15
ATOM     15  O   UNL A   1      38.451  28.522  30.122  1.00  0.00    -0.410 OA
BRANCH  15  16
ATOM     16  C   UNL A   1      38.834  28.340  31.440  1.00  0.00     0.412 C 
ATOM     17  N   UNL A   1      39.625  29.347  31.916  1.00  0.00    -0.321 N 
ATOM     18  H   UNL A   1      39.943  29.260  32.845  1.00  0.00     0.167 HD
ATOM     19  O   UNL A   1      38.532  27.394  32.167  1.00  0.00    -0.224 OA
BRANCH  17  20
ATOM     20  C   UNL A   1      40.041  30.532  31.193  1.00  0.00     0.119 C 
BRANCH  20  21
ATOM     21  C   UNL A   1      39.089  31.705  31.430  1.00  0.00     0.021 C 
BRANCH  21  22
ATOM     22  C   UNL A   1      39.262  32.883  30.462  1.00  0.00     0.002 C 
BRANCH  22  23
ATOM     23  C   UNL A   1      38.525  34.170  30.850  1.00  0.00    -0.000 C 
BRANCH  23  24
ATOM     24  C   UNL A   1      38.584  34.537  32.335  1.00  0.00    -0.003 C 
ATOM     25  C   UNL A   1      37.222  34.527  33.012  1.00  0.00     0.004 C 
ENDBRANCH  23  24
ENDBRANCH  22  23
ENDBRANCH  21  22
ENDBRANCH  20  21
ENDBRANCH  17  20
ENDBRANCH  15  16
ENDBRANCH  10  15
ENDBRANCH   3   9
ENDBRANCH   1   2
BRANCH   1  26
ATOM     26  C   UNL A   1      41.705  19.981  26.200  1.00  0.00     0.224 C 
ATOM     27  O   UNL A   1      40.734  19.360  25.762  1.00  0.00    -0.275 OA
ATOM     28  N   UNL A   1      42.748  20.236  25.356  1.00  0.00    -0.356 N 
ATOM     29  H   UNL A   1      42.632  19.915  24.433  1.00  0.00     0.163 HD
BRANCH  28  30
ATOM     30  C   UNL A   1      44.003  20.912  25.629  1.00  0.00     0.117 C 
BRANCH  30  31
ATOM     31  C   UNL A   1      43.983  22.378  25.200  1.00  0.00     0.042 C 
BRANCH  31  32
ATOM     32  C   UNL A   1      44.944  23.271  25.980  1.00  0.00     0.118 C 
BRANCH  32  33
ATOM     33  N   UNL A   1      45.885  23.973  25.116  1.00  0.00    -0.352 N 
ATOM     34  C   UNL A   1      46.221  25.301  25.066  1.00  0.00     0.251 C 
ATOM     35  H   UNL A   1      46.354  23.401  24.466  1.00  0.00     0.163 HD
ATOM     36  O   UNL A   1      46.911  25.709  24.134  1.00  0.00    -0.269 OA
BRANCH  34  37
ATOM     37  C   UNL A   1      45.761  26.243  26.110  1.00  0.00     0.039 A 
ATOM     38  C   UNL A   1      44.397  26.538  26.197  1.00  0.00     0.014 A 
ATOM     39  C   UNL A   1      46.665  26.872  26.971  1.00  0.00     0.014 A 
ATOM     40  C   UNL A   1      43.935  27.423  27.176  1.00  0.00     0.010 A 
ATOM     41  C   UNL A   1      46.195  27.694  27.993  1.00  0.00     0.010 A 
ATOM     42  C   UNL A   1      44.829  27.989  28.099  1.00  0.00    -0.014 A 
BRANCH  42  43
ATOM     43  C   UNL A   1      44.357  28.898  29.175  1.00  0.00     0.031 A 
ATOM     44  C   UNL A   1      44.028  28.351  30.539  1.00  0.00     0.074 A 
ATOM     45  C   UNL A   1      44.143  30.201  28.903  1.00  0.00     0.049 A 
ATOM     46  N   UNL A   1      43.543  28.972  31.583  1.00  0.00    -0.248 NA
ATOM     47  C   UNL A   1      44.248  26.911  30.748  1.00  0.00     0.031 C 
ATOM     48  C   UNL A   1      44.358  30.839  27.603  1.00  0.00     0.029 A 
ATOM     49  N   UNL A   1      43.673  31.216  29.698  1.00  0.00    -0.354 N 
ATOM     50  C   UNL A   1      43.366  27.996  32.558  1.00  0.00     0.074 A 
ATOM     51  C   UNL A   1      43.759  26.736  31.967  1.00  0.00     0.031 C 
ATOM     52  C   UNL A   1      44.030  32.138  27.691  1.00  0.00     0.029 A 
ATOM     53  C   UNL A   1      43.554  32.419  29.042  1.00  0.00     0.049 A 
ATOM     54  H   UNL A   1      43.444  31.095  30.648  1.00  0.00     0.167 HD
ATOM     55  C   UNL A   1      42.946  28.138  33.838  1.00  0.00     0.034 A 
ATOM     56  C   UNL A   1      43.109  33.613  29.479  1.00  0.00     0.034 A 
ATOM     57  C   UNL A   1      42.595  29.399  34.435  1.00  0.00     0.049 A 
ATOM     58  C   UNL A   1      42.679  33.753  30.915  1.00  0.00     0.074 A 
ATOM     59  C   UNL A   1      42.229  29.661  35.743  1.00  0.00     0.029 A 
ATOM     60  N   UNL A   1      42.566  30.610  33.761  1.00  0.00    -0.354 N 
ATOM     61  N   UNL A   1      42.654  32.847  31.862  1.00  0.00    -0.248 NA
ATOM     62  C   UNL A   1      42.249  35.090  31.353  1.00  0.00     0.031 C 
ATOM     63  C   UNL A   1      41.960  31.029  35.855  1.00  0.00     0.029 A 
ATOM     64  C   UNL A   1      42.184  31.624  34.624  1.00  0.00     0.049 A 
ATOM     65  H   UNL A   1      42.784  30.732  32.809  1.00  0.00     0.167 HD
ATOM     66  C   UNL A   1      42.250  33.509  33.015  1.00  0.00     0.074 A 
ATOM     67  C   UNL A   1      42.054  34.897  32.650  1.00  0.00     0.031 C 
ATOM     68  C   UNL A   1      42.049  33.011  34.260  1.00  0.00     0.034 A 
BRANCH  55  69
ATOM     69  C   UNL A   1      42.897  26.897  34.695  1.00  0.00     0.023 A 
ATOM     70  C   UNL A   1      41.673  26.219  34.864  1.00  0.00     0.012 A 
ATOM     71  C   UNL A   1      44.059  26.383  35.303  1.00  0.00     0.148 A 
ATOM     72  C   UNL A   1      41.594  25.077  35.660  1.00  0.00     0.002 A 
ATOM     73  C   UNL A   1      43.982  25.216  36.057  1.00  0.00     0.091 A 
ATOM     74  F   UNL A   1      45.213  27.050  35.151  1.00  0.00    -0.205 F 
ATOM     75  C   UNL A   1      42.750  24.572  36.249  1.00  0.00     0.022 A 
BRANCH  73  76
ATOM     76  S   UNL A   1      45.428  24.442  36.790  1.00  0.00     0.127 S 
ATOM     77  O   UNL A   1      45.567  25.194  38.036  1.00  0.00    -0.237 OA
ATOM     78  O   UNL A   1      44.986  23.058  36.960  1.00  0.00    -0.237 OA
ATOM     79  O   UNL A   1      46.505  24.618  35.826  1.00  0.00    -0.744 OA
ENDBRANCH  73  76
ENDBRANCH  55  69
BRANCH  56  80
ATOM     80  C   UNL A   1      43.133  34.792  28.568  1.00  0.00     0.023 A 
ATOM     81  C   UNL A   1      41.926  35.239  27.995  1.00  0.00     0.012 A 
ATOM     82  C   UNL A   1      44.323  35.493  28.295  1.00  0.00     0.148 A 
ATOM     83  C   UNL A   1      41.907  36.344  27.144  1.00  0.00     0.002 A 
ATOM     84  C   UNL A   1      44.291  36.625  27.488  1.00  0.00     0.091 A 
ATOM     85  F   UNL A   1      45.463  35.048  28.843  1.00  0.00    -0.205 F 
ATOM     86  C   UNL A   1      43.086  37.042  26.897  1.00  0.00     0.022 A 
BRANCH  84  87
ATOM     87  S   UNL A   1      45.735  37.658  27.212  1.00  0.00     0.127 S 
ATOM     88  O   UNL A   1      46.284  37.774  28.561  1.00  0.00    -0.237 OA
ATOM     89  O   UNL A   1      46.526  36.837  26.295  1.00  0.00    -0.237 OA
ATOM     90  O   UNL A   1      45.233  38.895  26.628  1.00  0.00    -0.744 OA
ENDBRANCH  84  87
ENDBRANCH  56  80
BRANCH  68  91
ATOM     91  C   UNL A   1      41.633  33.976  35.341  1.00  0.00     0.023 A 
ATOM     92  C   UNL A   1      40.266  34.182  35.612  1.00  0.00     0.012 A 
ATOM     93  C   UNL A   1      42.600  34.620  36.138  1.00  0.00     0.148 A 
ATOM     94  C   UNL A   1      39.868  35.038  36.639  1.00  0.00     0.002 A 
ATOM     95  C   UNL A   1      42.197  35.433  37.191  1.00  0.00     0.091 A 
ATOM     96  F   UNL A   1      43.897  34.428  35.852  1.00  0.00    -0.205 F 
ATOM     97  C   UNL A   1      40.833  35.652  37.436  1.00  0.00     0.022 A 
BRANCH  95  98
ATOM     98  S   UNL A   1      43.368  36.186  38.327  1.00  0.00     0.127 S 
ATOM     99  O   UNL A   1      44.248  36.910  37.411  1.00  0.00    -0.237 OA
ATOM    100  O   UNL A   1      42.503  37.039  39.143  1.00  0.00    -0.237 OA
ATOM    101  O   UNL A   1      43.988  35.086  39.051  1.00  0.00    -0.744 OA
ENDBRANCH  95  98
ENDBRANCH  68  91
ENDBRANCH  42  43
ENDBRANCH  34  37
ENDBRANCH  32  33
ENDBRANCH  31  32
ENDBRANCH  30  31
ENDBRANCH  28  30
ENDBRANCH   1  26
TORSDOF 22
ENDMDL
MODEL 3
REMARK VINA RESULT:      -8.7      5.205     10.452
REMARK SMILES CCCCCCNC(=O)Oc1cccc(-c2ccc(CC(=O)NCCCNC(=O)c3ccc(-c4c5nc(c(-c6cccc(S(=O)(=O)[O-])c6F)c6ccc([nH]6)c(-c6cccc(S(=O)(=O)[O-])c6F)c6nc(c(-c7cccc(S(=O)(=O)[O-])c7F)c7ccc4[nH]7)C=C6)C=C5)cc3)cc2F)c1
REMARK SMILES IDX 20 1 19 2 16 3 17 4 94 5 18 6 93 7 95 8 15 9 11 10 12 11
REMARK SMILES IDX 96 12 13 13 14 14 10 15 8 16 7 17 9 19 6 20 5 21 4 22 3 23
REMARK SMILES IDX 2 24 1 25 21 26 22 27 23 28 24 30 25 31 26 32 27 33 28 34
REMARK SMILES IDX 29 36 30 37 31 38 92 39 32 40 91 41 33 42 34 43 35 44 85 45
REMARK SMILES IDX 36 46 90 47 84 48 86 49 37 50 89 51 83 52 82 53 38 55 70 56
REMARK SMILES IDX 50 57 69 58 51 59 54 60 68 61 87 62 52 63 53 64 67 66 88 67
REMARK SMILES IDX 55 68 39 69 40 70 48 71 41 72 43 73 49 74 42 75 44 76 45 77
REMARK SMILES IDX 46 78 47 79 71 80 72 81 80 82 73 83 75 84 81 85 74 86 76 87
REMARK SMILES IDX 77 88 78 89 79 90 56 91 57 92 65 93 58 94 60 95 66 96 59 97
REMARK SMILES IDX 61 98 62 99 63 100 64 101
REMARK H PARENT 7 18 23 29 27 35 86 54 54 65
REMARK Flexibility Score: inf
ROOT
ATOM      1  C   UNL A   1      35.381  32.183  28.408  1.00  0.00     0.135 C 
ENDROOT
BRANCH   1   2
ATOM      2  C   UNL A   1      34.609  31.072  27.742  1.00  0.00    -0.036 A 
ATOM      3  C   UNL A   1      33.097  28.971  26.574  1.00  0.00     0.018 A 
ATOM      4  C   UNL A   1      34.421  28.763  26.995  1.00  0.00     0.012 A 
ATOM      5  C   UNL A   1      32.566  30.260  26.728  1.00  0.00     0.131 A 
ATOM      6  C   UNL A   1      35.169  29.800  27.569  1.00  0.00     0.005 A 
ATOM      7  C   UNL A   1      33.305  31.298  27.288  1.00  0.00     0.044 A 
ATOM      8  F   UNL A   1      31.305  30.529  26.355  1.00  0.00    -0.206 F 
BRANCH   3   9
ATOM      9  C   UNL A   1      32.298  27.882  25.990  1.00  0.00    -0.012 A 
ATOM     10  C   UNL A   1      31.890  25.506  25.674  1.00  0.00     0.133 A 
ATOM     11  C   UNL A   1      30.857  25.776  24.782  1.00  0.00     0.047 A 
ATOM     12  C   UNL A   1      32.616  26.542  26.264  1.00  0.00     0.056 A 
ATOM     13  C   UNL A   1      30.521  27.100  24.507  1.00  0.00     0.004 A 
ATOM     14  C   UNL A   1      31.230  28.144  25.112  1.00  0.00     0.009 A 
BRANCH  10  15
ATOM     15  O   UNL A   1      32.255  24.160  25.840  1.00  0.00    -0.410 OA
BRANCH  15  16
ATOM     16  C   UNL A   1      31.414  23.294  26.518  1.00  0.00     0.412 C 
ATOM     17  N   UNL A   1      31.402  22.032  25.992  1.00  0.00    -0.321 N 
ATOM     18  H   UNL A   1      30.806  21.378  26.424  1.00  0.00     0.167 HD
ATOM     19  O   UNL A   1      30.719  23.563  27.496  1.00  0.00    -0.224 OA
BRANCH  17  20
ATOM     20  C   UNL A   1      32.181  21.561  24.865  1.00  0.00     0.119 C 
BRANCH  20  21
ATOM     21  C   UNL A   1      33.284  20.595  25.301  1.00  0.00     0.021 C 
BRANCH  21  22
ATOM     22  C   UNL A   1      32.989  19.113  25.032  1.00  0.00     0.002 C 
BRANCH  22  23
ATOM     23  C   UNL A   1      32.795  18.735  23.559  1.00  0.00    -0.000 C 
BRANCH  23  24
ATOM     24  C   UNL A   1      32.847  17.236  23.254  1.00  0.00    -0.003 C 
ATOM     25  C   UNL A   1      34.237  16.638  23.412  1.00  0.00     0.004 C 
ENDBRANCH  23  24
ENDBRANCH  22  23
ENDBRANCH  21  22
ENDBRANCH  20  21
ENDBRANCH  17  20
ENDBRANCH  15  16
ENDBRANCH  10  15
ENDBRANCH   3   9
ENDBRANCH   1   2
BRANCH   1  26
ATOM     26  C   UNL A   1      34.515  33.322  28.913  1.00  0.00     0.224 C 
ATOM     27  O   UNL A   1      33.995  34.124  28.136  1.00  0.00    -0.275 OA
ATOM     28  N   UNL A   1      34.258  33.450  30.249  1.00  0.00    -0.356 N 
ATOM     29  H   UNL A   1      33.643  34.179  30.492  1.00  0.00     0.163 HD
BRANCH  28  30
ATOM     30  C   UNL A   1      34.764  32.663  31.359  1.00  0.00     0.117 C 
BRANCH  30  31
ATOM     31  C   UNL A   1      36.062  33.228  31.932  1.00  0.00     0.042 C 
BRANCH  31  32
ATOM     32  C   UNL A   1      36.537  32.533  33.206  1.00  0.00     0.118 C 
BRANCH  32  33
ATOM     33  N   UNL A   1      36.428  31.082  33.128  1.00  0.00    -0.352 N 
ATOM     34  C   UNL A   1      37.218  30.168  32.479  1.00  0.00     0.251 C 
ATOM     35  H   UNL A   1      35.667  30.697  33.621  1.00  0.00     0.163 HD
ATOM     36  O   UNL A   1      36.839  29.001  32.397  1.00  0.00    -0.269 OA
BRANCH  34  37
ATOM     37  C   UNL A   1      38.507  30.568  31.874  1.00  0.00     0.039 A 
ATOM     38  C   UNL A   1      38.578  30.731  30.487  1.00  0.00     0.014 A 
ATOM     39  C   UNL A   1      39.654  30.740  32.654  1.00  0.00     0.014 A 
ATOM     40  C   UNL A   1      39.784  31.112  29.890  1.00  0.00     0.010 A 
ATOM     41  C   UNL A   1      40.833  31.191  32.067  1.00  0.00     0.010 A 
ATOM     42  C   UNL A   1      40.916  31.370  30.679  1.00  0.00    -0.014 A 
BRANCH  42  43
ATOM     43  C   UNL A   1      42.196  31.817  30.073  1.00  0.00     0.031 A 
ATOM     44  C   UNL A   1      42.423  33.274  29.770  1.00  0.00     0.074 A 
ATOM     45  C   UNL A   1      43.121  30.904  29.716  1.00  0.00     0.049 A 
ATOM     46  N   UNL A   1      43.443  33.848  29.185  1.00  0.00    -0.248 NA
ATOM     47  C   UNL A   1      41.349  34.207  30.150  1.00  0.00     0.031 C 
ATOM     48  C   UNL A   1      42.993  29.457  29.893  1.00  0.00     0.029 A 
ATOM     49  N   UNL A   1      44.342  31.057  29.108  1.00  0.00    -0.354 N 
ATOM     50  C   UNL A   1      43.119  35.198  29.094  1.00  0.00     0.074 A 
ATOM     51  C   UNL A   1      41.793  35.350  29.649  1.00  0.00     0.031 C 
ATOM     52  C   UNL A   1      44.093  28.855  29.413  1.00  0.00     0.029 A 
ATOM     53  C   UNL A   1      44.991  29.868  28.868  1.00  0.00     0.049 A 
ATOM     54  H   UNL A   1      44.718  31.934  28.866  1.00  0.00     0.167 HD
ATOM     55  C   UNL A   1      43.870  36.222  28.623  1.00  0.00     0.034 A 
ATOM     56  C   UNL A   1      46.175  29.622  28.274  1.00  0.00     0.034 A 
ATOM     57  C   UNL A   1      45.205  36.073  28.110  1.00  0.00     0.049 A 
ATOM     58  C   UNL A   1      47.005  30.780  27.788  1.00  0.00     0.074 A 
ATOM     59  C   UNL A   1      46.077  37.056  27.677  1.00  0.00     0.029 A 
ATOM     60  N   UNL A   1      45.862  34.861  27.959  1.00  0.00    -0.354 N 
ATOM     61  N   UNL A   1      46.743  32.063  27.842  1.00  0.00    -0.248 NA
ATOM     62  C   UNL A   1      48.310  30.458  27.192  1.00  0.00     0.031 C 
ATOM     63  C   UNL A   1      47.256  36.436  27.246  1.00  0.00     0.029 A 
ATOM     64  C   UNL A   1      47.127  35.069  27.436  1.00  0.00     0.049 A 
ATOM     65  H   UNL A   1      45.484  33.982  28.190  1.00  0.00     0.167 HD
ATOM     66  C   UNL A   1      47.865  32.704  27.329  1.00  0.00     0.074 A 
ATOM     67  C   UNL A   1      48.815  31.667  26.983  1.00  0.00     0.031 C 
ATOM     68  C   UNL A   1      48.084  34.030  27.150  1.00  0.00     0.034 A 
BRANCH  55  69
ATOM     69  C   UNL A   1      43.277  37.608  28.694  1.00  0.00     0.023 A 
ATOM     70  C   UNL A   1      42.408  38.043  27.673  1.00  0.00     0.012 A 
ATOM     71  C   UNL A   1      43.547  38.464  29.779  1.00  0.00     0.148 A 
ATOM     72  C   UNL A   1      41.855  39.323  27.705  1.00  0.00     0.002 A 
ATOM     73  C   UNL A   1      42.954  39.721  29.829  1.00  0.00     0.091 A 
ATOM     74  F   UNL A   1      44.392  38.045  30.733  1.00  0.00    -0.205 F 
ATOM     75  C   UNL A   1      42.121  40.158  28.786  1.00  0.00     0.022 A 
BRANCH  73  76
ATOM     76  S   UNL A   1      43.171  40.838  31.219  1.00  0.00     0.127 S 
ATOM     77  O   UNL A   1      44.576  41.216  31.079  1.00  0.00    -0.237 OA
ATOM     78  O   UNL A   1      42.220  41.907  30.910  1.00  0.00    -0.237 OA
ATOM     79  O   UNL A   1      42.843  40.063  32.407  1.00  0.00    -0.744 OA
ENDBRANCH  73  76
ENDBRANCH  55  69
BRANCH  56  80
ATOM     80  C   UNL A   1      46.684  28.224  28.187  1.00  0.00     0.023 A 
ATOM     81  C   UNL A   1      47.516  27.735  29.214  1.00  0.00     0.012 A 
ATOM     82  C   UNL A   1      46.326  27.369  27.128  1.00  0.00     0.148 A 
ATOM     83  C   UNL A   1      48.006  26.429  29.172  1.00  0.00     0.002 A 
ATOM     84  C   UNL A   1      46.774  26.053  27.118  1.00  0.00     0.091 A 
ATOM     85  F   UNL A   1      45.539  27.855  26.157  1.00  0.00    -0.205 F 
ATOM     86  C   UNL A   1      47.629  25.586  28.131  1.00  0.00     0.022 A 
BRANCH  84  87
ATOM     87  S   UNL A   1      46.242  24.858  25.885  1.00  0.00     0.127 S 
ATOM     88  O   UNL A   1      46.731  25.465  24.650  1.00  0.00    -0.237 OA
ATOM     89  O   UNL A   1      46.958  23.652  26.303  1.00  0.00    -0.237 OA
ATOM     90  O   UNL A   1      44.793  24.772  26.015  1.00  0.00    -0.744 OA
ENDBRANCH  84  87
ENDBRANCH  56  80
BRANCH  68  91
ATOM     91  C   UNL A   1      49.420  34.450  26.593  1.00  0.00     0.023 A 
ATOM     92  C   UNL A   1      49.550  34.739  25.221  1.00  0.00     0.012 A 
ATOM     93  C   UNL A   1      50.528  34.630  27.445  1.00  0.00     0.148 A 
ATOM     94  C   UNL A   1      50.770  35.172  24.700  1.00  0.00     0.002 A 
ATOM     95  C   UNL A   1      51.726  35.109  26.928  1.00  0.00     0.091 A 
ATOM     96  F   UNL A   1      50.391  34.330  28.745  1.00  0.00    -0.205 F 
ATOM     97  C   UNL A   1      51.852  35.369  25.555  1.00  0.00     0.022 A 
BRANCH  95  98
ATOM     98  S   UNL A   1      53.141  35.483  27.970  1.00  0.00     0.127 S 
ATOM     99  O   UNL A   1      53.496  34.158  28.478  1.00  0.00    -0.237 OA
ATOM    100  O   UNL A   1      54.094  36.043  27.009  1.00  0.00    -0.237 OA
ATOM    101  O   UNL A   1      52.665  36.429  28.969  1.00  0.00    -0.744 OA
ENDBRANCH  95  98
ENDBRANCH  68  91
ENDBRANCH  42  43
ENDBRANCH  34  37
ENDBRANCH  32  33
ENDBRANCH  31  32
ENDBRANCH  30  31
ENDBRANCH  28  30
ENDBRANCH   1  26
TORSDOF 22
ENDMDL
