MODEL 1
REMARK VINA RESULT:     -12.2      0.000      0.000
REMARK SMILES Cc1ccc(O[C@H](C)C(=O)NNC(=O)[C@@H]2[C@@H](C(=O)NCCCNC(=O)c3ccc(-c4c5nc(c(-c6cccc(S(=O)(=O)[O-])c6F)c6ccc([nH]6)c(-c6cccc(S(=O)(=O)[O-])c6F)c6nc(c(-c7cccc(S(=O)(=O)[O-])c7F)c7ccc4[nH]7)C=C6)C=C5)cc3)[C@@H]3C=C[C@H]2C3)cc1C
REMARK SMILES IDX 20 1 19 2 17 3 18 4 16 6 15 7 92 8 89 9 91 10 93 11 90 12
REMARK SMILES IDX 13 13 12 14 14 16 11 17 9 18 10 19 7 21 8 22 6 23 5 24 1 25
REMARK SMILES IDX 2 26 3 27 95 28 4 29 94 30 96 31 21 32 22 33 23 34 24 35
REMARK SMILES IDX 25 37 26 38 27 39 88 40 28 41 87 42 29 43 30 44 31 45 81 46
REMARK SMILES IDX 32 47 86 48 80 49 82 50 33 51 85 52 79 53 78 54 34 56 66 57
REMARK SMILES IDX 46 58 65 59 47 60 50 61 64 62 83 63 48 64 49 65 63 67 84 68
REMARK SMILES IDX 51 69 35 70 36 71 44 72 37 73 39 74 45 75 38 76 40 77 41 78
REMARK SMILES IDX 42 79 43 80 67 81 68 82 76 83 69 84 71 85 77 86 70 87 72 88
REMARK SMILES IDX 73 89 74 90 75 91 52 92 53 93 61 94 54 95 56 96 62 97 55 98
REMARK SMILES IDX 57 99 58 100 59 101 60 102
REMARK H PARENT 19 5 12 15 11 20 23 36 82 55 50 66
REMARK Flexibility Score: inf
ROOT
ATOM      1  C   UNL A   1      31.697  30.636  26.910  1.00  0.00     0.117 C 
ENDROOT
BRANCH   1   2
ATOM      2  N   UNL A   1      32.658  30.125  25.952  1.00  0.00    -0.356 N 
ATOM      3  C   UNL A   1      32.514  29.182  24.986  1.00  0.00     0.224 C 
ATOM      4  O   UNL A   1      33.489  28.976  24.259  1.00  0.00    -0.275 OA
ATOM      5  H   UNL A   1      33.556  30.524  26.013  1.00  0.00     0.163 HD
BRANCH   3   6
ATOM      6  C   UNL A   1      31.192  28.437  24.809  1.00  0.00     0.098 C 
ATOM      7  C   UNL A   1      31.369  26.917  24.392  1.00  0.00     0.100 C 
ATOM      8  C   UNL A   1      30.672  26.889  23.003  1.00  0.00     0.025 C 
ATOM      9  C   UNL A   1      30.418  29.023  23.594  1.00  0.00     0.025 C 
ATOM     10  C   UNL A   1      29.192  27.117  23.190  1.00  0.00    -0.027 C 
ATOM     11  C   UNL A   1      31.042  28.256  22.428  1.00  0.00     0.017 C 
ATOM     12  C   UNL A   1      29.040  28.396  23.563  1.00  0.00    -0.027 C 
BRANCH   7  13
ATOM     13  C   UNL A   1      30.818  25.980  25.479  1.00  0.00     0.242 C 
ATOM     14  N   UNL A   1      30.835  24.618  25.365  1.00  0.00    -0.267 N 
ATOM     15  H   UNL A   1      30.778  24.100  26.200  1.00  0.00     0.191 HD
ATOM     16  O   UNL A   1      30.437  26.427  26.567  1.00  0.00    -0.273 OA
BRANCH  14  17
ATOM     17  N   UNL A   1      30.927  23.898  24.188  1.00  0.00    -0.264 N 
ATOM     18  C   UNL A   1      31.885  22.934  23.963  1.00  0.00     0.279 C 
ATOM     19  O   UNL A   1      31.702  22.121  23.052  1.00  0.00    -0.269 OA
ATOM     20  H   UNL A   1      30.275  24.083  23.474  1.00  0.00     0.191 HD
BRANCH  18  21
ATOM     21  C   UNL A   1      33.199  22.958  24.771  1.00  0.00     0.260 C 
ATOM     22  C   UNL A   1      33.061  21.964  25.932  1.00  0.00     0.064 C 
BRANCH  21  23
ATOM     23  O   UNL A   1      34.329  22.661  23.947  1.00  0.00    -0.481 OA
BRANCH  23  24
ATOM     24  C   UNL A   1      35.572  22.654  24.529  1.00  0.00     0.120 A 
ATOM     25  C   UNL A   1      39.424  22.237  26.474  1.00  0.00     0.044 C 
ATOM     26  C   UNL A   1      38.106  22.348  25.759  1.00  0.00    -0.048 A 
ATOM     27  C   UNL A   1      37.428  23.574  25.785  1.00  0.00     0.007 A 
ATOM     28  C   UNL A   1      37.520  21.264  25.078  1.00  0.00    -0.045 A 
ATOM     29  C   UNL A   1      36.183  23.729  25.170  1.00  0.00     0.047 A 
ATOM     30  C   UNL A   1      36.257  21.435  24.473  1.00  0.00     0.050 A 
ATOM     31  C   UNL A   1      38.179  19.917  24.973  1.00  0.00     0.045 C 
ENDBRANCH  23  24
ENDBRANCH  21  23
ENDBRANCH  18  21
ENDBRANCH  14  17
ENDBRANCH   7  13
ENDBRANCH   3   6
ENDBRANCH   1   2
BRANCH   1  32
ATOM     32  C   UNL A   1      31.549  32.151  26.812  1.00  0.00     0.042 C 
BRANCH  32  33
ATOM     33  C   UNL A   1      32.858  32.909  27.029  1.00  0.00     0.118 C 
BRANCH  33  34
ATOM     34  N   UNL A   1      32.645  34.219  27.627  1.00  0.00    -0.352 N 
ATOM     35  C   UNL A   1      33.177  34.777  28.761  1.00  0.00     0.251 C 
ATOM     36  H   UNL A   1      32.016  34.799  27.138  1.00  0.00     0.163 HD
ATOM     37  O   UNL A   1      32.685  35.814  29.203  1.00  0.00    -0.269 OA
BRANCH  35  38
ATOM     38  C   UNL A   1      34.327  34.155  29.456  1.00  0.00     0.039 A 
ATOM     39  C   UNL A   1      34.072  33.241  30.484  1.00  0.00     0.014 A 
ATOM     40  C   UNL A   1      35.644  34.511  29.155  1.00  0.00     0.014 A 
ATOM     41  C   UNL A   1      35.134  32.658  31.178  1.00  0.00     0.010 A 
ATOM     42  C   UNL A   1      36.705  33.875  29.800  1.00  0.00     0.010 A 
ATOM     43  C   UNL A   1      36.462  32.954  30.827  1.00  0.00    -0.014 A 
BRANCH  43  44
ATOM     44  C   UNL A   1      37.597  32.294  31.523  1.00  0.00     0.031 A 
ATOM     45  C   UNL A   1      38.342  31.157  30.877  1.00  0.00     0.074 A 
ATOM     46  C   UNL A   1      37.913  32.676  32.776  1.00  0.00     0.049 A 
ATOM     47  N   UNL A   1      39.363  30.478  31.334  1.00  0.00    -0.248 NA
ATOM     48  C   UNL A   1      37.862  30.704  29.563  1.00  0.00     0.031 C 
ATOM     49  C   UNL A   1      37.199  33.693  33.552  1.00  0.00     0.029 A 
ATOM     50  N   UNL A   1      38.899  32.240  33.625  1.00  0.00    -0.354 N 
ATOM     51  C   UNL A   1      39.627  29.500  30.383  1.00  0.00     0.074 A 
ATOM     52  C   UNL A   1      38.634  29.650  29.340  1.00  0.00     0.031 C 
ATOM     53  C   UNL A   1      37.775  33.809  34.757  1.00  0.00     0.029 A 
ATOM     54  C   UNL A   1      38.888  32.868  34.848  1.00  0.00     0.049 A 
ATOM     55  H   UNL A   1      39.551  31.545  33.383  1.00  0.00     0.167 HD
ATOM     56  C   UNL A   1      40.623  28.582  30.359  1.00  0.00     0.034 A 
ATOM     57  C   UNL A   1      39.691  32.715  35.919  1.00  0.00     0.034 A 
ATOM     58  C   UNL A   1      41.638  28.470  31.372  1.00  0.00     0.049 A 
ATOM     59  C   UNL A   1      40.848  31.758  35.833  1.00  0.00     0.074 A 
ATOM     60  C   UNL A   1      42.749  27.646  31.393  1.00  0.00     0.029 A 
ATOM     61  N   UNL A   1      41.665  29.204  32.548  1.00  0.00    -0.354 N 
ATOM     62  N   UNL A   1      41.193  30.971  34.842  1.00  0.00    -0.248 NA
ATOM     63  C   UNL A   1      41.754  31.702  36.989  1.00  0.00     0.031 C 
ATOM     64  C   UNL A   1      43.443  27.875  32.587  1.00  0.00     0.029 A 
ATOM     65  C   UNL A   1      42.770  28.851  33.305  1.00  0.00     0.049 A 
ATOM     66  H   UNL A   1      40.996  29.877  32.808  1.00  0.00     0.167 HD
ATOM     67  C   UNL A   1      42.368  30.345  35.242  1.00  0.00     0.074 A 
ATOM     68  C   UNL A   1      42.690  30.867  36.556  1.00  0.00     0.031 C 
ATOM     69  C   UNL A   1      43.103  29.410  34.590  1.00  0.00     0.034 A 
BRANCH  56  70
ATOM     70  C   UNL A   1      40.702  27.672  29.159  1.00  0.00     0.023 A 
ATOM     71  C   UNL A   1      39.879  26.528  29.105  1.00  0.00     0.012 A 
ATOM     72  C   UNL A   1      41.553  27.961  28.075  1.00  0.00     0.148 A 
ATOM     73  C   UNL A   1      39.930  25.664  28.012  1.00  0.00     0.002 A 
ATOM     74  C   UNL A   1      41.569  27.116  26.969  1.00  0.00     0.091 A 
ATOM     75  F   UNL A   1      42.348  29.037  28.151  1.00  0.00    -0.205 F 
ATOM     76  C   UNL A   1      40.768  25.963  26.941  1.00  0.00     0.022 A 
BRANCH  74  77
ATOM     77  S   UNL A   1      42.560  27.463  25.511  1.00  0.00     0.127 S 
ATOM     78  O   UNL A   1      43.895  27.608  26.088  1.00  0.00    -0.237 OA
ATOM     79  O   UNL A   1      42.371  26.255  24.708  1.00  0.00    -0.237 OA
ATOM     80  O   UNL A   1      41.989  28.670  24.926  1.00  0.00    -0.744 OA
ENDBRANCH  74  77
ENDBRANCH  56  70
BRANCH  57  81
ATOM     81  C   UNL A   1      39.479  33.573  37.118  1.00  0.00     0.023 A 
ATOM     82  C   UNL A   1      39.919  34.911  37.094  1.00  0.00     0.012 A 
ATOM     83  C   UNL A   1      38.774  33.101  38.243  1.00  0.00     0.148 A 
ATOM     84  C   UNL A   1      39.678  35.758  38.175  1.00  0.00     0.002 A 
ATOM     85  C   UNL A   1      38.489  33.966  39.294  1.00  0.00     0.091 A 
ATOM     86  F   UNL A   1      38.374  31.822  38.251  1.00  0.00    -0.205 F 
ATOM     87  C   UNL A   1      38.953  35.290  39.268  1.00  0.00     0.022 A 
BRANCH  85  88
ATOM     88  S   UNL A   1      37.437  33.492  40.671  1.00  0.00     0.127 S 
ATOM     89  O   UNL A   1      38.242  32.462  41.323  1.00  0.00    -0.237 OA
ATOM     90  O   UNL A   1      37.322  34.747  41.414  1.00  0.00    -0.237 OA
ATOM     91  O   UNL A   1      36.188  33.038  40.073  1.00  0.00    -0.744 OA
ENDBRANCH  85  88
ENDBRANCH  57  81
BRANCH  69  92
ATOM     92  C   UNL A   1      44.337  28.891  35.282  1.00  0.00     0.023 A 
ATOM     93  C   UNL A   1      45.585  29.487  35.016  1.00  0.00     0.012 A 
ATOM     94  C   UNL A   1      44.253  27.861  36.238  1.00  0.00     0.148 A 
ATOM     95  C   UNL A   1      46.736  29.044  35.666  1.00  0.00     0.002 A 
ATOM     96  C   UNL A   1      45.398  27.453  36.914  1.00  0.00     0.091 A 
ATOM     97  F   UNL A   1      43.061  27.287  36.463  1.00  0.00    -0.205 F 
ATOM     98  C   UNL A   1      46.641  28.036  36.622  1.00  0.00     0.022 A 
BRANCH  96  99
ATOM     99  S   UNL A   1      45.343  26.222  38.223  1.00  0.00     0.127 S 
ATOM    100  O   UNL A   1      46.760  26.067  38.546  1.00  0.00    -0.237 OA
ATOM    101  O   UNL A   1      44.551  26.893  39.256  1.00  0.00    -0.237 OA
ATOM    102  O   UNL A   1      44.694  25.056  37.637  1.00  0.00    -0.744 OA
ENDBRANCH  96  99
ENDBRANCH  69  92
ENDBRANCH  43  44
ENDBRANCH  35  38
ENDBRANCH  33  34
ENDBRANCH  32  33
ENDBRANCH   1  32
TORSDOF 18
ENDMDL
MODEL 2
REMARK VINA RESULT:     -12.2      3.650      8.288
REMARK SMILES Cc1ccc(O[C@H](C)C(=O)NNC(=O)[C@@H]2[C@@H](C(=O)NCCCNC(=O)c3ccc(-c4c5nc(c(-c6cccc(S(=O)(=O)[O-])c6F)c6ccc([nH]6)c(-c6cccc(S(=O)(=O)[O-])c6F)c6nc(c(-c7cccc(S(=O)(=O)[O-])c7F)c7ccc4[nH]7)C=C6)C=C5)cc3)[C@@H]3C=C[C@H]2C3)cc1C
REMARK SMILES IDX 20 1 19 2 17 3 18 4 16 6 15 7 92 8 89 9 91 10 93 11 90 12
REMARK SMILES IDX 13 13 12 14 14 16 11 17 9 18 10 19 7 21 8 22 6 23 5 24 1 25
REMARK SMILES IDX 2 26 3 27 95 28 4 29 94 30 96 31 21 32 22 33 23 34 24 35
REMARK SMILES IDX 25 37 26 38 27 39 88 40 28 41 87 42 29 43 30 44 31 45 81 46
REMARK SMILES IDX 32 47 86 48 80 49 82 50 33 51 85 52 79 53 78 54 34 56 66 57
REMARK SMILES IDX 46 58 65 59 47 60 50 61 64 62 83 63 48 64 49 65 63 67 84 68
REMARK SMILES IDX 51 69 35 70 36 71 44 72 37 73 39 74 45 75 38 76 40 77 41 78
REMARK SMILES IDX 42 79 43 80 67 81 68 82 76 83 69 84 71 85 77 86 70 87 72 88
REMARK SMILES IDX 73 89 74 90 75 91 52 92 53 93 61 94 54 95 56 96 62 97 55 98
REMARK SMILES IDX 57 99 58 100 59 101 60 102
REMARK H PARENT 19 5 12 15 11 20 23 36 82 55 50 66
REMARK Flexibility Score: inf
ROOT
ATOM      1  C   UNL A   1      33.169  29.672  24.975  1.00  0.00     0.117 C 
ENDROOT
BRANCH   1   2
ATOM      2  N   UNL A   1      33.704  29.322  23.674  1.00  0.00    -0.356 N 
ATOM      3  C   UNL A   1      33.561  28.185  22.945  1.00  0.00     0.224 C 
ATOM      4  O   UNL A   1      34.081  28.173  21.826  1.00  0.00    -0.275 OA
ATOM      5  H   UNL A   1      34.259  30.019  23.254  1.00  0.00     0.163 HD
BRANCH   3   6
ATOM      6  C   UNL A   1      32.774  26.997  23.493  1.00  0.00     0.098 C 
ATOM      7  C   UNL A   1      33.288  25.594  22.964  1.00  0.00     0.100 C 
ATOM      8  C   UNL A   1      32.040  25.068  22.201  1.00  0.00     0.025 C 
ATOM      9  C   UNL A   1      31.317  27.039  22.952  1.00  0.00     0.025 C 
ATOM     10  C   UNL A   1      30.940  24.780  23.193  1.00  0.00    -0.027 C 
ATOM     11  C   UNL A   1      31.469  26.350  21.595  1.00  0.00     0.017 C 
ATOM     12  C   UNL A   1      30.517  25.964  23.659  1.00  0.00    -0.027 C 
BRANCH   7  13
ATOM     13  C   UNL A   1      33.824  24.732  24.119  1.00  0.00     0.242 C 
ATOM     14  N   UNL A   1      34.104  23.401  23.985  1.00  0.00    -0.267 N 
ATOM     15  H   UNL A   1      34.731  23.009  24.636  1.00  0.00     0.191 HD
ATOM     16  O   UNL A   1      34.139  25.245  25.199  1.00  0.00    -0.273 OA
BRANCH  14  17
ATOM     17  N   UNL A   1      33.593  22.551  23.022  1.00  0.00    -0.264 N 
ATOM     18  C   UNL A   1      32.606  21.625  23.275  1.00  0.00     0.279 C 
ATOM     19  O   UNL A   1      31.982  21.151  22.321  1.00  0.00    -0.269 OA
ATOM     20  H   UNL A   1      33.954  22.610  22.108  1.00  0.00     0.191 HD
BRANCH  18  21
ATOM     21  C   UNL A   1      32.378  21.124  24.717  1.00  0.00     0.260 C 
ATOM     22  C   UNL A   1      31.393  22.081  25.402  1.00  0.00     0.064 C 
BRANCH  21  23
ATOM     23  O   UNL A   1      31.909  19.773  24.736  1.00  0.00    -0.481 OA
BRANCH  23  24
ATOM     24  C   UNL A   1      32.840  18.765  24.758  1.00  0.00     0.120 A 
ATOM     25  C   UNL A   1      35.560  15.410  25.137  1.00  0.00     0.044 C 
ATOM     26  C   UNL A   1      34.579  16.539  24.985  1.00  0.00    -0.048 A 
ATOM     27  C   UNL A   1      35.060  17.803  24.619  1.00  0.00     0.007 A 
ATOM     28  C   UNL A   1      33.199  16.378  25.211  1.00  0.00    -0.045 A 
ATOM     29  C   UNL A   1      34.201  18.900  24.497  1.00  0.00     0.047 A 
ATOM     30  C   UNL A   1      32.349  17.499  25.095  1.00  0.00     0.050 A 
ATOM     31  C   UNL A   1      32.583  15.058  25.584  1.00  0.00     0.045 C 
ENDBRANCH  23  24
ENDBRANCH  21  23
ENDBRANCH  18  21
ENDBRANCH  14  17
ENDBRANCH   7  13
ENDBRANCH   3   6
ENDBRANCH   1   2
BRANCH   1  32
ATOM     32  C   UNL A   1      33.606  28.684  26.052  1.00  0.00     0.042 C 
BRANCH  32  33
ATOM     33  C   UNL A   1      33.382  29.191  27.476  1.00  0.00     0.118 C 
BRANCH  33  34
ATOM     34  N   UNL A   1      33.522  30.637  27.575  1.00  0.00    -0.352 N 
ATOM     35  C   UNL A   1      34.479  31.399  28.195  1.00  0.00     0.251 C 
ATOM     36  H   UNL A   1      32.814  31.153  27.124  1.00  0.00     0.163 HD
ATOM     37  O   UNL A   1      34.278  32.602  28.346  1.00  0.00    -0.269 OA
BRANCH  35  38
ATOM     38  C   UNL A   1      35.742  30.797  28.682  1.00  0.00     0.039 A 
ATOM     39  C   UNL A   1      36.945  31.200  28.092  1.00  0.00     0.014 A 
ATOM     40  C   UNL A   1      35.749  29.799  29.659  1.00  0.00     0.014 A 
ATOM     41  C   UNL A   1      38.151  30.631  28.508  1.00  0.00     0.010 A 
ATOM     42  C   UNL A   1      36.958  29.284  30.124  1.00  0.00     0.010 A 
ATOM     43  C   UNL A   1      38.170  29.682  29.545  1.00  0.00    -0.014 A 
BRANCH  43  44
ATOM     44  C   UNL A   1      39.454  29.116  30.032  1.00  0.00     0.031 A 
ATOM     45  C   UNL A   1      40.133  29.681  31.251  1.00  0.00     0.074 A 
ATOM     46  C   UNL A   1      40.048  28.132  29.330  1.00  0.00     0.049 A 
ATOM     47  N   UNL A   1      41.247  29.301  31.823  1.00  0.00    -0.248 NA
ATOM     48  C   UNL A   1      39.496  30.840  31.894  1.00  0.00     0.031 C 
ATOM     49  C   UNL A   1      39.545  27.571  28.074  1.00  0.00     0.029 A 
ATOM     50  N   UNL A   1      41.213  27.444  29.558  1.00  0.00    -0.354 N 
ATOM     51  C   UNL A   1      41.461  30.189  32.869  1.00  0.00     0.074 A 
ATOM     52  C   UNL A   1      40.381  31.151  32.831  1.00  0.00     0.031 C 
ATOM     53  C   UNL A   1      40.390  26.622  27.648  1.00  0.00     0.029 A 
ATOM     54  C   UNL A   1      41.501  26.513  28.589  1.00  0.00     0.049 A 
ATOM     55  H   UNL A   1      41.788  27.603  30.341  1.00  0.00     0.167 HD
ATOM     56  C   UNL A   1      42.447  30.186  33.799  1.00  0.00     0.034 A 
ATOM     57  C   UNL A   1      42.536  25.658  28.475  1.00  0.00     0.034 A 
ATOM     58  C   UNL A   1      43.489  29.197  33.865  1.00  0.00     0.049 A 
ATOM     59  C   UNL A   1      43.566  25.609  29.570  1.00  0.00     0.074 A 
ATOM     60  C   UNL A   1      44.473  29.044  34.825  1.00  0.00     0.029 A 
ATOM     61  N   UNL A   1      43.685  28.193  32.929  1.00  0.00    -0.354 N 
ATOM     62  N   UNL A   1      43.648  26.338  30.656  1.00  0.00    -0.248 NA
ATOM     63  C   UNL A   1      44.618  24.589  29.450  1.00  0.00     0.031 C 
ATOM     64  C   UNL A   1      45.271  27.951  34.464  1.00  0.00     0.029 A 
ATOM     65  C   UNL A   1      44.776  27.417  33.285  1.00  0.00     0.049 A 
ATOM     66  H   UNL A   1      43.131  28.053  32.128  1.00  0.00     0.167 HD
ATOM     67  C   UNL A   1      44.742  25.851  31.363  1.00  0.00     0.074 A 
ATOM     68  C   UNL A   1      45.275  24.744  30.592  1.00  0.00     0.031 C 
ATOM     69  C   UNL A   1      45.269  26.291  32.532  1.00  0.00     0.034 A 
BRANCH  56  70
ATOM     70  C   UNL A   1      42.398  31.252  34.866  1.00  0.00     0.023 A 
ATOM     71  C   UNL A   1      41.671  31.009  36.050  1.00  0.00     0.012 A 
ATOM     72  C   UNL A   1      43.093  32.467  34.721  1.00  0.00     0.148 A 
ATOM     73  C   UNL A   1      41.602  31.974  37.054  1.00  0.00     0.002 A 
ATOM     74  C   UNL A   1      43.054  33.409  35.745  1.00  0.00     0.091 A 
ATOM     75  F   UNL A   1      43.758  32.695  33.580  1.00  0.00    -0.205 F 
ATOM     76  C   UNL A   1      42.301  33.169  36.905  1.00  0.00     0.022 A 
BRANCH  74  77
ATOM     77  S   UNL A   1      43.984  34.944  35.672  1.00  0.00     0.127 S 
ATOM     78  O   UNL A   1      43.653  35.552  36.960  1.00  0.00    -0.237 OA
ATOM     79  O   UNL A   1      45.363  34.472  35.558  1.00  0.00    -0.237 OA
ATOM     80  O   UNL A   1      43.490  35.647  34.495  1.00  0.00    -0.744 OA
ENDBRANCH  74  77
ENDBRANCH  56  70
BRANCH  57  81
ATOM     81  C   UNL A   1      42.574  24.709  27.327  1.00  0.00     0.023 A 
ATOM     82  C   UNL A   1      43.267  25.074  26.156  1.00  0.00     0.012 A 
ATOM     83  C   UNL A   1      42.003  23.424  27.417  1.00  0.00     0.148 A 
ATOM     84  C   UNL A   1      43.375  24.182  25.088  1.00  0.00     0.002 A 
ATOM     85  C   UNL A   1      42.162  22.522  26.372  1.00  0.00     0.091 A 
ATOM     86  F   UNL A   1      41.338  23.101  28.536  1.00  0.00    -0.205 F 
ATOM     87  C   UNL A   1      42.835  22.904  25.201  1.00  0.00     0.022 A 
BRANCH  85  88
ATOM     88  S   UNL A   1      41.629  20.810  26.489  1.00  0.00     0.127 S 
ATOM     89  O   UNL A   1      40.189  20.929  26.277  1.00  0.00    -0.237 OA
ATOM     90  O   UNL A   1      42.364  20.184  25.390  1.00  0.00    -0.237 OA
ATOM     91  O   UNL A   1      42.041  20.360  27.813  1.00  0.00    -0.744 OA
ENDBRANCH  85  88
ENDBRANCH  57  81
BRANCH  69  92
ATOM     92  C   UNL A   1      46.483  25.573  33.060  1.00  0.00     0.023 A 
ATOM     93  C   UNL A   1      47.767  26.069  32.761  1.00  0.00     0.012 A 
ATOM     94  C   UNL A   1      46.354  24.450  33.899  1.00  0.00     0.148 A 
ATOM     95  C   UNL A   1      48.906  25.439  33.262  1.00  0.00     0.002 A 
ATOM     96  C   UNL A   1      47.492  23.852  34.430  1.00  0.00     0.091 A 
ATOM     97  F   UNL A   1      45.126  23.975  34.155  1.00  0.00    -0.205 F 
ATOM     98  C   UNL A   1      48.768  24.340  34.105  1.00  0.00     0.022 A 
BRANCH  96  99
ATOM     99  S   UNL A   1      47.395  22.486  35.594  1.00  0.00     0.127 S 
ATOM    100  O   UNL A   1      48.799  22.299  35.953  1.00  0.00    -0.237 OA
ATOM    101  O   UNL A   1      46.561  23.040  36.663  1.00  0.00    -0.237 OA
ATOM    102  O   UNL A   1      46.775  21.390  34.860  1.00  0.00    -0.744 OA
ENDBRANCH  96  99
ENDBRANCH  69  92
ENDBRANCH  43  44
ENDBRANCH  35  38
ENDBRANCH  33  34
ENDBRANCH  32  33
ENDBRANCH   1  32
TORSDOF 18
ENDMDL
MODEL 3
REMARK VINA RESULT:     -12.0      1.492      7.753
REMARK SMILES Cc1ccc(O[C@H](C)C(=O)NNC(=O)[C@@H]2[C@@H](C(=O)NCCCNC(=O)c3ccc(-c4c5nc(c(-c6cccc(S(=O)(=O)[O-])c6F)c6ccc([nH]6)c(-c6cccc(S(=O)(=O)[O-])c6F)c6nc(c(-c7cccc(S(=O)(=O)[O-])c7F)c7ccc4[nH]7)C=C6)C=C5)cc3)[C@@H]3C=C[C@H]2C3)cc1C
REMARK SMILES IDX 20 1 19 2 17 3 18 4 16 6 15 7 92 8 89 9 91 10 93 11 90 12
REMARK SMILES IDX 13 13 12 14 14 16 11 17 9 18 10 19 7 21 8 22 6 23 5 24 1 25
REMARK SMILES IDX 2 26 3 27 95 28 4 29 94 30 96 31 21 32 22 33 23 34 24 35
REMARK SMILES IDX 25 37 26 38 27 39 88 40 28 41 87 42 29 43 30 44 31 45 81 46
REMARK SMILES IDX 32 47 86 48 80 49 82 50 33 51 85 52 79 53 78 54 34 56 66 57
REMARK SMILES IDX 46 58 65 59 47 60 50 61 64 62 83 63 48 64 49 65 63 67 84 68
REMARK SMILES IDX 51 69 35 70 36 71 44 72 37 73 39 74 45 75 38 76 40 77 41 78
REMARK SMILES IDX 42 79 43 80 67 81 68 82 76 83 69 84 71 85 77 86 70 87 72 88
REMARK SMILES IDX 73 89 74 90 75 91 52 92 53 93 61 94 54 95 56 96 62 97 55 98
REMARK SMILES IDX 57 99 58 100 59 101 60 102
REMARK H PARENT 19 5 12 15 11 20 23 36 82 55 50 66
REMARK Flexibility Score: inf
ROOT
ATOM      1  C   UNL A   1      31.531  31.144  26.608  1.00  0.00     0.117 C 
ENDROOT
BRANCH   1   2
ATOM      2  N   UNL A   1      32.838  30.593  26.910  1.00  0.00    -0.356 N 
ATOM      3  C   UNL A   1      33.389  29.402  26.556  1.00  0.00     0.224 C 
ATOM      4  O   UNL A   1      34.557  29.206  26.901  1.00  0.00    -0.275 OA
ATOM      5  H   UNL A   1      33.416  31.172  27.458  1.00  0.00     0.163 HD
BRANCH   3   6
ATOM      6  C   UNL A   1      32.591  28.377  25.754  1.00  0.00     0.098 C 
ATOM      7  C   UNL A   1      33.419  27.079  25.378  1.00  0.00     0.100 C 
ATOM      8  C   UNL A   1      33.414  27.140  23.825  1.00  0.00     0.025 C 
ATOM      9  C   UNL A   1      32.245  28.962  24.355  1.00  0.00     0.025 C 
ATOM     10  C   UNL A   1      32.008  26.915  23.327  1.00  0.00    -0.027 C 
ATOM     11  C   UNL A   1      33.511  28.642  23.561  1.00  0.00     0.017 C 
ATOM     12  C   UNL A   1      31.299  28.003  23.661  1.00  0.00    -0.027 C 
BRANCH   7  13
ATOM     13  C   UNL A   1      32.813  25.829  26.038  1.00  0.00     0.242 C 
ATOM     14  N   UNL A   1      33.467  24.630  26.100  1.00  0.00    -0.267 N 
ATOM     15  H   UNL A   1      33.175  23.999  26.798  1.00  0.00     0.191 HD
ATOM     16  O   UNL A   1      31.741  25.893  26.651  1.00  0.00    -0.273 OA
BRANCH  14  17
ATOM     17  N   UNL A   1      34.500  24.219  25.278  1.00  0.00    -0.264 N 
ATOM     18  C   UNL A   1      34.316  23.817  23.974  1.00  0.00     0.279 C 
ATOM     19  O   UNL A   1      35.295  23.790  23.222  1.00  0.00    -0.269 OA
ATOM     20  H   UNL A   1      35.414  24.211  25.645  1.00  0.00     0.191 HD
BRANCH  18  21
ATOM     21  C   UNL A   1      32.931  23.315  23.516  1.00  0.00     0.260 C 
ATOM     22  C   UNL A   1      33.055  22.840  22.062  1.00  0.00     0.064 C 
BRANCH  21  23
ATOM     23  O   UNL A   1      32.435  22.283  24.373  1.00  0.00    -0.481 OA
BRANCH  23  24
ATOM     24  C   UNL A   1      33.021  21.044  24.301  1.00  0.00     0.120 A 
ATOM     25  C   UNL A   1      34.486  16.973  24.031  1.00  0.00     0.044 C 
ATOM     26  C   UNL A   1      33.965  18.382  24.071  1.00  0.00    -0.048 A 
ATOM     27  C   UNL A   1      34.623  19.320  24.878  1.00  0.00     0.007 A 
ATOM     28  C   UNL A   1      32.833  18.792  23.342  1.00  0.00    -0.045 A 
ATOM     29  C   UNL A   1      34.164  20.636  24.984  1.00  0.00     0.047 A 
ATOM     30  C   UNL A   1      32.376  20.121  23.471  1.00  0.00     0.050 A 
ATOM     31  C   UNL A   1      32.072  17.868  22.431  1.00  0.00     0.045 C 
ENDBRANCH  23  24
ENDBRANCH  21  23
ENDBRANCH  18  21
ENDBRANCH  14  17
ENDBRANCH   7  13
ENDBRANCH   3   6
ENDBRANCH   1   2
BRANCH   1  32
ATOM     32  C   UNL A   1      31.503  32.660  26.776  1.00  0.00     0.042 C 
BRANCH  32  33
ATOM     33  C   UNL A   1      32.794  33.236  27.356  1.00  0.00     0.118 C 
BRANCH  33  34
ATOM     34  N   UNL A   1      32.570  34.486  28.068  1.00  0.00    -0.352 N 
ATOM     35  C   UNL A   1      33.111  34.952  29.238  1.00  0.00     0.251 C 
ATOM     36  H   UNL A   1      31.925  35.095  27.640  1.00  0.00     0.163 HD
ATOM     37  O   UNL A   1      32.609  35.938  29.776  1.00  0.00    -0.269 OA
BRANCH  35  38
ATOM     38  C   UNL A   1      34.281  34.292  29.861  1.00  0.00     0.039 A 
ATOM     39  C   UNL A   1      35.550  34.537  29.325  1.00  0.00     0.014 A 
ATOM     40  C   UNL A   1      34.136  33.386  30.915  1.00  0.00     0.014 A 
ATOM     41  C   UNL A   1      36.671  33.908  29.871  1.00  0.00     0.010 A 
ATOM     42  C   UNL A   1      35.262  32.814  31.505  1.00  0.00     0.010 A 
ATOM     43  C   UNL A   1      36.539  33.056  30.981  1.00  0.00    -0.014 A 
BRANCH  43  44
ATOM     44  C   UNL A   1      37.733  32.428  31.603  1.00  0.00     0.031 A 
ATOM     45  C   UNL A   1      38.287  32.943  32.904  1.00  0.00     0.074 A 
ATOM     46  C   UNL A   1      38.367  31.432  30.953  1.00  0.00     0.049 A 
ATOM     47  N   UNL A   1      39.309  32.507  33.593  1.00  0.00    -0.248 NA
ATOM     48  C   UNL A   1      37.625  34.117  33.494  1.00  0.00     0.031 C 
ATOM     49  C   UNL A   1      37.993  30.915  29.635  1.00  0.00     0.029 A 
ATOM     50  N   UNL A   1      39.469  30.693  31.301  1.00  0.00    -0.354 N 
ATOM     51  C   UNL A   1      39.435  33.367  34.677  1.00  0.00     0.074 A 
ATOM     52  C   UNL A   1      38.405  34.375  34.534  1.00  0.00     0.031 C 
ATOM     53  C   UNL A   1      38.844  29.938  29.290  1.00  0.00     0.029 A 
ATOM     54  C   UNL A   1      39.832  29.767  30.351  1.00  0.00     0.049 A 
ATOM     55  H   UNL A   1      39.954  30.814  32.148  1.00  0.00     0.167 HD
ATOM     56  C   UNL A   1      40.303  33.308  35.715  1.00  0.00     0.034 A 
ATOM     57  C   UNL A   1      40.839  28.871  30.341  1.00  0.00     0.034 A 
ATOM     58  C   UNL A   1      41.291  32.275  35.881  1.00  0.00     0.049 A 
ATOM     59  C   UNL A   1      41.730  28.760  31.547  1.00  0.00     0.074 A 
ATOM     60  C   UNL A   1      42.148  32.064  36.945  1.00  0.00     0.029 A 
ATOM     61  N   UNL A   1      41.556  31.280  34.953  1.00  0.00    -0.354 N 
ATOM     62  N   UNL A   1      41.712  29.467  32.651  1.00  0.00    -0.248 NA
ATOM     63  C   UNL A   1      42.748  27.700  31.528  1.00  0.00     0.031 C 
ATOM     64  C   UNL A   1      42.939  30.945  36.656  1.00  0.00     0.029 A 
ATOM     65  C   UNL A   1      42.566  30.453  35.416  1.00  0.00     0.049 A 
ATOM     66  H   UNL A   1      41.094  31.176  34.089  1.00  0.00     0.167 HD
ATOM     67  C   UNL A   1      42.696  28.923  33.469  1.00  0.00     0.074 A 
ATOM     68  C   UNL A   1      43.271  27.808  32.742  1.00  0.00     0.031 C 
ATOM     69  C   UNL A   1      43.098  29.320  34.702  1.00  0.00     0.034 A 
BRANCH  56  70
ATOM     70  C   UNL A   1      40.172  34.355  36.792  1.00  0.00     0.023 A 
ATOM     71  C   UNL A   1      40.568  35.681  36.517  1.00  0.00     0.012 A 
ATOM     72  C   UNL A   1      39.628  34.046  38.053  1.00  0.00     0.148 A 
ATOM     73  C   UNL A   1      40.463  36.673  37.492  1.00  0.00     0.002 A 
ATOM     74  C   UNL A   1      39.488  35.050  39.007  1.00  0.00     0.091 A 
ATOM     75  F   UNL A   1      39.280  32.778  38.310  1.00  0.00    -0.205 F 
ATOM     76  C   UNL A   1      39.915  36.359  38.733  1.00  0.00     0.022 A 
BRANCH  74  77
ATOM     77  S   UNL A   1      38.724  34.754  40.606  1.00  0.00     0.127 S 
ATOM     78  O   UNL A   1      37.564  33.946  40.235  1.00  0.00    -0.237 OA
ATOM     79  O   UNL A   1      39.769  34.026  41.325  1.00  0.00    -0.237 OA
ATOM     80  O   UNL A   1      38.428  36.074  41.150  1.00  0.00    -0.744 OA
ENDBRANCH  74  77
ENDBRANCH  56  70
BRANCH  57  81
ATOM     81  C   UNL A   1      40.974  27.942  29.184  1.00  0.00     0.023 A 
ATOM     82  C   UNL A   1      40.156  26.798  29.121  1.00  0.00     0.012 A 
ATOM     83  C   UNL A   1      41.844  28.227  28.113  1.00  0.00     0.148 A 
ATOM     84  C   UNL A   1      40.214  25.943  28.019  1.00  0.00     0.002 A 
ATOM     85  C   UNL A   1      41.857  27.401  26.994  1.00  0.00     0.091 A 
ATOM     86  F   UNL A   1      42.623  29.314  28.198  1.00  0.00    -0.205 F 
ATOM     87  C   UNL A   1      41.053  26.251  26.952  1.00  0.00     0.022 A 
BRANCH  85  88
ATOM     88  S   UNL A   1      42.795  27.800  25.514  1.00  0.00     0.127 S 
ATOM     89  O   UNL A   1      44.156  27.895  26.038  1.00  0.00    -0.237 OA
ATOM     90  O   UNL A   1      42.541  26.635  24.667  1.00  0.00    -0.237 OA
ATOM     91  O   UNL A   1      42.221  29.040  25.009  1.00  0.00    -0.744 OA
ENDBRANCH  85  88
ENDBRANCH  57  81
BRANCH  69  92
ATOM     92  C   UNL A   1      44.213  28.543  35.352  1.00  0.00     0.023 A 
ATOM     93  C   UNL A   1      45.551  28.854  35.037  1.00  0.00     0.012 A 
ATOM     94  C   UNL A   1      43.941  27.554  36.315  1.00  0.00     0.148 A 
ATOM     95  C   UNL A   1      46.601  28.169  35.648  1.00  0.00     0.002 A 
ATOM     96  C   UNL A   1      44.994  26.904  36.951  1.00  0.00     0.091 A 
ATOM     97  F   UNL A   1      42.663  27.252  36.586  1.00  0.00    -0.205 F 
ATOM     98  C   UNL A   1      46.323  27.203  36.612  1.00  0.00     0.022 A 
BRANCH  96  99
ATOM     99  S   UNL A   1      44.720  25.712  38.268  1.00  0.00     0.127 S 
ATOM    100  O   UNL A   1      46.088  25.392  38.672  1.00  0.00    -0.237 OA
ATOM    101  O   UNL A   1      43.961  26.491  39.249  1.00  0.00    -0.237 OA
ATOM    102  O   UNL A   1      43.967  24.622  37.659  1.00  0.00    -0.744 OA
ENDBRANCH  96  99
ENDBRANCH  69  92
ENDBRANCH  43  44
ENDBRANCH  35  38
ENDBRANCH  33  34
ENDBRANCH  32  33
ENDBRANCH   1  32
TORSDOF 18
ENDMDL
