MODEL 1
REMARK VINA RESULT:      -8.4      0.000      0.000
REMARK SMILES CC/C=C/C/C=C/C/C=C/C/C=C/CCSCCCC(=O)NCCCNC(=O)c1ccc(-c2c3nc(c(-c4cccc(S(=O)(=O)[O-])c4F)c4ccc([nH]4)c(-c4cccc(S(=O)(=O)[O-])c4F)c4nc(c(-c5cccc(S(=O)(=O)[O-])c5F)c5ccc2[nH]5)C=C4)C=C3)cc1
REMARK SMILES IDX 17 1 16 2 15 3 14 4 13 5 12 6 11 7 10 8 9 9 8 10 7 11 6 12
REMARK SMILES IDX 5 13 4 14 3 15 2 16 1 17 18 18 19 19 20 20 21 21 22 22 23 24
REMARK SMILES IDX 24 25 25 26 26 27 27 28 28 30 29 31 30 32 91 33 31 34 90 35
REMARK SMILES IDX 32 36 33 37 34 38 84 39 35 40 89 41 83 42 85 43 36 44 88 45
REMARK SMILES IDX 82 46 81 47 37 49 69 50 49 51 68 52 50 53 53 54 67 55 86 56
REMARK SMILES IDX 51 57 52 58 66 60 87 61 54 62 38 63 39 64 47 65 40 66 42 67
REMARK SMILES IDX 48 68 41 69 43 70 44 71 45 72 46 73 70 74 71 75 79 76 72 77
REMARK SMILES IDX 74 78 80 79 73 80 75 81 76 82 77 83 78 84 55 85 56 86 64 87
REMARK SMILES IDX 57 88 59 89 65 90 58 91 60 92 61 93 62 94 63 95
REMARK H PARENT 22 23 26 29 85 48 53 59
REMARK Flexibility Score: inf
ROOT
ATOM      1  C   UNL A   1      35.463  23.921  24.501  1.00  0.00     0.070 C 
ENDROOT
BRANCH   1   2
ATOM      2  S   UNL A   1      34.219  23.772  23.139  1.00  0.00    -0.162 SA
BRANCH   2   3
ATOM      3  C   UNL A   1      32.862  22.625  23.626  1.00  0.00     0.073 C 
BRANCH   3   4
ATOM      4  C   UNL A   1      31.394  23.049  23.351  1.00  0.00     0.038 C 
BRANCH   4   5
ATOM      5  C   UNL A   1      30.900  24.215  24.173  1.00  0.00    -0.030 C 
ATOM      6  C   UNL A   1      31.491  24.754  25.256  1.00  0.00    -0.027 C 
BRANCH   6   7
ATOM      7  C   UNL A   1      31.140  26.118  25.821  1.00  0.00     0.054 C 
BRANCH   7   8
ATOM      8  C   UNL A   1      32.240  26.829  26.562  1.00  0.00    -0.027 C 
ATOM      9  C   UNL A   1      33.237  27.477  25.934  1.00  0.00    -0.027 C 
BRANCH   9  10
ATOM     10  C   UNL A   1      34.386  28.150  26.633  1.00  0.00     0.054 C 
BRANCH  10  11
ATOM     11  C   UNL A   1      33.849  29.312  27.417  1.00  0.00    -0.027 C 
ATOM     12  C   UNL A   1      33.827  30.580  26.982  1.00  0.00    -0.027 C 
BRANCH  12  13
ATOM     13  C   UNL A   1      33.482  31.747  27.861  1.00  0.00     0.054 C 
BRANCH  13  14
ATOM     14  C   UNL A   1      34.725  32.241  28.544  1.00  0.00    -0.027 C 
ATOM     15  C   UNL A   1      35.950  32.216  27.996  1.00  0.00    -0.031 C 
BRANCH  15  16
ATOM     16  C   UNL A   1      37.196  32.611  28.735  1.00  0.00     0.023 C 
ATOM     17  C   UNL A   1      37.005  32.438  30.234  1.00  0.00     0.008 C 
ENDBRANCH  15  16
ENDBRANCH  13  14
ENDBRANCH  12  13
ENDBRANCH  10  11
ENDBRANCH   9  10
ENDBRANCH   7   8
ENDBRANCH   6   7
ENDBRANCH   4   5
ENDBRANCH   3   4
ENDBRANCH   2   3
ENDBRANCH   1   2
BRANCH   1  18
ATOM     18  C   UNL A   1      36.838  23.254  24.551  1.00  0.00     0.021 C 
BRANCH  18  19
ATOM     19  C   UNL A   1      37.423  22.805  25.876  1.00  0.00     0.101 C 
BRANCH  19  20
ATOM     20  C   UNL A   1      38.911  22.976  26.138  1.00  0.00     0.220 C 
ATOM     21  O   UNL A   1      39.328  24.049  26.588  1.00  0.00    -0.275 OA
ATOM     22  N   UNL A   1      39.818  21.980  25.988  1.00  0.00    -0.356 N 
ATOM     23  H   UNL A   1      40.755  22.274  26.061  1.00  0.00     0.163 HD
BRANCH  22  24
ATOM     24  C   UNL A   1      39.660  20.564  25.743  1.00  0.00     0.117 C 
BRANCH  24  25
ATOM     25  C   UNL A   1      40.783  19.732  26.334  1.00  0.00     0.042 C 
BRANCH  25  26
ATOM     26  C   UNL A   1      42.128  20.407  26.122  1.00  0.00     0.118 C 
BRANCH  26  27
ATOM     27  N   UNL A   1      43.062  19.591  25.347  1.00  0.00    -0.352 N 
ATOM     28  C   UNL A   1      44.250  19.984  24.753  1.00  0.00     0.251 C 
ATOM     29  H   UNL A   1      42.815  18.644  25.233  1.00  0.00     0.163 HD
ATOM     30  O   UNL A   1      44.875  19.230  24.035  1.00  0.00    -0.269 OA
BRANCH  28  31
ATOM     31  C   UNL A   1      44.712  21.371  24.988  1.00  0.00     0.039 A 
ATOM     32  C   UNL A   1      44.321  22.384  24.111  1.00  0.00     0.014 A 
ATOM     33  C   UNL A   1      45.416  21.673  26.155  1.00  0.00     0.014 A 
ATOM     34  C   UNL A   1      44.551  23.718  24.461  1.00  0.00     0.010 A 
ATOM     35  C   UNL A   1      45.531  22.996  26.553  1.00  0.00     0.010 A 
ATOM     36  C   UNL A   1      45.106  24.036  25.712  1.00  0.00    -0.014 A 
BRANCH  36  37
ATOM     37  C   UNL A   1      45.250  25.441  26.179  1.00  0.00     0.031 A 
ATOM     38  C   UNL A   1      46.621  26.061  26.265  1.00  0.00     0.074 A 
ATOM     39  C   UNL A   1      44.175  26.114  26.637  1.00  0.00     0.049 A 
ATOM     40  N   UNL A   1      46.974  27.221  26.754  1.00  0.00    -0.248 NA
ATOM     41  C   UNL A   1      47.753  25.248  25.784  1.00  0.00     0.031 C 
ATOM     42  C   UNL A   1      42.808  25.591  26.708  1.00  0.00     0.029 A 
ATOM     43  N   UNL A   1      44.068  27.380  27.162  1.00  0.00    -0.354 N 
ATOM     44  C   UNL A   1      48.362  27.252  26.691  1.00  0.00     0.074 A 
ATOM     45  C   UNL A   1      48.791  25.977  26.164  1.00  0.00     0.031 C 
ATOM     46  C   UNL A   1      42.000  26.530  27.228  1.00  0.00     0.029 A 
ATOM     47  C   UNL A   1      42.792  27.710  27.558  1.00  0.00     0.049 A 
ATOM     48  H   UNL A   1      44.833  27.993  27.248  1.00  0.00     0.167 HD
ATOM     49  C   UNL A   1      49.204  28.264  27.002  1.00  0.00     0.034 A 
ATOM     50  C   UNL A   1      42.314  28.836  28.125  1.00  0.00     0.034 A 
ATOM     51  C   UNL A   1      48.768  29.557  27.447  1.00  0.00     0.049 A 
ATOM     52  C   UNL A   1      43.260  29.979  28.380  1.00  0.00     0.074 A 
ATOM     53  C   UNL A   1      49.530  30.688  27.682  1.00  0.00     0.029 A 
ATOM     54  N   UNL A   1      47.452  29.896  27.719  1.00  0.00    -0.354 N 
ATOM     55  N   UNL A   1      44.550  30.048  28.157  1.00  0.00    -0.248 NA
ATOM     56  C   UNL A   1      42.681  31.215  28.929  1.00  0.00     0.031 C 
ATOM     57  C   UNL A   1      48.673  31.708  28.109  1.00  0.00     0.029 A 
ATOM     58  C   UNL A   1      47.377  31.217  28.119  1.00  0.00     0.049 A 
ATOM     59  H   UNL A   1      46.684  29.285  27.640  1.00  0.00     0.167 HD
ATOM     60  C   UNL A   1      44.930  31.339  28.500  1.00  0.00     0.074 A 
ATOM     61  C   UNL A   1      43.729  32.028  28.927  1.00  0.00     0.031 C 
ATOM     62  C   UNL A   1      46.163  31.903  28.480  1.00  0.00     0.034 A 
BRANCH  49  63
ATOM     63  C   UNL A   1      50.680  28.033  26.798  1.00  0.00     0.023 A 
ATOM     64  C   UNL A   1      51.483  27.661  27.896  1.00  0.00     0.012 A 
ATOM     65  C   UNL A   1      51.263  28.138  25.521  1.00  0.00     0.148 A 
ATOM     66  C   UNL A   1      52.849  27.440  27.736  1.00  0.00     0.002 A 
ATOM     67  C   UNL A   1      52.617  27.867  25.361  1.00  0.00     0.091 A 
ATOM     68  F   UNL A   1      50.489  28.513  24.492  1.00  0.00    -0.205 F 
ATOM     69  C   UNL A   1      53.414  27.532  26.468  1.00  0.00     0.022 A 
BRANCH  67  70
ATOM     70  S   UNL A   1      53.425  27.878  23.756  1.00  0.00     0.127 S 
ATOM     71  O   UNL A   1      52.624  26.903  23.017  1.00  0.00    -0.237 OA
ATOM     72  O   UNL A   1      53.242  29.266  23.329  1.00  0.00    -0.237 OA
ATOM     73  O   UNL A   1      54.808  27.495  24.000  1.00  0.00    -0.744 OA
ENDBRANCH  67  70
ENDBRANCH  49  63
BRANCH  50  74
ATOM     74  C   UNL A   1      40.857  28.971  28.412  1.00  0.00     0.023 A 
ATOM     75  C   UNL A   1      39.961  29.178  27.342  1.00  0.00     0.012 A 
ATOM     76  C   UNL A   1      40.347  28.874  29.721  1.00  0.00     0.148 A 
ATOM     77  C   UNL A   1      38.593  29.320  27.574  1.00  0.00     0.002 A 
ATOM     78  C   UNL A   1      38.976  28.962  29.939  1.00  0.00     0.091 A 
ATOM     79  F   UNL A   1      41.213  28.689  30.727  1.00  0.00    -0.205 F 
ATOM     80  C   UNL A   1      38.100  29.202  28.870  1.00  0.00     0.022 A 
BRANCH  78  81
ATOM     81  S   UNL A   1      38.241  28.690  31.556  1.00  0.00     0.127 S 
ATOM     82  O   UNL A   1      38.624  27.308  31.831  1.00  0.00    -0.237 OA
ATOM     83  O   UNL A   1      38.925  29.694  32.373  1.00  0.00    -0.237 OA
ATOM     84  O   UNL A   1      36.815  28.933  31.381  1.00  0.00    -0.744 OA
ENDBRANCH  78  81
ENDBRANCH  50  74
BRANCH  62  85
ATOM     85  C   UNL A   1      46.282  33.346  28.890  1.00  0.00     0.023 A 
ATOM     86  C   UNL A   1      46.639  33.671  30.213  1.00  0.00     0.012 A 
ATOM     87  C   UNL A   1      46.126  34.376  27.941  1.00  0.00     0.148 A 
ATOM     88  C   UNL A   1      46.812  35.001  30.593  1.00  0.00     0.002 A 
ATOM     89  C   UNL A   1      46.347  35.695  28.314  1.00  0.00     0.091 A 
ATOM     90  F   UNL A   1      45.767  34.044  26.692  1.00  0.00    -0.205 F 
ATOM     91  C   UNL A   1      46.680  36.011  29.641  1.00  0.00     0.022 A 
BRANCH  89  92
ATOM     92  S   UNL A   1      46.298  37.048  27.134  1.00  0.00     0.127 S 
ATOM     93  O   UNL A   1      47.065  36.497  26.017  1.00  0.00    -0.237 OA
ATOM     94  O   UNL A   1      44.864  37.187  26.880  1.00  0.00    -0.237 OA
ATOM     95  O   UNL A   1      46.904  38.188  27.808  1.00  0.00    -0.744 OA
ENDBRANCH  89  92
ENDBRANCH  62  85
ENDBRANCH  36  37
ENDBRANCH  28  31
ENDBRANCH  26  27
ENDBRANCH  25  26
ENDBRANCH  24  25
ENDBRANCH  22  24
ENDBRANCH  19  20
ENDBRANCH  18  19
ENDBRANCH   1  18
TORSDOF 26
ENDMDL
MODEL 2
REMARK VINA RESULT:      -7.8      9.316     13.680
REMARK SMILES CC/C=C/C/C=C/C/C=C/C/C=C/CCSCCCC(=O)NCCCNC(=O)c1ccc(-c2c3nc(c(-c4cccc(S(=O)(=O)[O-])c4F)c4ccc([nH]4)c(-c4cccc(S(=O)(=O)[O-])c4F)c4nc(c(-c5cccc(S(=O)(=O)[O-])c5F)c5ccc2[nH]5)C=C4)C=C3)cc1
REMARK SMILES IDX 17 1 16 2 15 3 14 4 13 5 12 6 11 7 10 8 9 9 8 10 7 11 6 12
REMARK SMILES IDX 5 13 4 14 3 15 2 16 1 17 18 18 19 19 20 20 21 21 22 22 23 24
REMARK SMILES IDX 24 25 25 26 26 27 27 28 28 30 29 31 30 32 91 33 31 34 90 35
REMARK SMILES IDX 32 36 33 37 34 38 84 39 35 40 89 41 83 42 85 43 36 44 88 45
REMARK SMILES IDX 82 46 81 47 37 49 69 50 49 51 68 52 50 53 53 54 67 55 86 56
REMARK SMILES IDX 51 57 52 58 66 60 87 61 54 62 38 63 39 64 47 65 40 66 42 67
REMARK SMILES IDX 48 68 41 69 43 70 44 71 45 72 46 73 70 74 71 75 79 76 72 77
REMARK SMILES IDX 74 78 80 79 73 80 75 81 76 82 77 83 78 84 55 85 56 86 64 87
REMARK SMILES IDX 57 88 59 89 65 90 58 91 60 92 61 93 62 94 63 95
REMARK H PARENT 22 23 26 29 85 48 53 59
REMARK Flexibility Score: inf
ROOT
ATOM      1  C   UNL A   1      33.845  35.809  29.450  1.00  0.00     0.070 C 
ENDROOT
BRANCH   1   2
ATOM      2  S   UNL A   1      34.309  35.075  27.815  1.00  0.00    -0.162 SA
BRANCH   2   3
ATOM      3  C   UNL A   1      34.782  33.305  28.013  1.00  0.00     0.073 C 
BRANCH   3   4
ATOM      4  C   UNL A   1      33.692  32.217  27.820  1.00  0.00     0.038 C 
BRANCH   4   5
ATOM      5  C   UNL A   1      34.202  30.873  27.363  1.00  0.00    -0.030 C 
ATOM      6  C   UNL A   1      33.490  29.741  27.214  1.00  0.00    -0.027 C 
BRANCH   6   7
ATOM      7  C   UNL A   1      33.972  28.533  26.431  1.00  0.00     0.054 C 
BRANCH   7   8
ATOM      8  C   UNL A   1      32.976  27.419  26.256  1.00  0.00    -0.027 C 
ATOM      9  C   UNL A   1      31.658  27.583  26.465  1.00  0.00    -0.027 C 
BRANCH   9  10
ATOM     10  C   UNL A   1      30.637  26.484  26.359  1.00  0.00     0.054 C 
BRANCH  10  11
ATOM     11  C   UNL A   1      30.733  25.879  24.988  1.00  0.00    -0.027 C 
ATOM     12  C   UNL A   1      31.309  24.699  24.716  1.00  0.00    -0.027 C 
BRANCH  12  13
ATOM     13  C   UNL A   1      31.579  24.216  23.321  1.00  0.00     0.054 C 
BRANCH  13  14
ATOM     14  C   UNL A   1      32.048  25.367  22.477  1.00  0.00    -0.027 C 
ATOM     15  C   UNL A   1      33.251  25.950  22.594  1.00  0.00    -0.031 C 
BRANCH  15  16
ATOM     16  C   UNL A   1      33.660  27.169  21.819  1.00  0.00     0.023 C 
ATOM     17  C   UNL A   1      33.658  28.397  22.716  1.00  0.00     0.008 C 
ENDBRANCH  15  16
ENDBRANCH  13  14
ENDBRANCH  12  13
ENDBRANCH  10  11
ENDBRANCH   9  10
ENDBRANCH   7   8
ENDBRANCH   6   7
ENDBRANCH   4   5
ENDBRANCH   3   4
ENDBRANCH   2   3
ENDBRANCH   1   2
BRANCH   1  18
ATOM     18  C   UNL A   1      33.495  35.039  30.723  1.00  0.00     0.021 C 
BRANCH  18  19
ATOM     19  C   UNL A   1      34.593  34.483  31.609  1.00  0.00     0.101 C 
BRANCH  19  20
ATOM     20  C   UNL A   1      34.484  33.062  32.141  1.00  0.00     0.220 C 
ATOM     21  O   UNL A   1      33.586  32.783  32.942  1.00  0.00    -0.275 OA
ATOM     22  N   UNL A   1      35.269  32.042  31.719  1.00  0.00    -0.356 N 
ATOM     23  H   UNL A   1      35.176  31.216  32.248  1.00  0.00     0.163 HD
BRANCH  22  24
ATOM     24  C   UNL A   1      36.218  31.943  30.632  1.00  0.00     0.117 C 
BRANCH  24  25
ATOM     25  C   UNL A   1      36.381  30.526  30.116  1.00  0.00     0.042 C 
BRANCH  25  26
ATOM     26  C   UNL A   1      37.762  29.983  30.443  1.00  0.00     0.118 C 
BRANCH  26  27
ATOM     27  N   UNL A   1      37.721  28.750  31.227  1.00  0.00    -0.352 N 
ATOM     28  C   UNL A   1      38.086  28.567  32.551  1.00  0.00     0.251 C 
ATOM     29  H   UNL A   1      37.395  27.949  30.756  1.00  0.00     0.163 HD
ATOM     30  O   UNL A   1      38.114  27.461  33.050  1.00  0.00    -0.269 OA
BRANCH  28  31
ATOM     31  C   UNL A   1      38.482  29.765  33.328  1.00  0.00     0.039 A 
ATOM     32  C   UNL A   1      37.536  30.756  33.593  1.00  0.00     0.014 A 
ATOM     33  C   UNL A   1      39.753  29.823  33.901  1.00  0.00     0.014 A 
ATOM     34  C   UNL A   1      37.837  31.757  34.521  1.00  0.00     0.010 A 
ATOM     35  C   UNL A   1      40.001  30.744  34.908  1.00  0.00     0.010 A 
ATOM     36  C   UNL A   1      39.050  31.726  35.228  1.00  0.00    -0.014 A 
BRANCH  36  37
ATOM     37  C   UNL A   1      39.358  32.695  36.313  1.00  0.00     0.031 A 
ATOM     38  C   UNL A   1      40.447  33.717  36.114  1.00  0.00     0.074 A 
ATOM     39  C   UNL A   1      38.751  32.582  37.513  1.00  0.00     0.049 A 
ATOM     40  N   UNL A   1      40.949  34.568  36.970  1.00  0.00    -0.248 NA
ATOM     41  C   UNL A   1      41.094  33.753  34.790  1.00  0.00     0.031 C 
ATOM     42  C   UNL A   1      37.754  31.569  37.872  1.00  0.00     0.029 A 
ATOM     43  N   UNL A   1      38.907  33.311  38.668  1.00  0.00    -0.354 N 
ATOM     44  C   UNL A   1      41.999  35.195  36.310  1.00  0.00     0.074 A 
ATOM     45  C   UNL A   1      42.096  34.594  35.000  1.00  0.00     0.031 C 
ATOM     46  C   UNL A   1      37.378  31.751  39.148  1.00  0.00     0.029 A 
ATOM     47  C   UNL A   1      38.126  32.869  39.711  1.00  0.00     0.049 A 
ATOM     48  H   UNL A   1      39.520  34.077  38.741  1.00  0.00     0.167 HD
ATOM     49  C   UNL A   1      42.786  36.211  36.736  1.00  0.00     0.034 A 
ATOM     50  C   UNL A   1      38.024  33.315  40.980  1.00  0.00     0.034 A 
ATOM     51  C   UNL A   1      42.632  36.861  38.007  1.00  0.00     0.049 A 
ATOM     52  C   UNL A   1      38.850  34.502  41.401  1.00  0.00     0.074 A 
ATOM     53  C   UNL A   1      43.300  37.971  38.492  1.00  0.00     0.029 A 
ATOM     54  N   UNL A   1      41.743  36.464  38.993  1.00  0.00    -0.354 N 
ATOM     55  N   UNL A   1      39.722  35.190  40.703  1.00  0.00    -0.248 NA
ATOM     56  C   UNL A   1      38.651  35.001  42.770  1.00  0.00     0.031 C 
ATOM     57  C   UNL A   1      42.822  38.237  39.779  1.00  0.00     0.029 A 
ATOM     58  C   UNL A   1      41.842  37.306  40.085  1.00  0.00     0.049 A 
ATOM     59  H   UNL A   1      41.131  35.695  38.926  1.00  0.00     0.167 HD
ATOM     60  C   UNL A   1      40.146  36.221  41.532  1.00  0.00     0.074 A 
ATOM     61  C   UNL A   1      39.419  36.081  42.778  1.00  0.00     0.031 C 
ATOM     62  C   UNL A   1      41.065  37.189  41.292  1.00  0.00     0.034 A 
BRANCH  49  63
ATOM     63  C   UNL A   1      43.835  36.728  35.785  1.00  0.00     0.023 A 
ATOM     64  C   UNL A   1      45.170  36.295  35.922  1.00  0.00     0.012 A 
ATOM     65  C   UNL A   1      43.497  37.603  34.735  1.00  0.00     0.148 A 
ATOM     66  C   UNL A   1      46.160  36.755  35.056  1.00  0.00     0.002 A 
ATOM     67  C   UNL A   1      44.481  38.020  33.846  1.00  0.00     0.091 A 
ATOM     68  F   UNL A   1      42.228  38.022  34.633  1.00  0.00    -0.205 F 
ATOM     69  C   UNL A   1      45.814  37.609  34.013  1.00  0.00     0.022 A 
BRANCH  67  70
ATOM     70  S   UNL A   1      44.125  39.053  32.420  1.00  0.00     0.127 S 
ATOM     71  O   UNL A   1      45.408  39.723  32.214  1.00  0.00    -0.237 OA
ATOM     72  O   UNL A   1      43.784  38.061  31.399  1.00  0.00    -0.237 OA
ATOM     73  O   UNL A   1      43.024  39.919  32.817  1.00  0.00    -0.744 OA
ENDBRANCH  67  70
ENDBRANCH  49  63
BRANCH  50  74
ATOM     74  C   UNL A   1      37.047  32.692  41.918  1.00  0.00     0.023 A 
ATOM     75  C   UNL A   1      37.450  31.589  42.699  1.00  0.00     0.012 A 
ATOM     76  C   UNL A   1      35.739  33.191  42.063  1.00  0.00     0.148 A 
ATOM     77  C   UNL A   1      36.558  30.974  43.579  1.00  0.00     0.002 A 
ATOM     78  C   UNL A   1      34.873  32.608  42.982  1.00  0.00     0.091 A 
ATOM     79  F   UNL A   1      35.369  34.233  41.305  1.00  0.00    -0.205 F 
ATOM     80  C   UNL A   1      35.274  31.490  43.728  1.00  0.00     0.022 A 
BRANCH  78  81
ATOM     81  S   UNL A   1      33.246  33.286  43.335  1.00  0.00     0.127 S 
ATOM     82  O   UNL A   1      32.567  33.117  42.053  1.00  0.00    -0.237 OA
ATOM     83  O   UNL A   1      32.774  32.403  44.403  1.00  0.00    -0.237 OA
ATOM     84  O   UNL A   1      33.479  34.661  43.756  1.00  0.00    -0.744 OA
ENDBRANCH  78  81
ENDBRANCH  50  74
BRANCH  62  85
ATOM     85  C   UNL A   1      41.316  38.202  42.375  1.00  0.00     0.023 A 
ATOM     86  C   UNL A   1      42.348  37.989  43.310  1.00  0.00     0.012 A 
ATOM     87  C   UNL A   1      40.586  39.408  42.411  1.00  0.00     0.148 A 
ATOM     88  C   UNL A   1      42.631  38.947  44.282  1.00  0.00     0.002 A 
ATOM     89  C   UNL A   1      40.907  40.378  43.351  1.00  0.00     0.091 A 
ATOM     90  F   UNL A   1      39.597  39.582  41.523  1.00  0.00    -0.205 F 
ATOM     91  C   UNL A   1      41.921  40.146  44.294  1.00  0.00     0.022 A 
BRANCH  89  92
ATOM     92  S   UNL A   1      40.114  41.990  43.376  1.00  0.00     0.127 S 
ATOM     93  O   UNL A   1      38.724  41.633  43.653  1.00  0.00    -0.237 OA
ATOM     94  O   UNL A   1      40.804  42.659  44.479  1.00  0.00    -0.237 OA
ATOM     95  O   UNL A   1      40.360  42.578  42.066  1.00  0.00    -0.744 OA
ENDBRANCH  89  92
ENDBRANCH  62  85
ENDBRANCH  36  37
ENDBRANCH  28  31
ENDBRANCH  26  27
ENDBRANCH  25  26
ENDBRANCH  24  25
ENDBRANCH  22  24
ENDBRANCH  19  20
ENDBRANCH  18  19
ENDBRANCH   1  18
TORSDOF 26
ENDMDL
MODEL 3
REMARK VINA RESULT:      -7.7      5.203     12.083
REMARK SMILES CC/C=C/C/C=C/C/C=C/C/C=C/CCSCCCC(=O)NCCCNC(=O)c1ccc(-c2c3nc(c(-c4cccc(S(=O)(=O)[O-])c4F)c4ccc([nH]4)c(-c4cccc(S(=O)(=O)[O-])c4F)c4nc(c(-c5cccc(S(=O)(=O)[O-])c5F)c5ccc2[nH]5)C=C4)C=C3)cc1
REMARK SMILES IDX 17 1 16 2 15 3 14 4 13 5 12 6 11 7 10 8 9 9 8 10 7 11 6 12
REMARK SMILES IDX 5 13 4 14 3 15 2 16 1 17 18 18 19 19 20 20 21 21 22 22 23 24
REMARK SMILES IDX 24 25 25 26 26 27 27 28 28 30 29 31 30 32 91 33 31 34 90 35
REMARK SMILES IDX 32 36 33 37 34 38 84 39 35 40 89 41 83 42 85 43 36 44 88 45
REMARK SMILES IDX 82 46 81 47 37 49 69 50 49 51 68 52 50 53 53 54 67 55 86 56
REMARK SMILES IDX 51 57 52 58 66 60 87 61 54 62 38 63 39 64 47 65 40 66 42 67
REMARK SMILES IDX 48 68 41 69 43 70 44 71 45 72 46 73 70 74 71 75 79 76 72 77
REMARK SMILES IDX 74 78 80 79 73 80 75 81 76 82 77 83 78 84 55 85 56 86 64 87
REMARK SMILES IDX 57 88 59 89 65 90 58 91 60 92 61 93 62 94 63 95
REMARK H PARENT 22 23 26 29 85 48 53 59
REMARK Flexibility Score: inf
ROOT
ATOM      1  C   UNL A   1      39.581  34.745  30.594  1.00  0.00     0.070 C 
ENDROOT
BRANCH   1   2
ATOM      2  S   UNL A   1      41.192  33.892  30.271  1.00  0.00    -0.162 SA
BRANCH   2   3
ATOM      3  C   UNL A   1      42.086  34.704  28.879  1.00  0.00     0.073 C 
BRANCH   3   4
ATOM      4  C   UNL A   1      43.466  35.356  29.161  1.00  0.00     0.038 C 
BRANCH   4   5
ATOM      5  C   UNL A   1      44.562  34.393  29.546  1.00  0.00    -0.030 C 
ATOM      6  C   UNL A   1      45.861  34.459  29.199  1.00  0.00    -0.027 C 
BRANCH   6   7
ATOM      7  C   UNL A   1      46.963  33.676  29.890  1.00  0.00     0.054 C 
BRANCH   7   8
ATOM      8  C   UNL A   1      47.713  32.693  29.033  1.00  0.00    -0.027 C 
ATOM      9  C   UNL A   1      47.132  32.013  28.029  1.00  0.00    -0.027 C 
BRANCH   9  10
ATOM     10  C   UNL A   1      47.827  30.981  27.186  1.00  0.00     0.054 C 
BRANCH  10  11
ATOM     11  C   UNL A   1      47.038  29.705  27.252  1.00  0.00    -0.027 C 
ATOM     12  C   UNL A   1      45.716  29.638  27.464  1.00  0.00    -0.027 C 
BRANCH  12  13
ATOM     13  C   UNL A   1      44.989  28.353  27.735  1.00  0.00     0.054 C 
BRANCH  13  14
ATOM     14  C   UNL A   1      45.934  27.199  27.558  1.00  0.00    -0.027 C 
ATOM     15  C   UNL A   1      46.160  26.579  26.390  1.00  0.00    -0.031 C 
BRANCH  15  16
ATOM     16  C   UNL A   1      47.023  25.358  26.253  1.00  0.00     0.023 C 
ATOM     17  C   UNL A   1      48.025  25.282  27.395  1.00  0.00     0.008 C 
ENDBRANCH  15  16
ENDBRANCH  13  14
ENDBRANCH  12  13
ENDBRANCH  10  11
ENDBRANCH   9  10
ENDBRANCH   7   8
ENDBRANCH   6   7
ENDBRANCH   4   5
ENDBRANCH   3   4
ENDBRANCH   2   3
ENDBRANCH   1   2
BRANCH   1  18
ATOM     18  C   UNL A   1      38.410  34.194  31.408  1.00  0.00     0.021 C 
BRANCH  18  19
ATOM     19  C   UNL A   1      38.271  34.539  32.878  1.00  0.00     0.101 C 
BRANCH  19  20
ATOM     20  C   UNL A   1      37.087  34.002  33.668  1.00  0.00     0.220 C 
ATOM     21  O   UNL A   1      37.195  33.841  34.887  1.00  0.00    -0.275 OA
ATOM     22  N   UNL A   1      35.869  33.766  33.123  1.00  0.00    -0.356 N 
ATOM     23  H   UNL A   1      35.245  33.293  33.721  1.00  0.00     0.163 HD
BRANCH  22  24
ATOM     24  C   UNL A   1      35.317  34.083  31.824  1.00  0.00     0.117 C 
BRANCH  24  25
ATOM     25  C   UNL A   1      34.968  32.849  31.013  1.00  0.00     0.042 C 
BRANCH  25  26
ATOM     26  C   UNL A   1      35.348  33.034  29.553  1.00  0.00     0.118 C 
BRANCH  26  27
ATOM     27  N   UNL A   1      34.384  32.435  28.631  1.00  0.00    -0.352 N 
ATOM     28  C   UNL A   1      34.488  31.236  27.945  1.00  0.00     0.251 C 
ATOM     29  H   UNL A   1      33.558  32.949  28.478  1.00  0.00     0.163 HD
ATOM     30  O   UNL A   1      33.664  30.911  27.116  1.00  0.00    -0.269 OA
BRANCH  28  31
ATOM     31  C   UNL A   1      35.665  30.382  28.227  1.00  0.00     0.039 A 
ATOM     32  C   UNL A   1      36.805  30.499  27.430  1.00  0.00     0.014 A 
ATOM     33  C   UNL A   1      35.672  29.573  29.364  1.00  0.00     0.014 A 
ATOM     34  C   UNL A   1      37.990  29.878  27.838  1.00  0.00     0.010 A 
ATOM     35  C   UNL A   1      36.876  29.062  29.826  1.00  0.00     0.010 A 
ATOM     36  C   UNL A   1      38.049  29.203  29.068  1.00  0.00    -0.014 A 
BRANCH  36  37
ATOM     37  C   UNL A   1      39.318  28.637  29.600  1.00  0.00     0.031 A 
ATOM     38  C   UNL A   1      39.987  29.289  30.782  1.00  0.00     0.074 A 
ATOM     39  C   UNL A   1      39.928  27.623  28.954  1.00  0.00     0.049 A 
ATOM     40  N   UNL A   1      41.149  29.028  31.321  1.00  0.00    -0.248 NA
ATOM     41  C   UNL A   1      39.280  30.419  31.411  1.00  0.00     0.031 C 
ATOM     42  C   UNL A   1      39.439  26.971  27.735  1.00  0.00     0.029 A 
ATOM     43  N   UNL A   1      41.114  26.979  29.215  1.00  0.00    -0.354 N 
ATOM     44  C   UNL A   1      41.334  29.990  32.307  1.00  0.00     0.074 A 
ATOM     45  C   UNL A   1      40.190  30.871  32.261  1.00  0.00     0.031 C 
ATOM     46  C   UNL A   1      40.306  26.014  27.366  1.00  0.00     0.029 A 
ATOM     47  C   UNL A   1      41.428  26.002  28.299  1.00  0.00     0.049 A 
ATOM     48  H   UNL A   1      41.686  27.198  29.986  1.00  0.00     0.167 HD
ATOM     49  C   UNL A   1      42.342  30.107  33.203  1.00  0.00     0.034 A 
ATOM     50  C   UNL A   1      42.500  25.188  28.218  1.00  0.00     0.034 A 
ATOM     51  C   UNL A   1      43.435  29.181  33.300  1.00  0.00     0.049 A 
ATOM     52  C   UNL A   1      43.565  25.282  29.278  1.00  0.00     0.074 A 
ATOM     53  C   UNL A   1      44.449  29.142  34.240  1.00  0.00     0.029 A 
ATOM     54  N   UNL A   1      43.655  28.126  32.429  1.00  0.00    -0.354 N 
ATOM     55  N   UNL A   1      43.637  26.094  30.305  1.00  0.00    -0.248 NA
ATOM     56  C   UNL A   1      44.678  24.324  29.194  1.00  0.00     0.031 C 
ATOM     57  C   UNL A   1      45.289  28.068  33.929  1.00  0.00     0.029 A 
ATOM     58  C   UNL A   1      44.786  27.427  32.808  1.00  0.00     0.049 A 
ATOM     59  H   UNL A   1      43.088  27.906  31.653  1.00  0.00     0.167 HD
ATOM     60  C   UNL A   1      44.777  25.722  31.007  1.00  0.00     0.074 A 
ATOM     61  C   UNL A   1      45.354  24.597  30.301  1.00  0.00     0.031 C 
ATOM     62  C   UNL A   1      45.309  26.270  32.127  1.00  0.00     0.034 A 
BRANCH  49  63
ATOM     63  C   UNL A   1      42.267  31.237  34.196  1.00  0.00     0.023 A 
ATOM     64  C   UNL A   1      41.598  31.041  35.422  1.00  0.00     0.012 A 
ATOM     65  C   UNL A   1      42.892  32.472  33.942  1.00  0.00     0.148 A 
ATOM     66  C   UNL A   1      41.514  32.067  36.360  1.00  0.00     0.002 A 
ATOM     67  C   UNL A   1      42.846  33.476  34.903  1.00  0.00     0.091 A 
ATOM     68  F   UNL A   1      43.505  32.650  32.763  1.00  0.00    -0.205 F 
ATOM     69  C   UNL A   1      42.147  33.280  36.106  1.00  0.00     0.022 A 
BRANCH  67  70
ATOM     70  S   UNL A   1      43.698  35.045  34.708  1.00  0.00     0.127 S 
ATOM     71  O   UNL A   1      43.689  35.207  33.255  1.00  0.00    -0.237 OA
ATOM     72  O   UNL A   1      42.818  35.965  35.430  1.00  0.00    -0.237 OA
ATOM     73  O   UNL A   1      45.013  34.866  35.309  1.00  0.00    -0.744 OA
ENDBRANCH  67  70
ENDBRANCH  49  63
BRANCH  50  74
ATOM     74  C   UNL A   1      42.580  24.156  27.144  1.00  0.00     0.023 A 
ATOM     75  C   UNL A   1      43.257  24.462  25.945  1.00  0.00     0.012 A 
ATOM     76  C   UNL A   1      42.017  22.876  27.304  1.00  0.00     0.148 A 
ATOM     77  C   UNL A   1      43.341  23.526  24.915  1.00  0.00     0.002 A 
ATOM     78  C   UNL A   1      42.153  21.929  26.294  1.00  0.00     0.091 A 
ATOM     79  F   UNL A   1      41.368  22.606  28.444  1.00  0.00    -0.205 F 
ATOM     80  C   UNL A   1      42.798  22.256  25.093  1.00  0.00     0.022 A 
BRANCH  78  81
ATOM     81  S   UNL A   1      41.601  20.229  26.489  1.00  0.00     0.127 S 
ATOM     82  O   UNL A   1      40.150  20.375  26.405  1.00  0.00    -0.237 OA
ATOM     83  O   UNL A   1      42.223  19.574  25.338  1.00  0.00    -0.237 OA
ATOM     84  O   UNL A   1      42.124  19.795  27.778  1.00  0.00    -0.744 OA
ENDBRANCH  78  81
ENDBRANCH  50  74
BRANCH  62  85
ATOM     85  C   UNL A   1      46.556  25.644  32.691  1.00  0.00     0.023 A 
ATOM     86  C   UNL A   1      47.820  26.142  32.321  1.00  0.00     0.012 A 
ATOM     87  C   UNL A   1      46.470  24.621  33.657  1.00  0.00     0.148 A 
ATOM     88  C   UNL A   1      48.982  25.612  32.880  1.00  0.00     0.002 A 
ATOM     89  C   UNL A   1      47.628  24.132  34.246  1.00  0.00     0.091 A 
ATOM     90  F   UNL A   1      45.257  24.149  33.981  1.00  0.00    -0.205 F 
ATOM     91  C   UNL A   1      48.885  24.617  33.852  1.00  0.00     0.022 A 
BRANCH  89  92
ATOM     92  S   UNL A   1      47.593  22.924  35.576  1.00  0.00     0.127 S 
ATOM     93  O   UNL A   1      47.048  21.750  34.896  1.00  0.00    -0.237 OA
ATOM     94  O   UNL A   1      49.006  22.818  35.937  1.00  0.00    -0.237 OA
ATOM     95  O   UNL A   1      46.746  23.496  36.613  1.00  0.00    -0.744 OA
ENDBRANCH  89  92
ENDBRANCH  62  85
ENDBRANCH  36  37
ENDBRANCH  28  31
ENDBRANCH  26  27
ENDBRANCH  25  26
ENDBRANCH  24  25
ENDBRANCH  22  24
ENDBRANCH  19  20
ENDBRANCH  18  19
ENDBRANCH   1  18
TORSDOF 26
ENDMDL
