MODEL 1
REMARK VINA RESULT:     -12.1      0.000      0.000
REMARK SMILES C[C@@H]1[C@H](C(=O)NCCCNC(=O)c2ccc(-c3c4nc(c(-c5cccc(S(=O)(=O)[O-])c5F)c5ccc([nH]5)c(-c5cccc(S(=O)(=O)[O-])c5F)c5nc(c(-c6cccc(S(=O)(=O)[O-])c6F)c6ccc3[nH]6)C=C5)C=C4)cc2)CCN1C(=O)c1c(Cl)cccc1[N+](=O)[O-]
REMARK SMILES IDX 8 1 7 2 6 3 4 4 5 5 3 7 1 8 2 9 78 10 76 11 77 12 79 13
REMARK SMILES IDX 80 14 81 15 82 16 87 17 83 18 84 19 86 20 85 21 88 22 89 23
REMARK SMILES IDX 90 24 9 25 10 26 11 27 12 29 13 30 14 31 75 32 15 33 74 34
REMARK SMILES IDX 16 35 17 36 18 37 68 38 19 39 73 40 67 41 69 42 20 43 72 44
REMARK SMILES IDX 66 45 65 46 21 48 53 49 33 50 52 51 34 52 37 53 51 54 70 55
REMARK SMILES IDX 35 56 36 57 50 59 71 60 38 61 22 62 23 63 31 64 24 65 26 66
REMARK SMILES IDX 32 67 25 68 27 69 28 70 29 71 30 72 54 73 55 74 63 75 56 76
REMARK SMILES IDX 58 77 64 78 57 79 59 80 60 81 61 82 62 83 39 84 40 85 48 86
REMARK SMILES IDX 41 87 43 88 49 89 42 90 44 91 45 92 46 93 47 94
REMARK H PARENT 6 6 10 28 69 47 37 58
REMARK Flexibility Score: inf
ROOT
ATOM      1  C   UNL A   1      31.444  32.272  26.510  1.00  0.00     0.042 C 
ENDROOT
BRANCH   1   2
ATOM      2  C   UNL A   1      31.373  30.750  26.401  1.00  0.00     0.117 C 
BRANCH   2   3
ATOM      3  N   UNL A   1      32.011  30.226  25.198  1.00  0.00    -0.356 N 
ATOM      4  C   UNL A   1      32.580  29.032  24.897  1.00  0.00     0.225 C 
ATOM      5  O   UNL A   1      33.026  28.909  23.750  1.00  0.00    -0.275 OA
ATOM      6  H   UNL A   1      32.033  30.870  24.454  1.00  0.00     0.163 HD
BRANCH   4   7
ATOM      7  C   UNL A   1      32.708  27.869  25.869  1.00  0.00     0.102 C 
ATOM      8  C   UNL A   1      30.385  27.087  25.011  1.00  0.00     0.032 C 
ATOM      9  C   UNL A   1      31.530  26.876  25.986  1.00  0.00     0.094 C 
ATOM     10  N   UNL A   1      32.159  25.543  25.955  1.00  0.00    -0.335 N 
ATOM     11  C   UNL A   1      33.983  27.044  25.702  1.00  0.00     0.037 C 
ATOM     12  C   UNL A   1      33.597  25.644  26.125  1.00  0.00     0.121 C 
BRANCH  10  13
ATOM     13  C   UNL A   1      31.599  24.283  26.133  1.00  0.00     0.262 C 
ATOM     14  O   UNL A   1      30.604  24.081  26.826  1.00  0.00    -0.269 OA
BRANCH  13  15
ATOM     15  C   UNL A   1      32.185  23.111  25.473  1.00  0.00     0.136 A 
ATOM     16  C   UNL A   1      32.859  22.153  26.240  1.00  0.00     0.060 A 
ATOM     17  C   UNL A   1      32.158  22.965  24.079  1.00  0.00     0.283 A 
ATOM     18  Cl  UNL A   1      32.970  22.257  27.963  1.00  0.00    -0.083 Cl
ATOM     19  C   UNL A   1      33.456  21.048  25.619  1.00  0.00     0.022 A 
ATOM     20  C   UNL A   1      32.737  21.850  23.455  1.00  0.00     0.086 A 
ATOM     21  C   UNL A   1      33.388  20.893  24.233  1.00  0.00     0.009 A 
BRANCH  17  22
ATOM     22  N   UNL A   1      31.467  23.929  23.238  1.00  0.00     0.063 N 
ATOM     23  O   UNL A   1      30.233  23.835  23.179  1.00  0.00    -0.258 OA
ATOM     24  O   UNL A   1      32.139  24.793  22.665  1.00  0.00    -0.258 OA
ENDBRANCH  17  22
ENDBRANCH  13  15
ENDBRANCH  10  13
ENDBRANCH   4   7
ENDBRANCH   2   3
ENDBRANCH   1   2
BRANCH   1  25
ATOM     25  C   UNL A   1      32.675  32.828  27.209  1.00  0.00     0.118 C 
BRANCH  25  26
ATOM     26  N   UNL A   1      32.509  34.200  27.651  1.00  0.00    -0.352 N 
ATOM     27  C   UNL A   1      33.134  34.884  28.669  1.00  0.00     0.251 C 
ATOM     28  H   UNL A   1      31.846  34.724  27.145  1.00  0.00     0.163 HD
ATOM     29  O   UNL A   1      32.711  35.996  28.985  1.00  0.00    -0.269 OA
BRANCH  27  30
ATOM     30  C   UNL A   1      34.288  34.303  29.398  1.00  0.00     0.039 A 
ATOM     31  C   UNL A   1      34.042  33.507  30.522  1.00  0.00     0.014 A 
ATOM     32  C   UNL A   1      35.608  34.568  29.023  1.00  0.00     0.014 A 
ATOM     33  C   UNL A   1      35.109  32.938  31.228  1.00  0.00     0.010 A 
ATOM     34  C   UNL A   1      36.665  33.926  29.669  1.00  0.00     0.010 A 
ATOM     35  C   UNL A   1      36.432  33.117  30.791  1.00  0.00    -0.014 A 
BRANCH  35  36
ATOM     36  C   UNL A   1      37.580  32.490  31.501  1.00  0.00     0.031 A 
ATOM     37  C   UNL A   1      38.334  31.348  30.868  1.00  0.00     0.074 A 
ATOM     38  C   UNL A   1      37.899  32.889  32.748  1.00  0.00     0.049 A 
ATOM     39  N   UNL A   1      39.315  30.634  31.357  1.00  0.00    -0.248 NA
ATOM     40  C   UNL A   1      37.911  30.934  29.520  1.00  0.00     0.031 C 
ATOM     41  C   UNL A   1      37.202  33.929  33.509  1.00  0.00     0.029 A 
ATOM     42  N   UNL A   1      38.875  32.448  33.610  1.00  0.00    -0.354 N 
ATOM     43  C   UNL A   1      39.597  29.665  30.400  1.00  0.00     0.074 A 
ATOM     44  C   UNL A   1      38.660  29.860  29.316  1.00  0.00     0.031 C 
ATOM     45  C   UNL A   1      37.776  34.049  34.717  1.00  0.00     0.029 A 
ATOM     46  C   UNL A   1      38.861  33.080  34.832  1.00  0.00     0.049 A 
ATOM     47  H   UNL A   1      39.525  31.747  33.374  1.00  0.00     0.167 HD
ATOM     48  C   UNL A   1      40.567  28.719  30.403  1.00  0.00     0.034 A 
ATOM     49  C   UNL A   1      39.631  32.899  35.923  1.00  0.00     0.034 A 
ATOM     50  C   UNL A   1      41.539  28.564  31.452  1.00  0.00     0.049 A 
ATOM     51  C   UNL A   1      40.740  31.882  35.879  1.00  0.00     0.074 A 
ATOM     52  C   UNL A   1      42.617  27.698  31.504  1.00  0.00     0.029 A 
ATOM     53  N   UNL A   1      41.554  29.292  32.631  1.00  0.00    -0.354 N 
ATOM     54  N   UNL A   1      41.087  31.082  34.900  1.00  0.00    -0.248 NA
ATOM     55  C   UNL A   1      41.589  31.769  37.075  1.00  0.00     0.031 C 
ATOM     56  C   UNL A   1      43.275  27.893  32.723  1.00  0.00     0.029 A 
ATOM     57  C   UNL A   1      42.618  28.893  33.421  1.00  0.00     0.049 A 
ATOM     58  H   UNL A   1      40.902  29.990  32.871  1.00  0.00     0.167 HD
ATOM     59  C   UNL A   1      42.212  30.398  35.347  1.00  0.00     0.074 A 
ATOM     60  C   UNL A   1      42.502  30.893  36.677  1.00  0.00     0.031 C 
ATOM     61  C   UNL A   1      42.931  29.434  34.719  1.00  0.00     0.034 A 
BRANCH  48  62
ATOM     62  C   UNL A   1      40.671  27.817  29.200  1.00  0.00     0.023 A 
ATOM     63  C   UNL A   1      39.837  26.683  29.110  1.00  0.00     0.012 A 
ATOM     64  C   UNL A   1      41.545  28.117  28.137  1.00  0.00     0.148 A 
ATOM     65  C   UNL A   1      39.896  25.844  27.999  1.00  0.00     0.002 A 
ATOM     66  C   UNL A   1      41.566  27.300  27.012  1.00  0.00     0.091 A 
ATOM     67  F   UNL A   1      42.345  29.187  28.248  1.00  0.00    -0.205 F 
ATOM     68  C   UNL A   1      40.751  26.157  26.947  1.00  0.00     0.022 A 
BRANCH  66  69
ATOM     69  S   UNL A   1      42.575  27.660  25.571  1.00  0.00     0.127 S 
ATOM     70  O   UNL A   1      42.331  26.484  24.737  1.00  0.00    -0.237 OA
ATOM     71  O   UNL A   1      41.973  28.897  25.071  1.00  0.00    -0.237 OA
ATOM     72  O   UNL A   1      43.939  27.806  26.064  1.00  0.00    -0.744 OA
ENDBRANCH  66  69
ENDBRANCH  48  62
BRANCH  49  73
ATOM     73  C   UNL A   1      39.428  33.758  37.125  1.00  0.00     0.023 A 
ATOM     74  C   UNL A   1      39.881  35.091  37.104  1.00  0.00     0.012 A 
ATOM     75  C   UNL A   1      38.763  33.277  38.270  1.00  0.00     0.148 A 
ATOM     76  C   UNL A   1      39.702  35.922  38.209  1.00  0.00     0.002 A 
ATOM     77  C   UNL A   1      38.539  34.127  39.349  1.00  0.00     0.091 A 
ATOM     78  F   UNL A   1      38.352  32.001  38.281  1.00  0.00    -0.205 F 
ATOM     79  C   UNL A   1      39.022  35.444  39.327  1.00  0.00     0.022 A 
BRANCH  77  80
ATOM     80  S   UNL A   1      37.558  33.631  40.771  1.00  0.00     0.127 S 
ATOM     81  O   UNL A   1      36.351  33.111  40.137  1.00  0.00    -0.237 OA
ATOM     82  O   UNL A   1      38.413  32.619  41.394  1.00  0.00    -0.237 OA
ATOM     83  O   UNL A   1      37.388  34.837  41.572  1.00  0.00    -0.744 OA
ENDBRANCH  77  80
ENDBRANCH  49  73
BRANCH  61  84
ATOM     84  C   UNL A   1      44.123  28.864  35.442  1.00  0.00     0.023 A 
ATOM     85  C   UNL A   1      45.393  29.449  35.262  1.00  0.00     0.012 A 
ATOM     86  C   UNL A   1      43.972  27.805  36.358  1.00  0.00     0.148 A 
ATOM     87  C   UNL A   1      46.499  28.968  35.963  1.00  0.00     0.002 A 
ATOM     88  C   UNL A   1      45.070  27.363  37.087  1.00  0.00     0.091 A 
ATOM     89  F   UNL A   1      42.759  27.249  36.500  1.00  0.00    -0.205 F 
ATOM     90  C   UNL A   1      46.336  27.935  36.882  1.00  0.00     0.022 A 
BRANCH  88  91
ATOM     91  S   UNL A   1      44.934  26.102  38.359  1.00  0.00     0.127 S 
ATOM     92  O   UNL A   1      46.338  25.799  38.632  1.00  0.00    -0.237 OA
ATOM     93  O   UNL A   1      44.245  26.817  39.435  1.00  0.00    -0.237 OA
ATOM     94  O   UNL A   1      44.162  25.018  37.767  1.00  0.00    -0.744 OA
ENDBRANCH  88  91
ENDBRANCH  61  84
ENDBRANCH  35  36
ENDBRANCH  27  30
ENDBRANCH  25  26
ENDBRANCH   1  25
TORSDOF 16
ENDMDL
MODEL 2
REMARK VINA RESULT:     -12.1      3.514      8.701
REMARK SMILES C[C@@H]1[C@H](C(=O)NCCCNC(=O)c2ccc(-c3c4nc(c(-c5cccc(S(=O)(=O)[O-])c5F)c5ccc([nH]5)c(-c5cccc(S(=O)(=O)[O-])c5F)c5nc(c(-c6cccc(S(=O)(=O)[O-])c6F)c6ccc3[nH]6)C=C5)C=C4)cc2)CCN1C(=O)c1c(Cl)cccc1[N+](=O)[O-]
REMARK SMILES IDX 8 1 7 2 6 3 4 4 5 5 3 7 1 8 2 9 78 10 76 11 77 12 79 13
REMARK SMILES IDX 80 14 81 15 82 16 87 17 83 18 84 19 86 20 85 21 88 22 89 23
REMARK SMILES IDX 90 24 9 25 10 26 11 27 12 29 13 30 14 31 75 32 15 33 74 34
REMARK SMILES IDX 16 35 17 36 18 37 68 38 19 39 73 40 67 41 69 42 20 43 72 44
REMARK SMILES IDX 66 45 65 46 21 48 53 49 33 50 52 51 34 52 37 53 51 54 70 55
REMARK SMILES IDX 35 56 36 57 50 59 71 60 38 61 22 62 23 63 31 64 24 65 26 66
REMARK SMILES IDX 32 67 25 68 27 69 28 70 29 71 30 72 54 73 55 74 63 75 56 76
REMARK SMILES IDX 58 77 64 78 57 79 59 80 60 81 61 82 62 83 39 84 40 85 48 86
REMARK SMILES IDX 41 87 43 88 49 89 42 90 44 91 45 92 46 93 47 94
REMARK H PARENT 6 6 10 28 69 47 37 58
REMARK Flexibility Score: inf
ROOT
ATOM      1  C   UNL A   1      32.710  27.972  26.987  1.00  0.00     0.042 C 
ENDROOT
BRANCH   1   2
ATOM      2  C   UNL A   1      31.698  27.315  26.051  1.00  0.00     0.117 C 
BRANCH   2   3
ATOM      3  N   UNL A   1      31.259  28.188  24.968  1.00  0.00    -0.356 N 
ATOM      4  C   UNL A   1      30.893  27.957  23.683  1.00  0.00     0.225 C 
ATOM      5  O   UNL A   1      30.552  28.946  23.021  1.00  0.00    -0.275 OA
ATOM      6  H   UNL A   1      31.219  29.138  25.223  1.00  0.00     0.163 HD
BRANCH   4   7
ATOM      7  C   UNL A   1      30.889  26.588  23.020  1.00  0.00     0.102 C 
ATOM      8  C   UNL A   1      33.472  26.818  22.867  1.00  0.00     0.032 C 
ATOM      9  C   UNL A   1      32.234  26.007  22.527  1.00  0.00     0.094 C 
ATOM     10  N   UNL A   1      32.234  24.610  22.998  1.00  0.00    -0.335 N 
ATOM     11  C   UNL A   1      30.193  25.496  23.831  1.00  0.00     0.037 C 
ATOM     12  C   UNL A   1      30.916  24.220  23.462  1.00  0.00     0.121 C 
BRANCH  10  13
ATOM     13  C   UNL A   1      33.137  23.582  22.754  1.00  0.00     0.262 C 
ATOM     14  O   UNL A   1      33.850  23.536  21.755  1.00  0.00    -0.269 OA
BRANCH  13  15
ATOM     15  C   UNL A   1      33.286  22.482  23.714  1.00  0.00     0.136 A 
ATOM     16  C   UNL A   1      32.677  21.249  23.450  1.00  0.00     0.060 A 
ATOM     17  C   UNL A   1      33.958  22.659  24.931  1.00  0.00     0.283 A 
ATOM     18  Cl  UNL A   1      31.804  20.942  21.989  1.00  0.00    -0.083 Cl
ATOM     19  C   UNL A   1      32.779  20.202  24.375  1.00  0.00     0.022 A 
ATOM     20  C   UNL A   1      34.079  21.606  25.852  1.00  0.00     0.086 A 
ATOM     21  C   UNL A   1      33.485  20.378  25.568  1.00  0.00     0.009 A 
BRANCH  17  22
ATOM     22  N   UNL A   1      34.612  23.917  25.251  1.00  0.00     0.063 N 
ATOM     23  O   UNL A   1      35.731  24.107  24.754  1.00  0.00    -0.258 OA
ATOM     24  O   UNL A   1      34.009  24.726  25.964  1.00  0.00    -0.258 OA
ENDBRANCH  17  22
ENDBRANCH  13  15
ENDBRANCH  10  13
ENDBRANCH   4   7
ENDBRANCH   2   3
ENDBRANCH   1   2
BRANCH   1  25
ATOM     25  C   UNL A   1      33.765  28.838  26.316  1.00  0.00     0.118 C 
BRANCH  25  26
ATOM     26  N   UNL A   1      33.710  30.228  26.732  1.00  0.00    -0.352 N 
ATOM     27  C   UNL A   1      34.540  30.933  27.573  1.00  0.00     0.251 C 
ATOM     28  H   UNL A   1      32.964  30.747  26.354  1.00  0.00     0.163 HD
ATOM     29  O   UNL A   1      34.206  32.062  27.928  1.00  0.00    -0.269 OA
BRANCH  27  30
ATOM     30  C   UNL A   1      35.814  30.354  28.070  1.00  0.00     0.039 A 
ATOM     31  C   UNL A   1      36.955  30.451  27.267  1.00  0.00     0.014 A 
ATOM     32  C   UNL A   1      35.890  29.675  29.289  1.00  0.00     0.014 A 
ATOM     33  C   UNL A   1      38.174  29.921  27.709  1.00  0.00     0.010 A 
ATOM     34  C   UNL A   1      37.122  29.231  29.769  1.00  0.00     0.010 A 
ATOM     35  C   UNL A   1      38.277  29.331  28.979  1.00  0.00    -0.014 A 
BRANCH  35  36
ATOM     36  C   UNL A   1      39.569  28.796  29.488  1.00  0.00     0.031 A 
ATOM     37  C   UNL A   1      40.291  29.494  30.613  1.00  0.00     0.074 A 
ATOM     38  C   UNL A   1      40.139  27.730  28.891  1.00  0.00     0.049 A 
ATOM     39  N   UNL A   1      41.454  29.218  31.145  1.00  0.00    -0.248 NA
ATOM     40  C   UNL A   1      39.635  30.676  31.196  1.00  0.00     0.031 C 
ATOM     41  C   UNL A   1      39.586  27.007  27.743  1.00  0.00     0.029 A 
ATOM     42  N   UNL A   1      41.323  27.083  29.149  1.00  0.00    -0.354 N 
ATOM     43  C   UNL A   1      41.687  30.210  32.092  1.00  0.00     0.074 A 
ATOM     44  C   UNL A   1      40.561  31.116  32.036  1.00  0.00     0.031 C 
ATOM     45  C   UNL A   1      40.425  26.017  27.401  1.00  0.00     0.029 A 
ATOM     46  C   UNL A   1      41.588  26.047  28.283  1.00  0.00     0.049 A 
ATOM     47  H   UNL A   1      41.926  27.337  29.885  1.00  0.00     0.167 HD
ATOM     48  C   UNL A   1      42.725  30.341  32.953  1.00  0.00     0.034 A 
ATOM     49  C   UNL A   1      42.647  25.218  28.204  1.00  0.00     0.034 A 
ATOM     50  C   UNL A   1      43.814  29.407  33.052  1.00  0.00     0.049 A 
ATOM     51  C   UNL A   1      43.759  25.347  29.212  1.00  0.00     0.074 A 
ATOM     52  C   UNL A   1      44.863  29.402  33.954  1.00  0.00     0.029 A 
ATOM     53  N   UNL A   1      43.995  28.312  32.223  1.00  0.00    -0.354 N 
ATOM     54  N   UNL A   1      43.881  26.200  30.199  1.00  0.00    -0.248 NA
ATOM     55  C   UNL A   1      44.859  24.376  29.117  1.00  0.00     0.031 C 
ATOM     56  C   UNL A   1      45.686  28.310  33.661  1.00  0.00     0.029 A 
ATOM     57  C   UNL A   1      45.139  27.625  32.588  1.00  0.00     0.049 A 
ATOM     58  H   UNL A   1      43.396  28.059  31.483  1.00  0.00     0.167 HD
ATOM     59  C   UNL A   1      45.050  25.848  30.864  1.00  0.00     0.074 A 
ATOM     60  C   UNL A   1      45.589  24.691  30.180  1.00  0.00     0.031 C 
ATOM     61  C   UNL A   1      45.634  26.440  31.935  1.00  0.00     0.034 A 
BRANCH  48  62
ATOM     62  C   UNL A   1      42.698  31.505  33.911  1.00  0.00     0.023 A 
ATOM     63  C   UNL A   1      43.230  32.747  33.506  1.00  0.00     0.012 A 
ATOM     64  C   UNL A   1      42.100  31.391  35.181  1.00  0.00     0.148 A 
ATOM     65  C   UNL A   1      43.198  33.846  34.362  1.00  0.00     0.002 A 
ATOM     66  C   UNL A   1      42.033  32.503  36.012  1.00  0.00     0.091 A 
ATOM     67  F   UNL A   1      41.618  30.198  35.557  1.00  0.00    -0.205 F 
ATOM     68  C   UNL A   1      42.592  33.729  35.609  1.00  0.00     0.022 A 
BRANCH  66  69
ATOM     69  S   UNL A   1      41.204  32.475  37.605  1.00  0.00     0.127 S 
ATOM     70  O   UNL A   1      39.872  31.996  37.238  1.00  0.00    -0.237 OA
ATOM     71  O   UNL A   1      42.012  31.515  38.358  1.00  0.00    -0.237 OA
ATOM     72  O   UNL A   1      41.261  33.841  38.109  1.00  0.00    -0.744 OA
ENDBRANCH  66  69
ENDBRANCH  48  62
BRANCH  49  73
ATOM     73  C   UNL A   1      42.667  24.137  27.177  1.00  0.00     0.023 A 
ATOM     74  C   UNL A   1      43.358  24.348  25.968  1.00  0.00     0.012 A 
ATOM     75  C   UNL A   1      42.040  22.895  27.400  1.00  0.00     0.148 A 
ATOM     76  C   UNL A   1      43.401  23.356  24.989  1.00  0.00     0.002 A 
ATOM     77  C   UNL A   1      42.132  21.890  26.443  1.00  0.00     0.091 A 
ATOM     78  F   UNL A   1      41.373  22.715  28.549  1.00  0.00    -0.205 F 
ATOM     79  C   UNL A   1      42.798  22.124  25.230  1.00  0.00     0.022 A 
BRANCH  77  80
ATOM     80  S   UNL A   1      41.498  20.233  26.730  1.00  0.00     0.127 S 
ATOM     81  O   UNL A   1      40.086  20.493  26.992  1.00  0.00    -0.237 OA
ATOM     82  O   UNL A   1      41.777  19.573  25.453  1.00  0.00    -0.237 OA
ATOM     83  O   UNL A   1      42.266  19.705  27.850  1.00  0.00    -0.744 OA
ENDBRANCH  77  80
ENDBRANCH  49  73
BRANCH  61  84
ATOM     84  C   UNL A   1      46.909  25.836  32.463  1.00  0.00     0.023 A 
ATOM     85  C   UNL A   1      48.151  26.291  31.976  1.00  0.00     0.012 A 
ATOM     86  C   UNL A   1      46.880  24.879  33.497  1.00  0.00     0.148 A 
ATOM     87  C   UNL A   1      49.343  25.781  32.489  1.00  0.00     0.002 A 
ATOM     88  C   UNL A   1      48.072  24.410  34.035  1.00  0.00     0.091 A 
ATOM     89  F   UNL A   1      45.688  24.445  33.933  1.00  0.00    -0.205 F 
ATOM     90  C   UNL A   1      49.304  24.851  33.525  1.00  0.00     0.022 A 
BRANCH  88  91
ATOM     91  S   UNL A   1      48.117  23.283  35.434  1.00  0.00     0.127 S 
ATOM     92  O   UNL A   1      49.555  23.076  35.604  1.00  0.00    -0.237 OA
ATOM     93  O   UNL A   1      47.487  24.074  36.492  1.00  0.00    -0.237 OA
ATOM     94  O   UNL A   1      47.358  22.109  35.026  1.00  0.00    -0.744 OA
ENDBRANCH  88  91
ENDBRANCH  61  84
ENDBRANCH  35  36
ENDBRANCH  27  30
ENDBRANCH  25  26
ENDBRANCH   1  25
TORSDOF 16
ENDMDL
MODEL 3
REMARK VINA RESULT:     -12.0      3.744      8.585
REMARK SMILES C[C@@H]1[C@H](C(=O)NCCCNC(=O)c2ccc(-c3c4nc(c(-c5cccc(S(=O)(=O)[O-])c5F)c5ccc([nH]5)c(-c5cccc(S(=O)(=O)[O-])c5F)c5nc(c(-c6cccc(S(=O)(=O)[O-])c6F)c6ccc3[nH]6)C=C5)C=C4)cc2)CCN1C(=O)c1c(Cl)cccc1[N+](=O)[O-]
REMARK SMILES IDX 8 1 7 2 6 3 4 4 5 5 3 7 1 8 2 9 78 10 76 11 77 12 79 13
REMARK SMILES IDX 80 14 81 15 82 16 87 17 83 18 84 19 86 20 85 21 88 22 89 23
REMARK SMILES IDX 90 24 9 25 10 26 11 27 12 29 13 30 14 31 75 32 15 33 74 34
REMARK SMILES IDX 16 35 17 36 18 37 68 38 19 39 73 40 67 41 69 42 20 43 72 44
REMARK SMILES IDX 66 45 65 46 21 48 53 49 33 50 52 51 34 52 37 53 51 54 70 55
REMARK SMILES IDX 35 56 36 57 50 59 71 60 38 61 22 62 23 63 31 64 24 65 26 66
REMARK SMILES IDX 32 67 25 68 27 69 28 70 29 71 30 72 54 73 55 74 63 75 56 76
REMARK SMILES IDX 58 77 64 78 57 79 59 80 60 81 61 82 62 83 39 84 40 85 48 86
REMARK SMILES IDX 41 87 43 88 49 89 42 90 44 91 45 92 46 93 47 94
REMARK H PARENT 6 6 10 28 69 47 37 58
REMARK Flexibility Score: inf
ROOT
ATOM      1  C   UNL A   1      33.303  27.964  26.883  1.00  0.00     0.042 C 
ENDROOT
BRANCH   1   2
ATOM      2  C   UNL A   1      31.799  28.172  27.047  1.00  0.00     0.117 C 
BRANCH   2   3
ATOM      3  N   UNL A   1      31.048  26.924  27.133  1.00  0.00    -0.356 N 
ATOM      4  C   UNL A   1      30.923  25.859  26.301  1.00  0.00     0.225 C 
ATOM      5  O   UNL A   1      30.200  24.935  26.695  1.00  0.00    -0.275 OA
ATOM      6  H   UNL A   1      30.528  26.836  27.963  1.00  0.00     0.163 HD
BRANCH   4   7
ATOM      7  C   UNL A   1      31.595  25.744  24.942  1.00  0.00     0.102 C 
ATOM      8  C   UNL A   1      33.382  24.268  26.113  1.00  0.00     0.032 C 
ATOM      9  C   UNL A   1      32.926  24.964  24.843  1.00  0.00     0.094 C 
ATOM     10  N   UNL A   1      32.767  24.098  23.661  1.00  0.00    -0.335 N 
ATOM     11  C   UNL A   1      30.685  25.229  23.829  1.00  0.00     0.037 C 
ATOM     12  C   UNL A   1      31.606  24.492  22.883  1.00  0.00     0.121 C 
BRANCH  10  13
ATOM     13  C   UNL A   1      33.682  23.263  23.032  1.00  0.00     0.262 C 
ATOM     14  O   UNL A   1      33.943  23.332  21.833  1.00  0.00    -0.269 OA
BRANCH  13  15
ATOM     15  C   UNL A   1      34.404  22.241  23.799  1.00  0.00     0.136 A 
ATOM     16  C   UNL A   1      35.773  22.399  24.041  1.00  0.00     0.060 A 
ATOM     17  C   UNL A   1      33.771  21.066  24.229  1.00  0.00     0.283 A 
ATOM     18  Cl  UNL A   1      36.648  23.800  23.528  1.00  0.00    -0.083 Cl
ATOM     19  C   UNL A   1      36.483  21.414  24.739  1.00  0.00     0.022 A 
ATOM     20  C   UNL A   1      34.474  20.086  24.946  1.00  0.00     0.086 A 
ATOM     21  C   UNL A   1      35.833  20.265  25.198  1.00  0.00     0.009 A 
BRANCH  17  22
ATOM     22  N   UNL A   1      32.350  20.856  24.008  1.00  0.00     0.063 N 
ATOM     23  O   UNL A   1      31.595  21.096  24.960  1.00  0.00    -0.258 OA
ATOM     24  O   UNL A   1      31.980  20.484  22.889  1.00  0.00    -0.258 OA
ENDBRANCH  17  22
ENDBRANCH  13  15
ENDBRANCH  10  13
ENDBRANCH   4   7
ENDBRANCH   2   3
ENDBRANCH   1   2
BRANCH   1  25
ATOM     25  C   UNL A   1      34.040  29.052  26.117  1.00  0.00     0.118 C 
BRANCH  25  26
ATOM     26  N   UNL A   1      33.845  30.376  26.678  1.00  0.00    -0.352 N 
ATOM     27  C   UNL A   1      34.543  31.031  27.667  1.00  0.00     0.251 C 
ATOM     28  H   UNL A   1      33.096  30.886  26.292  1.00  0.00     0.163 HD
ATOM     29  O   UNL A   1      34.095  32.086  28.112  1.00  0.00    -0.269 OA
BRANCH  27  30
ATOM     30  C   UNL A   1      35.809  30.482  28.214  1.00  0.00     0.039 A 
ATOM     31  C   UNL A   1      35.764  29.737  29.397  1.00  0.00     0.014 A 
ATOM     32  C   UNL A   1      37.045  30.731  27.609  1.00  0.00     0.014 A 
ATOM     33  C   UNL A   1      36.939  29.199  29.936  1.00  0.00     0.010 A 
ATOM     34  C   UNL A   1      38.200  30.118  28.093  1.00  0.00     0.010 A 
ATOM     35  C   UNL A   1      38.167  29.360  29.273  1.00  0.00    -0.014 A 
BRANCH  35  36
ATOM     36  C   UNL A   1      39.424  28.764  29.804  1.00  0.00     0.031 A 
ATOM     37  C   UNL A   1      40.088  29.351  31.024  1.00  0.00     0.074 A 
ATOM     38  C   UNL A   1      40.016  27.747  29.147  1.00  0.00     0.049 A 
ATOM     39  N   UNL A   1      41.216  29.013  31.593  1.00  0.00    -0.248 NA
ATOM     40  C   UNL A   1      39.411  30.487  31.671  1.00  0.00     0.031 C 
ATOM     41  C   UNL A   1      39.523  27.135  27.911  1.00  0.00     0.029 A 
ATOM     42  N   UNL A   1      41.178  27.063  29.413  1.00  0.00    -0.354 N 
ATOM     43  C   UNL A   1      41.404  29.916  32.635  1.00  0.00     0.074 A 
ATOM     44  C   UNL A   1      40.291  30.839  32.597  1.00  0.00     0.031 C 
ATOM     45  C   UNL A   1      40.371  26.166  27.531  1.00  0.00     0.029 A 
ATOM     46  C   UNL A   1      41.482  26.103  28.475  1.00  0.00     0.049 A 
ATOM     47  H   UNL A   1      41.741  27.243  30.200  1.00  0.00     0.167 HD
ATOM     48  C   UNL A   1      42.393  29.956  33.561  1.00  0.00     0.034 A 
ATOM     49  C   UNL A   1      42.536  25.268  28.382  1.00  0.00     0.034 A 
ATOM     50  C   UNL A   1      43.466  29.002  33.637  1.00  0.00     0.049 A 
ATOM     51  C   UNL A   1      43.590  25.294  29.457  1.00  0.00     0.074 A 
ATOM     52  C   UNL A   1      44.462  28.904  34.592  1.00  0.00     0.029 A 
ATOM     53  N   UNL A   1      43.683  27.981  32.726  1.00  0.00    -0.354 N 
ATOM     54  N   UNL A   1      43.664  26.055  30.521  1.00  0.00    -0.248 NA
ATOM     55  C   UNL A   1      44.686  24.319  29.339  1.00  0.00     0.031 C 
ATOM     56  C   UNL A   1      45.291  27.830  34.250  1.00  0.00     0.029 A 
ATOM     57  C   UNL A   1      44.799  27.249  33.092  1.00  0.00     0.049 A 
ATOM     58  H   UNL A   1      43.125  27.802  31.934  1.00  0.00     0.167 HD
ATOM     59  C   UNL A   1      44.791  25.630  31.216  1.00  0.00     0.074 A 
ATOM     60  C   UNL A   1      45.357  24.530  30.464  1.00  0.00     0.031 C 
ATOM     61  C   UNL A   1      45.319  26.118  32.366  1.00  0.00     0.034 A 
BRANCH  48  62
ATOM     62  C   UNL A   1      42.323  31.032  34.614  1.00  0.00     0.023 A 
ATOM     63  C   UNL A   1      41.700  30.755  35.848  1.00  0.00     0.012 A 
ATOM     64  C   UNL A   1      42.920  32.292  34.410  1.00  0.00     0.148 A 
ATOM     65  C   UNL A   1      41.640  31.723  36.848  1.00  0.00     0.002 A 
ATOM     66  C   UNL A   1      42.896  33.238  35.429  1.00  0.00     0.091 A 
ATOM     67  F   UNL A   1      43.491  32.546  33.223  1.00  0.00    -0.205 F 
ATOM     68  C   UNL A   1      42.246  32.959  36.644  1.00  0.00     0.022 A 
BRANCH  66  69
ATOM     69  S   UNL A   1      43.714  34.831  35.293  1.00  0.00     0.127 S 
ATOM     70  O   UNL A   1      45.075  34.435  34.933  1.00  0.00    -0.237 OA
ATOM     71  O   UNL A   1      42.961  35.476  34.216  1.00  0.00    -0.237 OA
ATOM     72  O   UNL A   1      43.571  35.466  36.597  1.00  0.00    -0.744 OA
ENDBRANCH  66  69
ENDBRANCH  48  62
BRANCH  49  73
ATOM     73  C   UNL A   1      42.604  24.281  27.267  1.00  0.00     0.023 A 
ATOM     74  C   UNL A   1      43.328  24.606  26.103  1.00  0.00     0.012 A 
ATOM     75  C   UNL A   1      41.990  23.017  27.362  1.00  0.00     0.148 A 
ATOM     76  C   UNL A   1      43.417  23.703  25.044  1.00  0.00     0.002 A 
ATOM     77  C   UNL A   1      42.127  22.100  26.325  1.00  0.00     0.091 A 
ATOM     78  F   UNL A   1      41.290  22.730  28.469  1.00  0.00    -0.205 F 
ATOM     79  C   UNL A   1      42.825  22.447  25.158  1.00  0.00     0.022 A 
BRANCH  77  80
ATOM     80  S   UNL A   1      41.509  20.416  26.447  1.00  0.00     0.127 S 
ATOM     81  O   UNL A   1      40.072  20.610  26.278  1.00  0.00    -0.237 OA
ATOM     82  O   UNL A   1      42.180  19.762  25.322  1.00  0.00    -0.237 OA
ATOM     83  O   UNL A   1      41.937  19.934  27.754  1.00  0.00    -0.744 OA
ENDBRANCH  77  80
ENDBRANCH  49  73
BRANCH  61  84
ATOM     84  C   UNL A   1      46.557  25.453  32.908  1.00  0.00     0.023 A 
ATOM     85  C   UNL A   1      47.827  25.958  32.567  1.00  0.00     0.012 A 
ATOM     86  C   UNL A   1      46.460  24.381  33.818  1.00  0.00     0.148 A 
ATOM     87  C   UNL A   1      48.983  25.388  33.101  1.00  0.00     0.002 A 
ATOM     88  C   UNL A   1      47.613  23.848  34.381  1.00  0.00     0.091 A 
ATOM     89  F   UNL A   1      45.242  23.902  34.114  1.00  0.00    -0.205 F 
ATOM     90  C   UNL A   1      48.876  24.343  34.015  1.00  0.00     0.022 A 
BRANCH  88  91
ATOM     91  S   UNL A   1      47.565  22.565  35.637  1.00  0.00     0.127 S 
ATOM     92  O   UNL A   1      46.776  23.205  36.689  1.00  0.00    -0.237 OA
ATOM     93  O   UNL A   1      46.881  21.474  34.941  1.00  0.00    -0.237 OA
ATOM     94  O   UNL A   1      48.954  22.284  35.976  1.00  0.00    -0.744 OA
ENDBRANCH  88  91
ENDBRANCH  61  84
ENDBRANCH  35  36
ENDBRANCH  27  30
ENDBRANCH  25  26
ENDBRANCH   1  25
TORSDOF 16
ENDMDL
