MODEL 1
REMARK VINA RESULT:     -12.6      0.000      0.000
REMARK SMILES CCCc1cc2c(cc1Cl)C=C(C(=O)NCCCNC(=O)c1ccc(-c3c4nc(c(-c5cccc(S(=O)(=O)[O-])c5F)c5ccc([nH]5)c(-c5cccc(S(=O)(=O)[O-])c5F)c5nc(c(-c6cccc(S(=O)(=O)[O-])c6F)c6ccc3[nH]6)C=C5)C=C4)cc1)[C@H](C(F)(F)F)O2
REMARK SMILES IDX 17 1 16 2 15 3 13 4 14 5 12 7 4 8 5 9 9 10 6 11 8 12 10 13
REMARK SMILES IDX 7 14 90 15 11 16 85 17 3 18 2 19 1 20 86 21 87 22 88 23
REMARK SMILES IDX 89 24 18 25 19 26 20 27 21 29 22 30 23 31 84 32 24 33 83 34
REMARK SMILES IDX 25 35 26 36 27 37 77 38 28 39 82 40 76 41 78 42 29 43 81 44
REMARK SMILES IDX 75 45 74 46 30 48 62 49 42 50 61 51 43 52 46 53 60 54 79 55
REMARK SMILES IDX 44 56 45 57 59 59 80 60 47 61 31 62 32 63 40 64 33 65 35 66
REMARK SMILES IDX 41 67 34 68 36 69 37 70 38 71 39 72 63 73 64 74 72 75 65 76
REMARK SMILES IDX 67 77 73 78 66 79 68 80 69 81 70 82 71 83 48 84 49 85 57 86
REMARK SMILES IDX 50 87 52 88 58 89 51 90 53 91 54 92 55 93 56 94
REMARK H PARENT 15 6 19 28 78 47 46 58
REMARK Flexibility Score: inf
ROOT
ATOM      1  C   UNL A   1      31.591  28.930  25.711  1.00  0.00     0.042 C 
ENDROOT
BRANCH   1   2
ATOM      2  C   UNL A   1      32.628  28.580  24.650  1.00  0.00     0.118 C 
BRANCH   2   3
ATOM      3  N   UNL A   1      32.006  28.187  23.393  1.00  0.00    -0.352 N 
ATOM      4  C   UNL A   1      31.673  27.029  22.777  1.00  0.00     0.251 C 
ATOM      5  O   UNL A   1      31.029  27.148  21.730  1.00  0.00    -0.270 OA
ATOM      6  H   UNL A   1      31.766  28.971  22.847  1.00  0.00     0.163 HD
BRANCH   4   7
ATOM      7  C   UNL A   1      32.018  25.667  23.274  1.00  0.00     0.067 C 
ATOM      8  C   UNL A   1      34.380  21.380  24.544  1.00  0.00    -0.026 A 
ATOM      9  C   UNL A   1      33.049  21.785  24.389  1.00  0.00     0.052 A 
ATOM     10  C   UNL A   1      35.379  22.308  24.183  1.00  0.00     0.045 A 
ATOM     11  C   UNL A   1      32.724  23.072  23.978  1.00  0.00     0.128 A 
ATOM     12  C   UNL A   1      35.048  23.600  23.733  1.00  0.00     0.032 A 
ATOM     13  Cl  UNL A   1      37.063  21.913  24.237  1.00  0.00    -0.084 Cl
ATOM     14  C   UNL A   1      33.711  23.988  23.636  1.00  0.00     0.019 A 
ATOM     15  O   UNL A   1      31.390  23.356  23.898  1.00  0.00    -0.475 OA
ATOM     16  C   UNL A   1      33.306  25.297  23.132  1.00  0.00     0.025 C 
ATOM     17  C   UNL A   1      31.055  24.765  23.996  1.00  0.00     0.314 C 
BRANCH   8  18
ATOM     18  C   UNL A   1      34.691  19.969  25.004  1.00  0.00     0.037 C 
BRANCH  18  19
ATOM     19  C   UNL A   1      33.742  18.845  24.544  1.00  0.00     0.001 C 
ATOM     20  C   UNL A   1      34.410  17.516  24.206  1.00  0.00     0.004 C 
ENDBRANCH  18  19
ENDBRANCH   8  18
BRANCH  17  21
ATOM     21  C   UNL A   1      30.808  25.171  25.459  1.00  0.00     0.429 C 
ATOM     22  F   UNL A   1      31.924  25.611  26.079  1.00  0.00    -0.167 F 
ATOM     23  F   UNL A   1      29.878  26.149  25.566  1.00  0.00    -0.167 F 
ATOM     24  F   UNL A   1      30.341  24.109  26.161  1.00  0.00    -0.167 F 
ENDBRANCH  17  21
ENDBRANCH   4   7
ENDBRANCH   2   3
ENDBRANCH   1   2
BRANCH   1  25
ATOM     25  C   UNL A   1      32.210  29.606  26.931  1.00  0.00     0.118 C 
BRANCH  25  26
ATOM     26  N   UNL A   1      32.236  31.058  26.792  1.00  0.00    -0.352 N 
ATOM     27  C   UNL A   1      33.142  31.978  27.272  1.00  0.00     0.251 C 
ATOM     28  H   UNL A   1      31.488  31.440  26.277  1.00  0.00     0.163 HD
ATOM     29  O   UNL A   1      32.856  33.167  27.255  1.00  0.00    -0.269 OA
BRANCH  27  30
ATOM     30  C   UNL A   1      34.438  31.522  27.822  1.00  0.00     0.039 A 
ATOM     31  C   UNL A   1      34.638  30.179  28.144  1.00  0.00     0.014 A 
ATOM     32  C   UNL A   1      35.468  32.447  28.018  1.00  0.00     0.014 A 
ATOM     33  C   UNL A   1      35.779  29.799  28.838  1.00  0.00     0.010 A 
ATOM     34  C   UNL A   1      36.663  32.038  28.621  1.00  0.00     0.010 A 
ATOM     35  C   UNL A   1      36.809  30.721  29.085  1.00  0.00    -0.014 A 
BRANCH  35  36
ATOM     36  C   UNL A   1      38.022  30.276  29.821  1.00  0.00     0.031 A 
ATOM     37  C   UNL A   1      38.273  30.717  31.240  1.00  0.00     0.074 A 
ATOM     38  C   UNL A   1      38.880  29.428  29.219  1.00  0.00     0.049 A 
ATOM     39  N   UNL A   1      39.274  30.411  32.027  1.00  0.00    -0.248 NA
ATOM     40  C   UNL A   1      37.285  31.615  31.860  1.00  0.00     0.031 C 
ATOM     41  C   UNL A   1      38.758  28.942  27.841  1.00  0.00     0.029 A 
ATOM     42  N   UNL A   1      40.014  28.812  29.685  1.00  0.00    -0.354 N 
ATOM     43  C   UNL A   1      39.061  31.111  33.207  1.00  0.00     0.074 A 
ATOM     44  C   UNL A   1      37.837  31.860  33.041  1.00  0.00     0.031 C 
ATOM     45  C   UNL A   1      39.746  28.071  27.591  1.00  0.00     0.029 A 
ATOM     46  C   UNL A   1      40.608  27.983  28.763  1.00  0.00     0.049 A 
ATOM     47  H   UNL A   1      40.369  28.951  30.594  1.00  0.00     0.167 HD
ATOM     48  C   UNL A   1      39.810  31.112  34.336  1.00  0.00     0.034 A 
ATOM     49  C   UNL A   1      41.732  27.244  28.838  1.00  0.00     0.034 A 
ATOM     50  C   UNL A   1      40.991  30.316  34.526  1.00  0.00     0.049 A 
ATOM     51  C   UNL A   1      42.531  27.254  30.107  1.00  0.00     0.074 A 
ATOM     52  C   UNL A   1      41.778  30.214  35.659  1.00  0.00     0.029 A 
ATOM     53  N   UNL A   1      41.548  29.483  33.571  1.00  0.00    -0.354 N 
ATOM     54  N   UNL A   1      42.271  27.869  31.234  1.00  0.00    -0.248 NA
ATOM     55  C   UNL A   1      43.772  26.466  30.122  1.00  0.00     0.031 C 
ATOM     56  C   UNL A   1      42.821  29.325  35.386  1.00  0.00     0.029 A 
ATOM     57  C   UNL A   1      42.673  28.865  34.088  1.00  0.00     0.049 A 
ATOM     58  H   UNL A   1      41.196  29.350  32.661  1.00  0.00     0.167 HD
ATOM     59  C   UNL A   1      43.307  27.535  32.097  1.00  0.00     0.074 A 
ATOM     60  C   UNL A   1      44.189  26.646  31.369  1.00  0.00     0.031 C 
ATOM     61  C   UNL A   1      43.515  27.946  33.369  1.00  0.00     0.034 A 
BRANCH  48  62
ATOM     62  C   UNL A   1      39.359  31.960  35.493  1.00  0.00     0.023 A 
ATOM     63  C   UNL A   1      39.574  33.352  35.451  1.00  0.00     0.012 A 
ATOM     64  C   UNL A   1      38.606  31.403  36.545  1.00  0.00     0.148 A 
ATOM     65  C   UNL A   1      39.047  34.178  36.443  1.00  0.00     0.002 A 
ATOM     66  C   UNL A   1      38.059  32.237  37.513  1.00  0.00     0.091 A 
ATOM     67  F   UNL A   1      38.422  30.076  36.563  1.00  0.00    -0.205 F 
ATOM     68  C   UNL A   1      38.281  33.623  37.465  1.00  0.00     0.022 A 
BRANCH  66  69
ATOM     69  S   UNL A   1      37.010  31.634  38.841  1.00  0.00     0.127 S 
ATOM     70  O   UNL A   1      37.897  31.762  39.998  1.00  0.00    -0.237 OA
ATOM     71  O   UNL A   1      35.903  32.588  38.813  1.00  0.00    -0.237 OA
ATOM     72  O   UNL A   1      36.654  30.267  38.488  1.00  0.00    -0.744 OA
ENDBRANCH  66  69
ENDBRANCH  48  62
BRANCH  49  73
ATOM     73  C   UNL A   1      42.137  26.413  27.674  1.00  0.00     0.023 A 
ATOM     74  C   UNL A   1      43.016  26.949  26.715  1.00  0.00     0.012 A 
ATOM     75  C   UNL A   1      41.717  25.074  27.556  1.00  0.00     0.148 A 
ATOM     76  C   UNL A   1      43.465  26.165  25.651  1.00  0.00     0.002 A 
ATOM     77  C   UNL A   1      42.203  24.286  26.521  1.00  0.00     0.091 A 
ATOM     78  F   UNL A   1      40.875  24.591  28.481  1.00  0.00    -0.205 F 
ATOM     79  C   UNL A   1      43.069  24.833  25.560  1.00  0.00     0.022 A 
BRANCH  77  80
ATOM     80  S   UNL A   1      41.840  22.532  26.388  1.00  0.00     0.127 S 
ATOM     81  O   UNL A   1      40.381  22.532  26.342  1.00  0.00    -0.237 OA
ATOM     82  O   UNL A   1      42.498  22.187  25.127  1.00  0.00    -0.237 OA
ATOM     83  O   UNL A   1      42.432  21.914  27.566  1.00  0.00    -0.744 OA
ENDBRANCH  77  80
ENDBRANCH  49  73
BRANCH  61  84
ATOM     84  C   UNL A   1      44.736  27.442  34.084  1.00  0.00     0.023 A 
ATOM     85  C   UNL A   1      45.908  28.223  34.077  1.00  0.00     0.012 A 
ATOM     86  C   UNL A   1      44.678  26.273  34.866  1.00  0.00     0.148 A 
ATOM     87  C   UNL A   1      47.010  27.844  34.841  1.00  0.00     0.002 A 
ATOM     88  C   UNL A   1      45.769  25.920  35.651  1.00  0.00     0.091 A 
ATOM     89  F   UNL A   1      43.551  25.548  34.847  1.00  0.00    -0.205 F 
ATOM     90  C   UNL A   1      46.936  26.702  35.636  1.00  0.00     0.022 A 
BRANCH  88  91
ATOM     91  S   UNL A   1      45.745  24.513  36.766  1.00  0.00     0.127 S 
ATOM     92  O   UNL A   1      47.115  24.517  37.279  1.00  0.00    -0.237 OA
ATOM     93  O   UNL A   1      44.727  24.907  37.739  1.00  0.00    -0.237 OA
ATOM     94  O   UNL A   1      45.395  23.356  35.952  1.00  0.00    -0.744 OA
ENDBRANCH  88  91
ENDBRANCH  61  84
ENDBRANCH  35  36
ENDBRANCH  27  30
ENDBRANCH  25  26
ENDBRANCH   1  25
TORSDOF 16
ENDMDL
MODEL 2
REMARK VINA RESULT:     -12.6      2.583      8.190
REMARK SMILES CCCc1cc2c(cc1Cl)C=C(C(=O)NCCCNC(=O)c1ccc(-c3c4nc(c(-c5cccc(S(=O)(=O)[O-])c5F)c5ccc([nH]5)c(-c5cccc(S(=O)(=O)[O-])c5F)c5nc(c(-c6cccc(S(=O)(=O)[O-])c6F)c6ccc3[nH]6)C=C5)C=C4)cc1)[C@H](C(F)(F)F)O2
REMARK SMILES IDX 17 1 16 2 15 3 13 4 14 5 12 7 4 8 5 9 9 10 6 11 8 12 10 13
REMARK SMILES IDX 7 14 90 15 11 16 85 17 3 18 2 19 1 20 86 21 87 22 88 23
REMARK SMILES IDX 89 24 18 25 19 26 20 27 21 29 22 30 23 31 84 32 24 33 83 34
REMARK SMILES IDX 25 35 26 36 27 37 77 38 28 39 82 40 76 41 78 42 29 43 81 44
REMARK SMILES IDX 75 45 74 46 30 48 62 49 42 50 61 51 43 52 46 53 60 54 79 55
REMARK SMILES IDX 44 56 45 57 59 59 80 60 47 61 31 62 32 63 40 64 33 65 35 66
REMARK SMILES IDX 41 67 34 68 36 69 37 70 38 71 39 72 63 73 64 74 72 75 65 76
REMARK SMILES IDX 67 77 73 78 66 79 68 80 69 81 70 82 71 83 48 84 49 85 57 86
REMARK SMILES IDX 50 87 52 88 58 89 51 90 53 91 54 92 55 93 56 94
REMARK H PARENT 15 6 19 28 78 47 46 58
REMARK Flexibility Score: inf
ROOT
ATOM      1  C   UNL A   1      31.580  32.286  26.617  1.00  0.00     0.042 C 
ENDROOT
BRANCH   1   2
ATOM      2  C   UNL A   1      31.723  30.795  26.335  1.00  0.00     0.118 C 
BRANCH   2   3
ATOM      3  N   UNL A   1      31.287  30.453  24.987  1.00  0.00    -0.352 N 
ATOM      4  C   UNL A   1      31.204  29.334  24.231  1.00  0.00     0.251 C 
ATOM      5  O   UNL A   1      30.644  29.468  23.140  1.00  0.00    -0.270 OA
ATOM      6  H   UNL A   1      30.970  31.247  24.497  1.00  0.00     0.163 HD
BRANCH   4   7
ATOM      7  C   UNL A   1      31.724  27.995  24.629  1.00  0.00     0.067 C 
ATOM      8  C   UNL A   1      32.278  23.304  26.435  1.00  0.00    -0.026 A 
ATOM      9  C   UNL A   1      33.137  24.327  26.016  1.00  0.00     0.052 A 
ATOM     10  C   UNL A   1      30.902  23.605  26.489  1.00  0.00     0.045 A 
ATOM     11  C   UNL A   1      32.651  25.558  25.594  1.00  0.00     0.128 A 
ATOM     12  C   UNL A   1      30.413  24.865  26.095  1.00  0.00     0.032 A 
ATOM     13  Cl  UNL A   1      29.734  22.468  27.073  1.00  0.00    -0.084 Cl
ATOM     14  C   UNL A   1      31.292  25.847  25.637  1.00  0.00     0.019 A 
ATOM     15  O   UNL A   1      33.588  26.461  25.178  1.00  0.00    -0.475 OA
ATOM     16  C   UNL A   1      30.850  27.185  25.259  1.00  0.00     0.025 C 
ATOM     17  C   UNL A   1      33.094  27.485  24.275  1.00  0.00     0.314 C 
BRANCH   8  18
ATOM     18  C   UNL A   1      32.850  21.972  26.879  1.00  0.00     0.037 C 
BRANCH  18  19
ATOM     19  C   UNL A   1      33.320  20.997  25.780  1.00  0.00     0.001 C 
ATOM     20  C   UNL A   1      32.266  20.609  24.748  1.00  0.00     0.004 C 
ENDBRANCH  18  19
ENDBRANCH   8  18
BRANCH  17  21
ATOM     21  C   UNL A   1      33.227  27.036  22.809  1.00  0.00     0.429 C 
ATOM     22  F   UNL A   1      34.049  25.976  22.656  1.00  0.00    -0.167 F 
ATOM     23  F   UNL A   1      32.032  26.698  22.270  1.00  0.00    -0.167 F 
ATOM     24  F   UNL A   1      33.723  28.050  22.058  1.00  0.00    -0.167 F 
ENDBRANCH  17  21
ENDBRANCH   4   7
ENDBRANCH   2   3
ENDBRANCH   1   2
BRANCH   1  25
ATOM     25  C   UNL A   1      32.755  32.843  27.415  1.00  0.00     0.118 C 
BRANCH  25  26
ATOM     26  N   UNL A   1      32.578  34.256  27.728  1.00  0.00    -0.352 N 
ATOM     27  C   UNL A   1      33.132  35.018  28.734  1.00  0.00     0.251 C 
ATOM     28  H   UNL A   1      31.965  34.741  27.129  1.00  0.00     0.163 HD
ATOM     29  O   UNL A   1      32.668  36.125  28.973  1.00  0.00    -0.269 OA
BRANCH  27  30
ATOM     30  C   UNL A   1      34.261  34.485  29.528  1.00  0.00     0.039 A 
ATOM     31  C   UNL A   1      35.568  34.571  29.047  1.00  0.00     0.014 A 
ATOM     32  C   UNL A   1      34.013  33.893  30.770  1.00  0.00     0.014 A 
ATOM     33  C   UNL A   1      36.590  33.897  29.703  1.00  0.00     0.010 A 
ATOM     34  C   UNL A   1      35.065  33.307  31.483  1.00  0.00     0.010 A 
ATOM     35  C   UNL A   1      36.355  33.258  30.931  1.00  0.00    -0.014 A 
BRANCH  35  36
ATOM     36  C   UNL A   1      37.475  32.556  31.611  1.00  0.00     0.031 A 
ATOM     37  C   UNL A   1      38.212  31.430  30.931  1.00  0.00     0.074 A 
ATOM     38  C   UNL A   1      37.862  32.969  32.835  1.00  0.00     0.049 A 
ATOM     39  N   UNL A   1      39.218  30.722  31.379  1.00  0.00    -0.248 NA
ATOM     40  C   UNL A   1      37.770  31.044  29.581  1.00  0.00     0.031 C 
ATOM     41  C   UNL A   1      37.217  34.036  33.607  1.00  0.00     0.029 A 
ATOM     42  N   UNL A   1      38.894  32.557  33.640  1.00  0.00    -0.354 N 
ATOM     43  C   UNL A   1      39.495  29.783  30.393  1.00  0.00     0.074 A 
ATOM     44  C   UNL A   1      38.554  30.006  29.319  1.00  0.00     0.031 C 
ATOM     45  C   UNL A   1      37.895  34.225  34.748  1.00  0.00     0.029 A 
ATOM     46  C   UNL A   1      38.980  33.254  34.822  1.00  0.00     0.049 A 
ATOM     47  H   UNL A   1      39.513  31.831  33.395  1.00  0.00     0.167 HD
ATOM     48  C   UNL A   1      40.460  28.833  30.378  1.00  0.00     0.034 A 
ATOM     49  C   UNL A   1      39.826  33.123  35.863  1.00  0.00     0.034 A 
ATOM     50  C   UNL A   1      41.438  28.655  31.416  1.00  0.00     0.049 A 
ATOM     51  C   UNL A   1      40.894  32.072  35.809  1.00  0.00     0.074 A 
ATOM     52  C   UNL A   1      42.486  27.753  31.455  1.00  0.00     0.029 A 
ATOM     53  N   UNL A   1      41.494  29.390  32.587  1.00  0.00    -0.354 N 
ATOM     54  N   UNL A   1      41.180  31.243  34.836  1.00  0.00    -0.248 NA
ATOM     55  C   UNL A   1      41.761  31.940  36.989  1.00  0.00     0.031 C 
ATOM     56  C   UNL A   1      43.174  27.937  32.657  1.00  0.00     0.029 A 
ATOM     57  C   UNL A   1      42.560  28.961  33.359  1.00  0.00     0.049 A 
ATOM     58  H   UNL A   1      40.871  30.111  32.834  1.00  0.00     0.167 HD
ATOM     59  C   UNL A   1      42.266  30.499  35.278  1.00  0.00     0.074 A 
ATOM     60  C   UNL A   1      42.600  30.988  36.600  1.00  0.00     0.031 C 
ATOM     61  C   UNL A   1      42.911  29.488  34.650  1.00  0.00     0.034 A 
BRANCH  48  62
ATOM     62  C   UNL A   1      40.558  27.932  29.178  1.00  0.00     0.023 A 
ATOM     63  C   UNL A   1      39.622  26.893  29.020  1.00  0.00     0.012 A 
ATOM     64  C   UNL A   1      41.482  28.200  28.149  1.00  0.00     0.148 A 
ATOM     65  C   UNL A   1      39.603  26.129  27.853  1.00  0.00     0.002 A 
ATOM     66  C   UNL A   1      41.438  27.454  26.977  1.00  0.00     0.091 A 
ATOM     67  F   UNL A   1      42.366  29.192  28.329  1.00  0.00    -0.205 F 
ATOM     68  C   UNL A   1      40.502  26.417  26.829  1.00  0.00     0.022 A 
BRANCH  66  69
ATOM     69  S   UNL A   1      42.512  27.778  25.574  1.00  0.00     0.127 S 
ATOM     70  O   UNL A   1      42.295  26.585  24.756  1.00  0.00    -0.237 OA
ATOM     71  O   UNL A   1      41.936  29.005  25.026  1.00  0.00    -0.237 OA
ATOM     72  O   UNL A   1      43.856  27.917  26.114  1.00  0.00    -0.744 OA
ENDBRANCH  66  69
ENDBRANCH  48  62
BRANCH  49  73
ATOM     73  C   UNL A   1      39.698  34.040  37.026  1.00  0.00     0.023 A 
ATOM     74  C   UNL A   1      40.065  35.391  36.884  1.00  0.00     0.012 A 
ATOM     75  C   UNL A   1      39.146  33.596  38.243  1.00  0.00     0.148 A 
ATOM     76  C   UNL A   1      39.889  36.286  37.941  1.00  0.00     0.002 A 
ATOM     77  C   UNL A   1      38.931  34.501  39.275  1.00  0.00     0.091 A 
ATOM     78  F   UNL A   1      38.811  32.303  38.352  1.00  0.00    -0.205 F 
ATOM     79  C   UNL A   1      39.313  35.845  39.130  1.00  0.00     0.022 A 
BRANCH  77  80
ATOM     80  S   UNL A   1      38.092  34.051  40.797  1.00  0.00     0.127 S 
ATOM     81  O   UNL A   1      37.891  35.355  41.424  1.00  0.00    -0.237 OA
ATOM     82  O   UNL A   1      36.875  33.416  40.289  1.00  0.00    -0.237 OA
ATOM     83  O   UNL A   1      38.996  33.150  41.497  1.00  0.00    -0.744 OA
ENDBRANCH  77  80
ENDBRANCH  49  73
BRANCH  61  84
ATOM     84  C   UNL A   1      44.059  28.833  35.363  1.00  0.00     0.023 A 
ATOM     85  C   UNL A   1      45.348  29.388  35.244  1.00  0.00     0.012 A 
ATOM     86  C   UNL A   1      43.838  27.762  36.249  1.00  0.00     0.148 A 
ATOM     87  C   UNL A   1      46.404  28.882  35.999  1.00  0.00     0.002 A 
ATOM     88  C   UNL A   1      44.888  27.285  37.023  1.00  0.00     0.091 A 
ATOM     89  F   UNL A   1      42.601  27.252  36.335  1.00  0.00    -0.205 F 
ATOM     90  C   UNL A   1      46.172  27.840  36.896  1.00  0.00     0.022 A 
BRANCH  88  91
ATOM     91  S   UNL A   1      44.674  26.001  38.260  1.00  0.00     0.127 S 
ATOM     92  O   UNL A   1      43.743  26.638  39.191  1.00  0.00    -0.237 OA
ATOM     93  O   UNL A   1      44.101  24.908  37.475  1.00  0.00    -0.237 OA
ATOM     94  O   UNL A   1      46.001  25.734  38.801  1.00  0.00    -0.744 OA
ENDBRANCH  88  91
ENDBRANCH  61  84
ENDBRANCH  35  36
ENDBRANCH  27  30
ENDBRANCH  25  26
ENDBRANCH   1  25
TORSDOF 16
ENDMDL
MODEL 3
REMARK VINA RESULT:     -12.5      5.410      8.282
REMARK SMILES CCCc1cc2c(cc1Cl)C=C(C(=O)NCCCNC(=O)c1ccc(-c3c4nc(c(-c5cccc(S(=O)(=O)[O-])c5F)c5ccc([nH]5)c(-c5cccc(S(=O)(=O)[O-])c5F)c5nc(c(-c6cccc(S(=O)(=O)[O-])c6F)c6ccc3[nH]6)C=C5)C=C4)cc1)[C@H](C(F)(F)F)O2
REMARK SMILES IDX 17 1 16 2 15 3 13 4 14 5 12 7 4 8 5 9 9 10 6 11 8 12 10 13
REMARK SMILES IDX 7 14 90 15 11 16 85 17 3 18 2 19 1 20 86 21 87 22 88 23
REMARK SMILES IDX 89 24 18 25 19 26 20 27 21 29 22 30 23 31 84 32 24 33 83 34
REMARK SMILES IDX 25 35 26 36 27 37 77 38 28 39 82 40 76 41 78 42 29 43 81 44
REMARK SMILES IDX 75 45 74 46 30 48 62 49 42 50 61 51 43 52 46 53 60 54 79 55
REMARK SMILES IDX 44 56 45 57 59 59 80 60 47 61 31 62 32 63 40 64 33 65 35 66
REMARK SMILES IDX 41 67 34 68 36 69 37 70 38 71 39 72 63 73 64 74 72 75 65 76
REMARK SMILES IDX 67 77 73 78 66 79 68 80 69 81 70 82 71 83 48 84 49 85 57 86
REMARK SMILES IDX 50 87 52 88 58 89 51 90 53 91 54 92 55 93 56 94
REMARK H PARENT 15 6 19 28 78 47 46 58
REMARK Flexibility Score: inf
ROOT
ATOM      1  C   UNL A   1      36.497  20.868  25.360  1.00  0.00     0.042 C 
ENDROOT
BRANCH   1   2
ATOM      2  C   UNL A   1      36.104  22.210  25.966  1.00  0.00     0.118 C 
BRANCH   2   3
ATOM      3  N   UNL A   1      35.039  22.071  26.950  1.00  0.00    -0.352 N 
ATOM      4  C   UNL A   1      33.742  22.439  27.059  1.00  0.00     0.251 C 
ATOM      5  O   UNL A   1      33.143  22.000  28.045  1.00  0.00    -0.270 OA
ATOM      6  H   UNL A   1      35.345  21.579  27.747  1.00  0.00     0.163 HD
BRANCH   4   7
ATOM      7  C   UNL A   1      33.016  23.307  26.088  1.00  0.00     0.067 C 
ATOM      8  C   UNL A   1      31.244  27.191  23.378  1.00  0.00    -0.026 A 
ATOM      9  C   UNL A   1      30.859  25.863  23.600  1.00  0.00     0.052 A 
ATOM     10  C   UNL A   1      32.331  27.678  24.132  1.00  0.00     0.045 A 
ATOM     11  C   UNL A   1      31.567  25.036  24.464  1.00  0.00     0.128 A 
ATOM     12  C   UNL A   1      33.025  26.850  25.033  1.00  0.00     0.032 A 
ATOM     13  Cl  UNL A   1      32.857  29.324  24.028  1.00  0.00    -0.084 Cl
ATOM     14  C   UNL A   1      32.646  25.517  25.196  1.00  0.00     0.019 A 
ATOM     15  O   UNL A   1      31.113  23.752  24.570  1.00  0.00    -0.475 OA
ATOM     16  C   UNL A   1      33.297  24.623  26.148  1.00  0.00     0.025 C 
ATOM     17  C   UNL A   1      32.101  22.786  25.014  1.00  0.00     0.314 C 
BRANCH   8  18
ATOM     18  C   UNL A   1      30.449  28.056  22.419  1.00  0.00     0.037 C 
BRANCH  18  19
ATOM     19  C   UNL A   1      29.182  28.744  22.965  1.00  0.00     0.001 C 
ATOM     20  C   UNL A   1      29.369  30.177  23.454  1.00  0.00     0.004 C 
ENDBRANCH  18  19
ENDBRANCH   8  18
BRANCH  17  21
ATOM     21  C   UNL A   1      32.844  22.169  23.816  1.00  0.00     0.429 C 
ATOM     22  F   UNL A   1      33.943  22.867  23.462  1.00  0.00    -0.167 F 
ATOM     23  F   UNL A   1      33.238  20.897  24.062  1.00  0.00    -0.167 F 
ATOM     24  F   UNL A   1      32.024  22.123  22.737  1.00  0.00    -0.167 F 
ENDBRANCH  17  21
ENDBRANCH   4   7
ENDBRANCH   2   3
ENDBRANCH   1   2
BRANCH   1  25
ATOM     25  C   UNL A   1      37.930  20.862  24.836  1.00  0.00     0.118 C 
BRANCH  25  26
ATOM     26  N   UNL A   1      38.768  19.910  25.555  1.00  0.00    -0.352 N 
ATOM     27  C   UNL A   1      39.906  20.117  26.303  1.00  0.00     0.251 C 
ATOM     28  H   UNL A   1      38.475  18.971  25.496  1.00  0.00     0.163 HD
ATOM     29  O   UNL A   1      40.597  19.160  26.623  1.00  0.00    -0.269 OA
BRANCH  27  30
ATOM     30  C   UNL A   1      40.294  21.492  26.692  1.00  0.00     0.039 A 
ATOM     31  C   UNL A   1      39.739  22.595  26.044  1.00  0.00     0.014 A 
ATOM     32  C   UNL A   1      41.224  21.681  27.719  1.00  0.00     0.014 A 
ATOM     33  C   UNL A   1      40.252  23.864  26.280  1.00  0.00     0.010 A 
ATOM     34  C   UNL A   1      41.662  22.974  28.030  1.00  0.00     0.010 A 
ATOM     35  C   UNL A   1      41.219  24.072  27.277  1.00  0.00    -0.014 A 
BRANCH  35  36
ATOM     36  C   UNL A   1      41.738  25.446  27.509  1.00  0.00     0.031 A 
ATOM     37  C   UNL A   1      40.944  26.450  28.305  1.00  0.00     0.074 A 
ATOM     38  C   UNL A   1      42.957  25.775  27.037  1.00  0.00     0.049 A 
ATOM     39  N   UNL A   1      41.257  27.685  28.609  1.00  0.00    -0.248 NA
ATOM     40  C   UNL A   1      39.635  26.025  28.827  1.00  0.00     0.031 C 
ATOM     41  C   UNL A   1      43.816  24.898  26.236  1.00  0.00     0.029 A 
ATOM     42  N   UNL A   1      43.694  26.925  27.171  1.00  0.00    -0.354 N 
ATOM     43  C   UNL A   1      40.172  28.194  29.311  1.00  0.00     0.074 A 
ATOM     44  C   UNL A   1      39.187  27.139  29.391  1.00  0.00     0.031 C 
ATOM     45  C   UNL A   1      44.977  25.521  25.990  1.00  0.00     0.029 A 
ATOM     46  C   UNL A   1      44.924  26.863  26.559  1.00  0.00     0.049 A 
ATOM     47  H   UNL A   1      43.374  27.719  27.658  1.00  0.00     0.167 HD
ATOM     48  C   UNL A   1      40.019  29.424  29.856  1.00  0.00     0.034 A 
ATOM     49  C   UNL A   1      45.900  27.785  26.448  1.00  0.00     0.034 A 
ATOM     50  C   UNL A   1      41.025  30.450  29.834  1.00  0.00     0.049 A 
ATOM     51  C   UNL A   1      45.708  29.134  27.075  1.00  0.00     0.074 A 
ATOM     52  C   UNL A   1      40.975  31.707  30.411  1.00  0.00     0.029 A 
ATOM     53  N   UNL A   1      42.258  30.340  29.214  1.00  0.00    -0.354 N 
ATOM     54  N   UNL A   1      44.702  29.567  27.794  1.00  0.00    -0.248 NA
ATOM     55  C   UNL A   1      46.783  30.118  26.887  1.00  0.00     0.031 C 
ATOM     56  C   UNL A   1      42.177  32.363  30.132  1.00  0.00     0.029 A 
ATOM     57  C   UNL A   1      42.978  31.508  29.392  1.00  0.00     0.049 A 
ATOM     58  H   UNL A   1      42.575  29.549  28.722  1.00  0.00     0.167 HD
ATOM     59  C   UNL A   1      45.025  30.869  28.154  1.00  0.00     0.074 A 
ATOM     60  C   UNL A   1      46.331  31.148  27.591  1.00  0.00     0.031 C 
ATOM     61  C   UNL A   1      44.294  31.756  28.868  1.00  0.00     0.034 A 
BRANCH  48  62
ATOM     62  C   UNL A   1      38.737  29.733  30.579  1.00  0.00     0.023 A 
ATOM     63  C   UNL A   1      38.554  29.253  31.890  1.00  0.00     0.012 A 
ATOM     64  C   UNL A   1      37.785  30.606  30.016  1.00  0.00     0.148 A 
ATOM     65  C   UNL A   1      37.438  29.637  32.633  1.00  0.00     0.002 A 
ATOM     66  C   UNL A   1      36.691  31.007  30.774  1.00  0.00     0.091 A 
ATOM     67  F   UNL A   1      37.983  31.043  28.765  1.00  0.00    -0.205 F 
ATOM     68  C   UNL A   1      36.515  30.521  32.080  1.00  0.00     0.022 A 
BRANCH  66  69
ATOM     69  S   UNL A   1      35.473  32.186  30.180  1.00  0.00     0.127 S 
ATOM     70  O   UNL A   1      34.937  31.491  29.010  1.00  0.00    -0.237 OA
ATOM     71  O   UNL A   1      34.553  32.270  31.313  1.00  0.00    -0.237 OA
ATOM     72  O   UNL A   1      36.203  33.411  29.888  1.00  0.00    -0.744 OA
ENDBRANCH  66  69
ENDBRANCH  48  62
BRANCH  49  73
ATOM     73  C   UNL A   1      47.156  27.436  25.731  1.00  0.00     0.023 A 
ATOM     74  C   UNL A   1      48.164  26.728  26.410  1.00  0.00     0.012 A 
ATOM     75  C   UNL A   1      47.318  27.735  24.365  1.00  0.00     0.148 A 
ATOM     76  C   UNL A   1      49.322  26.329  25.739  1.00  0.00     0.002 A 
ATOM     77  C   UNL A   1      48.451  27.294  23.692  1.00  0.00     0.091 A 
ATOM     78  F   UNL A   1      46.343  28.415  23.745  1.00  0.00    -0.205 F 
ATOM     79  C   UNL A   1      49.459  26.601  24.380  1.00  0.00     0.022 A 
BRANCH  77  80
ATOM     80  S   UNL A   1      48.663  27.497  21.920  1.00  0.00     0.127 S 
ATOM     81  O   UNL A   1      49.736  28.486  21.860  1.00  0.00    -0.237 OA
ATOM     82  O   UNL A   1      49.045  26.145  21.510  1.00  0.00    -0.237 OA
ATOM     83  O   UNL A   1      47.371  27.939  21.414  1.00  0.00    -0.744 OA
ENDBRANCH  77  80
ENDBRANCH  49  73
BRANCH  61  84
ATOM     84  C   UNL A   1      44.876  33.120  29.107  1.00  0.00     0.023 A 
ATOM     85  C   UNL A   1      45.642  33.347  30.267  1.00  0.00     0.012 A 
ATOM     86  C   UNL A   1      44.778  34.124  28.125  1.00  0.00     0.148 A 
ATOM     87  C   UNL A   1      46.302  34.561  30.446  1.00  0.00     0.002 A 
ATOM     88  C   UNL A   1      45.466  35.318  28.296  1.00  0.00     0.091 A 
ATOM     89  F   UNL A   1      44.036  33.879  27.035  1.00  0.00    -0.205 F 
ATOM     90  C   UNL A   1      46.225  35.540  29.457  1.00  0.00     0.022 A 
BRANCH  88  91
ATOM     91  S   UNL A   1      45.493  36.608  27.047  1.00  0.00     0.127 S 
ATOM     92  O   UNL A   1      46.032  35.892  25.891  1.00  0.00    -0.237 OA
ATOM     93  O   UNL A   1      44.078  36.963  26.940  1.00  0.00    -0.237 OA
ATOM     94  O   UNL A   1      46.349  37.664  27.573  1.00  0.00    -0.744 OA
ENDBRANCH  88  91
ENDBRANCH  61  84
ENDBRANCH  35  36
ENDBRANCH  27  30
ENDBRANCH  25  26
ENDBRANCH   1  25
TORSDOF 16
ENDMDL
