MODEL 1
REMARK VINA RESULT:     -12.3      0.000      0.000
REMARK SMILES O=C(NCCCNC(=O)c1cc(/C=C/c2cc(O)cc(O)c2)ccc1O)c1ccc(-c2c3nc(c(-c4cccc(S(=O)(=O)[O-])c4F)c4ccc([nH]4)c(-c4cccc(S(=O)(=O)[O-])c4F)c4nc(c(-c5cccc(S(=O)(=O)[O-])c5F)c5ccc2[nH]5)C=C4)C=C3)cc1
REMARK SMILES IDX 5 1 4 2 3 3 1 4 2 5 27 7 28 8 89 9 29 10 88 11 30 12 31 13
REMARK SMILES IDX 32 14 82 15 33 16 87 17 81 18 83 19 34 20 86 21 80 22 79 23
REMARK SMILES IDX 35 25 67 26 47 27 66 28 48 29 51 30 65 31 84 32 49 33 50 34
REMARK SMILES IDX 64 36 85 37 52 38 36 39 37 40 45 41 38 42 40 43 46 44 39 45
REMARK SMILES IDX 41 46 42 47 43 48 44 49 68 50 69 51 77 52 70 53 72 54 78 55
REMARK SMILES IDX 71 56 73 57 74 58 75 59 76 60 53 61 54 62 62 63 55 64 57 65
REMARK SMILES IDX 63 66 56 67 58 68 59 69 60 70 61 71 6 72 7 73 8 74 9 76
REMARK SMILES IDX 10 77 11 78 25 79 12 80 24 81 23 82 26 83 13 85 14 86 15 87
REMARK SMILES IDX 16 88 22 89 17 90 20 91 19 92 18 93 21 95
REMARK H PARENT 3 6 83 24 51 35 7 75 26 84 18 94 21 96
REMARK Flexibility Score: inf
ROOT
ATOM      1  C   UNL A   1      33.198  27.917  27.072  1.00  0.00     0.042 C 
ENDROOT
BRANCH   1   2
ATOM      2  C   UNL A   1      33.958  28.908  26.205  1.00  0.00     0.118 C 
BRANCH   2   3
ATOM      3  N   UNL A   1      33.842  30.279  26.680  1.00  0.00    -0.352 N 
ATOM      4  O   UNL A   1      34.203  32.056  28.009  1.00  0.00    -0.269 OA
ATOM      5  C   UNL A   1      34.596  30.964  27.601  1.00  0.00     0.251 C 
ATOM      6  H   UNL A   1      33.109  30.797  26.277  1.00  0.00     0.163 HD
BRANCH   5   7
ATOM      7  C   UNL A   1      35.852  30.382  28.122  1.00  0.00     0.039 A 
ATOM      8  C   UNL A   1      35.858  29.610  29.285  1.00  0.00     0.014 A 
ATOM      9  C   UNL A   1      37.042  30.595  27.420  1.00  0.00     0.014 A 
ATOM     10  C   UNL A   1      37.063  29.190  29.836  1.00  0.00     0.010 A 
ATOM     11  C   UNL A   1      38.242  30.085  27.922  1.00  0.00     0.010 A 
ATOM     12  C   UNL A   1      38.268  29.408  29.152  1.00  0.00    -0.014 A 
BRANCH  12  13
ATOM     13  C   UNL A   1      39.536  28.857  29.689  1.00  0.00     0.031 A 
ATOM     14  C   UNL A   1      40.263  29.539  30.813  1.00  0.00     0.074 A 
ATOM     15  C   UNL A   1      40.058  27.755  29.114  1.00  0.00     0.049 A 
ATOM     16  N   UNL A   1      41.417  29.236  31.349  1.00  0.00    -0.248 NA
ATOM     17  C   UNL A   1      39.618  30.722  31.404  1.00  0.00     0.031 C 
ATOM     18  C   UNL A   1      39.460  27.034  27.989  1.00  0.00     0.029 A 
ATOM     19  N   UNL A   1      41.218  27.072  29.371  1.00  0.00    -0.354 N 
ATOM     20  C   UNL A   1      41.663  30.216  32.303  1.00  0.00     0.074 A 
ATOM     21  C   UNL A   1      40.537  31.125  32.271  1.00  0.00     0.031 C 
ATOM     22  C   UNL A   1      40.262  26.017  27.643  1.00  0.00     0.029 A 
ATOM     23  C   UNL A   1      41.457  26.054  28.479  1.00  0.00     0.049 A 
ATOM     24  H   UNL A   1      41.821  27.288  30.119  1.00  0.00     0.167 HD
ATOM     25  C   UNL A   1      42.727  30.340  33.132  1.00  0.00     0.034 A 
ATOM     26  C   UNL A   1      42.534  25.264  28.314  1.00  0.00     0.034 A 
ATOM     27  C   UNL A   1      43.830  29.416  33.169  1.00  0.00     0.049 A 
ATOM     28  C   UNL A   1      43.697  25.413  29.247  1.00  0.00     0.074 A 
ATOM     29  C   UNL A   1      44.915  29.405  34.029  1.00  0.00     0.029 A 
ATOM     30  N   UNL A   1      44.003  28.353  32.295  1.00  0.00    -0.354 N 
ATOM     31  N   UNL A   1      43.852  26.261  30.236  1.00  0.00    -0.248 NA
ATOM     32  C   UNL A   1      44.820  24.484  29.069  1.00  0.00     0.031 C 
ATOM     33  C   UNL A   1      45.762  28.359  33.650  1.00  0.00     0.029 A 
ATOM     34  C   UNL A   1      45.186  27.692  32.579  1.00  0.00     0.049 A 
ATOM     35  H   UNL A   1      43.378  28.105  31.578  1.00  0.00     0.167 HD
ATOM     36  C   UNL A   1      45.074  25.951  30.817  1.00  0.00     0.074 A 
ATOM     37  C   UNL A   1      45.615  24.828  30.075  1.00  0.00     0.031 C 
ATOM     38  C   UNL A   1      45.692  26.547  31.864  1.00  0.00     0.034 A 
BRANCH  25  39
ATOM     39  C   UNL A   1      42.746  31.516  34.077  1.00  0.00     0.023 A 
ATOM     40  C   UNL A   1      43.358  32.724  33.686  1.00  0.00     0.012 A 
ATOM     41  C   UNL A   1      42.122  31.436  35.338  1.00  0.00     0.148 A 
ATOM     42  C   UNL A   1      43.388  33.817  34.552  1.00  0.00     0.002 A 
ATOM     43  C   UNL A   1      42.117  32.544  36.177  1.00  0.00     0.091 A 
ATOM     44  F   UNL A   1      41.562  30.274  35.704  1.00  0.00    -0.205 F 
ATOM     45  C   UNL A   1      42.762  33.730  35.792  1.00  0.00     0.022 A 
BRANCH  43  46
ATOM     46  S   UNL A   1      41.266  32.551  37.759  1.00  0.00     0.127 S 
ATOM     47  O   UNL A   1      39.944  32.049  37.385  1.00  0.00    -0.237 OA
ATOM     48  O   UNL A   1      42.069  31.618  38.548  1.00  0.00    -0.237 OA
ATOM     49  O   UNL A   1      41.309  33.929  38.227  1.00  0.00    -0.744 OA
ENDBRANCH  43  46
ENDBRANCH  25  39
BRANCH  26  50
ATOM     50  C   UNL A   1      42.528  24.257  27.217  1.00  0.00     0.023 A 
ATOM     51  C   UNL A   1      43.204  24.532  26.014  1.00  0.00     0.012 A 
ATOM     52  C   UNL A   1      41.939  22.991  27.405  1.00  0.00     0.148 A 
ATOM     53  C   UNL A   1      43.283  23.566  25.011  1.00  0.00     0.002 A 
ATOM     54  C   UNL A   1      42.072  22.015  26.428  1.00  0.00     0.091 A 
ATOM     55  F   UNL A   1      41.297  22.757  28.559  1.00  0.00    -0.205 F 
ATOM     56  C   UNL A   1      42.731  22.304  25.223  1.00  0.00     0.022 A 
BRANCH  54  57
ATOM     57  S   UNL A   1      41.525  20.321  26.673  1.00  0.00     0.127 S 
ATOM     58  O   UNL A   1      42.289  19.930  27.856  1.00  0.00    -0.237 OA
ATOM     59  O   UNL A   1      40.090  20.501  26.898  1.00  0.00    -0.237 OA
ATOM     60  O   UNL A   1      41.859  19.613  25.446  1.00  0.00    -0.744 OA
ENDBRANCH  54  57
ENDBRANCH  26  50
BRANCH  38  61
ATOM     61  C   UNL A   1      47.011  25.980  32.319  1.00  0.00     0.023 A 
ATOM     62  C   UNL A   1      48.215  26.493  31.801  1.00  0.00     0.012 A 
ATOM     63  C   UNL A   1      47.052  25.013  33.343  1.00  0.00     0.148 A 
ATOM     64  C   UNL A   1      49.442  26.041  32.286  1.00  0.00     0.002 A 
ATOM     65  C   UNL A   1      48.276  24.605  33.857  1.00  0.00     0.091 A 
ATOM     66  F   UNL A   1      45.892  24.524  33.806  1.00  0.00    -0.205 F 
ATOM     67  C   UNL A   1      49.473  25.110  33.322  1.00  0.00     0.022 A 
BRANCH  65  68
ATOM     68  S   UNL A   1      48.412  23.488  35.256  1.00  0.00     0.127 S 
ATOM     69  O   UNL A   1      47.660  24.205  36.285  1.00  0.00    -0.237 OA
ATOM     70  O   UNL A   1      47.757  22.280  34.751  1.00  0.00    -0.237 OA
ATOM     71  O   UNL A   1      49.837  23.340  35.520  1.00  0.00    -0.744 OA
ENDBRANCH  65  68
ENDBRANCH  38  61
ENDBRANCH  12  13
ENDBRANCH   5   7
ENDBRANCH   2   3
ENDBRANCH   1   2
BRANCH   1  72
ATOM     72  C   UNL A   1      32.338  26.935  26.292  1.00  0.00     0.118 C 
BRANCH  72  73
ATOM     73  N   UNL A   1      31.241  27.581  25.593  1.00  0.00    -0.352 N 
ATOM     74  C   UNL A   1      30.870  27.478  24.277  1.00  0.00     0.255 C 
ATOM     75  H   UNL A   1      30.682  28.177  26.143  1.00  0.00     0.163 HD
ATOM     76  O   UNL A   1      29.947  28.168  23.847  1.00  0.00    -0.269 OA
BRANCH  74  77
ATOM     77  C   UNL A   1      31.619  26.611  23.344  1.00  0.00     0.082 A 
ATOM     78  C   UNL A   1      31.489  25.225  23.532  1.00  0.00     0.025 A 
ATOM     79  C   UNL A   1      32.460  27.103  22.343  1.00  0.00     0.128 A 
ATOM     80  C   UNL A   1      32.159  24.322  22.698  1.00  0.00    -0.025 A 
ATOM     81  C   UNL A   1      33.105  26.218  21.483  1.00  0.00     0.047 A 
ATOM     82  C   UNL A   1      32.948  24.839  21.659  1.00  0.00     0.012 A 
BRANCH  79  83
ATOM     83  O   UNL A   1      32.665  28.446  22.201  1.00  0.00    -0.507 OA
ATOM     84  H   UNL A   1      33.490  28.822  22.438  1.00  0.00     0.293 HD
ENDBRANCH  79  83
BRANCH  80  85
ATOM     85  C   UNL A   1      32.103  22.858  22.873  1.00  0.00     0.009 C 
ATOM     86  C   UNL A   1      32.390  22.184  23.998  1.00  0.00     0.009 C 
BRANCH  86  87
ATOM     87  C   UNL A   1      32.371  20.716  24.077  1.00  0.00    -0.018 A 
ATOM     88  C   UNL A   1      32.194  19.928  22.930  1.00  0.00     0.054 A 
ATOM     89  C   UNL A   1      32.609  20.093  25.309  1.00  0.00     0.054 A 
ATOM     90  C   UNL A   1      32.231  18.538  23.030  1.00  0.00     0.119 A 
ATOM     91  C   UNL A   1      32.639  18.701  25.386  1.00  0.00     0.119 A 
ATOM     92  C   UNL A   1      32.449  17.919  24.254  1.00  0.00     0.092 A 
BRANCH  90  93
ATOM     93  O   UNL A   1      32.063  17.746  21.932  1.00  0.00    -0.508 OA
ATOM     94  H   UNL A   1      32.809  17.449  21.450  1.00  0.00     0.293 HD
ENDBRANCH  90  93
BRANCH  91  95
ATOM     95  O   UNL A   1      32.861  18.062  26.571  1.00  0.00    -0.508 OA
ATOM     96  H   UNL A   1      33.713  18.084  26.961  1.00  0.00     0.293 HD
ENDBRANCH  91  95
ENDBRANCH  86  87
ENDBRANCH  80  85
ENDBRANCH  74  77
ENDBRANCH  72  73
ENDBRANCH   1  72
TORSDOF 18
ENDMDL
MODEL 2
REMARK VINA RESULT:     -12.1      5.430      8.914
REMARK SMILES O=C(NCCCNC(=O)c1cc(/C=C/c2cc(O)cc(O)c2)ccc1O)c1ccc(-c2c3nc(c(-c4cccc(S(=O)(=O)[O-])c4F)c4ccc([nH]4)c(-c4cccc(S(=O)(=O)[O-])c4F)c4nc(c(-c5cccc(S(=O)(=O)[O-])c5F)c5ccc2[nH]5)C=C4)C=C3)cc1
REMARK SMILES IDX 5 1 4 2 3 3 1 4 2 5 27 7 28 8 89 9 29 10 88 11 30 12 31 13
REMARK SMILES IDX 32 14 82 15 33 16 87 17 81 18 83 19 34 20 86 21 80 22 79 23
REMARK SMILES IDX 35 25 67 26 47 27 66 28 48 29 51 30 65 31 84 32 49 33 50 34
REMARK SMILES IDX 64 36 85 37 52 38 36 39 37 40 45 41 38 42 40 43 46 44 39 45
REMARK SMILES IDX 41 46 42 47 43 48 44 49 68 50 69 51 77 52 70 53 72 54 78 55
REMARK SMILES IDX 71 56 73 57 74 58 75 59 76 60 53 61 54 62 62 63 55 64 57 65
REMARK SMILES IDX 63 66 56 67 58 68 59 69 60 70 61 71 6 72 7 73 8 74 9 76
REMARK SMILES IDX 10 77 11 78 25 79 12 80 24 81 23 82 26 83 13 85 14 86 15 87
REMARK SMILES IDX 16 88 22 89 17 90 20 91 19 92 18 93 21 95
REMARK H PARENT 3 6 83 24 51 35 7 75 26 84 18 94 21 96
REMARK Flexibility Score: inf
ROOT
ATOM      1  C   UNL A   1      37.749  20.183  24.698  1.00  0.00     0.042 C 
ENDROOT
BRANCH   1   2
ATOM      2  C   UNL A   1      38.631  20.337  25.927  1.00  0.00     0.118 C 
BRANCH   2   3
ATOM      3  N   UNL A   1      39.762  19.422  25.929  1.00  0.00    -0.352 N 
ATOM      4  O   UNL A   1      41.912  18.774  25.815  1.00  0.00    -0.269 OA
ATOM      5  C   UNL A   1      41.107  19.676  26.042  1.00  0.00     0.251 C 
ATOM      6  H   UNL A   1      39.527  18.471  25.835  1.00  0.00     0.163 HD
BRANCH   5   7
ATOM      7  C   UNL A   1      41.586  21.028  26.403  1.00  0.00     0.039 A 
ATOM      8  C   UNL A   1      41.841  21.368  27.734  1.00  0.00     0.014 A 
ATOM      9  C   UNL A   1      41.804  21.965  25.390  1.00  0.00     0.014 A 
ATOM     10  C   UNL A   1      42.154  22.680  28.069  1.00  0.00     0.010 A 
ATOM     11  C   UNL A   1      42.218  23.258  25.720  1.00  0.00     0.010 A 
ATOM     12  C   UNL A   1      42.362  23.636  27.065  1.00  0.00    -0.014 A 
BRANCH  12  13
ATOM     13  C   UNL A   1      42.808  25.005  27.426  1.00  0.00     0.031 A 
ATOM     14  C   UNL A   1      41.863  25.985  28.059  1.00  0.00     0.074 A 
ATOM     15  C   UNL A   1      44.068  25.375  27.125  1.00  0.00     0.049 A 
ATOM     16  N   UNL A   1      42.065  27.240  28.367  1.00  0.00    -0.248 NA
ATOM     17  C   UNL A   1      40.511  25.500  28.378  1.00  0.00     0.031 C 
ATOM     18  C   UNL A   1      45.060  24.520  26.471  1.00  0.00     0.029 A 
ATOM     19  N   UNL A   1      44.719  26.570  27.298  1.00  0.00    -0.354 N 
ATOM     20  C   UNL A   1      40.857  27.711  28.866  1.00  0.00     0.074 A 
ATOM     21  C   UNL A   1      39.925  26.604  28.819  1.00  0.00     0.031 C 
ATOM     22  C   UNL A   1      46.189  25.218  26.286  1.00  0.00     0.029 A 
ATOM     23  C   UNL A   1      45.979  26.585  26.749  1.00  0.00     0.049 A 
ATOM     24  H   UNL A   1      44.324  27.340  27.767  1.00  0.00     0.167 HD
ATOM     25  C   UNL A   1      40.557  28.949  29.327  1.00  0.00     0.034 A 
ATOM     26  C   UNL A   1      46.857  27.593  26.589  1.00  0.00     0.034 A 
ATOM     27  C   UNL A   1      41.500  30.034  29.389  1.00  0.00     0.049 A 
ATOM     28  C   UNL A   1      46.507  28.953  27.114  1.00  0.00     0.074 A 
ATOM     29  C   UNL A   1      41.319  31.301  29.917  1.00  0.00     0.029 A 
ATOM     30  N   UNL A   1      42.793  29.991  28.887  1.00  0.00    -0.354 N 
ATOM     31  N   UNL A   1      45.406  29.344  27.709  1.00  0.00    -0.248 NA
ATOM     32  C   UNL A   1      47.523  30.004  26.975  1.00  0.00     0.031 C 
ATOM     33  C   UNL A   1      42.490  32.035  29.699  1.00  0.00     0.029 A 
ATOM     34  C   UNL A   1      43.415  31.214  29.072  1.00  0.00     0.049 A 
ATOM     35  H   UNL A   1      43.207  29.207  28.463  1.00  0.00     0.167 HD
ATOM     36  C   UNL A   1      45.607  30.677  28.044  1.00  0.00     0.074 A 
ATOM     37  C   UNL A   1      46.941  31.023  27.594  1.00  0.00     0.031 C 
ATOM     38  C   UNL A   1      44.759  31.534  28.662  1.00  0.00     0.034 A 
BRANCH  25  39
ATOM     39  C   UNL A   1      39.150  29.194  29.811  1.00  0.00     0.023 A 
ATOM     40  C   UNL A   1      38.799  28.887  31.142  1.00  0.00     0.012 A 
ATOM     41  C   UNL A   1      38.184  29.765  28.958  1.00  0.00     0.148 A 
ATOM     42  C   UNL A   1      37.500  29.102  31.602  1.00  0.00     0.002 A 
ATOM     43  C   UNL A   1      36.903  30.018  29.438  1.00  0.00     0.091 A 
ATOM     44  F   UNL A   1      38.526  30.033  27.690  1.00  0.00    -0.205 F 
ATOM     45  C   UNL A   1      36.556  29.674  30.754  1.00  0.00     0.022 A 
BRANCH  43  46
ATOM     46  S   UNL A   1      35.645  30.826  28.442  1.00  0.00     0.127 S 
ATOM     47  O   UNL A   1      35.071  29.694  27.717  1.00  0.00    -0.237 OA
ATOM     48  O   UNL A   1      34.768  31.405  29.460  1.00  0.00    -0.237 OA
ATOM     49  O   UNL A   1      36.351  31.805  27.628  1.00  0.00    -0.744 OA
ENDBRANCH  43  46
ENDBRANCH  25  39
BRANCH  26  50
ATOM     50  C   UNL A   1      48.152  27.319  25.909  1.00  0.00     0.023 A 
ATOM     51  C   UNL A   1      49.215  26.751  26.636  1.00  0.00     0.012 A 
ATOM     52  C   UNL A   1      48.296  27.527  24.523  1.00  0.00     0.148 A 
ATOM     53  C   UNL A   1      50.404  26.406  25.994  1.00  0.00     0.002 A 
ATOM     54  C   UNL A   1      49.460  27.127  23.881  1.00  0.00     0.091 A 
ATOM     55  F   UNL A   1      47.269  28.073  23.855  1.00  0.00    -0.205 F 
ATOM     56  C   UNL A   1      50.521  26.580  24.616  1.00  0.00     0.022 A 
BRANCH  54  57
ATOM     57  S   UNL A   1      49.642  27.175  22.094  1.00  0.00     0.127 S 
ATOM     58  O   UNL A   1      48.650  26.189  21.667  1.00  0.00    -0.237 OA
ATOM     59  O   UNL A   1      49.297  28.565  21.796  1.00  0.00    -0.237 OA
ATOM     60  O   UNL A   1      51.030  26.826  21.827  1.00  0.00    -0.744 OA
ENDBRANCH  54  57
ENDBRANCH  26  50
BRANCH  38  61
ATOM     61  C   UNL A   1      45.249  32.930  28.939  1.00  0.00     0.023 A 
ATOM     62  C   UNL A   1      45.979  33.201  30.112  1.00  0.00     0.012 A 
ATOM     63  C   UNL A   1      45.078  33.946  27.978  1.00  0.00     0.148 A 
ATOM     64  C   UNL A   1      46.519  34.469  30.331  1.00  0.00     0.002 A 
ATOM     65  C   UNL A   1      45.661  35.191  28.179  1.00  0.00     0.091 A 
ATOM     66  F   UNL A   1      44.362  33.670  26.878  1.00  0.00    -0.205 F 
ATOM     67  C   UNL A   1      46.374  35.457  29.360  1.00  0.00     0.022 A 
BRANCH  65  68
ATOM     68  S   UNL A   1      45.612  36.491  26.941  1.00  0.00     0.127 S 
ATOM     69  O   UNL A   1      46.127  35.798  25.761  1.00  0.00    -0.237 OA
ATOM     70  O   UNL A   1      44.185  36.811  26.887  1.00  0.00    -0.237 OA
ATOM     71  O   UNL A   1      46.457  37.564  27.448  1.00  0.00    -0.744 OA
ENDBRANCH  65  68
ENDBRANCH  38  61
ENDBRANCH  12  13
ENDBRANCH   5   7
ENDBRANCH   2   3
ENDBRANCH   1   2
BRANCH   1  72
ATOM     72  C   UNL A   1      37.019  21.453  24.289  1.00  0.00     0.118 C 
BRANCH  72  73
ATOM     73  N   UNL A   1      37.513  22.632  24.981  1.00  0.00    -0.352 N 
ATOM     74  C   UNL A   1      36.817  23.578  25.687  1.00  0.00     0.255 C 
ATOM     75  H   UNL A   1      38.487  22.769  24.937  1.00  0.00     0.163 HD
ATOM     76  O   UNL A   1      37.408  24.556  26.144  1.00  0.00    -0.269 OA
BRANCH  74  77
ATOM     77  C   UNL A   1      35.350  23.487  25.836  1.00  0.00     0.082 A 
ATOM     78  C   UNL A   1      34.596  24.544  25.300  1.00  0.00     0.025 A 
ATOM     79  C   UNL A   1      34.708  22.445  26.510  1.00  0.00     0.128 A 
ATOM     80  C   UNL A   1      33.199  24.548  25.391  1.00  0.00    -0.025 A 
ATOM     81  C   UNL A   1      33.318  22.417  26.579  1.00  0.00     0.047 A 
ATOM     82  C   UNL A   1      32.573  23.459  26.017  1.00  0.00     0.012 A 
BRANCH  79  83
ATOM     83  O   UNL A   1      35.430  21.454  27.113  1.00  0.00    -0.507 OA
ATOM     84  H   UNL A   1      36.127  21.034  26.650  1.00  0.00     0.293 HD
ENDBRANCH  79  83
BRANCH  80  85
ATOM     85  C   UNL A   1      32.354  25.649  24.892  1.00  0.00     0.009 C 
ATOM     86  C   UNL A   1      31.576  25.616  23.797  1.00  0.00     0.009 C 
BRANCH  86  87
ATOM     87  C   UNL A   1      30.809  26.779  23.328  1.00  0.00    -0.018 A 
ATOM     88  C   UNL A   1      29.425  26.871  23.536  1.00  0.00     0.054 A 
ATOM     89  C   UNL A   1      31.486  27.847  22.726  1.00  0.00     0.054 A 
ATOM     90  C   UNL A   1      28.736  28.009  23.124  1.00  0.00     0.119 A 
ATOM     91  C   UNL A   1      30.775  28.976  22.318  1.00  0.00     0.119 A 
ATOM     92  C   UNL A   1      29.402  29.062  22.512  1.00  0.00     0.092 A 
BRANCH  90  93
ATOM     93  O   UNL A   1      27.389  28.128  23.315  1.00  0.00    -0.508 OA
ATOM     94  H   UNL A   1      26.796  27.888  22.631  1.00  0.00     0.293 HD
ENDBRANCH  90  93
BRANCH  91  95
ATOM     95  O   UNL A   1      31.402  30.031  21.724  1.00  0.00    -0.508 OA
ATOM     96  H   UNL A   1      32.272  29.931  21.390  1.00  0.00     0.293 HD
ENDBRANCH  91  95
ENDBRANCH  86  87
ENDBRANCH  80  85
ENDBRANCH  74  77
ENDBRANCH  72  73
ENDBRANCH   1  72
TORSDOF 18
ENDMDL
MODEL 3
REMARK VINA RESULT:     -12.0      3.162      8.486
REMARK SMILES O=C(NCCCNC(=O)c1cc(/C=C/c2cc(O)cc(O)c2)ccc1O)c1ccc(-c2c3nc(c(-c4cccc(S(=O)(=O)[O-])c4F)c4ccc([nH]4)c(-c4cccc(S(=O)(=O)[O-])c4F)c4nc(c(-c5cccc(S(=O)(=O)[O-])c5F)c5ccc2[nH]5)C=C4)C=C3)cc1
REMARK SMILES IDX 5 1 4 2 3 3 1 4 2 5 27 7 28 8 89 9 29 10 88 11 30 12 31 13
REMARK SMILES IDX 32 14 82 15 33 16 87 17 81 18 83 19 34 20 86 21 80 22 79 23
REMARK SMILES IDX 35 25 67 26 47 27 66 28 48 29 51 30 65 31 84 32 49 33 50 34
REMARK SMILES IDX 64 36 85 37 52 38 36 39 37 40 45 41 38 42 40 43 46 44 39 45
REMARK SMILES IDX 41 46 42 47 43 48 44 49 68 50 69 51 77 52 70 53 72 54 78 55
REMARK SMILES IDX 71 56 73 57 74 58 75 59 76 60 53 61 54 62 62 63 55 64 57 65
REMARK SMILES IDX 63 66 56 67 58 68 59 69 60 70 61 71 6 72 7 73 8 74 9 76
REMARK SMILES IDX 10 77 11 78 25 79 12 80 24 81 23 82 26 83 13 85 14 86 15 87
REMARK SMILES IDX 16 88 22 89 17 90 20 91 19 92 18 93 21 95
REMARK H PARENT 3 6 83 24 51 35 7 75 26 84 18 94 21 96
REMARK Flexibility Score: inf
ROOT
ATOM      1  C   UNL A   1      31.672  31.684  26.653  1.00  0.00     0.042 C 
ENDROOT
BRANCH   1   2
ATOM      2  C   UNL A   1      32.928  32.375  27.159  1.00  0.00     0.118 C 
BRANCH   2   3
ATOM      3  N   UNL A   1      32.672  33.717  27.660  1.00  0.00    -0.352 N 
ATOM      4  O   UNL A   1      32.745  35.453  29.086  1.00  0.00    -0.269 OA
ATOM      5  C   UNL A   1      33.252  34.401  28.700  1.00  0.00     0.251 C 
ATOM      6  H   UNL A   1      31.972  34.214  27.177  1.00  0.00     0.163 HD
BRANCH   5   7
ATOM      7  C   UNL A   1      34.455  33.863  29.371  1.00  0.00     0.039 A 
ATOM      8  C   UNL A   1      35.735  34.242  28.962  1.00  0.00     0.014 A 
ATOM      9  C   UNL A   1      34.299  32.980  30.443  1.00  0.00     0.014 A 
ATOM     10  C   UNL A   1      36.853  33.622  29.508  1.00  0.00     0.010 A 
ATOM     11  C   UNL A   1      35.427  32.433  31.060  1.00  0.00     0.010 A 
ATOM     12  C   UNL A   1      36.713  32.723  30.574  1.00  0.00    -0.014 A 
BRANCH  12  13
ATOM     13  C   UNL A   1      37.917  32.153  31.227  1.00  0.00     0.031 A 
ATOM     14  C   UNL A   1      38.671  31.014  30.602  1.00  0.00     0.074 A 
ATOM     15  C   UNL A   1      38.297  32.641  32.424  1.00  0.00     0.049 A 
ATOM     16  N   UNL A   1      39.694  30.349  31.072  1.00  0.00    -0.248 NA
ATOM     17  C   UNL A   1      38.210  30.552  29.283  1.00  0.00     0.031 C 
ATOM     18  C   UNL A   1      37.615  33.717  33.145  1.00  0.00     0.029 A 
ATOM     19  N   UNL A   1      39.322  32.277  33.259  1.00  0.00    -0.354 N 
ATOM     20  C   UNL A   1      39.969  29.359  30.137  1.00  0.00     0.074 A 
ATOM     21  C   UNL A   1      39.002  29.510  29.070  1.00  0.00     0.031 C 
ATOM     22  C   UNL A   1      38.230  33.920  34.318  1.00  0.00     0.029 A 
ATOM     23  C   UNL A   1      39.308  32.947  34.459  1.00  0.00     0.049 A 
ATOM     24  H   UNL A   1      40.000  31.604  33.023  1.00  0.00     0.167 HD
ATOM     25  C   UNL A   1      40.942  28.417  30.165  1.00  0.00     0.034 A 
ATOM     26  C   UNL A   1      40.045  32.773  35.572  1.00  0.00     0.034 A 
ATOM     27  C   UNL A   1      41.912  28.292  31.221  1.00  0.00     0.049 A 
ATOM     28  C   UNL A   1      41.122  31.730  35.577  1.00  0.00     0.074 A 
ATOM     29  C   UNL A   1      42.989  27.427  31.302  1.00  0.00     0.029 A 
ATOM     30  N   UNL A   1      41.909  29.037  32.391  1.00  0.00    -0.354 N 
ATOM     31  N   UNL A   1      41.456  30.892  34.625  1.00  0.00    -0.248 NA
ATOM     32  C   UNL A   1      41.942  31.624  36.790  1.00  0.00     0.031 C 
ATOM     33  C   UNL A   1      43.614  27.622  32.538  1.00  0.00     0.029 A 
ATOM     34  C   UNL A   1      42.952  28.638  33.210  1.00  0.00     0.049 A 
ATOM     35  H   UNL A   1      41.262  29.745  32.607  1.00  0.00     0.167 HD
ATOM     36  C   UNL A   1      42.544  30.179  35.111  1.00  0.00     0.074 A 
ATOM     37  C   UNL A   1      42.820  30.692  36.439  1.00  0.00     0.031 C 
ATOM     38  C   UNL A   1      43.245  29.187  34.511  1.00  0.00     0.034 A 
BRANCH  25  39
ATOM     39  C   UNL A   1      41.013  27.450  29.009  1.00  0.00     0.023 A 
ATOM     40  C   UNL A   1      40.186  26.308  28.995  1.00  0.00     0.012 A 
ATOM     41  C   UNL A   1      41.871  27.692  27.918  1.00  0.00     0.148 A 
ATOM     42  C   UNL A   1      40.246  25.401  27.937  1.00  0.00     0.002 A 
ATOM     43  C   UNL A   1      41.892  26.808  26.846  1.00  0.00     0.091 A 
ATOM     44  F   UNL A   1      42.666  28.772  27.955  1.00  0.00    -0.205 F 
ATOM     45  C   UNL A   1      41.091  25.655  26.860  1.00  0.00     0.022 A 
BRANCH  43  46
ATOM     46  S   UNL A   1      42.889  27.094  25.380  1.00  0.00     0.127 S 
ATOM     47  O   UNL A   1      44.216  27.294  25.960  1.00  0.00    -0.237 OA
ATOM     48  O   UNL A   1      42.729  25.840  24.644  1.00  0.00    -0.237 OA
ATOM     49  O   UNL A   1      42.306  28.256  24.724  1.00  0.00    -0.744 OA
ENDBRANCH  43  46
ENDBRANCH  25  39
BRANCH  26  50
ATOM     50  C   UNL A   1      39.775  33.634  36.756  1.00  0.00     0.023 A 
ATOM     51  C   UNL A   1      40.096  35.004  36.710  1.00  0.00     0.012 A 
ATOM     52  C   UNL A   1      39.110  33.117  37.885  1.00  0.00     0.148 A 
ATOM     53  C   UNL A   1      39.768  35.841  37.776  1.00  0.00     0.002 A 
ATOM     54  C   UNL A   1      38.735  33.968  38.916  1.00  0.00     0.091 A 
ATOM     55  F   UNL A   1      38.820  31.808  37.904  1.00  0.00    -0.205 F 
ATOM     56  C   UNL A   1      39.076  35.327  38.871  1.00  0.00     0.022 A 
BRANCH  54  57
ATOM     57  S   UNL A   1      37.714  33.426  40.292  1.00  0.00     0.127 S 
ATOM     58  O   UNL A   1      38.553  32.392  40.896  1.00  0.00    -0.237 OA
ATOM     59  O   UNL A   1      37.592  34.656  41.075  1.00  0.00    -0.237 OA
ATOM     60  O   UNL A   1      36.468  32.960  39.702  1.00  0.00    -0.744 OA
ENDBRANCH  54  57
ENDBRANCH  26  50
BRANCH  38  61
ATOM     61  C   UNL A   1      44.417  28.604  35.255  1.00  0.00     0.023 A 
ATOM     62  C   UNL A   1      45.704  29.147  35.080  1.00  0.00     0.012 A 
ATOM     63  C   UNL A   1      44.216  27.589  36.211  1.00  0.00     0.148 A 
ATOM     64  C   UNL A   1      46.777  28.677  35.836  1.00  0.00     0.002 A 
ATOM     65  C   UNL A   1      45.279  27.162  36.997  1.00  0.00     0.091 A 
ATOM     66  F   UNL A   1      42.985  27.074  36.347  1.00  0.00    -0.205 F 
ATOM     67  C   UNL A   1      46.563  27.697  36.803  1.00  0.00     0.022 A 
BRANCH  65  68
ATOM     68  S   UNL A   1      45.077  25.979  38.333  1.00  0.00     0.127 S 
ATOM     69  O   UNL A   1      44.661  24.779  37.609  1.00  0.00    -0.237 OA
ATOM     70  O   UNL A   1      46.428  25.916  38.895  1.00  0.00    -0.237 OA
ATOM     71  O   UNL A   1      44.074  26.544  39.226  1.00  0.00    -0.744 OA
ENDBRANCH  65  68
ENDBRANCH  38  61
ENDBRANCH  12  13
ENDBRANCH   5   7
ENDBRANCH   2   3
ENDBRANCH   1   2
BRANCH   1  72
ATOM     72  C   UNL A   1      31.866  30.219  26.295  1.00  0.00     0.118 C 
BRANCH  72  73
ATOM     73  N   UNL A   1      32.820  30.026  25.216  1.00  0.00    -0.352 N 
ATOM     74  C   UNL A   1      32.755  29.175  24.142  1.00  0.00     0.255 C 
ATOM     75  H   UNL A   1      33.627  30.588  25.261  1.00  0.00     0.163 HD
ATOM     76  O   UNL A   1      33.706  29.101  23.365  1.00  0.00    -0.269 OA
BRANCH  74  77
ATOM     77  C   UNL A   1      31.594  28.283  23.950  1.00  0.00     0.082 A 
ATOM     78  C   UNL A   1      31.823  26.907  24.121  1.00  0.00     0.025 A 
ATOM     79  C   UNL A   1      30.328  28.736  23.572  1.00  0.00     0.128 A 
ATOM     80  C   UNL A   1      30.786  25.981  23.962  1.00  0.00    -0.025 A 
ATOM     81  C   UNL A   1      29.278  27.832  23.443  1.00  0.00     0.047 A 
ATOM     82  C   UNL A   1      29.508  26.467  23.643  1.00  0.00     0.012 A 
BRANCH  79  83
ATOM     83  O   UNL A   1      30.109  30.061  23.316  1.00  0.00    -0.507 OA
ATOM     84  H   UNL A   1      29.745  30.612  23.980  1.00  0.00     0.293 HD
ENDBRANCH  79  83
BRANCH  80  85
ATOM     85  C   UNL A   1      30.971  24.523  24.080  1.00  0.00     0.009 C 
ATOM     86  C   UNL A   1      32.144  23.869  24.047  1.00  0.00     0.009 C 
BRANCH  86  87
ATOM     87  C   UNL A   1      32.244  22.404  24.109  1.00  0.00    -0.018 A 
ATOM     88  C   UNL A   1      32.045  21.612  22.969  1.00  0.00     0.054 A 
ATOM     89  C   UNL A   1      32.616  21.794  25.314  1.00  0.00     0.054 A 
ATOM     90  C   UNL A   1      32.196  20.228  23.050  1.00  0.00     0.119 A 
ATOM     91  C   UNL A   1      32.758  20.408  25.372  1.00  0.00     0.119 A 
ATOM     92  C   UNL A   1      32.549  19.620  24.248  1.00  0.00     0.092 A 
BRANCH  90  93
ATOM     93  O   UNL A   1      32.012  19.432  21.957  1.00  0.00    -0.508 OA
ATOM     94  H   UNL A   1      31.828  18.520  22.067  1.00  0.00     0.293 HD
ENDBRANCH  90  93
BRANCH  91  95
ATOM     95  O   UNL A   1      33.113  19.781  26.531  1.00  0.00    -0.508 OA
ATOM     96  H   UNL A   1      32.502  19.217  26.964  1.00  0.00     0.293 HD
ENDBRANCH  91  95
ENDBRANCH  86  87
ENDBRANCH  80  85
ENDBRANCH  74  77
ENDBRANCH  72  73
ENDBRANCH   1  72
TORSDOF 18
ENDMDL
