MODEL 1
REMARK VINA RESULT:     -11.1      0.000      0.000
REMARK SMILES [NH3+]CC[C@@H](C(=O)NCCCNC(=O)c1ccc(-c2c3nc(c(-c4cccc(S(=O)(=O)[O-])c4F)c4ccc([nH]4)c(-c4cccc(S(=O)(=O)[O-])c4F)c4nc(c(-c5cccc(S(=O)(=O)[O-])c5F)c5ccc2[nH]5)C=C4)C=C3)cc1)c1ccc(F)cc1
REMARK SMILES IDX 9 1 8 2 7 3 5 4 6 5 4 7 3 8 2 9 1 10 77 14 78 15 83 16 79 17
REMARK SMILES IDX 82 18 80 19 81 20 10 21 11 22 12 23 13 25 14 26 15 27 76 28
REMARK SMILES IDX 16 29 75 30 17 31 18 32 19 33 69 34 20 35 74 36 68 37 70 38
REMARK SMILES IDX 21 39 73 40 67 41 66 42 22 44 54 45 34 46 53 47 35 48 38 49
REMARK SMILES IDX 52 50 71 51 36 52 37 53 51 55 72 56 39 57 23 58 24 59 32 60
REMARK SMILES IDX 25 61 27 62 33 63 26 64 28 65 29 66 30 67 31 68 55 69 56 70
REMARK SMILES IDX 64 71 57 72 59 73 65 74 58 75 60 76 61 77 62 78 63 79 40 80
REMARK SMILES IDX 41 81 49 82 42 83 44 84 50 85 43 86 45 87 46 88 47 89 48 90
REMARK H PARENT 7 6 1 11 1 12 1 13 11 24 70 43 38 54
REMARK Flexibility Score: inf
ROOT
ATOM      1  C   UNL A   1      32.925  29.018  23.833  1.00  0.00     0.042 C 
ENDROOT
BRANCH   1   2
ATOM      2  C   UNL A   1      34.033  28.587  22.873  1.00  0.00     0.117 C 
BRANCH   2   3
ATOM      3  N   UNL A   1      33.530  27.624  21.913  1.00  0.00    -0.356 N 
ATOM      4  C   UNL A   1      33.489  26.264  21.933  1.00  0.00     0.227 C 
ATOM      5  O   UNL A   1      33.195  25.733  20.857  1.00  0.00    -0.274 OA
ATOM      6  H   UNL A   1      33.149  28.028  21.100  1.00  0.00     0.163 HD
BRANCH   4   7
ATOM      7  C   UNL A   1      33.730  25.451  23.230  1.00  0.00     0.114 C 
BRANCH   7   8
ATOM      8  C   UNL A   1      34.049  23.952  23.006  1.00  0.00     0.079 C 
BRANCH   8   9
ATOM      9  C   UNL A   1      35.391  23.406  23.488  1.00  0.00     0.259 C 
BRANCH   9  10
ATOM     10  N   UNL A   1      35.872  23.946  24.750  1.00  0.00    -0.358 N 
ATOM     11  H   UNL A   1      36.825  24.288  24.633  1.00  0.00     0.344 HD
ATOM     12  H   UNL A   1      35.856  23.215  25.461  1.00  0.00     0.344 HD
ATOM     13  H   UNL A   1      35.268  24.716  25.042  1.00  0.00     0.344 HD
ENDBRANCH   9  10
ENDBRANCH   8   9
ENDBRANCH   7   8
BRANCH   7  14
ATOM     14  C   UNL A   1      32.476  25.506  24.130  1.00  0.00    -0.035 A 
ATOM     15  C   UNL A   1      32.587  25.476  25.528  1.00  0.00     0.007 A 
ATOM     16  C   UNL A   1      31.185  25.535  23.557  1.00  0.00     0.007 A 
ATOM     17  C   UNL A   1      31.439  25.466  26.325  1.00  0.00     0.039 A 
ATOM     18  C   UNL A   1      30.043  25.528  24.354  1.00  0.00     0.039 A 
ATOM     19  C   UNL A   1      30.180  25.489  25.732  1.00  0.00     0.123 A 
ATOM     20  F   UNL A   1      29.085  25.470  26.503  1.00  0.00    -0.207 F 
ENDBRANCH   7  14
ENDBRANCH   4   7
ENDBRANCH   2   3
ENDBRANCH   1   2
BRANCH   1  21
ATOM     21  C   UNL A   1      33.383  29.277  25.261  1.00  0.00     0.118 C 
BRANCH  21  22
ATOM     22  N   UNL A   1      32.862  30.518  25.804  1.00  0.00    -0.352 N 
ATOM     23  C   UNL A   1      33.290  31.262  26.877  1.00  0.00     0.251 C 
ATOM     24  H   UNL A   1      32.080  30.883  25.329  1.00  0.00     0.163 HD
ATOM     25  O   UNL A   1      32.591  32.199  27.258  1.00  0.00    -0.269 OA
BRANCH  23  26
ATOM     26  C   UNL A   1      34.556  30.948  27.587  1.00  0.00     0.039 A 
ATOM     27  C   UNL A   1      34.698  29.678  28.158  1.00  0.00     0.014 A 
ATOM     28  C   UNL A   1      35.579  31.887  27.744  1.00  0.00     0.014 A 
ATOM     29  C   UNL A   1      35.870  29.346  28.845  1.00  0.00     0.010 A 
ATOM     30  C   UNL A   1      36.785  31.521  28.344  1.00  0.00     0.010 A 
ATOM     31  C   UNL A   1      36.936  30.256  28.926  1.00  0.00    -0.014 A 
BRANCH  31  32
ATOM     32  C   UNL A   1      38.196  29.887  29.627  1.00  0.00     0.031 A 
ATOM     33  C   UNL A   1      38.498  30.420  31.006  1.00  0.00     0.074 A 
ATOM     34  C   UNL A   1      39.096  29.097  29.006  1.00  0.00     0.049 A 
ATOM     35  N   UNL A   1      39.515  30.156  31.786  1.00  0.00    -0.248 NA
ATOM     36  C   UNL A   1      37.554  31.396  31.573  1.00  0.00     0.031 C 
ATOM     37  C   UNL A   1      38.978  28.601  27.633  1.00  0.00     0.029 A 
ATOM     38  N   UNL A   1      40.289  28.579  29.443  1.00  0.00    -0.354 N 
ATOM     39  C   UNL A   1      39.350  30.951  32.915  1.00  0.00     0.074 A 
ATOM     40  C   UNL A   1      38.159  31.742  32.700  1.00  0.00     0.031 C 
ATOM     41  C   UNL A   1      40.039  27.830  27.350  1.00  0.00     0.029 A 
ATOM     42  C   UNL A   1      40.921  27.787  28.513  1.00  0.00     0.049 A 
ATOM     43  H   UNL A   1      40.657  28.757  30.339  1.00  0.00     0.167 HD
ATOM     44  C   UNL A   1      40.096  30.994  34.045  1.00  0.00     0.034 A 
ATOM     45  C   UNL A   1      42.071  27.089  28.592  1.00  0.00     0.034 A 
ATOM     46  C   UNL A   1      41.251  30.169  34.279  1.00  0.00     0.049 A 
ATOM     47  C   UNL A   1      42.831  27.081  29.891  1.00  0.00     0.074 A 
ATOM     48  C   UNL A   1      42.023  30.070  35.424  1.00  0.00     0.029 A 
ATOM     49  N   UNL A   1      41.803  29.301  33.349  1.00  0.00    -0.354 N 
ATOM     50  N   UNL A   1      42.556  27.703  31.011  1.00  0.00    -0.248 NA
ATOM     51  C   UNL A   1      44.031  26.234  29.951  1.00  0.00     0.031 C 
ATOM     52  C   UNL A   1      43.050  29.150  35.181  1.00  0.00     0.029 A 
ATOM     53  C   UNL A   1      42.905  28.661  33.893  1.00  0.00     0.049 A 
ATOM     54  H   UNL A   1      41.461  29.160  32.437  1.00  0.00     0.167 HD
ATOM     55  C   UNL A   1      43.529  27.298  31.920  1.00  0.00     0.074 A 
ATOM     56  C   UNL A   1      44.379  26.353  31.225  1.00  0.00     0.031 C 
ATOM     57  C   UNL A   1      43.712  27.686  33.206  1.00  0.00     0.034 A 
BRANCH  44  58
ATOM     58  C   UNL A   1      39.644  31.919  35.147  1.00  0.00     0.023 A 
ATOM     59  C   UNL A   1      39.966  33.290  35.077  1.00  0.00     0.012 A 
ATOM     60  C   UNL A   1      38.858  31.452  36.220  1.00  0.00     0.148 A 
ATOM     61  C   UNL A   1      39.549  34.174  36.071  1.00  0.00     0.002 A 
ATOM     62  C   UNL A   1      38.406  32.347  37.184  1.00  0.00     0.091 A 
ATOM     63  F   UNL A   1      38.576  30.143  36.283  1.00  0.00    -0.205 F 
ATOM     64  C   UNL A   1      38.761  33.705  37.118  1.00  0.00     0.022 A 
BRANCH  62  65
ATOM     65  S   UNL A   1      37.319  31.858  38.529  1.00  0.00     0.127 S 
ATOM     66  O   UNL A   1      36.202  32.785  38.356  1.00  0.00    -0.237 OA
ATOM     67  O   UNL A   1      37.015  30.467  38.189  1.00  0.00    -0.237 OA
ATOM     68  O   UNL A   1      38.092  32.028  39.751  1.00  0.00    -0.744 OA
ENDBRANCH  62  65
ENDBRANCH  44  58
BRANCH  45  69
ATOM     69  C   UNL A   1      42.516  26.257  27.438  1.00  0.00     0.023 A 
ATOM     70  C   UNL A   1      43.375  26.817  26.471  1.00  0.00     0.012 A 
ATOM     71  C   UNL A   1      42.127  24.910  27.311  1.00  0.00     0.148 A 
ATOM     72  C   UNL A   1      43.810  26.063  25.382  1.00  0.00     0.002 A 
ATOM     73  C   UNL A   1      42.609  24.147  26.253  1.00  0.00     0.091 A 
ATOM     74  F   UNL A   1      41.300  24.397  28.233  1.00  0.00    -0.205 F 
ATOM     75  C   UNL A   1      43.436  24.726  25.277  1.00  0.00     0.022 A 
BRANCH  73  76
ATOM     76  S   UNL A   1      42.291  22.385  26.117  1.00  0.00     0.127 S 
ATOM     77  O   UNL A   1      43.028  22.039  24.906  1.00  0.00    -0.237 OA
ATOM     78  O   UNL A   1      42.870  21.874  27.360  1.00  0.00    -0.237 OA
ATOM     79  O   UNL A   1      40.841  22.256  26.038  1.00  0.00    -0.744 OA
ENDBRANCH  73  76
ENDBRANCH  45  69
BRANCH  57  80
ATOM     80  C   UNL A   1      44.863  27.069  33.958  1.00  0.00     0.023 A 
ATOM     81  C   UNL A   1      46.137  27.670  33.906  1.00  0.00     0.012 A 
ATOM     82  C   UNL A   1      44.675  25.918  34.749  1.00  0.00     0.148 A 
ATOM     83  C   UNL A   1      47.214  27.110  34.591  1.00  0.00     0.002 A 
ATOM     84  C   UNL A   1      45.742  25.395  35.469  1.00  0.00     0.091 A 
ATOM     85  F   UNL A   1      43.462  25.346  34.771  1.00  0.00    -0.205 F 
ATOM     86  C   UNL A   1      47.016  25.980  35.379  1.00  0.00     0.022 A 
BRANCH  84  87
ATOM     87  S   UNL A   1      45.544  23.998  36.581  1.00  0.00     0.127 S 
ATOM     88  O   UNL A   1      46.918  23.771  37.025  1.00  0.00    -0.237 OA
ATOM     89  O   UNL A   1      44.653  24.538  37.609  1.00  0.00    -0.237 OA
ATOM     90  O   UNL A   1      44.954  22.936  35.776  1.00  0.00    -0.744 OA
ENDBRANCH  84  87
ENDBRANCH  57  80
ENDBRANCH  31  32
ENDBRANCH  23  26
ENDBRANCH  21  22
ENDBRANCH   1  21
TORSDOF 17
ENDMDL
MODEL 2
REMARK VINA RESULT:     -10.9      1.958      2.818
REMARK SMILES [NH3+]CC[C@@H](C(=O)NCCCNC(=O)c1ccc(-c2c3nc(c(-c4cccc(S(=O)(=O)[O-])c4F)c4ccc([nH]4)c(-c4cccc(S(=O)(=O)[O-])c4F)c4nc(c(-c5cccc(S(=O)(=O)[O-])c5F)c5ccc2[nH]5)C=C4)C=C3)cc1)c1ccc(F)cc1
REMARK SMILES IDX 9 1 8 2 7 3 5 4 6 5 4 7 3 8 2 9 1 10 77 14 78 15 83 16 79 17
REMARK SMILES IDX 82 18 80 19 81 20 10 21 11 22 12 23 13 25 14 26 15 27 76 28
REMARK SMILES IDX 16 29 75 30 17 31 18 32 19 33 69 34 20 35 74 36 68 37 70 38
REMARK SMILES IDX 21 39 73 40 67 41 66 42 22 44 54 45 34 46 53 47 35 48 38 49
REMARK SMILES IDX 52 50 71 51 36 52 37 53 51 55 72 56 39 57 23 58 24 59 32 60
REMARK SMILES IDX 25 61 27 62 33 63 26 64 28 65 29 66 30 67 31 68 55 69 56 70
REMARK SMILES IDX 64 71 57 72 59 73 65 74 58 75 60 76 61 77 62 78 63 79 40 80
REMARK SMILES IDX 41 81 49 82 42 83 44 84 50 85 43 86 45 87 46 88 47 89 48 90
REMARK H PARENT 7 6 1 11 1 12 1 13 11 24 70 43 38 54
REMARK Flexibility Score: inf
ROOT
ATOM      1  C   UNL A   1      32.047  28.242  26.050  1.00  0.00     0.042 C 
ENDROOT
BRANCH   1   2
ATOM      2  C   UNL A   1      32.841  27.022  26.515  1.00  0.00     0.117 C 
BRANCH   2   3
ATOM      3  N   UNL A   1      32.281  25.807  25.959  1.00  0.00    -0.356 N 
ATOM      4  C   UNL A   1      32.600  25.089  24.847  1.00  0.00     0.227 C 
ATOM      5  O   UNL A   1      31.782  24.217  24.533  1.00  0.00    -0.274 OA
ATOM      6  H   UNL A   1      31.535  25.432  26.481  1.00  0.00     0.163 HD
BRANCH   4   7
ATOM      7  C   UNL A   1      33.925  25.310  24.075  1.00  0.00     0.114 C 
BRANCH   7   8
ATOM      8  C   UNL A   1      33.774  25.383  22.535  1.00  0.00     0.079 C 
BRANCH   8   9
ATOM      9  C   UNL A   1      33.051  26.580  21.922  1.00  0.00     0.259 C 
BRANCH   9  10
ATOM     10  N   UNL A   1      31.690  26.329  21.473  1.00  0.00    -0.358 N 
ATOM     11  H   UNL A   1      31.533  26.800  20.583  1.00  0.00     0.344 HD
ATOM     12  H   UNL A   1      31.032  26.683  22.167  1.00  0.00     0.344 HD
ATOM     13  H   UNL A   1      31.551  25.324  21.354  1.00  0.00     0.344 HD
ENDBRANCH   9  10
ENDBRANCH   8   9
ENDBRANCH   7   8
BRANCH   7  14
ATOM     14  C   UNL A   1      34.909  24.156  24.368  1.00  0.00    -0.035 A 
ATOM     15  C   UNL A   1      35.178  23.752  25.685  1.00  0.00     0.007 A 
ATOM     16  C   UNL A   1      35.596  23.518  23.313  1.00  0.00     0.007 A 
ATOM     17  C   UNL A   1      36.116  22.745  25.933  1.00  0.00     0.039 A 
ATOM     18  C   UNL A   1      36.528  22.514  23.564  1.00  0.00     0.039 A 
ATOM     19  C   UNL A   1      36.783  22.139  24.873  1.00  0.00     0.123 A 
ATOM     20  F   UNL A   1      37.687  21.182  25.121  1.00  0.00    -0.207 F 
ENDBRANCH   7  14
ENDBRANCH   4   7
ENDBRANCH   2   3
ENDBRANCH   1   2
BRANCH   1  21
ATOM     21  C   UNL A   1      32.884  29.353  25.436  1.00  0.00     0.118 C 
BRANCH  21  22
ATOM     22  N   UNL A   1      32.506  30.672  25.908  1.00  0.00    -0.352 N 
ATOM     23  C   UNL A   1      33.036  31.435  26.921  1.00  0.00     0.251 C 
ATOM     24  H   UNL A   1      31.751  31.084  25.427  1.00  0.00     0.163 HD
ATOM     25  O   UNL A   1      32.444  32.460  27.255  1.00  0.00    -0.269 OA
BRANCH  23  26
ATOM     26  C   UNL A   1      34.283  31.040  27.623  1.00  0.00     0.039 A 
ATOM     27  C   UNL A   1      35.294  31.996  27.766  1.00  0.00     0.014 A 
ATOM     28  C   UNL A   1      34.497  29.742  28.097  1.00  0.00     0.014 A 
ATOM     29  C   UNL A   1      36.489  31.661  28.410  1.00  0.00     0.010 A 
ATOM     30  C   UNL A   1      35.648  29.438  28.825  1.00  0.00     0.010 A 
ATOM     31  C   UNL A   1      36.670  30.385  28.968  1.00  0.00    -0.014 A 
BRANCH  31  32
ATOM     32  C   UNL A   1      37.929  30.042  29.684  1.00  0.00     0.031 A 
ATOM     33  C   UNL A   1      38.212  30.598  31.058  1.00  0.00     0.074 A 
ATOM     34  C   UNL A   1      38.843  29.256  29.083  1.00  0.00     0.049 A 
ATOM     35  N   UNL A   1      39.225  30.358  31.851  1.00  0.00    -0.248 NA
ATOM     36  C   UNL A   1      37.251  31.570  31.603  1.00  0.00     0.031 C 
ATOM     37  C   UNL A   1      38.744  28.739  27.716  1.00  0.00     0.029 A 
ATOM     38  N   UNL A   1      40.039  28.759  29.538  1.00  0.00    -0.354 N 
ATOM     39  C   UNL A   1      39.041  31.167  32.967  1.00  0.00     0.074 A 
ATOM     40  C   UNL A   1      37.841  31.940  32.731  1.00  0.00     0.031 C 
ATOM     41  C   UNL A   1      39.818  27.977  27.453  1.00  0.00     0.029 A 
ATOM     42  C   UNL A   1      40.690  27.962  28.624  1.00  0.00     0.049 A 
ATOM     43  H   UNL A   1      40.398  28.954  30.433  1.00  0.00     0.167 HD
ATOM     44  C   UNL A   1      39.776  31.235  34.103  1.00  0.00     0.034 A 
ATOM     45  C   UNL A   1      41.847  27.280  28.722  1.00  0.00     0.034 A 
ATOM     46  C   UNL A   1      40.939  30.429  34.358  1.00  0.00     0.049 A 
ATOM     47  C   UNL A   1      42.596  27.300  30.028  1.00  0.00     0.074 A 
ATOM     48  C   UNL A   1      41.703  30.356  35.510  1.00  0.00     0.029 A 
ATOM     49  N   UNL A   1      41.510  29.555  33.446  1.00  0.00    -0.354 N 
ATOM     50  N   UNL A   1      42.304  27.934  31.137  1.00  0.00    -0.248 NA
ATOM     51  C   UNL A   1      43.806  26.469  30.110  1.00  0.00     0.031 C 
ATOM     52  C   UNL A   1      42.743  29.446  35.289  1.00  0.00     0.029 A 
ATOM     53  C   UNL A   1      42.616  28.937  34.007  1.00  0.00     0.049 A 
ATOM     54  H   UNL A   1      41.179  29.397  32.533  1.00  0.00     0.167 HD
ATOM     55  C   UNL A   1      43.274  27.554  32.059  1.00  0.00     0.074 A 
ATOM     56  C   UNL A   1      44.142  26.611  31.385  1.00  0.00     0.031 C 
ATOM     57  C   UNL A   1      43.441  27.963  33.342  1.00  0.00     0.034 A 
BRANCH  44  58
ATOM     58  C   UNL A   1      39.303  32.170  35.188  1.00  0.00     0.023 A 
ATOM     59  C   UNL A   1      38.355  31.716  36.128  1.00  0.00     0.012 A 
ATOM     60  C   UNL A   1      39.829  33.471  35.315  1.00  0.00     0.148 A 
ATOM     61  C   UNL A   1      37.909  32.551  37.152  1.00  0.00     0.002 A 
ATOM     62  C   UNL A   1      39.415  34.283  36.366  1.00  0.00     0.091 A 
ATOM     63  F   UNL A   1      40.714  33.895  34.402  1.00  0.00    -0.205 F 
ATOM     64  C   UNL A   1      38.447  33.829  37.278  1.00  0.00     0.022 A 
BRANCH  62  65
ATOM     65  S   UNL A   1      40.105  35.915  36.662  1.00  0.00     0.127 S 
ATOM     66  O   UNL A   1      41.529  35.612  36.801  1.00  0.00    -0.237 OA
ATOM     67  O   UNL A   1      39.751  36.627  35.434  1.00  0.00    -0.237 OA
ATOM     68  O   UNL A   1      39.451  36.415  37.863  1.00  0.00    -0.744 OA
ENDBRANCH  62  65
ENDBRANCH  44  58
BRANCH  45  69
ATOM     69  C   UNL A   1      42.313  26.438  27.584  1.00  0.00     0.023 A 
ATOM     70  C   UNL A   1      43.168  26.997  26.613  1.00  0.00     0.012 A 
ATOM     71  C   UNL A   1      41.948  25.083  27.476  1.00  0.00     0.148 A 
ATOM     72  C   UNL A   1      43.621  26.234  25.538  1.00  0.00     0.002 A 
ATOM     73  C   UNL A   1      42.449  24.311  26.433  1.00  0.00     0.091 A 
ATOM     74  F   UNL A   1      41.124  24.570  28.401  1.00  0.00    -0.205 F 
ATOM     75  C   UNL A   1      43.271  24.889  25.453  1.00  0.00     0.022 A 
BRANCH  73  76
ATOM     76  S   UNL A   1      42.161  22.542  26.324  1.00  0.00     0.127 S 
ATOM     77  O   UNL A   1      40.704  22.478  26.258  1.00  0.00    -0.237 OA
ATOM     78  O   UNL A   1      42.851  22.198  25.080  1.00  0.00    -0.237 OA
ATOM     79  O   UNL A   1      42.770  21.974  27.520  1.00  0.00    -0.744 OA
ENDBRANCH  73  76
ENDBRANCH  45  69
BRANCH  57  80
ATOM     80  C   UNL A   1      44.593  27.371  34.111  1.00  0.00     0.023 A 
ATOM     81  C   UNL A   1      45.857  27.994  34.071  1.00  0.00     0.012 A 
ATOM     82  C   UNL A   1      44.415  26.223  34.908  1.00  0.00     0.148 A 
ATOM     83  C   UNL A   1      46.935  27.458  34.773  1.00  0.00     0.002 A 
ATOM     84  C   UNL A   1      45.483  25.723  35.645  1.00  0.00     0.091 A 
ATOM     85  F   UNL A   1      43.213  25.629  34.919  1.00  0.00    -0.205 F 
ATOM     86  C   UNL A   1      46.747  26.330  35.567  1.00  0.00     0.022 A 
BRANCH  84  87
ATOM     87  S   UNL A   1      45.296  24.331  36.764  1.00  0.00     0.127 S 
ATOM     88  O   UNL A   1      44.294  24.833  37.703  1.00  0.00    -0.237 OA
ATOM     89  O   UNL A   1      44.819  23.272  35.874  1.00  0.00    -0.237 OA
ATOM     90  O   UNL A   1      46.622  24.093  37.320  1.00  0.00    -0.744 OA
ENDBRANCH  84  87
ENDBRANCH  57  80
ENDBRANCH  31  32
ENDBRANCH  23  26
ENDBRANCH  21  22
ENDBRANCH   1  21
TORSDOF 17
ENDMDL
MODEL 3
REMARK VINA RESULT:     -10.9      1.972      2.585
REMARK SMILES [NH3+]CC[C@@H](C(=O)NCCCNC(=O)c1ccc(-c2c3nc(c(-c4cccc(S(=O)(=O)[O-])c4F)c4ccc([nH]4)c(-c4cccc(S(=O)(=O)[O-])c4F)c4nc(c(-c5cccc(S(=O)(=O)[O-])c5F)c5ccc2[nH]5)C=C4)C=C3)cc1)c1ccc(F)cc1
REMARK SMILES IDX 9 1 8 2 7 3 5 4 6 5 4 7 3 8 2 9 1 10 77 14 78 15 83 16 79 17
REMARK SMILES IDX 82 18 80 19 81 20 10 21 11 22 12 23 13 25 14 26 15 27 76 28
REMARK SMILES IDX 16 29 75 30 17 31 18 32 19 33 69 34 20 35 74 36 68 37 70 38
REMARK SMILES IDX 21 39 73 40 67 41 66 42 22 44 54 45 34 46 53 47 35 48 38 49
REMARK SMILES IDX 52 50 71 51 36 52 37 53 51 55 72 56 39 57 23 58 24 59 32 60
REMARK SMILES IDX 25 61 27 62 33 63 26 64 28 65 29 66 30 67 31 68 55 69 56 70
REMARK SMILES IDX 64 71 57 72 59 73 65 74 58 75 60 76 61 77 62 78 63 79 40 80
REMARK SMILES IDX 41 81 49 82 42 83 44 84 50 85 43 86 45 87 46 88 47 89 48 90
REMARK H PARENT 7 6 1 11 1 12 1 13 11 24 70 43 38 54
REMARK Flexibility Score: inf
ROOT
ATOM      1  C   UNL A   1      31.798  28.723  26.313  1.00  0.00     0.042 C 
ENDROOT
BRANCH   1   2
ATOM      2  C   UNL A   1      32.337  27.310  26.536  1.00  0.00     0.117 C 
BRANCH   2   3
ATOM      3  N   UNL A   1      31.252  26.384  26.791  1.00  0.00    -0.356 N 
ATOM      4  C   UNL A   1      30.420  25.710  25.951  1.00  0.00     0.227 C 
ATOM      5  O   UNL A   1      29.453  25.167  26.495  1.00  0.00    -0.274 OA
ATOM      6  H   UNL A   1      31.087  26.212  27.747  1.00  0.00     0.163 HD
BRANCH   4   7
ATOM      7  C   UNL A   1      30.708  25.583  24.434  1.00  0.00     0.114 C 
BRANCH   7   8
ATOM      8  C   UNL A   1      32.206  25.434  24.068  1.00  0.00     0.079 C 
BRANCH   8   9
ATOM      9  C   UNL A   1      32.627  24.300  23.136  1.00  0.00     0.259 C 
BRANCH   9  10
ATOM     10  N   UNL A   1      32.231  24.451  21.745  1.00  0.00    -0.358 N 
ATOM     11  H   UNL A   1      33.034  24.279  21.141  1.00  0.00     0.344 HD
ATOM     12  H   UNL A   1      31.886  25.399  21.591  1.00  0.00     0.344 HD
ATOM     13  H   UNL A   1      31.492  23.781  21.526  1.00  0.00     0.344 HD
ENDBRANCH   9  10
ENDBRANCH   8   9
ENDBRANCH   7   8
BRANCH   7  14
ATOM     14  C   UNL A   1      30.194  26.835  23.690  1.00  0.00    -0.035 A 
ATOM     15  C   UNL A   1      31.075  27.674  22.992  1.00  0.00     0.007 A 
ATOM     16  C   UNL A   1      28.827  27.186  23.742  1.00  0.00     0.007 A 
ATOM     17  C   UNL A   1      30.600  28.835  22.374  1.00  0.00     0.039 A 
ATOM     18  C   UNL A   1      28.357  28.342  23.124  1.00  0.00     0.039 A 
ATOM     19  C   UNL A   1      29.249  29.159  22.448  1.00  0.00     0.123 A 
ATOM     20  F   UNL A   1      28.804  30.278  21.861  1.00  0.00    -0.207 F 
ENDBRANCH   7  14
ENDBRANCH   4   7
ENDBRANCH   2   3
ENDBRANCH   1   2
BRANCH   1  21
ATOM     21  C   UNL A   1      32.811  29.712  25.758  1.00  0.00     0.118 C 
BRANCH  21  22
ATOM     22  N   UNL A   1      32.548  31.079  26.167  1.00  0.00    -0.352 N 
ATOM     23  C   UNL A   1      33.164  31.850  27.125  1.00  0.00     0.251 C 
ATOM     24  H   UNL A   1      31.814  31.524  25.684  1.00  0.00     0.163 HD
ATOM     25  O   UNL A   1      32.662  32.933  27.418  1.00  0.00    -0.269 OA
BRANCH  23  26
ATOM     26  C   UNL A   1      34.396  31.395  27.816  1.00  0.00     0.039 A 
ATOM     27  C   UNL A   1      35.432  32.318  28.000  1.00  0.00     0.014 A 
ATOM     28  C   UNL A   1      34.574  30.075  28.240  1.00  0.00     0.014 A 
ATOM     29  C   UNL A   1      36.615  31.928  28.636  1.00  0.00     0.010 A 
ATOM     30  C   UNL A   1      35.713  29.713  28.961  1.00  0.00     0.010 A 
ATOM     31  C   UNL A   1      36.759  30.627  29.145  1.00  0.00    -0.014 A 
BRANCH  31  32
ATOM     32  C   UNL A   1      38.005  30.224  29.853  1.00  0.00     0.031 A 
ATOM     33  C   UNL A   1      38.281  30.695  31.259  1.00  0.00     0.074 A 
ATOM     34  C   UNL A   1      38.914  29.459  29.215  1.00  0.00     0.049 A 
ATOM     35  N   UNL A   1      39.283  30.394  32.047  1.00  0.00    -0.248 NA
ATOM     36  C   UNL A   1      37.329  31.649  31.850  1.00  0.00     0.031 C 
ATOM     37  C   UNL A   1      38.822  29.024  27.820  1.00  0.00     0.029 A 
ATOM     38  N   UNL A   1      40.097  28.919  29.653  1.00  0.00    -0.354 N 
ATOM     39  C   UNL A   1      39.098  31.140  33.205  1.00  0.00     0.074 A 
ATOM     40  C   UNL A   1      37.912  31.943  33.003  1.00  0.00     0.031 C 
ATOM     41  C   UNL A   1      39.887  28.262  27.524  1.00  0.00     0.029 A 
ATOM     42  C   UNL A   1      40.746  28.166  28.701  1.00  0.00     0.049 A 
ATOM     43  H   UNL A   1      40.449  29.056  30.562  1.00  0.00     0.167 HD
ATOM     44  C   UNL A   1      39.822  31.131  34.351  1.00  0.00     0.034 A 
ATOM     45  C   UNL A   1      41.892  27.462  28.771  1.00  0.00     0.034 A 
ATOM     46  C   UNL A   1      40.970  30.294  34.570  1.00  0.00     0.049 A 
ATOM     47  C   UNL A   1      42.627  27.394  30.083  1.00  0.00     0.074 A 
ATOM     48  C   UNL A   1      41.720  30.142  35.724  1.00  0.00     0.029 A 
ATOM     49  N   UNL A   1      41.538  29.465  33.615  1.00  0.00    -0.354 N 
ATOM     50  N   UNL A   1      42.333  27.968  31.224  1.00  0.00    -0.248 NA
ATOM     51  C   UNL A   1      43.824  26.542  30.129  1.00  0.00     0.031 C 
ATOM     52  C   UNL A   1      42.749  29.231  35.461  1.00  0.00     0.029 A 
ATOM     53  C   UNL A   1      42.628  28.798  34.150  1.00  0.00     0.049 A 
ATOM     54  H   UNL A   1      41.214  29.365  32.691  1.00  0.00     0.167 HD
ATOM     55  C   UNL A   1      43.287  27.521  32.132  1.00  0.00     0.074 A 
ATOM     56  C   UNL A   1      44.148  26.605  31.413  1.00  0.00     0.031 C 
ATOM     57  C   UNL A   1      43.446  27.852  33.438  1.00  0.00     0.034 A 
BRANCH  44  58
ATOM     58  C   UNL A   1      39.351  32.009  35.483  1.00  0.00     0.023 A 
ATOM     59  C   UNL A   1      38.450  31.488  36.435  1.00  0.00     0.012 A 
ATOM     60  C   UNL A   1      39.834  33.323  35.641  1.00  0.00     0.148 A 
ATOM     61  C   UNL A   1      38.008  32.269  37.502  1.00  0.00     0.002 A 
ATOM     62  C   UNL A   1      39.426  34.081  36.734  1.00  0.00     0.091 A 
ATOM     63  F   UNL A   1      40.674  33.811  34.718  1.00  0.00    -0.205 F 
ATOM     64  C   UNL A   1      38.504  33.561  37.658  1.00  0.00     0.022 A 
BRANCH  62  65
ATOM     65  S   UNL A   1      40.067  35.726  37.068  1.00  0.00     0.127 S 
ATOM     66  O   UNL A   1      39.654  36.453  35.869  1.00  0.00    -0.237 OA
ATOM     67  O   UNL A   1      39.344  36.098  38.285  1.00  0.00    -0.237 OA
ATOM     68  O   UNL A   1      41.505  35.568  37.241  1.00  0.00    -0.744 OA
ENDBRANCH  62  65
ENDBRANCH  44  58
BRANCH  45  69
ATOM     69  C   UNL A   1      42.358  26.680  27.591  1.00  0.00     0.023 A 
ATOM     70  C   UNL A   1      43.160  27.308  26.616  1.00  0.00     0.012 A 
ATOM     71  C   UNL A   1      42.045  25.315  27.445  1.00  0.00     0.148 A 
ATOM     72  C   UNL A   1      43.611  26.601  25.502  1.00  0.00     0.002 A 
ATOM     73  C   UNL A   1      42.546  24.601  26.361  1.00  0.00     0.091 A 
ATOM     74  F   UNL A   1      41.271  24.737  28.375  1.00  0.00    -0.205 F 
ATOM     75  C   UNL A   1      43.314  25.246  25.379  1.00  0.00     0.022 A 
BRANCH  73  76
ATOM     76  S   UNL A   1      42.328  22.826  26.197  1.00  0.00     0.127 S 
ATOM     77  O   UNL A   1      43.019  22.328  27.382  1.00  0.00    -0.237 OA
ATOM     78  O   UNL A   1      40.871  22.694  26.231  1.00  0.00    -0.237 OA
ATOM     79  O   UNL A   1      42.928  22.477  24.915  1.00  0.00    -0.744 OA
ENDBRANCH  73  76
ENDBRANCH  45  69
BRANCH  57  80
ATOM     80  C   UNL A   1      44.581  27.199  34.183  1.00  0.00     0.023 A 
ATOM     81  C   UNL A   1      45.867  27.774  34.145  1.00  0.00     0.012 A 
ATOM     82  C   UNL A   1      44.365  26.041  34.956  1.00  0.00     0.148 A 
ATOM     83  C   UNL A   1      46.930  27.181  34.824  1.00  0.00     0.002 A 
ATOM     84  C   UNL A   1      45.419  25.484  35.671  1.00  0.00     0.091 A 
ATOM     85  F   UNL A   1      43.141  25.494  34.965  1.00  0.00    -0.205 F 
ATOM     86  C   UNL A   1      46.705  26.044  35.595  1.00  0.00     0.022 A 
BRANCH  84  87
ATOM     87  S   UNL A   1      45.188  24.075  36.761  1.00  0.00     0.127 S 
ATOM     88  O   UNL A   1      44.701  23.056  35.835  1.00  0.00    -0.237 OA
ATOM     89  O   UNL A   1      46.541  23.842  37.267  1.00  0.00    -0.237 OA
ATOM     90  O   UNL A   1      44.238  24.515  37.776  1.00  0.00    -0.744 OA
ENDBRANCH  84  87
ENDBRANCH  57  80
ENDBRANCH  31  32
ENDBRANCH  23  26
ENDBRANCH  21  22
ENDBRANCH   1  21
TORSDOF 17
ENDMDL
