MODEL 1
REMARK VINA RESULT:     -11.6      0.000      0.000
REMARK SMILES CC[NH2+][C@]1(C(=O)NCCCNC(=O)c2ccc(-c3c4nc(c(-c5cccc(S(=O)(=O)[O-])c5F)c5ccc([nH]5)c(-c5cccc(S(=O)(=O)[O-])c5F)c5nc(c(-c6cccc(S(=O)(=O)[O-])c6F)c6ccc3[nH]6)C=C5)C=C4)cc2)CCC[C@@H]([N@@H+](C)CC2CCCC2)C1
REMARK SMILES IDX 9 1 8 2 7 3 5 4 6 5 4 7 77 8 89 9 78 10 80 11 79 12 3 13
REMARK SMILES IDX 2 16 1 17 81 18 82 19 83 21 84 22 85 23 88 24 86 25 87 26
REMARK SMILES IDX 10 27 11 28 12 29 13 31 14 32 15 33 76 34 16 35 75 36 17 37
REMARK SMILES IDX 18 38 19 39 69 40 20 41 74 42 68 43 70 44 21 45 73 46 67 47
REMARK SMILES IDX 66 48 22 50 54 51 34 52 53 53 35 54 38 55 52 56 71 57 36 58
REMARK SMILES IDX 37 59 51 61 72 62 39 63 23 64 24 65 32 66 25 67 27 68 33 69
REMARK SMILES IDX 26 70 28 71 29 72 30 73 31 74 55 75 56 76 64 77 57 78 59 79
REMARK SMILES IDX 65 80 58 81 60 82 61 83 62 84 63 85 40 86 41 87 49 88 42 89
REMARK SMILES IDX 44 90 50 91 43 92 45 93 46 94 47 95 48 96
REMARK H PARENT 7 6 3 14 3 15 81 20 11 30 70 49 38 60
REMARK Flexibility Score: inf
ROOT
ATOM      1  C   UNL A   1      31.493  32.280  27.022  1.00  0.00     0.042 C 
ENDROOT
BRANCH   1   2
ATOM      2  C   UNL A   1      31.743  30.941  26.367  1.00  0.00     0.118 C 
BRANCH   2   3
ATOM      3  N   UNL A   1      31.558  29.816  27.268  1.00  0.00    -0.351 N 
ATOM      4  C   UNL A   1      32.066  28.547  27.216  1.00  0.00     0.281 C 
ATOM      5  O   UNL A   1      31.816  27.798  28.164  1.00  0.00    -0.268 OA
ATOM      6  H   UNL A   1      30.974  29.995  28.039  1.00  0.00     0.163 HD
BRANCH   4   7
ATOM      7  C   UNL A   1      32.896  28.088  25.990  1.00  0.00     0.181 C 
ATOM      8  C   UNL A   1      33.133  26.561  26.039  1.00  0.00     0.079 C 
ATOM      9  C   UNL A   1      32.030  28.355  24.706  1.00  0.00     0.144 C 
ATOM     10  C   UNL A   1      34.035  26.156  24.875  1.00  0.00     0.013 C 
ATOM     11  C   UNL A   1      32.729  27.917  23.404  1.00  0.00     0.190 C 
ATOM     12  C   UNL A   1      33.366  26.554  23.585  1.00  0.00     0.065 C 
BRANCH   7  13
ATOM     13  N   UNL A   1      34.233  28.758  25.976  1.00  0.00    -0.334 N 
ATOM     14  H   UNL A   1      34.868  28.178  25.427  1.00  0.00     0.347 HD
ATOM     15  H   UNL A   1      34.073  29.686  25.582  1.00  0.00     0.347 HD
BRANCH  13  16
ATOM     16  C   UNL A   1      34.849  28.983  27.285  1.00  0.00     0.257 C 
ATOM     17  C   UNL A   1      35.368  30.412  27.334  1.00  0.00     0.071 C 
ENDBRANCH  13  16
ENDBRANCH   7  13
BRANCH  11  18
ATOM     18  N   UNL A   1      31.834  27.921  22.209  1.00  0.00    -0.334 N 
ATOM     19  C   UNL A   1      31.249  26.617  21.927  1.00  0.00     0.332 C 
ATOM     20  H   UNL A   1      32.531  28.140  21.498  1.00  0.00     0.348 HD
BRANCH  18  21
ATOM     21  C   UNL A   1      30.917  29.056  21.946  1.00  0.00     0.265 C 
BRANCH  21  22
ATOM     22  C   UNL A   1      29.609  29.458  22.730  1.00  0.00     0.044 C 
ATOM     23  C   UNL A   1      29.604  30.770  23.518  1.00  0.00     0.009 C 
ATOM     24  C   UNL A   1      28.280  29.546  21.988  1.00  0.00     0.009 C 
ATOM     25  C   UNL A   1      28.119  31.129  23.746  1.00  0.00     0.001 C 
ATOM     26  C   UNL A   1      27.285  30.139  22.949  1.00  0.00     0.001 C 
ENDBRANCH  21  22
ENDBRANCH  18  21
ENDBRANCH  11  18
ENDBRANCH   4   7
ENDBRANCH   2   3
ENDBRANCH   1   2
BRANCH   1  27
ATOM     27  C   UNL A   1      32.742  32.897  27.615  1.00  0.00     0.118 C 
BRANCH  27  28
ATOM     28  N   UNL A   1      32.613  34.337  27.813  1.00  0.00    -0.352 N 
ATOM     29  C   UNL A   1      33.226  35.164  28.726  1.00  0.00     0.251 C 
ATOM     30  H   UNL A   1      31.990  34.787  27.198  1.00  0.00     0.163 HD
ATOM     31  O   UNL A   1      32.820  36.305  28.885  1.00  0.00    -0.269 OA
BRANCH  29  32
ATOM     32  C   UNL A   1      34.361  34.648  29.520  1.00  0.00     0.039 A 
ATOM     33  C   UNL A   1      34.130  34.149  30.803  1.00  0.00     0.014 A 
ATOM     34  C   UNL A   1      35.648  34.638  28.984  1.00  0.00     0.014 A 
ATOM     35  C   UNL A   1      35.184  33.572  31.513  1.00  0.00     0.010 A 
ATOM     36  C   UNL A   1      36.658  33.942  29.630  1.00  0.00     0.010 A 
ATOM     37  C   UNL A   1      36.447  33.425  30.914  1.00  0.00    -0.014 A 
BRANCH  37  38
ATOM     38  C   UNL A   1      37.571  32.755  31.613  1.00  0.00     0.031 A 
ATOM     39  C   UNL A   1      38.278  31.597  30.957  1.00  0.00     0.074 A 
ATOM     40  C   UNL A   1      37.893  33.126  32.868  1.00  0.00     0.049 A 
ATOM     41  N   UNL A   1      39.236  30.843  31.428  1.00  0.00    -0.248 NA
ATOM     42  C   UNL A   1      37.826  31.210  29.609  1.00  0.00     0.031 C 
ATOM     43  C   UNL A   1      37.220  34.171  33.644  1.00  0.00     0.029 A 
ATOM     44  N   UNL A   1      38.855  32.649  33.721  1.00  0.00    -0.354 N 
ATOM     45  C   UNL A   1      39.470  29.876  30.459  1.00  0.00     0.074 A 
ATOM     46  C   UNL A   1      38.521  30.105  29.394  1.00  0.00     0.031 C 
ATOM     47  C   UNL A   1      37.802  34.268  34.850  1.00  0.00     0.029 A 
ATOM     48  C   UNL A   1      38.860  33.270  34.949  1.00  0.00     0.049 A 
ATOM     49  H   UNL A   1      39.482  31.930  33.479  1.00  0.00     0.167 HD
ATOM     50  C   UNL A   1      40.413  28.906  30.437  1.00  0.00     0.034 A 
ATOM     51  C   UNL A   1      39.629  33.052  36.034  1.00  0.00     0.034 A 
ATOM     52  C   UNL A   1      41.384  28.714  31.478  1.00  0.00     0.049 A 
ATOM     53  C   UNL A   1      40.698  31.997  35.967  1.00  0.00     0.074 A 
ATOM     54  C   UNL A   1      42.440  27.822  31.514  1.00  0.00     0.029 A 
ATOM     55  N   UNL A   1      41.414  29.420  32.670  1.00  0.00    -0.354 N 
ATOM     56  N   UNL A   1      41.007  31.196  34.976  1.00  0.00    -0.248 NA
ATOM     57  C   UNL A   1      41.550  31.841  37.154  1.00  0.00     0.031 C 
ATOM     58  C   UNL A   1      43.089  27.965  32.744  1.00  0.00     0.029 A 
ATOM     59  C   UNL A   1      42.463  28.977  33.456  1.00  0.00     0.049 A 
ATOM     60  H   UNL A   1      40.782  30.131  32.921  1.00  0.00     0.167 HD
ATOM     61  C   UNL A   1      42.112  30.469  35.404  1.00  0.00     0.074 A 
ATOM     62  C   UNL A   1      42.431  30.943  36.735  1.00  0.00     0.031 C 
ATOM     63  C   UNL A   1      42.796  29.493  34.758  1.00  0.00     0.034 A 
BRANCH  50  64
ATOM     64  C   UNL A   1      40.470  28.011  29.226  1.00  0.00     0.023 A 
ATOM     65  C   UNL A   1      39.560  26.939  29.106  1.00  0.00     0.012 A 
ATOM     66  C   UNL A   1      41.384  28.259  28.185  1.00  0.00     0.148 A 
ATOM     67  C   UNL A   1      39.587  26.104  27.989  1.00  0.00     0.002 A 
ATOM     68  C   UNL A   1      41.371  27.455  27.052  1.00  0.00     0.091 A 
ATOM     69  F   UNL A   1      42.256  29.268  28.326  1.00  0.00    -0.205 F 
ATOM     70  C   UNL A   1      40.484  26.369  26.958  1.00  0.00     0.022 A 
BRANCH  68  71
ATOM     71  S   UNL A   1      42.427  27.762  25.631  1.00  0.00     0.127 S 
ATOM     72  O   UNL A   1      42.206  26.556  24.834  1.00  0.00    -0.237 OA
ATOM     73  O   UNL A   1      41.839  28.980  25.071  1.00  0.00    -0.237 OA
ATOM     74  O   UNL A   1      43.774  27.923  26.158  1.00  0.00    -0.744 OA
ENDBRANCH  68  71
ENDBRANCH  50  64
BRANCH  51  75
ATOM     75  C   UNL A   1      39.456  33.893  37.252  1.00  0.00     0.023 A 
ATOM     76  C   UNL A   1      39.956  35.210  37.263  1.00  0.00     0.012 A 
ATOM     77  C   UNL A   1      38.786  33.405  38.390  1.00  0.00     0.148 A 
ATOM     78  C   UNL A   1      39.827  36.012  38.398  1.00  0.00     0.002 A 
ATOM     79  C   UNL A   1      38.611  34.228  39.497  1.00  0.00     0.091 A 
ATOM     80  F   UNL A   1      38.324  32.147  38.364  1.00  0.00    -0.205 F 
ATOM     81  C   UNL A   1      39.147  35.524  39.510  1.00  0.00     0.022 A 
BRANCH  79  82
ATOM     82  S   UNL A   1      37.638  33.732  40.923  1.00  0.00     0.127 S 
ATOM     83  O   UNL A   1      38.543  32.801  41.593  1.00  0.00    -0.237 OA
ATOM     84  O   UNL A   1      37.445  35.008  41.612  1.00  0.00    -0.237 OA
ATOM     85  O   UNL A   1      36.417  33.150  40.383  1.00  0.00    -0.744 OA
ENDBRANCH  79  82
ENDBRANCH  51  75
BRANCH  63  86
ATOM     86  C   UNL A   1      43.989  28.897  35.459  1.00  0.00     0.023 A 
ATOM     87  C   UNL A   1      45.271  29.445  35.264  1.00  0.00     0.012 A 
ATOM     88  C   UNL A   1      43.822  27.832  36.367  1.00  0.00     0.148 A 
ATOM     89  C   UNL A   1      46.376  28.916  35.929  1.00  0.00     0.002 A 
ATOM     90  C   UNL A   1      44.918  27.347  37.068  1.00  0.00     0.091 A 
ATOM     91  F   UNL A   1      42.596  27.312  36.526  1.00  0.00    -0.205 F 
ATOM     92  C   UNL A   1      46.198  27.877  36.840  1.00  0.00     0.022 A 
BRANCH  90  93
ATOM     93  S   UNL A   1      44.767  26.081  38.333  1.00  0.00     0.127 S 
ATOM     94  O   UNL A   1      43.965  26.765  39.345  1.00  0.00    -0.237 OA
ATOM     95  O   UNL A   1      44.068  25.012  37.619  1.00  0.00    -0.237 OA
ATOM     96  O   UNL A   1      46.127  25.749  38.734  1.00  0.00    -0.744 OA
ENDBRANCH  90  93
ENDBRANCH  63  86
ENDBRANCH  37  38
ENDBRANCH  29  32
ENDBRANCH  27  28
ENDBRANCH   1  27
TORSDOF 18
ENDMDL
MODEL 2
REMARK VINA RESULT:     -11.5      1.385      2.958
REMARK SMILES CC[NH2+][C@]1(C(=O)NCCCNC(=O)c2ccc(-c3c4nc(c(-c5cccc(S(=O)(=O)[O-])c5F)c5ccc([nH]5)c(-c5cccc(S(=O)(=O)[O-])c5F)c5nc(c(-c6cccc(S(=O)(=O)[O-])c6F)c6ccc3[nH]6)C=C5)C=C4)cc2)CCC[C@@H]([N@@H+](C)CC2CCCC2)C1
REMARK SMILES IDX 9 1 8 2 7 3 5 4 6 5 4 7 77 8 89 9 78 10 80 11 79 12 3 13
REMARK SMILES IDX 2 16 1 17 81 18 82 19 83 21 84 22 85 23 88 24 86 25 87 26
REMARK SMILES IDX 10 27 11 28 12 29 13 31 14 32 15 33 76 34 16 35 75 36 17 37
REMARK SMILES IDX 18 38 19 39 69 40 20 41 74 42 68 43 70 44 21 45 73 46 67 47
REMARK SMILES IDX 66 48 22 50 54 51 34 52 53 53 35 54 38 55 52 56 71 57 36 58
REMARK SMILES IDX 37 59 51 61 72 62 39 63 23 64 24 65 32 66 25 67 27 68 33 69
REMARK SMILES IDX 26 70 28 71 29 72 30 73 31 74 55 75 56 76 64 77 57 78 59 79
REMARK SMILES IDX 65 80 58 81 60 82 61 83 62 84 63 85 40 86 41 87 49 88 42 89
REMARK SMILES IDX 44 90 50 91 43 92 45 93 46 94 47 95 48 96
REMARK H PARENT 7 6 3 14 3 15 81 20 11 30 70 49 38 60
REMARK Flexibility Score: inf
ROOT
ATOM      1  C   UNL A   1      31.697  31.502  26.550  1.00  0.00     0.042 C 
ENDROOT
BRANCH   1   2
ATOM      2  C   UNL A   1      31.947  30.052  26.208  1.00  0.00     0.118 C 
BRANCH   2   3
ATOM      3  N   UNL A   1      32.877  29.872  25.105  1.00  0.00    -0.351 N 
ATOM      4  C   UNL A   1      32.875  28.962  24.085  1.00  0.00     0.281 C 
ATOM      5  O   UNL A   1      33.746  29.080  23.220  1.00  0.00    -0.268 OA
ATOM      6  H   UNL A   1      33.628  30.507  25.091  1.00  0.00     0.163 HD
BRANCH   4   7
ATOM      7  C   UNL A   1      31.823  27.823  24.057  1.00  0.00     0.181 C 
ATOM      8  C   UNL A   1      32.065  26.895  22.844  1.00  0.00     0.079 C 
ATOM      9  C   UNL A   1      32.050  26.939  25.336  1.00  0.00     0.144 C 
ATOM     10  C   UNL A   1      30.957  25.845  22.788  1.00  0.00     0.013 C 
ATOM     11  C   UNL A   1      31.081  25.743  25.423  1.00  0.00     0.190 C 
ATOM     12  C   UNL A   1      30.969  25.061  24.075  1.00  0.00     0.065 C 
BRANCH   7  13
ATOM     13  N   UNL A   1      30.441  28.382  23.936  1.00  0.00    -0.334 N 
ATOM     14  H   UNL A   1      29.805  27.605  23.755  1.00  0.00     0.347 HD
ATOM     15  H   UNL A   1      30.263  28.870  24.814  1.00  0.00     0.347 HD
BRANCH  13  16
ATOM     16  C   UNL A   1      30.244  29.379  22.881  1.00  0.00     0.257 C 
ATOM     17  C   UNL A   1      29.251  30.417  23.379  1.00  0.00     0.071 C 
ENDBRANCH  13  16
ENDBRANCH   7  13
BRANCH  11  18
ATOM     18  N   UNL A   1      31.441  24.753  26.481  1.00  0.00    -0.334 N 
ATOM     19  C   UNL A   1      30.508  23.637  26.563  1.00  0.00     0.332 C 
ATOM     20  H   UNL A   1      31.322  25.353  27.297  1.00  0.00     0.348 HD
BRANCH  18  21
ATOM     21  C   UNL A   1      32.853  24.369  26.719  1.00  0.00     0.265 C 
BRANCH  21  22
ATOM     22  C   UNL A   1      33.864  23.689  25.717  1.00  0.00     0.044 C 
ATOM     23  C   UNL A   1      33.317  22.694  24.691  1.00  0.00     0.009 C 
ATOM     24  C   UNL A   1      34.765  24.557  24.846  1.00  0.00     0.009 C 
ATOM     25  C   UNL A   1      34.389  22.586  23.584  1.00  0.00     0.001 C 
ATOM     26  C   UNL A   1      35.450  23.634  23.876  1.00  0.00     0.001 C 
ENDBRANCH  21  22
ENDBRANCH  18  21
ENDBRANCH  11  18
ENDBRANCH   4   7
ENDBRANCH   2   3
ENDBRANCH   1   2
BRANCH   1  27
ATOM     27  C   UNL A   1      32.860  32.157  27.264  1.00  0.00     0.118 C 
BRANCH  27  28
ATOM     28  N   UNL A   1      32.647  33.583  27.487  1.00  0.00    -0.352 N 
ATOM     29  C   UNL A   1      33.176  34.419  28.444  1.00  0.00     0.251 C 
ATOM     30  H   UNL A   1      32.026  34.014  26.856  1.00  0.00     0.163 HD
ATOM     31  O   UNL A   1      32.704  35.533  28.609  1.00  0.00    -0.269 OA
BRANCH  29  32
ATOM     32  C   UNL A   1      34.303  33.944  29.274  1.00  0.00     0.039 A 
ATOM     33  C   UNL A   1      34.052  33.083  30.344  1.00  0.00     0.014 A 
ATOM     34  C   UNL A   1      35.609  34.334  28.978  1.00  0.00     0.014 A 
ATOM     35  C   UNL A   1      35.125  32.557  31.065  1.00  0.00     0.010 A 
ATOM     36  C   UNL A   1      36.674  33.704  29.603  1.00  0.00     0.010 A 
ATOM     37  C   UNL A   1      36.446  32.830  30.672  1.00  0.00    -0.014 A 
BRANCH  37  38
ATOM     38  C   UNL A   1      37.610  32.233  31.373  1.00  0.00     0.031 A 
ATOM     39  C   UNL A   1      38.372  31.103  30.732  1.00  0.00     0.074 A 
ATOM     40  C   UNL A   1      37.922  32.645  32.618  1.00  0.00     0.049 A 
ATOM     41  N   UNL A   1      39.372  30.409  31.209  1.00  0.00    -0.248 NA
ATOM     42  C   UNL A   1      37.930  30.667  29.395  1.00  0.00     0.031 C 
ATOM     43  C   UNL A   1      37.201  33.667  33.381  1.00  0.00     0.029 A 
ATOM     44  N   UNL A   1      38.914  32.235  33.472  1.00  0.00    -0.354 N 
ATOM     45  C   UNL A   1      39.649  29.438  30.255  1.00  0.00     0.074 A 
ATOM     46  C   UNL A   1      38.681  29.596  29.194  1.00  0.00     0.031 C 
ATOM     47  C   UNL A   1      37.786  33.816  34.580  1.00  0.00     0.029 A 
ATOM     48  C   UNL A   1      38.897  32.877  34.688  1.00  0.00     0.049 A 
ATOM     49  H   UNL A   1      39.577  31.546  33.237  1.00  0.00     0.167 HD
ATOM     50  C   UNL A   1      40.642  28.519  30.242  1.00  0.00     0.034 A 
ATOM     51  C   UNL A   1      39.684  32.721  35.769  1.00  0.00     0.034 A 
ATOM     52  C   UNL A   1      41.630  28.397  31.278  1.00  0.00     0.049 A 
ATOM     53  C   UNL A   1      40.808  31.723  35.712  1.00  0.00     0.074 A 
ATOM     54  C   UNL A   1      42.732  27.563  31.320  1.00  0.00     0.029 A 
ATOM     55  N   UNL A   1      41.632  29.125  32.456  1.00  0.00    -0.354 N 
ATOM     56  N   UNL A   1      41.150  30.921  34.733  1.00  0.00    -0.248 NA
ATOM     57  C   UNL A   1      41.676  31.634  36.894  1.00  0.00     0.031 C 
ATOM     58  C   UNL A   1      43.382  27.763  32.541  1.00  0.00     0.029 A 
ATOM     59  C   UNL A   1      42.710  28.753  33.240  1.00  0.00     0.049 A 
ATOM     60  H   UNL A   1      40.966  29.808  32.700  1.00  0.00     0.167 HD
ATOM     61  C   UNL A   1      42.296  30.261  35.164  1.00  0.00     0.074 A 
ATOM     62  C   UNL A   1      42.600  30.775  36.484  1.00  0.00     0.031 C 
ATOM     63  C   UNL A   1      43.025  29.310  34.530  1.00  0.00     0.034 A 
BRANCH  50  64
ATOM     64  C   UNL A   1      40.736  27.605  29.047  1.00  0.00     0.023 A 
ATOM     65  C   UNL A   1      39.852  26.511  28.932  1.00  0.00     0.012 A 
ATOM     66  C   UNL A   1      41.660  27.856  28.015  1.00  0.00     0.148 A 
ATOM     67  C   UNL A   1      39.914  25.659  27.829  1.00  0.00     0.002 A 
ATOM     68  C   UNL A   1      41.681  27.034  26.895  1.00  0.00     0.091 A 
ATOM     69  F   UNL A   1      42.507  28.887  28.151  1.00  0.00    -0.205 F 
ATOM     70  C   UNL A   1      40.820  25.928  26.807  1.00  0.00     0.022 A 
BRANCH  68  71
ATOM     71  S   UNL A   1      42.751  27.342  25.485  1.00  0.00     0.127 S 
ATOM     72  O   UNL A   1      42.632  26.086  24.746  1.00  0.00    -0.237 OA
ATOM     73  O   UNL A   1      42.098  28.487  24.851  1.00  0.00    -0.237 OA
ATOM     74  O   UNL A   1      44.071  27.618  26.033  1.00  0.00    -0.744 OA
ENDBRANCH  68  71
ENDBRANCH  50  64
BRANCH  51  75
ATOM     75  C   UNL A   1      39.477  33.574  36.974  1.00  0.00     0.023 A 
ATOM     76  C   UNL A   1      39.962  34.897  36.978  1.00  0.00     0.012 A 
ATOM     77  C   UNL A   1      38.790  33.092  38.104  1.00  0.00     0.148 A 
ATOM     78  C   UNL A   1      39.801  35.711  38.101  1.00  0.00     0.002 A 
ATOM     79  C   UNL A   1      38.583  33.925  39.196  1.00  0.00     0.091 A 
ATOM     80  F   UNL A   1      38.342  31.828  38.083  1.00  0.00    -0.205 F 
ATOM     81  C   UNL A   1      39.104  35.228  39.205  1.00  0.00     0.022 A 
BRANCH  79  82
ATOM     82  S   UNL A   1      37.587  33.436  40.608  1.00  0.00     0.127 S 
ATOM     83  O   UNL A   1      38.392  32.361  41.184  1.00  0.00    -0.237 OA
ATOM     84  O   UNL A   1      37.552  34.670  41.393  1.00  0.00    -0.237 OA
ATOM     85  O   UNL A   1      36.297  33.036  40.061  1.00  0.00    -0.744 OA
ENDBRANCH  79  82
ENDBRANCH  51  75
BRANCH  63  86
ATOM     86  C   UNL A   1      44.253  28.791  35.231  1.00  0.00     0.023 A 
ATOM     87  C   UNL A   1      45.510  29.374  34.979  1.00  0.00     0.012 A 
ATOM     88  C   UNL A   1      44.145  27.767  36.192  1.00  0.00     0.148 A 
ATOM     89  C   UNL A   1      46.648  28.917  35.644  1.00  0.00     0.002 A 
ATOM     90  C   UNL A   1      45.272  27.355  36.891  1.00  0.00     0.091 A 
ATOM     91  F   UNL A   1      42.941  27.213  36.405  1.00  0.00    -0.205 F 
ATOM     92  C   UNL A   1      46.527  27.918  36.607  1.00  0.00     0.022 A 
BRANCH  90  93
ATOM     93  S   UNL A   1      45.194  26.148  38.218  1.00  0.00     0.127 S 
ATOM     94  O   UNL A   1      44.291  26.802  39.163  1.00  0.00    -0.237 OA
ATOM     95  O   UNL A   1      44.628  24.980  37.542  1.00  0.00    -0.237 OA
ATOM     96  O   UNL A   1      46.563  25.972  38.683  1.00  0.00    -0.744 OA
ENDBRANCH  90  93
ENDBRANCH  63  86
ENDBRANCH  37  38
ENDBRANCH  29  32
ENDBRANCH  27  28
ENDBRANCH   1  27
TORSDOF 18
ENDMDL
MODEL 3
REMARK VINA RESULT:     -11.4      1.838      3.127
REMARK SMILES CC[NH2+][C@]1(C(=O)NCCCNC(=O)c2ccc(-c3c4nc(c(-c5cccc(S(=O)(=O)[O-])c5F)c5ccc([nH]5)c(-c5cccc(S(=O)(=O)[O-])c5F)c5nc(c(-c6cccc(S(=O)(=O)[O-])c6F)c6ccc3[nH]6)C=C5)C=C4)cc2)CCC[C@@H]([N@@H+](C)CC2CCCC2)C1
REMARK SMILES IDX 9 1 8 2 7 3 5 4 6 5 4 7 77 8 89 9 78 10 80 11 79 12 3 13
REMARK SMILES IDX 2 16 1 17 81 18 82 19 83 21 84 22 85 23 88 24 86 25 87 26
REMARK SMILES IDX 10 27 11 28 12 29 13 31 14 32 15 33 76 34 16 35 75 36 17 37
REMARK SMILES IDX 18 38 19 39 69 40 20 41 74 42 68 43 70 44 21 45 73 46 67 47
REMARK SMILES IDX 66 48 22 50 54 51 34 52 53 53 35 54 38 55 52 56 71 57 36 58
REMARK SMILES IDX 37 59 51 61 72 62 39 63 23 64 24 65 32 66 25 67 27 68 33 69
REMARK SMILES IDX 26 70 28 71 29 72 30 73 31 74 55 75 56 76 64 77 57 78 59 79
REMARK SMILES IDX 65 80 58 81 60 82 61 83 62 84 63 85 40 86 41 87 49 88 42 89
REMARK SMILES IDX 44 90 50 91 43 92 45 93 46 94 47 95 48 96
REMARK H PARENT 7 6 3 14 3 15 81 20 11 30 70 49 38 60
REMARK Flexibility Score: inf
ROOT
ATOM      1  C   UNL A   1      31.332  31.955  26.332  1.00  0.00     0.042 C 
ENDROOT
BRANCH   1   2
ATOM      2  C   UNL A   1      31.290  30.478  26.016  1.00  0.00     0.118 C 
BRANCH   2   3
ATOM      3  N   UNL A   1      31.841  30.151  24.712  1.00  0.00    -0.351 N 
ATOM      4  C   UNL A   1      32.369  28.981  24.241  1.00  0.00     0.281 C 
ATOM      5  O   UNL A   1      32.696  28.946  23.053  1.00  0.00    -0.268 OA
ATOM      6  H   UNL A   1      31.835  30.892  24.064  1.00  0.00     0.163 HD
BRANCH   4   7
ATOM      7  C   UNL A   1      32.559  27.773  25.193  1.00  0.00     0.181 C 
ATOM      8  C   UNL A   1      31.196  27.115  25.510  1.00  0.00     0.079 C 
ATOM      9  C   UNL A   1      33.397  26.690  24.422  1.00  0.00     0.144 C 
ATOM     10  C   UNL A   1      31.405  25.993  26.526  1.00  0.00     0.013 C 
ATOM     11  C   UNL A   1      33.641  25.412  25.248  1.00  0.00     0.190 C 
ATOM     12  C   UNL A   1      32.364  24.987  25.943  1.00  0.00     0.065 C 
BRANCH   7  13
ATOM     13  N   UNL A   1      33.168  28.209  26.487  1.00  0.00    -0.334 N 
ATOM     14  H   UNL A   1      32.580  28.945  26.877  1.00  0.00     0.347 HD
ATOM     15  H   UNL A   1      33.221  27.370  27.065  1.00  0.00     0.347 HD
BRANCH  13  16
ATOM     16  C   UNL A   1      34.538  28.723  26.409  1.00  0.00     0.257 C 
ATOM     17  C   UNL A   1      34.834  29.500  27.682  1.00  0.00     0.071 C 
ENDBRANCH  13  16
ENDBRANCH   7  13
BRANCH  11  18
ATOM     18  N   UNL A   1      34.205  24.280  24.455  1.00  0.00    -0.334 N 
ATOM     19  C   UNL A   1      35.484  23.804  24.964  1.00  0.00     0.332 C 
ATOM     20  H   UNL A   1      34.355  24.772  23.574  1.00  0.00     0.348 HD
BRANCH  18  21
ATOM     21  C   UNL A   1      33.331  23.202  23.935  1.00  0.00     0.265 C 
BRANCH  21  22
ATOM     22  C   UNL A   1      33.422  21.651  24.209  1.00  0.00     0.044 C 
ATOM     23  C   UNL A   1      33.172  21.144  25.631  1.00  0.00     0.009 C 
ATOM     24  C   UNL A   1      32.570  20.687  23.390  1.00  0.00     0.009 C 
ATOM     25  C   UNL A   1      32.844  19.641  25.499  1.00  0.00     0.001 C 
ATOM     26  C   UNL A   1      32.729  19.329  24.016  1.00  0.00     0.001 C 
ENDBRANCH  21  22
ENDBRANCH  18  21
ENDBRANCH  11  18
ENDBRANCH   4   7
ENDBRANCH   2   3
ENDBRANCH   1   2
BRANCH   1  27
ATOM     27  C   UNL A   1      32.508  32.346  27.202  1.00  0.00     0.118 C 
BRANCH  27  28
ATOM     28  N   UNL A   1      32.466  33.749  27.601  1.00  0.00    -0.352 N 
ATOM     29  C   UNL A   1      33.214  34.427  28.535  1.00  0.00     0.251 C 
ATOM     30  H   UNL A   1      31.796  34.295  27.129  1.00  0.00     0.163 HD
ATOM     31  O   UNL A   1      32.880  35.547  28.890  1.00  0.00    -0.269 OA
BRANCH  29  32
ATOM     32  C   UNL A   1      34.410  33.777  29.113  1.00  0.00     0.039 A 
ATOM     33  C   UNL A   1      35.652  34.406  29.006  1.00  0.00     0.014 A 
ATOM     34  C   UNL A   1      34.296  32.557  29.778  1.00  0.00     0.014 A 
ATOM     35  C   UNL A   1      36.761  33.842  29.637  1.00  0.00     0.010 A 
ATOM     36  C   UNL A   1      35.365  32.074  30.517  1.00  0.00     0.010 A 
ATOM     37  C   UNL A   1      36.617  32.694  30.434  1.00  0.00    -0.014 A 
BRANCH  37  38
ATOM     38  C   UNL A   1      37.761  32.107  31.174  1.00  0.00     0.031 A 
ATOM     39  C   UNL A   1      38.544  30.972  30.566  1.00  0.00     0.074 A 
ATOM     40  C   UNL A   1      38.037  32.532  32.423  1.00  0.00     0.049 A 
ATOM     41  N   UNL A   1      39.532  30.286  31.078  1.00  0.00    -0.248 NA
ATOM     42  C   UNL A   1      38.141  30.521  29.222  1.00  0.00     0.031 C 
ATOM     43  C   UNL A   1      37.293  33.560  33.155  1.00  0.00     0.029 A 
ATOM     44  N   UNL A   1      39.006  32.133  33.308  1.00  0.00    -0.354 N 
ATOM     45  C   UNL A   1      39.838  29.305  30.142  1.00  0.00     0.074 A 
ATOM     46  C   UNL A   1      38.900  29.450  29.053  1.00  0.00     0.031 C 
ATOM     47  C   UNL A   1      37.843  33.723  34.368  1.00  0.00     0.029 A 
ATOM     48  C   UNL A   1      38.952  32.788  34.516  1.00  0.00     0.049 A 
ATOM     49  H   UNL A   1      39.676  31.443  33.099  1.00  0.00     0.167 HD
ATOM     50  C   UNL A   1      40.833  28.388  30.167  1.00  0.00     0.034 A 
ATOM     51  C   UNL A   1      39.709  32.645  35.622  1.00  0.00     0.034 A 
ATOM     52  C   UNL A   1      41.791  28.280  31.232  1.00  0.00     0.049 A 
ATOM     53  C   UNL A   1      40.836  31.649  35.606  1.00  0.00     0.074 A 
ATOM     54  C   UNL A   1      42.894  27.449  31.314  1.00  0.00     0.029 A 
ATOM     55  N   UNL A   1      41.758  29.021  32.402  1.00  0.00    -0.354 N 
ATOM     56  N   UNL A   1      41.208  30.838  34.646  1.00  0.00    -0.248 NA
ATOM     57  C   UNL A   1      41.671  31.574  36.813  1.00  0.00     0.031 C 
ATOM     58  C   UNL A   1      43.508  27.664  32.551  1.00  0.00     0.029 A 
ATOM     59  C   UNL A   1      42.814  28.659  33.220  1.00  0.00     0.049 A 
ATOM     60  H   UNL A   1      41.084  29.703  32.620  1.00  0.00     0.167 HD
ATOM     61  C   UNL A   1      42.343  30.186  35.116  1.00  0.00     0.074 A 
ATOM     62  C   UNL A   1      42.607  30.714  36.439  1.00  0.00     0.031 C 
ATOM     63  C   UNL A   1      43.091  29.230  34.513  1.00  0.00     0.034 A 
BRANCH  50  64
ATOM     64  C   UNL A   1      40.963  27.463  28.985  1.00  0.00     0.023 A 
ATOM     65  C   UNL A   1      40.144  26.317  28.900  1.00  0.00     0.012 A 
ATOM     66  C   UNL A   1      41.854  27.752  27.934  1.00  0.00     0.148 A 
ATOM     67  C   UNL A   1      40.239  25.452  27.810  1.00  0.00     0.002 A 
ATOM     68  C   UNL A   1      41.907  26.914  26.827  1.00  0.00     0.091 A 
ATOM     69  F   UNL A   1      42.640  28.833  28.041  1.00  0.00    -0.205 F 
ATOM     70  C   UNL A   1      41.112  25.758  26.770  1.00  0.00     0.022 A 
BRANCH  68  71
ATOM     71  S   UNL A   1      42.934  27.262  25.395  1.00  0.00     0.127 S 
ATOM     72  O   UNL A   1      42.875  25.991  24.674  1.00  0.00    -0.237 OA
ATOM     73  O   UNL A   1      42.208  28.361  24.757  1.00  0.00    -0.237 OA
ATOM     74  O   UNL A   1      44.245  27.621  25.917  1.00  0.00    -0.744 OA
ENDBRANCH  68  71
ENDBRANCH  50  64
BRANCH  51  75
ATOM     75  C   UNL A   1      39.466  33.510  36.811  1.00  0.00     0.023 A 
ATOM     76  C   UNL A   1      39.893  34.852  36.791  1.00  0.00     0.012 A 
ATOM     77  C   UNL A   1      38.800  33.019  37.950  1.00  0.00     0.148 A 
ATOM     78  C   UNL A   1      39.698  35.678  37.899  1.00  0.00     0.002 A 
ATOM     79  C   UNL A   1      38.558  33.862  39.028  1.00  0.00     0.091 A 
ATOM     80  F   UNL A   1      38.407  31.737  37.952  1.00  0.00    -0.205 F 
ATOM     81  C   UNL A   1      39.023  35.186  39.013  1.00  0.00     0.022 A 
BRANCH  79  82
ATOM     82  S   UNL A   1      37.584  33.355  40.449  1.00  0.00     0.127 S 
ATOM     83  O   UNL A   1      36.330  32.945  39.822  1.00  0.00    -0.237 OA
ATOM     84  O   UNL A   1      38.390  32.261  40.991  1.00  0.00    -0.237 OA
ATOM     85  O   UNL A   1      37.506  34.528  41.311  1.00  0.00    -0.744 OA
ENDBRANCH  79  82
ENDBRANCH  51  75
BRANCH  63  86
ATOM     86  C   UNL A   1      44.300  28.722  35.253  1.00  0.00     0.023 A 
ATOM     87  C   UNL A   1      45.561  29.310  35.038  1.00  0.00     0.012 A 
ATOM     88  C   UNL A   1      44.168  27.700  36.215  1.00  0.00     0.148 A 
ATOM     89  C   UNL A   1      46.680  28.863  35.740  1.00  0.00     0.002 A 
ATOM     90  C   UNL A   1      45.275  27.298  36.950  1.00  0.00     0.091 A 
ATOM     91  F   UNL A   1      42.962  27.140  36.394  1.00  0.00    -0.205 F 
ATOM     92  C   UNL A   1      46.535  27.867  36.703  1.00  0.00     0.022 A 
BRANCH  90  93
ATOM     93  S   UNL A   1      45.164  26.096  38.280  1.00  0.00     0.127 S 
ATOM     94  O   UNL A   1      46.552  26.023  38.732  1.00  0.00    -0.237 OA
ATOM     95  O   UNL A   1      44.252  26.754  39.216  1.00  0.00    -0.237 OA
ATOM     96  O   UNL A   1      44.638  24.879  37.678  1.00  0.00    -0.744 OA
ENDBRANCH  90  93
ENDBRANCH  63  86
ENDBRANCH  37  38
ENDBRANCH  29  32
ENDBRANCH  27  28
ENDBRANCH   1  27
TORSDOF 18
ENDMDL
