MODEL 1
REMARK VINA RESULT:     -13.1      0.000      0.000
REMARK SMILES O=C(CCCN1C(=O)c2ccc3c4c(ccc(c24)C1=O)C(=O)NC3=O)NCCCNC(=O)c1ccc(-c2c3nc(c(-c4cccc(S(=O)(=O)[O-])c4F)c4ccc([nH]4)c(-c4cccc(S(=O)(=O)[O-])c4F)c4nc(c(-c5cccc(S(=O)(=O)[O-])c5F)c5ccc2[nH]5)C=C4)C=C3)cc1
REMARK SMILES IDX 28 1 27 2 26 3 1 4 2 5 3 7 4 8 5 9 6 10 19 11 7 12 20 13
REMARK SMILES IDX 17 14 9 15 8 16 16 17 18 18 10 19 15 20 13 21 11 22 14 23
REMARK SMILES IDX 12 24 21 25 24 26 23 27 22 28 25 29 29 31 30 32 31 33 32 35
REMARK SMILES IDX 33 36 34 37 95 38 35 39 94 40 36 41 37 42 38 43 88 44 39 45
REMARK SMILES IDX 93 46 87 47 89 48 40 49 92 50 86 51 85 52 41 54 73 55 53 56
REMARK SMILES IDX 72 57 54 58 57 59 71 60 90 61 55 62 56 63 70 65 91 66 58 67
REMARK SMILES IDX 42 68 43 69 51 70 44 71 46 72 52 73 45 74 47 75 48 76 49 77
REMARK SMILES IDX 50 78 74 79 75 80 83 81 76 82 78 83 84 84 77 85 79 86 80 87
REMARK SMILES IDX 81 88 82 89 59 90 60 91 68 92 61 93 63 94 69 95 62 96 64 97
REMARK SMILES IDX 65 98 66 99 67 100
REMARK H PARENT 26 6 23 30 30 34 89 53 57 64
REMARK Flexibility Score: inf
ROOT
ATOM      1  C   UNL A   1      32.495  29.733  25.232  1.00  0.00     0.042 C 
ENDROOT
BRANCH   1   2
ATOM      2  C   UNL A   1      31.241  29.634  24.373  1.00  0.00     0.117 C 
BRANCH   2   3
ATOM      3  N   UNL A   1      30.589  28.348  24.499  1.00  0.00    -0.356 N 
ATOM      4  O   UNL A   1      30.165  28.087  22.254  1.00  0.00    -0.275 OA
ATOM      5  C   UNL A   1      30.084  27.681  23.408  1.00  0.00     0.220 C 
ATOM      6  H   UNL A   1      30.502  27.940  25.391  1.00  0.00     0.163 HD
BRANCH   5   7
ATOM      7  C   UNL A   1      29.435  26.366  23.761  1.00  0.00     0.102 C 
BRANCH   7   8
ATOM      8  C   UNL A   1      30.392  25.428  24.494  1.00  0.00     0.032 C 
BRANCH   8   9
ATOM      9  C   UNL A   1      31.814  25.313  23.930  1.00  0.00     0.130 C 
BRANCH   9  10
ATOM     10  N   UNL A   1      32.599  24.079  24.096  1.00  0.00    -0.274 N 
ATOM     11  C   UNL A   1      32.134  22.840  23.673  1.00  0.00     0.261 C 
ATOM     12  C   UNL A   1      33.922  24.281  24.521  1.00  0.00     0.261 C 
ATOM     13  O   UNL A   1      31.159  22.651  22.954  1.00  0.00    -0.269 OA
ATOM     14  C   UNL A   1      32.917  21.655  24.083  1.00  0.00     0.049 A 
ATOM     15  C   UNL A   1      34.802  23.091  24.617  1.00  0.00     0.049 A 
ATOM     16  O   UNL A   1      34.384  25.385  24.798  1.00  0.00    -0.269 OA
ATOM     17  C   UNL A   1      32.340  20.381  24.011  1.00  0.00     0.015 A 
ATOM     18  C   UNL A   1      34.250  21.817  24.459  1.00  0.00     0.009 A 
ATOM     19  C   UNL A   1      36.166  23.243  24.902  1.00  0.00     0.015 A 
ATOM     20  C   UNL A   1      33.113  19.253  24.275  1.00  0.00     0.015 A 
ATOM     21  C   UNL A   1      35.057  20.671  24.656  1.00  0.00     0.009 A 
ATOM     22  C   UNL A   1      36.981  22.117  25.028  1.00  0.00     0.015 A 
ATOM     23  C   UNL A   1      34.473  19.398  24.567  1.00  0.00     0.048 A 
ATOM     24  C   UNL A   1      36.424  20.839  24.913  1.00  0.00     0.048 A 
ATOM     25  C   UNL A   1      35.316  18.197  24.766  1.00  0.00     0.258 C 
ATOM     26  C   UNL A   1      37.289  19.642  25.028  1.00  0.00     0.258 C 
ATOM     27  N   UNL A   1      36.649  18.426  25.012  1.00  0.00    -0.288 N 
ATOM     28  O   UNL A   1      34.843  17.071  24.669  1.00  0.00    -0.269 OA
ATOM     29  O   UNL A   1      38.505  19.752  25.081  1.00  0.00    -0.269 OA
ATOM     30  H   UNL A   1      37.204  17.634  25.196  1.00  0.00     0.173 HD
ENDBRANCH   9  10
ENDBRANCH   8   9
ENDBRANCH   7   8
ENDBRANCH   5   7
ENDBRANCH   2   3
ENDBRANCH   1   2
BRANCH   1  31
ATOM     31  C   UNL A   1      32.244  30.176  26.670  1.00  0.00     0.118 C 
BRANCH  31  32
ATOM     32  N   UNL A   1      32.097  31.618  26.811  1.00  0.00    -0.352 N 
ATOM     33  C   UNL A   1      32.939  32.520  27.419  1.00  0.00     0.251 C 
ATOM     34  H   UNL A   1      31.281  32.000  26.417  1.00  0.00     0.163 HD
ATOM     35  O   UNL A   1      32.587  33.685  27.576  1.00  0.00    -0.269 OA
BRANCH  33  36
ATOM     36  C   UNL A   1      34.262  32.073  27.908  1.00  0.00     0.039 A 
ATOM     37  C   UNL A   1      35.321  32.984  27.929  1.00  0.00     0.014 A 
ATOM     38  C   UNL A   1      34.444  30.769  28.371  1.00  0.00     0.014 A 
ATOM     39  C   UNL A   1      36.544  32.611  28.496  1.00  0.00     0.010 A 
ATOM     40  C   UNL A   1      35.639  30.421  28.995  1.00  0.00     0.010 A 
ATOM     41  C   UNL A   1      36.697  31.341  29.073  1.00  0.00    -0.014 A 
BRANCH  41  42
ATOM     42  C   UNL A   1      37.934  30.950  29.798  1.00  0.00     0.031 A 
ATOM     43  C   UNL A   1      38.874  29.944  29.193  1.00  0.00     0.074 A 
ATOM     44  C   UNL A   1      38.141  31.397  31.054  1.00  0.00     0.049 A 
ATOM     45  N   UNL A   1      39.908  29.354  29.732  1.00  0.00    -0.248 NA
ATOM     46  C   UNL A   1      38.595  29.524  27.810  1.00  0.00     0.031 C 
ATOM     47  C   UNL A   1      37.269  32.323  31.778  1.00  0.00     0.029 A 
ATOM     48  N   UNL A   1      39.130  31.098  31.958  1.00  0.00    -0.354 N 
ATOM     49  C   UNL A   1      40.373  28.458  28.777  1.00  0.00     0.074 A 
ATOM     50  C   UNL A   1      39.497  28.569  27.632  1.00  0.00     0.031 C 
ATOM     51  C   UNL A   1      37.753  32.507  33.016  1.00  0.00     0.029 A 
ATOM     52  C   UNL A   1      38.949  31.689  33.189  1.00  0.00     0.049 A 
ATOM     53  H   UNL A   1      39.895  30.516  31.748  1.00  0.00     0.167 HD
ATOM     54  C   UNL A   1      41.448  27.636  28.839  1.00  0.00     0.034 A 
ATOM     55  C   UNL A   1      39.655  31.572  34.330  1.00  0.00     0.034 A 
ATOM     56  C   UNL A   1      42.353  27.574  29.953  1.00  0.00     0.049 A 
ATOM     57  C   UNL A   1      40.875  30.691  34.353  1.00  0.00     0.074 A 
ATOM     58  C   UNL A   1      43.518  26.836  30.074  1.00  0.00     0.029 A 
ATOM     59  N   UNL A   1      42.202  28.279  31.137  1.00  0.00    -0.354 N 
ATOM     60  N   UNL A   1      41.377  29.957  33.392  1.00  0.00    -0.248 NA
ATOM     61  C   UNL A   1      41.644  30.648  35.607  1.00  0.00     0.031 C 
ATOM     62  C   UNL A   1      44.067  27.090  31.335  1.00  0.00     0.029 A 
ATOM     63  C   UNL A   1      43.252  27.996  31.993  1.00  0.00     0.049 A 
ATOM     64  H   UNL A   1      41.458  28.891  31.339  1.00  0.00     0.167 HD
ATOM     65  C   UNL A   1      42.542  29.400  33.907  1.00  0.00     0.074 A 
ATOM     66  C   UNL A   1      42.677  29.888  35.263  1.00  0.00     0.031 C 
ATOM     67  C   UNL A   1      43.414  28.549  33.312  1.00  0.00     0.034 A 
BRANCH  54  68
ATOM     68  C   UNL A   1      41.741  26.775  27.640  1.00  0.00     0.023 A 
ATOM     69  C   UNL A   1      42.391  27.341  26.525  1.00  0.00     0.012 A 
ATOM     70  C   UNL A   1      41.437  25.400  27.640  1.00  0.00     0.148 A 
ATOM     71  C   UNL A   1      42.707  26.560  25.415  1.00  0.00     0.002 A 
ATOM     72  C   UNL A   1      41.794  24.618  26.547  1.00  0.00     0.091 A 
ATOM     73  F   UNL A   1      40.797  24.885  28.699  1.00  0.00    -0.205 F 
ATOM     74  C   UNL A   1      42.419  25.197  25.430  1.00  0.00     0.022 A 
BRANCH  72  75
ATOM     75  S   UNL A   1      41.538  22.839  26.510  1.00  0.00     0.127 S 
ATOM     76  O   UNL A   1      42.193  22.420  27.747  1.00  0.00    -0.237 OA
ATOM     77  O   UNL A   1      40.079  22.737  26.527  1.00  0.00    -0.237 OA
ATOM     78  O   UNL A   1      42.162  22.374  25.279  1.00  0.00    -0.744 OA
ENDBRANCH  72  75
ENDBRANCH  54  68
BRANCH  55  79
ATOM     79  C   UNL A   1      39.262  32.366  35.530  1.00  0.00     0.023 A 
ATOM     80  C   UNL A   1      38.444  31.771  36.509  1.00  0.00     0.012 A 
ATOM     81  C   UNL A   1      39.721  33.682  35.725  1.00  0.00     0.148 A 
ATOM     82  C   UNL A   1      38.068  32.481  37.650  1.00  0.00     0.002 A 
ATOM     83  C   UNL A   1      39.385  34.367  36.889  1.00  0.00     0.091 A 
ATOM     84  F   UNL A   1      40.486  34.237  34.774  1.00  0.00    -0.205 F 
ATOM     85  C   UNL A   1      38.547  33.773  37.844  1.00  0.00     0.022 A 
BRANCH  83  86
ATOM     86  S   UNL A   1      40.068  35.982  37.279  1.00  0.00     0.127 S 
ATOM     87  O   UNL A   1      41.482  35.670  37.472  1.00  0.00    -0.237 OA
ATOM     88  O   UNL A   1      39.764  36.743  36.067  1.00  0.00    -0.237 OA
ATOM     89  O   UNL A   1      39.347  36.433  38.463  1.00  0.00    -0.744 OA
ENDBRANCH  83  86
ENDBRANCH  55  79
BRANCH  67  90
ATOM     90  C   UNL A   1      44.627  28.121  34.094  1.00  0.00     0.023 A 
ATOM     91  C   UNL A   1      45.794  28.908  34.060  1.00  0.00     0.012 A 
ATOM     92  C   UNL A   1      44.570  26.996  34.941  1.00  0.00     0.148 A 
ATOM     93  C   UNL A   1      46.894  28.573  34.848  1.00  0.00     0.002 A 
ATOM     94  C   UNL A   1      45.654  26.693  35.756  1.00  0.00     0.091 A 
ATOM     95  F   UNL A   1      43.455  26.251  34.941  1.00  0.00    -0.205 F 
ATOM     96  C   UNL A   1      46.820  27.476  35.705  1.00  0.00     0.022 A 
BRANCH  94  97
ATOM     97  S   UNL A   1      45.612  25.357  36.955  1.00  0.00     0.127 S 
ATOM     98  O   UNL A   1      45.762  24.182  36.097  1.00  0.00    -0.237 OA
ATOM     99  O   UNL A   1      46.776  25.652  37.792  1.00  0.00    -0.237 OA
ATOM    100  O   UNL A   1      44.332  25.472  37.639  1.00  0.00    -0.744 OA
ENDBRANCH  94  97
ENDBRANCH  67  90
ENDBRANCH  41  42
ENDBRANCH  33  36
ENDBRANCH  31  32
ENDBRANCH   1  31
TORSDOF 16
ENDMDL
MODEL 2
REMARK VINA RESULT:     -12.9      4.766      8.647
REMARK SMILES O=C(CCCN1C(=O)c2ccc3c4c(ccc(c24)C1=O)C(=O)NC3=O)NCCCNC(=O)c1ccc(-c2c3nc(c(-c4cccc(S(=O)(=O)[O-])c4F)c4ccc([nH]4)c(-c4cccc(S(=O)(=O)[O-])c4F)c4nc(c(-c5cccc(S(=O)(=O)[O-])c5F)c5ccc2[nH]5)C=C4)C=C3)cc1
REMARK SMILES IDX 28 1 27 2 26 3 1 4 2 5 3 7 4 8 5 9 6 10 19 11 7 12 20 13
REMARK SMILES IDX 17 14 9 15 8 16 16 17 18 18 10 19 15 20 13 21 11 22 14 23
REMARK SMILES IDX 12 24 21 25 24 26 23 27 22 28 25 29 29 31 30 32 31 33 32 35
REMARK SMILES IDX 33 36 34 37 95 38 35 39 94 40 36 41 37 42 38 43 88 44 39 45
REMARK SMILES IDX 93 46 87 47 89 48 40 49 92 50 86 51 85 52 41 54 73 55 53 56
REMARK SMILES IDX 72 57 54 58 57 59 71 60 90 61 55 62 56 63 70 65 91 66 58 67
REMARK SMILES IDX 42 68 43 69 51 70 44 71 46 72 52 73 45 74 47 75 48 76 49 77
REMARK SMILES IDX 50 78 74 79 75 80 83 81 76 82 78 83 84 84 77 85 79 86 80 87
REMARK SMILES IDX 81 88 82 89 59 90 60 91 68 92 61 93 63 94 69 95 62 96 64 97
REMARK SMILES IDX 65 98 66 99 67 100
REMARK H PARENT 26 6 23 30 30 34 89 53 57 64
REMARK Flexibility Score: inf
ROOT
ATOM      1  C   UNL A   1      37.390  20.715  24.374  1.00  0.00     0.042 C 
ENDROOT
BRANCH   1   2
ATOM      2  C   UNL A   1      36.437  19.705  24.999  1.00  0.00     0.117 C 
BRANCH   2   3
ATOM      3  N   UNL A   1      35.175  20.303  25.380  1.00  0.00    -0.356 N 
ATOM      4  O   UNL A   1      33.857  18.783  24.267  1.00  0.00    -0.275 OA
ATOM      5  C   UNL A   1      33.972  19.787  24.960  1.00  0.00     0.220 C 
ATOM      6  H   UNL A   1      35.178  21.102  25.955  1.00  0.00     0.163 HD
BRANCH   5   7
ATOM      7  C   UNL A   1      32.782  20.567  25.460  1.00  0.00     0.102 C 
BRANCH   7   8
ATOM      8  C   UNL A   1      32.194  21.478  24.383  1.00  0.00     0.032 C 
BRANCH   8   9
ATOM      9  C   UNL A   1      33.084  22.625  23.887  1.00  0.00     0.130 C 
BRANCH   9  10
ATOM     10  N   UNL A   1      32.671  24.028  24.046  1.00  0.00    -0.274 N 
ATOM     11  C   UNL A   1      31.464  24.509  23.552  1.00  0.00     0.261 C 
ATOM     12  C   UNL A   1      33.485  24.783  24.906  1.00  0.00     0.261 C 
ATOM     13  O   UNL A   1      30.541  23.820  23.131  1.00  0.00    -0.269 OA
ATOM     14  C   UNL A   1      31.260  25.972  23.590  1.00  0.00     0.049 A 
ATOM     15  C   UNL A   1      33.074  26.180  25.191  1.00  0.00     0.049 A 
ATOM     16  O   UNL A   1      34.500  24.342  25.438  1.00  0.00    -0.269 OA
ATOM     17  C   UNL A   1      30.257  26.555  22.805  1.00  0.00     0.015 A 
ATOM     18  C   UNL A   1      32.016  26.742  24.473  1.00  0.00     0.009 A 
ATOM     19  C   UNL A   1      33.767  26.938  26.145  1.00  0.00     0.015 A 
ATOM     20  C   UNL A   1      29.977  27.913  22.932  1.00  0.00     0.015 A 
ATOM     21  C   UNL A   1      31.686  28.106  24.658  1.00  0.00     0.009 A 
ATOM     22  C   UNL A   1      33.399  28.263  26.382  1.00  0.00     0.015 A 
ATOM     23  C   UNL A   1      30.669  28.678  23.876  1.00  0.00     0.048 A 
ATOM     24  C   UNL A   1      32.368  28.843  25.634  1.00  0.00     0.048 A 
ATOM     25  C   UNL A   1      30.317  30.102  24.073  1.00  0.00     0.258 C 
ATOM     26  C   UNL A   1      31.963  30.243  25.896  1.00  0.00     0.258 C 
ATOM     27  N   UNL A   1      31.020  30.772  25.047  1.00  0.00    -0.288 N 
ATOM     28  O   UNL A   1      29.418  30.624  23.426  1.00  0.00    -0.269 OA
ATOM     29  O   UNL A   1      32.417  30.859  26.849  1.00  0.00    -0.269 OA
ATOM     30  H   UNL A   1      30.826  31.732  25.147  1.00  0.00     0.173 HD
ENDBRANCH   9  10
ENDBRANCH   8   9
ENDBRANCH   7   8
ENDBRANCH   5   7
ENDBRANCH   2   3
ENDBRANCH   1   2
BRANCH   1  31
ATOM     31  C   UNL A   1      38.294  21.433  25.372  1.00  0.00     0.118 C 
BRANCH  31  32
ATOM     32  N   UNL A   1      39.219  20.541  26.058  1.00  0.00    -0.352 N 
ATOM     33  C   UNL A   1      40.302  20.854  26.846  1.00  0.00     0.251 C 
ATOM     34  H   UNL A   1      39.043  19.580  25.942  1.00  0.00     0.163 HD
ATOM     35  O   UNL A   1      41.064  19.971  27.228  1.00  0.00    -0.269 OA
BRANCH  33  36
ATOM     36  C   UNL A   1      40.562  22.264  27.208  1.00  0.00     0.039 A 
ATOM     37  C   UNL A   1      41.474  22.547  28.228  1.00  0.00     0.014 A 
ATOM     38  C   UNL A   1      39.927  23.302  26.522  1.00  0.00     0.014 A 
ATOM     39  C   UNL A   1      41.817  23.874  28.503  1.00  0.00     0.010 A 
ATOM     40  C   UNL A   1      40.319  24.618  26.752  1.00  0.00     0.010 A 
ATOM     41  C   UNL A   1      41.275  24.917  27.736  1.00  0.00    -0.014 A 
BRANCH  41  42
ATOM     42  C   UNL A   1      41.708  26.329  27.909  1.00  0.00     0.031 A 
ATOM     43  C   UNL A   1      43.105  26.737  27.534  1.00  0.00     0.074 A 
ATOM     44  C   UNL A   1      40.890  27.206  28.525  1.00  0.00     0.049 A 
ATOM     45  N   UNL A   1      43.722  27.867  27.760  1.00  0.00    -0.248 NA
ATOM     46  C   UNL A   1      43.928  25.731  26.843  1.00  0.00     0.031 C 
ATOM     47  C   UNL A   1      39.535  26.915  28.997  1.00  0.00     0.029 A 
ATOM     48  N   UNL A   1      41.097  28.512  28.898  1.00  0.00    -0.354 N 
ATOM     49  C   UNL A   1      45.016  27.694  27.286  1.00  0.00     0.074 A 
ATOM     50  C   UNL A   1      45.102  26.342  26.776  1.00  0.00     0.031 C 
ATOM     51  C   UNL A   1      39.037  28.002  29.606  1.00  0.00     0.029 A 
ATOM     52  C   UNL A   1      40.045  29.058  29.599  1.00  0.00     0.049 A 
ATOM     53  H   UNL A   1      41.918  29.010  28.685  1.00  0.00     0.167 HD
ATOM     54  C   UNL A   1      46.034  28.587  27.254  1.00  0.00     0.034 A 
ATOM     55  C   UNL A   1      39.914  30.264  30.186  1.00  0.00     0.034 A 
ATOM     56  C   UNL A   1      45.928  29.948  27.703  1.00  0.00     0.049 A 
ATOM     57  C   UNL A   1      41.042  31.255  30.088  1.00  0.00     0.074 A 
ATOM     58  C   UNL A   1      46.876  30.953  27.632  1.00  0.00     0.029 A 
ATOM     59  N   UNL A   1      44.805  30.500  28.299  1.00  0.00    -0.354 N 
ATOM     60  N   UNL A   1      42.211  31.117  29.512  1.00  0.00    -0.248 NA
ATOM     61  C   UNL A   1      40.823  32.578  30.692  1.00  0.00     0.031 C 
ATOM     62  C   UNL A   1      46.329  32.111  28.193  1.00  0.00     0.029 A 
ATOM     63  C   UNL A   1      45.035  31.830  28.600  1.00  0.00     0.049 A 
ATOM     64  H   UNL A   1      43.967  30.016  28.482  1.00  0.00     0.167 HD
ATOM     65  C   UNL A   1      42.848  32.345  29.644  1.00  0.00     0.074 A 
ATOM     66  C   UNL A   1      41.933  33.219  30.349  1.00  0.00     0.031 C 
ATOM     67  C   UNL A   1      44.086  32.710  29.232  1.00  0.00     0.034 A 
BRANCH  54  68
ATOM     68  C   UNL A   1      47.342  28.138  26.659  1.00  0.00     0.023 A 
ATOM     69  C   UNL A   1      48.425  27.844  27.511  1.00  0.00     0.012 A 
ATOM     70  C   UNL A   1      47.480  27.944  25.271  1.00  0.00     0.148 A 
ATOM     71  C   UNL A   1      49.636  27.392  26.991  1.00  0.00     0.002 A 
ATOM     72  C   UNL A   1      48.678  27.452  24.763  1.00  0.00     0.091 A 
ATOM     73  F   UNL A   1      46.448  28.252  24.474  1.00  0.00    -0.205 F 
ATOM     74  C   UNL A   1      49.759  27.186  25.619  1.00  0.00     0.022 A 
BRANCH  72  75
ATOM     75  S   UNL A   1      48.904  27.078  23.020  1.00  0.00     0.127 S 
ATOM     76  O   UNL A   1      48.233  28.212  22.385  1.00  0.00    -0.237 OA
ATOM     77  O   UNL A   1      50.361  27.080  22.889  1.00  0.00    -0.237 OA
ATOM     78  O   UNL A   1      48.279  25.779  22.808  1.00  0.00    -0.744 OA
ENDBRANCH  72  75
ENDBRANCH  54  68
BRANCH  55  79
ATOM     79  C   UNL A   1      38.634  30.626  30.859  1.00  0.00     0.023 A 
ATOM     80  C   UNL A   1      38.481  30.357  32.232  1.00  0.00     0.012 A 
ATOM     81  C   UNL A   1      37.590  31.265  30.163  1.00  0.00     0.148 A 
ATOM     82  C   UNL A   1      37.301  30.694  32.897  1.00  0.00     0.002 A 
ATOM     83  C   UNL A   1      36.437  31.645  30.842  1.00  0.00     0.091 A 
ATOM     84  F   UNL A   1      37.748  31.498  28.852  1.00  0.00    -0.205 F 
ATOM     85  C   UNL A   1      36.285  31.347  32.205  1.00  0.00     0.022 A 
BRANCH  83  86
ATOM     86  S   UNL A   1      35.139  32.608  30.058  1.00  0.00     0.127 S 
ATOM     87  O   UNL A   1      34.158  32.721  31.134  1.00  0.00    -0.237 OA
ATOM     88  O   UNL A   1      35.838  33.850  29.727  1.00  0.00    -0.237 OA
ATOM     89  O   UNL A   1      34.726  31.830  28.897  1.00  0.00    -0.744 OA
ENDBRANCH  83  86
ENDBRANCH  55  79
BRANCH  67  90
ATOM     90  C   UNL A   1      44.522  34.130  29.477  1.00  0.00     0.023 A 
ATOM     91  C   UNL A   1      45.233  34.451  30.649  1.00  0.00     0.012 A 
ATOM     92  C   UNL A   1      44.319  35.119  28.494  1.00  0.00     0.148 A 
ATOM     93  C   UNL A   1      45.722  35.741  30.848  1.00  0.00     0.002 A 
ATOM     94  C   UNL A   1      44.845  36.392  28.679  1.00  0.00     0.091 A 
ATOM     95  F   UNL A   1      43.622  34.795  27.395  1.00  0.00    -0.205 F 
ATOM     96  C   UNL A   1      45.541  36.707  29.859  1.00  0.00     0.022 A 
BRANCH  94  97
ATOM     97  S   UNL A   1      44.741  37.669  27.421  1.00  0.00     0.127 S 
ATOM     98  O   UNL A   1      45.050  38.872  28.192  1.00  0.00    -0.237 OA
ATOM     99  O   UNL A   1      45.785  37.264  26.478  1.00  0.00    -0.237 OA
ATOM    100  O   UNL A   1      43.387  37.598  26.889  1.00  0.00    -0.744 OA
ENDBRANCH  94  97
ENDBRANCH  67  90
ENDBRANCH  41  42
ENDBRANCH  33  36
ENDBRANCH  31  32
ENDBRANCH   1  31
TORSDOF 16
ENDMDL
MODEL 3
REMARK VINA RESULT:     -12.9      5.304     10.570
REMARK SMILES O=C(CCCN1C(=O)c2ccc3c4c(ccc(c24)C1=O)C(=O)NC3=O)NCCCNC(=O)c1ccc(-c2c3nc(c(-c4cccc(S(=O)(=O)[O-])c4F)c4ccc([nH]4)c(-c4cccc(S(=O)(=O)[O-])c4F)c4nc(c(-c5cccc(S(=O)(=O)[O-])c5F)c5ccc2[nH]5)C=C4)C=C3)cc1
REMARK SMILES IDX 28 1 27 2 26 3 1 4 2 5 3 7 4 8 5 9 6 10 19 11 7 12 20 13
REMARK SMILES IDX 17 14 9 15 8 16 16 17 18 18 10 19 15 20 13 21 11 22 14 23
REMARK SMILES IDX 12 24 21 25 24 26 23 27 22 28 25 29 29 31 30 32 31 33 32 35
REMARK SMILES IDX 33 36 34 37 95 38 35 39 94 40 36 41 37 42 38 43 88 44 39 45
REMARK SMILES IDX 93 46 87 47 89 48 40 49 92 50 86 51 85 52 41 54 73 55 53 56
REMARK SMILES IDX 72 57 54 58 57 59 71 60 90 61 55 62 56 63 70 65 91 66 58 67
REMARK SMILES IDX 42 68 43 69 51 70 44 71 46 72 52 73 45 74 47 75 48 76 49 77
REMARK SMILES IDX 50 78 74 79 75 80 83 81 76 82 78 83 84 84 77 85 79 86 80 87
REMARK SMILES IDX 81 88 82 89 59 90 60 91 68 92 61 93 63 94 69 95 62 96 64 97
REMARK SMILES IDX 65 98 66 99 67 100
REMARK H PARENT 26 6 23 30 30 34 89 53 57 64
REMARK Flexibility Score: inf
ROOT
ATOM      1  C   UNL A   1      37.478  20.768  24.699  1.00  0.00     0.042 C 
ENDROOT
BRANCH   1   2
ATOM      2  C   UNL A   1      36.733  19.461  24.933  1.00  0.00     0.117 C 
BRANCH   2   3
ATOM      3  N   UNL A   1      35.301  19.653  25.029  1.00  0.00    -0.356 N 
ATOM      4  O   UNL A   1      34.737  17.606  24.148  1.00  0.00    -0.275 OA
ATOM      5  C   UNL A   1      34.411  18.696  24.606  1.00  0.00     0.220 C 
ATOM      6  H   UNL A   1      34.956  20.494  25.407  1.00  0.00     0.163 HD
BRANCH   5   7
ATOM      7  C   UNL A   1      32.969  19.102  24.784  1.00  0.00     0.102 C 
BRANCH   7   8
ATOM      8  C   UNL A   1      32.814  20.271  25.755  1.00  0.00     0.032 C 
BRANCH   8   9
ATOM      9  C   UNL A   1      31.681  21.264  25.465  1.00  0.00     0.130 C 
BRANCH   9  10
ATOM     10  N   UNL A   1      31.965  22.683  25.201  1.00  0.00    -0.274 N 
ATOM     11  C   UNL A   1      32.066  23.623  26.219  1.00  0.00     0.261 C 
ATOM     12  C   UNL A   1      32.327  22.970  23.874  1.00  0.00     0.261 C 
ATOM     13  O   UNL A   1      32.141  23.372  27.417  1.00  0.00    -0.269 OA
ATOM     14  C   UNL A   1      32.146  25.043  25.815  1.00  0.00     0.049 A 
ATOM     15  C   UNL A   1      32.723  24.364  23.556  1.00  0.00     0.049 A 
ATOM     16  O   UNL A   1      32.347  22.128  22.981  1.00  0.00    -0.269 OA
ATOM     17  C   UNL A   1      31.892  26.049  26.756  1.00  0.00     0.015 A 
ATOM     18  C   UNL A   1      32.554  25.360  24.520  1.00  0.00     0.009 A 
ATOM     19  C   UNL A   1      33.224  24.682  22.286  1.00  0.00     0.015 A 
ATOM     20  C   UNL A   1      32.087  27.385  26.414  1.00  0.00     0.015 A 
ATOM     21  C   UNL A   1      32.825  26.711  24.192  1.00  0.00     0.009 A 
ATOM     22  C   UNL A   1      33.560  26.002  21.980  1.00  0.00     0.015 A 
ATOM     23  C   UNL A   1      32.581  27.710  25.147  1.00  0.00     0.048 A 
ATOM     24  C   UNL A   1      33.352  27.010  22.929  1.00  0.00     0.048 A 
ATOM     25  C   UNL A   1      32.870  29.122  24.809  1.00  0.00     0.258 C 
ATOM     26  C   UNL A   1      33.723  28.408  22.615  1.00  0.00     0.258 C 
ATOM     27  N   UNL A   1      33.388  29.353  23.556  1.00  0.00    -0.288 N 
ATOM     28  O   UNL A   1      32.693  30.016  25.627  1.00  0.00    -0.269 OA
ATOM     29  O   UNL A   1      34.339  28.678  21.594  1.00  0.00    -0.269 OA
ATOM     30  H   UNL A   1      33.533  30.294  23.307  1.00  0.00     0.173 HD
ENDBRANCH   9  10
ENDBRANCH   8   9
ENDBRANCH   7   8
ENDBRANCH   5   7
ENDBRANCH   2   3
ENDBRANCH   1   2
BRANCH   1  31
ATOM     31  C   UNL A   1      38.639  21.016  25.657  1.00  0.00     0.118 C 
BRANCH  31  32
ATOM     32  N   UNL A   1      39.535  19.874  25.785  1.00  0.00    -0.352 N 
ATOM     33  C   UNL A   1      40.882  19.856  26.060  1.00  0.00     0.251 C 
ATOM     34  H   UNL A   1      39.116  18.993  25.656  1.00  0.00     0.163 HD
ATOM     35  O   UNL A   1      41.514  18.807  25.986  1.00  0.00    -0.269 OA
BRANCH  33  36
ATOM     36  C   UNL A   1      41.573  21.113  26.420  1.00  0.00     0.039 A 
ATOM     37  C   UNL A   1      41.946  21.998  25.405  1.00  0.00     0.014 A 
ATOM     38  C   UNL A   1      41.825  21.428  27.757  1.00  0.00     0.014 A 
ATOM     39  C   UNL A   1      42.495  23.240  25.736  1.00  0.00     0.010 A 
ATOM     40  C   UNL A   1      42.309  22.691  28.087  1.00  0.00     0.010 A 
ATOM     41  C   UNL A   1      42.639  23.613  27.081  1.00  0.00    -0.014 A 
BRANCH  41  42
ATOM     42  C   UNL A   1      43.097  24.971  27.477  1.00  0.00     0.031 A 
ATOM     43  C   UNL A   1      42.125  25.945  28.086  1.00  0.00     0.074 A 
ATOM     44  C   UNL A   1      44.347  25.371  27.166  1.00  0.00     0.049 A 
ATOM     45  N   UNL A   1      42.284  27.216  28.342  1.00  0.00    -0.248 NA
ATOM     46  C   UNL A   1      40.788  25.427  28.419  1.00  0.00     0.031 C 
ATOM     47  C   UNL A   1      45.363  24.543  26.514  1.00  0.00     0.029 A 
ATOM     48  N   UNL A   1      44.961  26.589  27.319  1.00  0.00    -0.354 N 
ATOM     49  C   UNL A   1      41.059  27.663  28.820  1.00  0.00     0.074 A 
ATOM     50  C   UNL A   1      40.159  26.530  28.799  1.00  0.00     0.031 C 
ATOM     51  C   UNL A   1      46.467  25.278  26.312  1.00  0.00     0.029 A 
ATOM     52  C   UNL A   1      46.231  26.637  26.788  1.00  0.00     0.049 A 
ATOM     53  H   UNL A   1      44.535  27.356  27.765  1.00  0.00     0.167 HD
ATOM     54  C   UNL A   1      40.720  28.898  29.259  1.00  0.00     0.034 A 
ATOM     55  C   UNL A   1      47.098  27.663  26.680  1.00  0.00     0.034 A 
ATOM     56  C   UNL A   1      41.632  30.005  29.339  1.00  0.00     0.049 A 
ATOM     57  C   UNL A   1      46.713  29.011  27.226  1.00  0.00     0.074 A 
ATOM     58  C   UNL A   1      41.406  31.271  29.850  1.00  0.00     0.029 A 
ATOM     59  N   UNL A   1      42.947  29.981  28.901  1.00  0.00    -0.354 N 
ATOM     60  N   UNL A   1      45.595  29.377  27.801  1.00  0.00    -0.248 NA
ATOM     61  C   UNL A   1      47.721  30.080  27.138  1.00  0.00     0.031 C 
ATOM     62  C   UNL A   1      42.583  32.014  29.715  1.00  0.00     0.029 A 
ATOM     63  C   UNL A   1      43.545  31.207  29.133  1.00  0.00     0.049 A 
ATOM     64  H   UNL A   1      43.390  29.205  28.488  1.00  0.00     0.167 HD
ATOM     65  C   UNL A   1      45.777  30.701  28.183  1.00  0.00     0.074 A 
ATOM     66  C   UNL A   1      47.118  31.072  27.781  1.00  0.00     0.031 C 
ATOM     67  C   UNL A   1      44.906  31.538  28.797  1.00  0.00     0.034 A 
BRANCH  54  68
ATOM     68  C   UNL A   1      39.311  29.105  29.748  1.00  0.00     0.023 A 
ATOM     69  C   UNL A   1      38.994  28.807  31.088  1.00  0.00     0.012 A 
ATOM     70  C   UNL A   1      38.324  29.655  28.908  1.00  0.00     0.148 A 
ATOM     71  C   UNL A   1      37.707  29.023  31.578  1.00  0.00     0.002 A 
ATOM     72  C   UNL A   1      37.054  29.908  29.415  1.00  0.00     0.091 A 
ATOM     73  F   UNL A   1      38.638  29.910  27.630  1.00  0.00    -0.205 F 
ATOM     74  C   UNL A   1      36.741  29.582  30.746  1.00  0.00     0.022 A 
BRANCH  72  75
ATOM     75  S   UNL A   1      35.768  30.701  28.443  1.00  0.00     0.127 S 
ATOM     76  O   UNL A   1      34.861  31.177  29.486  1.00  0.00    -0.237 OA
ATOM     77  O   UNL A   1      36.508  31.756  27.752  1.00  0.00    -0.237 OA
ATOM     78  O   UNL A   1      35.234  29.665  27.570  1.00  0.00    -0.744 OA
ENDBRANCH  72  75
ENDBRANCH  54  68
BRANCH  55  79
ATOM     79  C   UNL A   1      48.448  27.433  26.090  1.00  0.00     0.023 A 
ATOM     80  C   UNL A   1      49.498  27.007  26.924  1.00  0.00     0.012 A 
ATOM     81  C   UNL A   1      48.686  27.595  24.712  1.00  0.00     0.148 A 
ATOM     82  C   UNL A   1      50.771  26.770  26.402  1.00  0.00     0.002 A 
ATOM     83  C   UNL A   1      49.943  27.308  24.189  1.00  0.00     0.091 A 
ATOM     84  F   UNL A   1      47.678  28.018  23.936  1.00  0.00    -0.205 F 
ATOM     85  C   UNL A   1      50.990  26.910  25.035  1.00  0.00     0.022 A 
BRANCH  83  86
ATOM     86  S   UNL A   1      50.273  27.334  22.423  1.00  0.00     0.127 S 
ATOM     87  O   UNL A   1      49.197  26.494  21.906  1.00  0.00    -0.237 OA
ATOM     88  O   UNL A   1      50.150  28.758  22.110  1.00  0.00    -0.237 OA
ATOM     89  O   UNL A   1      51.623  26.806  22.273  1.00  0.00    -0.744 OA
ENDBRANCH  83  86
ENDBRANCH  55  79
BRANCH  67  90
ATOM     90  C   UNL A   1      45.377  32.928  29.130  1.00  0.00     0.023 A 
ATOM     91  C   UNL A   1      46.071  33.162  30.332  1.00  0.00     0.012 A 
ATOM     92  C   UNL A   1      45.223  33.976  28.201  1.00  0.00     0.148 A 
ATOM     93  C   UNL A   1      46.592  34.425  30.613  1.00  0.00     0.002 A 
ATOM     94  C   UNL A   1      45.781  35.220  28.467  1.00  0.00     0.091 A 
ATOM     95  F   UNL A   1      44.541  33.734  27.071  1.00  0.00    -0.205 F 
ATOM     96  C   UNL A   1      46.460  35.449  29.677  1.00  0.00     0.022 A 
BRANCH  94  97
ATOM     97  S   UNL A   1      45.740  36.568  27.280  1.00  0.00     0.127 S 
ATOM     98  O   UNL A   1      46.347  35.946  26.104  1.00  0.00    -0.237 OA
ATOM     99  O   UNL A   1      44.306  36.832  27.158  1.00  0.00    -0.237 OA
ATOM    100  O   UNL A   1      46.506  37.652  27.879  1.00  0.00    -0.744 OA
ENDBRANCH  94  97
ENDBRANCH  67  90
ENDBRANCH  41  42
ENDBRANCH  33  36
ENDBRANCH  31  32
ENDBRANCH   1  31
TORSDOF 16
ENDMDL
