MODEL 1
REMARK VINA RESULT:     -11.8      0.000      0.000
REMARK SMILES O=C(NCCCNC(=O)c1cnc2c(ccn2C2CCCCC2)c1)c1ccc(-c2c3nc(c(-c4cccc(S(=O)(=O)[O-])c4F)c4ccc([nH]4)c(-c4cccc(S(=O)(=O)[O-])c4F)c4nc(c(-c5cccc(S(=O)(=O)[O-])c5F)c5ccc2[nH]5)C=C4)C=C3)cc1
REMARK SMILES IDX 4 1 3 2 1 3 2 4 25 6 26 7 87 8 27 9 86 10 28 11 29 12 30 13
REMARK SMILES IDX 80 14 31 15 85 16 79 17 81 18 32 19 84 20 78 21 77 22 33 24
REMARK SMILES IDX 65 25 45 26 64 27 46 28 49 29 63 30 82 31 47 32 48 33 62 35
REMARK SMILES IDX 83 36 50 37 34 38 35 39 43 40 36 41 38 42 44 43 37 44 39 45
REMARK SMILES IDX 40 46 41 47 42 48 66 49 67 50 75 51 68 52 70 53 76 54 69 55
REMARK SMILES IDX 71 56 72 57 73 58 74 59 51 60 52 61 60 62 53 63 55 64 61 65
REMARK SMILES IDX 54 66 56 67 57 68 58 69 59 70 5 71 6 72 7 73 8 74 9 76 10 77
REMARK SMILES IDX 11 78 24 79 12 80 14 81 13 82 15 83 17 84 16 85 18 86 19 87
REMARK SMILES IDX 23 88 20 89 22 90 21 91
REMARK H PARENT 3 5 81 23 49 34 7 75
REMARK Flexibility Score: inf
ROOT
ATOM      1  C   UNL A   1      41.401  20.497  26.644  1.00  0.00     0.118 C 
ENDROOT
BRANCH   1   2
ATOM      2  N   UNL A   1      39.990  20.808  26.505  1.00  0.00    -0.352 N 
ATOM      3  O   UNL A   1      38.090  21.877  26.116  1.00  0.00    -0.269 OA
ATOM      4  C   UNL A   1      39.267  21.973  26.473  1.00  0.00     0.251 C 
ATOM      5  H   UNL A   1      39.428  20.005  26.411  1.00  0.00     0.163 HD
BRANCH   4   6
ATOM      6  C   UNL A   1      39.779  23.292  26.928  1.00  0.00     0.039 A 
ATOM      7  C   UNL A   1      40.883  23.473  27.760  1.00  0.00     0.014 A 
ATOM      8  C   UNL A   1      39.049  24.424  26.515  1.00  0.00     0.014 A 
ATOM      9  C   UNL A   1      41.163  24.726  28.283  1.00  0.00     0.010 A 
ATOM     10  C   UNL A   1      39.348  25.689  27.009  1.00  0.00     0.010 A 
ATOM     11  C   UNL A   1      40.379  25.827  27.931  1.00  0.00    -0.014 A 
BRANCH  11  12
ATOM     12  C   UNL A   1      40.785  27.119  28.465  1.00  0.00     0.031 A 
ATOM     13  C   UNL A   1      42.115  27.589  27.992  1.00  0.00     0.074 A 
ATOM     14  C   UNL A   1      40.029  27.880  29.278  1.00  0.00     0.049 A 
ATOM     15  N   UNL A   1      43.207  27.705  28.677  1.00  0.00    -0.248 NA
ATOM     16  C   UNL A   1      42.272  27.839  26.553  1.00  0.00     0.031 C 
ATOM     17  C   UNL A   1      38.613  27.722  29.613  1.00  0.00     0.029 A 
ATOM     18  N   UNL A   1      40.370  29.043  29.900  1.00  0.00    -0.354 N 
ATOM     19  C   UNL A   1      44.138  28.255  27.800  1.00  0.00     0.074 A 
ATOM     20  C   UNL A   1      43.561  28.173  26.482  1.00  0.00     0.031 C 
ATOM     21  C   UNL A   1      38.165  28.866  30.180  1.00  0.00     0.029 A 
ATOM     22  C   UNL A   1      39.285  29.771  30.374  1.00  0.00     0.049 A 
ATOM     23  H   UNL A   1      41.303  29.342  30.004  1.00  0.00     0.167 HD
ATOM     24  C   UNL A   1      45.227  28.946  28.234  1.00  0.00     0.034 A 
ATOM     25  C   UNL A   1      39.319  31.052  30.814  1.00  0.00     0.034 A 
ATOM     26  C   UNL A   1      45.515  28.707  29.619  1.00  0.00     0.049 A 
ATOM     27  C   UNL A   1      40.718  31.334  31.214  1.00  0.00     0.074 A 
ATOM     28  C   UNL A   1      45.826  27.600  30.384  1.00  0.00     0.029 A 
ATOM     29  N   UNL A   1      45.165  29.691  30.509  1.00  0.00    -0.354 N 
ATOM     30  N   UNL A   1      41.318  30.765  32.222  1.00  0.00    -0.248 NA
ATOM     31  C   UNL A   1      41.588  32.005  30.263  1.00  0.00     0.031 C 
ATOM     32  C   UNL A   1      45.187  27.830  31.637  1.00  0.00     0.029 A 
ATOM     33  C   UNL A   1      44.556  29.073  31.568  1.00  0.00     0.049 A 
ATOM     34  H   UNL A   1      45.320  30.657  30.405  1.00  0.00     0.167 HD
ATOM     35  C   UNL A   1      42.638  30.638  31.815  1.00  0.00     0.074 A 
ATOM     36  C   UNL A   1      42.768  31.522  30.662  1.00  0.00     0.031 C 
ATOM     37  C   UNL A   1      43.422  29.621  32.277  1.00  0.00     0.034 A 
BRANCH  24  38
ATOM     38  C   UNL A   1      45.827  30.112  27.493  1.00  0.00     0.023 A 
ATOM     39  C   UNL A   1      47.228  30.281  27.536  1.00  0.00     0.012 A 
ATOM     40  C   UNL A   1      45.062  31.189  26.992  1.00  0.00     0.148 A 
ATOM     41  C   UNL A   1      47.833  31.471  27.114  1.00  0.00     0.002 A 
ATOM     42  C   UNL A   1      45.672  32.334  26.498  1.00  0.00     0.091 A 
ATOM     43  F   UNL A   1      43.730  31.172  27.118  1.00  0.00    -0.205 F 
ATOM     44  C   UNL A   1      47.057  32.492  26.579  1.00  0.00     0.022 A 
BRANCH  42  45
ATOM     45  S   UNL A   1      44.705  33.653  25.756  1.00  0.00     0.127 S 
ATOM     46  O   UNL A   1      43.778  32.897  24.918  1.00  0.00    -0.237 OA
ATOM     47  O   UNL A   1      44.105  34.285  26.931  1.00  0.00    -0.237 OA
ATOM     48  O   UNL A   1      45.675  34.489  25.062  1.00  0.00    -0.744 OA
ENDBRANCH  42  45
ENDBRANCH  24  38
BRANCH  25  49
ATOM     49  C   UNL A   1      38.320  32.141  30.677  1.00  0.00     0.023 A 
ATOM     50  C   UNL A   1      37.742  32.383  29.413  1.00  0.00     0.012 A 
ATOM     51  C   UNL A   1      37.708  32.729  31.806  1.00  0.00     0.148 A 
ATOM     52  C   UNL A   1      36.562  33.125  29.283  1.00  0.00     0.002 A 
ATOM     53  C   UNL A   1      36.542  33.480  31.670  1.00  0.00     0.091 A 
ATOM     54  F   UNL A   1      38.203  32.474  33.023  1.00  0.00    -0.205 F 
ATOM     55  C   UNL A   1      35.955  33.663  30.412  1.00  0.00     0.022 A 
BRANCH  53  56
ATOM     56  S   UNL A   1      35.705  34.202  33.088  1.00  0.00     0.127 S 
ATOM     57  O   UNL A   1      35.258  33.016  33.819  1.00  0.00    -0.237 OA
ATOM     58  O   UNL A   1      36.778  34.950  33.730  1.00  0.00    -0.237 OA
ATOM     59  O   UNL A   1      34.615  35.001  32.532  1.00  0.00    -0.744 OA
ENDBRANCH  53  56
ENDBRANCH  25  49
BRANCH  37  60
ATOM     60  C   UNL A   1      42.920  28.808  33.440  1.00  0.00     0.023 A 
ATOM     61  C   UNL A   1      41.915  27.831  33.284  1.00  0.00     0.012 A 
ATOM     62  C   UNL A   1      43.617  28.886  34.657  1.00  0.00     0.148 A 
ATOM     63  C   UNL A   1      41.608  26.952  34.326  1.00  0.00     0.002 A 
ATOM     64  C   UNL A   1      43.335  27.985  35.676  1.00  0.00     0.091 A 
ATOM     65  F   UNL A   1      44.580  29.813  34.775  1.00  0.00    -0.205 F 
ATOM     66  C   UNL A   1      42.328  27.019  35.517  1.00  0.00     0.022 A 
BRANCH  64  67
ATOM     67  S   UNL A   1      44.300  27.931  37.189  1.00  0.00     0.127 S 
ATOM     68  O   UNL A   1      45.641  27.642  36.687  1.00  0.00    -0.237 OA
ATOM     69  O   UNL A   1      44.122  29.285  37.715  1.00  0.00    -0.237 OA
ATOM     70  O   UNL A   1      43.706  26.885  38.014  1.00  0.00    -0.744 OA
ENDBRANCH  64  67
ENDBRANCH  37  60
ENDBRANCH  11  12
ENDBRANCH   4   6
ENDBRANCH   1   2
BRANCH   1  71
ATOM     71  C   UNL A   1      41.826  19.106  26.174  1.00  0.00     0.042 C 
BRANCH  71  72
ATOM     72  C   UNL A   1      43.311  18.797  26.342  1.00  0.00     0.118 C 
BRANCH  72  73
ATOM     73  N   UNL A   1      43.963  18.483  25.077  1.00  0.00    -0.352 N 
ATOM     74  C   UNL A   1      44.620  19.281  24.176  1.00  0.00     0.252 C 
ATOM     75  H   UNL A   1      43.925  17.532  24.825  1.00  0.00     0.163 HD
ATOM     76  O   UNL A   1      44.910  18.830  23.074  1.00  0.00    -0.269 OA
BRANCH  74  77
ATOM     77  C   UNL A   1      44.999  20.666  24.506  1.00  0.00     0.058 A 
ATOM     78  C   UNL A   1      46.330  21.039  24.626  1.00  0.00     0.127 A 
ATOM     79  C   UNL A   1      44.010  21.651  24.583  1.00  0.00     0.027 A 
ATOM     80  N   UNL A   1      46.776  22.285  24.898  1.00  0.00    -0.238 NA
ATOM     81  C   UNL A   1      44.424  22.969  24.847  1.00  0.00     0.020 A 
ATOM     82  C   UNL A   1      45.788  23.197  25.006  1.00  0.00     0.140 A 
ATOM     83  C   UNL A   1      43.774  24.223  25.001  1.00  0.00     0.030 A 
ATOM     84  N   UNL A   1      45.964  24.530  25.297  1.00  0.00    -0.329 N 
ATOM     85  C   UNL A   1      44.743  25.165  25.275  1.00  0.00     0.088 A 
BRANCH  84  86
ATOM     86  C   UNL A   1      47.239  25.175  25.610  1.00  0.00     0.088 C 
ATOM     87  C   UNL A   1      47.908  25.751  24.350  1.00  0.00     0.025 C 
ATOM     88  C   UNL A   1      47.106  26.211  26.739  1.00  0.00     0.025 C 
ATOM     89  C   UNL A   1      49.210  26.479  24.672  1.00  0.00     0.002 C 
ATOM     90  C   UNL A   1      48.421  26.932  27.017  1.00  0.00     0.002 C 
ATOM     91  C   UNL A   1      49.002  27.541  25.747  1.00  0.00     0.000 C 
ENDBRANCH  84  86
ENDBRANCH  74  77
ENDBRANCH  72  73
ENDBRANCH  71  72
ENDBRANCH   1  71
TORSDOF 14
ENDMDL
MODEL 2
REMARK VINA RESULT:     -11.6      4.728     11.033
REMARK SMILES O=C(NCCCNC(=O)c1cnc2c(ccn2C2CCCCC2)c1)c1ccc(-c2c3nc(c(-c4cccc(S(=O)(=O)[O-])c4F)c4ccc([nH]4)c(-c4cccc(S(=O)(=O)[O-])c4F)c4nc(c(-c5cccc(S(=O)(=O)[O-])c5F)c5ccc2[nH]5)C=C4)C=C3)cc1
REMARK SMILES IDX 4 1 3 2 1 3 2 4 25 6 26 7 87 8 27 9 86 10 28 11 29 12 30 13
REMARK SMILES IDX 80 14 31 15 85 16 79 17 81 18 32 19 84 20 78 21 77 22 33 24
REMARK SMILES IDX 65 25 45 26 64 27 46 28 49 29 63 30 82 31 47 32 48 33 62 35
REMARK SMILES IDX 83 36 50 37 34 38 35 39 43 40 36 41 38 42 44 43 37 44 39 45
REMARK SMILES IDX 40 46 41 47 42 48 66 49 67 50 75 51 68 52 70 53 76 54 69 55
REMARK SMILES IDX 71 56 72 57 73 58 74 59 51 60 52 61 60 62 53 63 55 64 61 65
REMARK SMILES IDX 54 66 56 67 57 68 58 69 59 70 5 71 6 72 7 73 8 74 9 76 10 77
REMARK SMILES IDX 11 78 24 79 12 80 14 81 13 82 15 83 17 84 16 85 18 86 19 87
REMARK SMILES IDX 23 88 20 89 22 90 21 91
REMARK H PARENT 3 5 81 23 49 34 7 75
REMARK Flexibility Score: inf
ROOT
ATOM      1  C   UNL A   1      34.102  31.163  27.541  1.00  0.00     0.118 C 
ENDROOT
BRANCH   1   2
ATOM      2  N   UNL A   1      34.124  31.872  28.807  1.00  0.00    -0.352 N 
ATOM      3  O   UNL A   1      34.814  32.957  30.609  1.00  0.00    -0.269 OA
ATOM      4  C   UNL A   1      35.092  32.123  29.745  1.00  0.00     0.251 C 
ATOM      5  H   UNL A   1      33.250  32.259  29.045  1.00  0.00     0.163 HD
BRANCH   4   6
ATOM      6  C   UNL A   1      36.384  31.394  29.833  1.00  0.00     0.039 A 
ATOM      7  C   UNL A   1      37.640  31.977  29.675  1.00  0.00     0.014 A 
ATOM      8  C   UNL A   1      36.305  30.003  30.042  1.00  0.00     0.014 A 
ATOM      9  C   UNL A   1      38.772  31.182  29.581  1.00  0.00     0.010 A 
ATOM     10  C   UNL A   1      37.442  29.203  29.985  1.00  0.00     0.010 A 
ATOM     11  C   UNL A   1      38.669  29.794  29.707  1.00  0.00    -0.014 A 
BRANCH  11  12
ATOM     12  C   UNL A   1      39.912  29.039  29.672  1.00  0.00     0.031 A 
ATOM     13  C   UNL A   1      40.563  28.862  30.999  1.00  0.00     0.074 A 
ATOM     14  C   UNL A   1      40.437  28.485  28.563  1.00  0.00     0.049 A 
ATOM     15  N   UNL A   1      41.667  29.390  31.420  1.00  0.00    -0.248 NA
ATOM     16  C   UNL A   1      39.825  28.104  32.018  1.00  0.00     0.031 C 
ATOM     17  C   UNL A   1      39.811  28.311  27.252  1.00  0.00     0.029 A 
ATOM     18  N   UNL A   1      41.637  27.855  28.424  1.00  0.00    -0.354 N 
ATOM     19  C   UNL A   1      41.874  28.852  32.688  1.00  0.00     0.074 A 
ATOM     20  C   UNL A   1      40.647  28.197  33.063  1.00  0.00     0.031 C 
ATOM     21  C   UNL A   1      40.539  27.426  26.532  1.00  0.00     0.029 A 
ATOM     22  C   UNL A   1      41.742  27.086  27.271  1.00  0.00     0.049 A 
ATOM     23  H   UNL A   1      42.366  27.937  29.082  1.00  0.00     0.167 HD
ATOM     24  C   UNL A   1      43.110  28.785  33.255  1.00  0.00     0.034 A 
ATOM     25  C   UNL A   1      42.717  26.184  27.005  1.00  0.00     0.034 A 
ATOM     26  C   UNL A   1      44.058  29.651  32.617  1.00  0.00     0.049 A 
ATOM     27  C   UNL A   1      43.885  26.550  27.841  1.00  0.00     0.074 A 
ATOM     28  C   UNL A   1      44.157  31.011  32.396  1.00  0.00     0.029 A 
ATOM     29  N   UNL A   1      44.969  29.066  31.773  1.00  0.00    -0.354 N 
ATOM     30  N   UNL A   1      44.581  27.641  27.686  1.00  0.00    -0.248 NA
ATOM     31  C   UNL A   1      44.074  25.858  29.106  1.00  0.00     0.031 C 
ATOM     32  C   UNL A   1      44.761  31.129  31.110  1.00  0.00     0.029 A 
ATOM     33  C   UNL A   1      45.020  29.839  30.644  1.00  0.00     0.049 A 
ATOM     34  H   UNL A   1      45.485  28.247  31.946  1.00  0.00     0.167 HD
ATOM     35  C   UNL A   1      44.959  27.998  28.972  1.00  0.00     0.074 A 
ATOM     36  C   UNL A   1      44.725  26.808  29.783  1.00  0.00     0.031 C 
ATOM     37  C   UNL A   1      45.161  29.305  29.309  1.00  0.00     0.034 A 
BRANCH  24  38
ATOM     38  C   UNL A   1      43.549  27.672  34.171  1.00  0.00     0.023 A 
ATOM     39  C   UNL A   1      44.092  28.016  35.428  1.00  0.00     0.012 A 
ATOM     40  C   UNL A   1      43.703  26.334  33.746  1.00  0.00     0.148 A 
ATOM     41  C   UNL A   1      44.768  27.075  36.213  1.00  0.00     0.002 A 
ATOM     42  C   UNL A   1      44.301  25.385  34.565  1.00  0.00     0.091 A 
ATOM     43  F   UNL A   1      43.397  25.997  32.487  1.00  0.00    -0.205 F 
ATOM     44  C   UNL A   1      44.859  25.755  35.790  1.00  0.00     0.022 A 
BRANCH  42  45
ATOM     45  S   UNL A   1      44.392  23.661  34.072  1.00  0.00     0.127 S 
ATOM     46  O   UNL A   1      45.182  23.089  35.159  1.00  0.00    -0.237 OA
ATOM     47  O   UNL A   1      42.980  23.275  34.061  1.00  0.00    -0.237 OA
ATOM     48  O   UNL A   1      45.013  23.676  32.755  1.00  0.00    -0.744 OA
ENDBRANCH  42  45
ENDBRANCH  24  38
BRANCH  25  49
ATOM     49  C   UNL A   1      42.652  24.881  26.296  1.00  0.00     0.023 A 
ATOM     50  C   UNL A   1      43.736  24.492  25.480  1.00  0.00     0.012 A 
ATOM     51  C   UNL A   1      41.704  23.895  26.646  1.00  0.00     0.148 A 
ATOM     52  C   UNL A   1      43.907  23.161  25.082  1.00  0.00     0.002 A 
ATOM     53  C   UNL A   1      41.870  22.574  26.236  1.00  0.00     0.091 A 
ATOM     54  F   UNL A   1      40.695  24.222  27.463  1.00  0.00    -0.205 F 
ATOM     55  C   UNL A   1      42.981  22.199  25.471  1.00  0.00     0.022 A 
BRANCH  53  56
ATOM     56  S   UNL A   1      40.712  21.280  26.703  1.00  0.00     0.127 S 
ATOM     57  O   UNL A   1      41.312  20.093  26.094  1.00  0.00    -0.237 OA
ATOM     58  O   UNL A   1      40.778  21.322  28.159  1.00  0.00    -0.237 OA
ATOM     59  O   UNL A   1      39.434  21.667  26.111  1.00  0.00    -0.744 OA
ENDBRANCH  53  56
ENDBRANCH  25  49
BRANCH  37  60
ATOM     60  C   UNL A   1      45.237  30.321  28.200  1.00  0.00     0.023 A 
ATOM     61  C   UNL A   1      44.078  30.827  27.574  1.00  0.00     0.012 A 
ATOM     62  C   UNL A   1      46.478  30.924  27.935  1.00  0.00     0.148 A 
ATOM     63  C   UNL A   1      44.158  31.910  26.696  1.00  0.00     0.002 A 
ATOM     64  C   UNL A   1      46.546  32.025  27.090  1.00  0.00     0.091 A 
ATOM     65  F   UNL A   1      47.563  30.435  28.554  1.00  0.00    -0.205 F 
ATOM     66  C   UNL A   1      45.390  32.518  26.464  1.00  0.00     0.022 A 
BRANCH  64  67
ATOM     67  S   UNL A   1      48.074  32.935  26.839  1.00  0.00     0.127 S 
ATOM     68  O   UNL A   1      48.286  33.544  28.150  1.00  0.00    -0.237 OA
ATOM     69  O   UNL A   1      49.015  31.867  26.500  1.00  0.00    -0.237 OA
ATOM     70  O   UNL A   1      47.815  33.873  25.753  1.00  0.00    -0.744 OA
ENDBRANCH  64  67
ENDBRANCH  37  60
ENDBRANCH  11  12
ENDBRANCH   4   6
ENDBRANCH   1   2
BRANCH   1  71
ATOM     71  C   UNL A   1      32.726  30.702  27.060  1.00  0.00     0.042 C 
BRANCH  71  72
ATOM     72  C   UNL A   1      32.708  30.076  25.668  1.00  0.00     0.118 C 
BRANCH  72  73
ATOM     73  N   UNL A   1      31.403  30.174  25.028  1.00  0.00    -0.352 N 
ATOM     74  C   UNL A   1      30.748  29.324  24.172  1.00  0.00     0.252 C 
ATOM     75  H   UNL A   1      30.902  30.992  25.249  1.00  0.00     0.163 HD
ATOM     76  O   UNL A   1      29.739  29.713  23.596  1.00  0.00    -0.269 OA
BRANCH  74  77
ATOM     77  C   UNL A   1      31.223  27.949  23.940  1.00  0.00     0.058 A 
ATOM     78  C   UNL A   1      30.982  26.939  24.861  1.00  0.00     0.127 A 
ATOM     79  C   UNL A   1      31.822  27.624  22.719  1.00  0.00     0.027 A 
ATOM     80  N   UNL A   1      31.352  25.647  24.725  1.00  0.00    -0.238 NA
ATOM     81  C   UNL A   1      32.210  26.287  22.521  1.00  0.00     0.020 A 
ATOM     82  C   UNL A   1      31.964  25.384  23.551  1.00  0.00     0.140 A 
ATOM     83  C   UNL A   1      32.827  25.557  21.470  1.00  0.00     0.030 A 
ATOM     84  N   UNL A   1      32.457  24.159  23.168  1.00  0.00    -0.329 N 
ATOM     85  C   UNL A   1      32.966  24.252  21.893  1.00  0.00     0.088 A 
BRANCH  84  86
ATOM     86  C   UNL A   1      32.470  22.948  23.990  1.00  0.00     0.088 C 
ATOM     87  C   UNL A   1      32.452  21.675  23.125  1.00  0.00     0.025 C 
ATOM     88  C   UNL A   1      33.616  22.954  25.016  1.00  0.00     0.025 C 
ATOM     89  C   UNL A   1      32.526  20.407  23.970  1.00  0.00     0.002 C 
ATOM     90  C   UNL A   1      33.671  21.662  25.825  1.00  0.00     0.002 C 
ATOM     91  C   UNL A   1      33.721  20.438  24.917  1.00  0.00     0.000 C 
ENDBRANCH  84  86
ENDBRANCH  74  77
ENDBRANCH  72  73
ENDBRANCH  71  72
ENDBRANCH   1  71
TORSDOF 14
ENDMDL
MODEL 3
REMARK VINA RESULT:     -11.5      4.831     10.398
REMARK SMILES O=C(NCCCNC(=O)c1cnc2c(ccn2C2CCCCC2)c1)c1ccc(-c2c3nc(c(-c4cccc(S(=O)(=O)[O-])c4F)c4ccc([nH]4)c(-c4cccc(S(=O)(=O)[O-])c4F)c4nc(c(-c5cccc(S(=O)(=O)[O-])c5F)c5ccc2[nH]5)C=C4)C=C3)cc1
REMARK SMILES IDX 4 1 3 2 1 3 2 4 25 6 26 7 87 8 27 9 86 10 28 11 29 12 30 13
REMARK SMILES IDX 80 14 31 15 85 16 79 17 81 18 32 19 84 20 78 21 77 22 33 24
REMARK SMILES IDX 65 25 45 26 64 27 46 28 49 29 63 30 82 31 47 32 48 33 62 35
REMARK SMILES IDX 83 36 50 37 34 38 35 39 43 40 36 41 38 42 44 43 37 44 39 45
REMARK SMILES IDX 40 46 41 47 42 48 66 49 67 50 75 51 68 52 70 53 76 54 69 55
REMARK SMILES IDX 71 56 72 57 73 58 74 59 51 60 52 61 60 62 53 63 55 64 61 65
REMARK SMILES IDX 54 66 56 67 57 68 58 69 59 70 5 71 6 72 7 73 8 74 9 76 10 77
REMARK SMILES IDX 11 78 24 79 12 80 14 81 13 82 15 83 17 84 16 85 18 86 19 87
REMARK SMILES IDX 23 88 20 89 22 90 21 91
REMARK H PARENT 3 5 81 23 49 34 7 75
REMARK Flexibility Score: inf
ROOT
ATOM      1  C   UNL A   1      36.186  21.266  24.996  1.00  0.00     0.118 C 
ENDROOT
BRANCH   1   2
ATOM      2  N   UNL A   1      37.160  20.193  24.909  1.00  0.00    -0.352 N 
ATOM      3  O   UNL A   1      38.870  18.853  25.332  1.00  0.00    -0.269 OA
ATOM      4  C   UNL A   1      38.409  19.992  25.436  1.00  0.00     0.251 C 
ATOM      5  H   UNL A   1      36.855  19.443  24.347  1.00  0.00     0.163 HD
BRANCH   4   6
ATOM      6  C   UNL A   1      39.256  21.064  26.021  1.00  0.00     0.039 A 
ATOM      7  C   UNL A   1      40.477  20.856  26.661  1.00  0.00     0.014 A 
ATOM      8  C   UNL A   1      38.741  22.374  25.957  1.00  0.00     0.014 A 
ATOM      9  C   UNL A   1      41.094  21.893  27.342  1.00  0.00     0.010 A 
ATOM     10  C   UNL A   1      39.375  23.427  26.608  1.00  0.00     0.010 A 
ATOM     11  C   UNL A   1      40.529  23.171  27.340  1.00  0.00    -0.014 A 
BRANCH  11  12
ATOM     12  C   UNL A   1      41.278  24.220  28.015  1.00  0.00     0.031 A 
ATOM     13  C   UNL A   1      40.566  25.523  28.106  1.00  0.00     0.074 A 
ATOM     14  C   UNL A   1      42.493  24.053  28.570  1.00  0.00     0.049 A 
ATOM     15  N   UNL A   1      40.849  26.628  27.495  1.00  0.00    -0.248 NA
ATOM     16  C   UNL A   1      39.315  25.558  28.875  1.00  0.00     0.031 C 
ATOM     17  C   UNL A   1      43.210  22.804  28.827  1.00  0.00     0.029 A 
ATOM     18  N   UNL A   1      43.301  24.998  29.127  1.00  0.00    -0.354 N 
ATOM     19  C   UNL A   1      39.934  27.562  27.976  1.00  0.00     0.074 A 
ATOM     20  C   UNL A   1      38.929  26.822  28.695  1.00  0.00     0.031 C 
ATOM     21  C   UNL A   1      44.226  23.049  29.687  1.00  0.00     0.029 A 
ATOM     22  C   UNL A   1      44.313  24.479  29.925  1.00  0.00     0.049 A 
ATOM     23  H   UNL A   1      43.179  25.964  28.976  1.00  0.00     0.167 HD
ATOM     24  C   UNL A   1      40.179  28.901  27.945  1.00  0.00     0.034 A 
ATOM     25  C   UNL A   1      45.099  25.187  30.771  1.00  0.00     0.034 A 
ATOM     26  C   UNL A   1      41.237  29.248  27.041  1.00  0.00     0.049 A 
ATOM     27  C   UNL A   1      45.080  26.594  30.304  1.00  0.00     0.074 A 
ATOM     28  C   UNL A   1      41.462  29.105  25.687  1.00  0.00     0.029 A 
ATOM     29  N   UNL A   1      42.456  29.551  27.594  1.00  0.00    -0.354 N 
ATOM     30  N   UNL A   1      45.596  26.995  29.176  1.00  0.00    -0.248 NA
ATOM     31  C   UNL A   1      44.159  27.521  30.939  1.00  0.00     0.031 C 
ATOM     32  C   UNL A   1      42.860  28.854  25.572  1.00  0.00     0.029 A 
ATOM     33  C   UNL A   1      43.403  28.891  26.858  1.00  0.00     0.049 A 
ATOM     34  H   UNL A   1      42.618  30.130  28.373  1.00  0.00     0.167 HD
ATOM     35  C   UNL A   1      44.756  28.015  28.753  1.00  0.00     0.074 A 
ATOM     36  C   UNL A   1      43.968  28.373  29.928  1.00  0.00     0.031 C 
ATOM     37  C   UNL A   1      44.583  28.279  27.426  1.00  0.00     0.034 A 
BRANCH  24  38
ATOM     38  C   UNL A   1      39.691  29.864  28.996  1.00  0.00     0.023 A 
ATOM     39  C   UNL A   1      40.310  29.837  30.265  1.00  0.00     0.012 A 
ATOM     40  C   UNL A   1      38.486  30.593  28.881  1.00  0.00     0.148 A 
ATOM     41  C   UNL A   1      39.746  30.493  31.365  1.00  0.00     0.002 A 
ATOM     42  C   UNL A   1      37.976  31.309  29.955  1.00  0.00     0.091 A 
ATOM     43  F   UNL A   1      37.749  30.486  27.769  1.00  0.00    -0.205 F 
ATOM     44  C   UNL A   1      38.587  31.243  31.208  1.00  0.00     0.022 A 
BRANCH  42  45
ATOM     45  S   UNL A   1      36.508  32.329  29.774  1.00  0.00     0.127 S 
ATOM     46  O   UNL A   1      35.478  31.318  29.548  1.00  0.00    -0.237 OA
ATOM     47  O   UNL A   1      36.445  33.000  31.074  1.00  0.00    -0.237 OA
ATOM     48  O   UNL A   1      36.800  33.220  28.660  1.00  0.00    -0.744 OA
ENDBRANCH  42  45
ENDBRANCH  24  38
BRANCH  25  49
ATOM     49  C   UNL A   1      45.655  24.822  32.098  1.00  0.00     0.023 A 
ATOM     50  C   UNL A   1      46.804  25.495  32.567  1.00  0.00     0.012 A 
ATOM     51  C   UNL A   1      44.913  24.060  33.027  1.00  0.00     0.148 A 
ATOM     52  C   UNL A   1      47.162  25.466  33.920  1.00  0.00     0.002 A 
ATOM     53  C   UNL A   1      45.282  24.021  34.370  1.00  0.00     0.091 A 
ATOM     54  F   UNL A   1      43.789  23.454  32.622  1.00  0.00    -0.205 F 
ATOM     55  C   UNL A   1      46.394  24.740  34.824  1.00  0.00     0.022 A 
BRANCH  53  56
ATOM     56  S   UNL A   1      44.333  23.104  35.591  1.00  0.00     0.127 S 
ATOM     57  O   UNL A   1      43.018  23.738  35.499  1.00  0.00    -0.237 OA
ATOM     58  O   UNL A   1      44.397  21.745  35.071  1.00  0.00    -0.237 OA
ATOM     59  O   UNL A   1      45.012  23.333  36.864  1.00  0.00    -0.744 OA
ENDBRANCH  53  56
ENDBRANCH  25  49
BRANCH  37  60
ATOM     60  C   UNL A   1      45.525  27.634  26.444  1.00  0.00     0.023 A 
ATOM     61  C   UNL A   1      46.760  28.224  26.103  1.00  0.00     0.012 A 
ATOM     62  C   UNL A   1      45.254  26.321  26.026  1.00  0.00     0.148 A 
ATOM     63  C   UNL A   1      47.704  27.517  25.353  1.00  0.00     0.002 A 
ATOM     64  C   UNL A   1      46.211  25.609  25.313  1.00  0.00     0.091 A 
ATOM     65  F   UNL A   1      44.079  25.777  26.376  1.00  0.00    -0.205 F 
ATOM     66  C   UNL A   1      47.435  26.205  24.970  1.00  0.00     0.022 A 
BRANCH  64  67
ATOM     67  S   UNL A   1      45.987  23.879  24.891  1.00  0.00     0.127 S 
ATOM     68  O   UNL A   1      44.582  23.841  24.491  1.00  0.00    -0.237 OA
ATOM     69  O   UNL A   1      46.940  23.704  23.794  1.00  0.00    -0.237 OA
ATOM     70  O   UNL A   1      46.310  23.120  26.093  1.00  0.00    -0.744 OA
ENDBRANCH  64  67
ENDBRANCH  37  60
ENDBRANCH  11  12
ENDBRANCH   4   6
ENDBRANCH   1   2
BRANCH   1  71
ATOM     71  C   UNL A   1      34.736  20.873  24.712  1.00  0.00     0.042 C 
BRANCH  71  72
ATOM     72  C   UNL A   1      33.729  22.015  24.817  1.00  0.00     0.118 C 
BRANCH  72  73
ATOM     73  N   UNL A   1      33.044  22.039  26.103  1.00  0.00    -0.352 N 
ATOM     74  C   UNL A   1      32.477  23.072  26.807  1.00  0.00     0.252 C 
ATOM     75  H   UNL A   1      32.976  21.162  26.543  1.00  0.00     0.163 HD
ATOM     76  O   UNL A   1      32.137  22.889  27.970  1.00  0.00    -0.269 OA
BRANCH  74  77
ATOM     77  C   UNL A   1      32.254  24.392  26.193  1.00  0.00     0.058 A 
ATOM     78  C   UNL A   1      30.976  24.838  25.890  1.00  0.00     0.127 A 
ATOM     79  C   UNL A   1      33.335  25.262  26.019  1.00  0.00     0.027 A 
ATOM     80  N   UNL A   1      30.669  26.039  25.353  1.00  0.00    -0.238 NA
ATOM     81  C   UNL A   1      33.066  26.533  25.480  1.00  0.00     0.020 A 
ATOM     82  C   UNL A   1      31.744  26.833  25.164  1.00  0.00     0.140 A 
ATOM     83  C   UNL A   1      33.840  27.678  25.152  1.00  0.00     0.030 A 
ATOM     84  N   UNL A   1      31.715  28.094  24.616  1.00  0.00    -0.329 N 
ATOM     85  C   UNL A   1      32.985  28.623  24.624  1.00  0.00     0.088 A 
BRANCH  84  86
ATOM     86  C   UNL A   1      30.531  28.765  24.078  1.00  0.00     0.088 C 
ATOM     87  C   UNL A   1      30.514  30.261  24.438  1.00  0.00     0.025 C 
ATOM     88  C   UNL A   1      30.353  28.513  22.571  1.00  0.00     0.025 C 
ATOM     89  C   UNL A   1      29.315  30.984  23.831  1.00  0.00     0.002 C 
ATOM     90  C   UNL A   1      29.159  29.269  21.998  1.00  0.00     0.002 C 
ATOM     91  C   UNL A   1      29.230  30.756  22.326  1.00  0.00     0.000 C 
ENDBRANCH  84  86
ENDBRANCH  74  77
ENDBRANCH  72  73
ENDBRANCH  71  72
ENDBRANCH   1  71
TORSDOF 14
ENDMDL
