MODEL 1
REMARK VINA RESULT:     -12.3      0.000      0.000
REMARK SMILES C[C@H](C(=O)NCCCNC(=O)c1ccc(-c2c3nc(c(-c4cccc(S(=O)(=O)[O-])c4F)c4ccc([nH]4)c(-c4cccc(S(=O)(=O)[O-])c4F)c4nc(c(-c5cccc(S(=O)(=O)[O-])c5F)c5ccc2[nH]5)C=C4)C=C3)cc1)[N@@H+]1CCc2ccccc2C1
REMARK SMILES IDX 8 1 7 2 6 3 5 4 3 5 4 6 2 8 1 9 75 10 76 11 84 12 77 14
REMARK SMILES IDX 83 15 78 16 82 17 79 18 81 19 80 20 9 21 10 22 11 24 12 25
REMARK SMILES IDX 13 26 74 27 14 28 73 29 15 30 16 31 17 32 67 33 18 34 72 35
REMARK SMILES IDX 66 36 68 37 19 38 71 39 65 40 64 41 20 43 52 44 32 45 51 46
REMARK SMILES IDX 33 47 36 48 50 49 69 50 34 51 35 52 49 54 70 55 37 56 21 57
REMARK SMILES IDX 22 58 30 59 23 60 25 61 31 62 24 63 26 64 27 65 28 66 29 67
REMARK SMILES IDX 53 68 54 69 62 70 55 71 57 72 63 73 56 74 58 75 59 76 60 77
REMARK SMILES IDX 61 78 38 79 39 80 47 81 40 82 42 83 48 84 41 85 43 86 44 87
REMARK SMILES IDX 45 88 46 89
REMARK H PARENT 5 7 75 13 9 23 68 42 36 53
REMARK Flexibility Score: inf
ROOT
ATOM      1  C   UNL A   1      33.137  29.213  25.248  1.00  0.00     0.118 C 
ENDROOT
BRANCH   1   2
ATOM      2  C   UNL A   1      32.784  29.033  23.778  1.00  0.00     0.042 C 
BRANCH   2   3
ATOM      3  C   UNL A   1      33.984  28.715  22.890  1.00  0.00     0.118 C 
BRANCH   3   4
ATOM      4  N   UNL A   1      33.610  27.821  21.811  1.00  0.00    -0.351 N 
ATOM      5  C   UNL A   1      33.279  26.499  21.839  1.00  0.00     0.278 C 
ATOM      6  O   UNL A   1      33.153  25.931  20.751  1.00  0.00    -0.268 OA
ATOM      7  H   UNL A   1      33.593  28.234  20.917  1.00  0.00     0.163 HD
BRANCH   5   8
ATOM      8  C   UNL A   1      32.954  25.818  23.183  1.00  0.00     0.271 C 
ATOM      9  C   UNL A   1      32.010  24.641  22.825  1.00  0.00     0.086 C 
BRANCH   8  10
ATOM     10  N   UNL A   1      34.121  25.410  24.015  1.00  0.00    -0.321 N 
ATOM     11  C   UNL A   1      34.809  24.122  23.721  1.00  0.00     0.267 C 
ATOM     12  C   UNL A   1      33.923  25.556  25.443  1.00  0.00     0.299 C 
ATOM     13  H   UNL A   1      34.780  26.115  23.685  1.00  0.00     0.349 HD
ATOM     14  C   UNL A   1      35.514  23.411  24.951  1.00  0.00     0.097 C 
ATOM     15  C   UNL A   1      33.519  24.271  26.085  1.00  0.00     0.010 A 
ATOM     16  C   UNL A   1      34.510  23.287  26.079  1.00  0.00    -0.034 A 
ATOM     17  C   UNL A   1      32.285  24.029  26.666  1.00  0.00     0.010 A 
ATOM     18  C   UNL A   1      34.461  22.301  27.051  1.00  0.00     0.004 A 
ATOM     19  C   UNL A   1      32.170  22.954  27.532  1.00  0.00     0.001 A 
ATOM     20  C   UNL A   1      33.295  22.168  27.814  1.00  0.00     0.000 A 
ENDBRANCH   8  10
ENDBRANCH   5   8
ENDBRANCH   3   4
ENDBRANCH   2   3
ENDBRANCH   1   2
BRANCH   1  21
ATOM     21  N   UNL A   1      32.691  30.498  25.763  1.00  0.00    -0.352 N 
ATOM     22  C   UNL A   1      33.152  31.200  26.842  1.00  0.00     0.251 C 
ATOM     23  H   UNL A   1      31.954  30.920  25.266  1.00  0.00     0.163 HD
ATOM     24  O   UNL A   1      32.488  32.153  27.266  1.00  0.00    -0.269 OA
BRANCH  22  25
ATOM     25  C   UNL A   1      34.423  30.832  27.501  1.00  0.00     0.039 A 
ATOM     26  C   UNL A   1      34.592  29.521  27.951  1.00  0.00     0.014 A 
ATOM     27  C   UNL A   1      35.429  31.779  27.722  1.00  0.00     0.014 A 
ATOM     28  C   UNL A   1      35.769  29.161  28.610  1.00  0.00     0.010 A 
ATOM     29  C   UNL A   1      36.641  31.392  28.283  1.00  0.00     0.010 A 
ATOM     30  C   UNL A   1      36.807  30.092  28.775  1.00  0.00    -0.014 A 
BRANCH  30  31
ATOM     31  C   UNL A   1      38.040  29.733  29.523  1.00  0.00     0.031 A 
ATOM     32  C   UNL A   1      38.290  30.314  30.892  1.00  0.00     0.074 A 
ATOM     33  C   UNL A   1      38.950  28.915  28.962  1.00  0.00     0.049 A 
ATOM     34  N   UNL A   1      39.300  30.116  31.701  1.00  0.00    -0.248 NA
ATOM     35  C   UNL A   1      37.291  31.265  31.411  1.00  0.00     0.031 C 
ATOM     36  C   UNL A   1      38.867  28.356  27.611  1.00  0.00     0.029 A 
ATOM     37  N   UNL A   1      40.134  28.423  29.453  1.00  0.00    -0.354 N 
ATOM     38  C   UNL A   1      39.071  30.935  32.801  1.00  0.00     0.074 A 
ATOM     39  C   UNL A   1      37.860  31.675  32.533  1.00  0.00     0.031 C 
ATOM     40  C   UNL A   1      39.946  27.589  27.385  1.00  0.00     0.029 A 
ATOM     41  C   UNL A   1      40.809  27.623  28.563  1.00  0.00     0.049 A 
ATOM     42  H   UNL A   1      40.467  28.624  30.357  1.00  0.00     0.167 HD
ATOM     43  C   UNL A   1      39.781  31.036  33.951  1.00  0.00     0.034 A 
ATOM     44  C   UNL A   1      41.992  26.989  28.680  1.00  0.00     0.034 A 
ATOM     45  C   UNL A   1      40.966  30.273  34.229  1.00  0.00     0.049 A 
ATOM     46  C   UNL A   1      42.738  27.074  29.983  1.00  0.00     0.074 A 
ATOM     47  C   UNL A   1      41.723  30.247  35.386  1.00  0.00     0.029 A 
ATOM     48  N   UNL A   1      41.573  29.403  33.335  1.00  0.00    -0.354 N 
ATOM     49  N   UNL A   1      42.431  27.743  31.068  1.00  0.00    -0.248 NA
ATOM     50  C   UNL A   1      43.971  26.281  30.096  1.00  0.00     0.031 C 
ATOM     51  C   UNL A   1      42.804  29.381  35.181  1.00  0.00     0.029 A 
ATOM     52  C   UNL A   1      42.695  28.836  33.913  1.00  0.00     0.049 A 
ATOM     53  H   UNL A   1      41.252  29.217  32.423  1.00  0.00     0.167 HD
ATOM     54  C   UNL A   1      43.406  27.420  32.004  1.00  0.00     0.074 A 
ATOM     55  C   UNL A   1      44.303  26.481  31.363  1.00  0.00     0.031 C 
ATOM     56  C   UNL A   1      43.552  27.866  33.277  1.00  0.00     0.034 A 
BRANCH  43  57
ATOM     57  C   UNL A   1      39.257  31.972  35.012  1.00  0.00     0.023 A 
ATOM     58  C   UNL A   1      39.376  33.367  34.831  1.00  0.00     0.012 A 
ATOM     59  C   UNL A   1      38.621  31.480  36.168  1.00  0.00     0.148 A 
ATOM     60  C   UNL A   1      38.918  34.254  35.806  1.00  0.00     0.002 A 
ATOM     61  C   UNL A   1      38.119  32.372  37.109  1.00  0.00     0.091 A 
ATOM     62  F   UNL A   1      38.532  30.153  36.333  1.00  0.00    -0.205 F 
ATOM     63  C   UNL A   1      38.281  33.757  36.938  1.00  0.00     0.022 A 
BRANCH  61  64
ATOM     64  S   UNL A   1      37.207  31.837  38.561  1.00  0.00     0.127 S 
ATOM     65  O   UNL A   1      38.152  32.147  39.634  1.00  0.00    -0.237 OA
ATOM     66  O   UNL A   1      36.029  32.703  38.519  1.00  0.00    -0.237 OA
ATOM     67  O   UNL A   1      36.929  30.422  38.363  1.00  0.00    -0.744 OA
ENDBRANCH  61  64
ENDBRANCH  43  57
BRANCH  44  68
ATOM     68  C   UNL A   1      42.506  26.168  27.549  1.00  0.00     0.023 A 
ATOM     69  C   UNL A   1      43.419  26.728  26.634  1.00  0.00     0.012 A 
ATOM     70  C   UNL A   1      42.123  24.820  27.399  1.00  0.00     0.148 A 
ATOM     71  C   UNL A   1      43.913  25.973  25.570  1.00  0.00     0.002 A 
ATOM     72  C   UNL A   1      42.664  24.057  26.372  1.00  0.00     0.091 A 
ATOM     73  F   UNL A   1      41.250  24.309  28.278  1.00  0.00    -0.205 F 
ATOM     74  C   UNL A   1      43.545  24.636  25.444  1.00  0.00     0.022 A 
BRANCH  72  75
ATOM     75  S   UNL A   1      42.353  22.296  26.215  1.00  0.00     0.127 S 
ATOM     76  O   UNL A   1      42.908  21.781  27.464  1.00  0.00    -0.237 OA
ATOM     77  O   UNL A   1      40.893  22.256  26.126  1.00  0.00    -0.237 OA
ATOM     78  O   UNL A   1      43.040  21.880  25.000  1.00  0.00    -0.744 OA
ENDBRANCH  72  75
ENDBRANCH  44  68
BRANCH  56  79
ATOM     79  C   UNL A   1      44.693  27.305  34.087  1.00  0.00     0.023 A 
ATOM     80  C   UNL A   1      45.945  27.951  34.091  1.00  0.00     0.012 A 
ATOM     81  C   UNL A   1      44.501  26.164  34.890  1.00  0.00     0.148 A 
ATOM     82  C   UNL A   1      47.001  27.443  34.848  1.00  0.00     0.002 A 
ATOM     83  C   UNL A   1      45.540  25.697  35.684  1.00  0.00     0.091 A 
ATOM     84  F   UNL A   1      43.308  25.552  34.858  1.00  0.00    -0.205 F 
ATOM     85  C   UNL A   1      46.796  26.325  35.652  1.00  0.00     0.022 A 
BRANCH  83  86
ATOM     86  S   UNL A   1      45.334  24.324  36.825  1.00  0.00     0.127 S 
ATOM     87  O   UNL A   1      46.670  24.219  37.408  1.00  0.00    -0.237 OA
ATOM     88  O   UNL A   1      44.308  24.831  37.737  1.00  0.00    -0.237 OA
ATOM     89  O   UNL A   1      44.913  23.190  36.015  1.00  0.00    -0.744 OA
ENDBRANCH  83  86
ENDBRANCH  56  79
ENDBRANCH  30  31
ENDBRANCH  22  25
ENDBRANCH   1  21
TORSDOF 14
ENDMDL
MODEL 2
REMARK VINA RESULT:     -12.3      3.926      6.492
REMARK SMILES C[C@H](C(=O)NCCCNC(=O)c1ccc(-c2c3nc(c(-c4cccc(S(=O)(=O)[O-])c4F)c4ccc([nH]4)c(-c4cccc(S(=O)(=O)[O-])c4F)c4nc(c(-c5cccc(S(=O)(=O)[O-])c5F)c5ccc2[nH]5)C=C4)C=C3)cc1)[N@@H+]1CCc2ccccc2C1
REMARK SMILES IDX 8 1 7 2 6 3 5 4 3 5 4 6 2 8 1 9 75 10 76 11 84 12 77 14
REMARK SMILES IDX 83 15 78 16 82 17 79 18 81 19 80 20 9 21 10 22 11 24 12 25
REMARK SMILES IDX 13 26 74 27 14 28 73 29 15 30 16 31 17 32 67 33 18 34 72 35
REMARK SMILES IDX 66 36 68 37 19 38 71 39 65 40 64 41 20 43 52 44 32 45 51 46
REMARK SMILES IDX 33 47 36 48 50 49 69 50 34 51 35 52 49 54 70 55 37 56 21 57
REMARK SMILES IDX 22 58 30 59 23 60 25 61 31 62 24 63 26 64 27 65 28 66 29 67
REMARK SMILES IDX 53 68 54 69 62 70 55 71 57 72 63 73 56 74 58 75 59 76 60 77
REMARK SMILES IDX 61 78 38 79 39 80 47 81 40 82 42 83 48 84 41 85 43 86 44 87
REMARK SMILES IDX 45 88 46 89
REMARK H PARENT 5 7 75 13 9 23 68 42 36 53
REMARK Flexibility Score: inf
ROOT
ATOM      1  C   UNL A   1      35.165  33.270  28.456  1.00  0.00     0.118 C 
ENDROOT
BRANCH   1   2
ATOM      2  C   UNL A   1      34.562  34.659  28.309  1.00  0.00     0.042 C 
BRANCH   2   3
ATOM      3  C   UNL A   1      34.031  35.243  29.615  1.00  0.00     0.118 C 
BRANCH   3   4
ATOM      4  N   UNL A   1      33.685  34.192  30.552  1.00  0.00    -0.351 N 
ATOM      5  C   UNL A   1      34.332  33.766  31.674  1.00  0.00     0.278 C 
ATOM      6  O   UNL A   1      33.904  32.741  32.210  1.00  0.00    -0.268 OA
ATOM      7  H   UNL A   1      32.851  33.711  30.346  1.00  0.00     0.163 HD
BRANCH   5   8
ATOM      8  C   UNL A   1      35.455  34.626  32.284  1.00  0.00     0.271 C 
ATOM      9  C   UNL A   1      34.781  35.418  33.435  1.00  0.00     0.086 C 
BRANCH   8  10
ATOM     10  N   UNL A   1      36.686  33.900  32.707  1.00  0.00    -0.321 N 
ATOM     11  C   UNL A   1      37.704  34.611  33.529  1.00  0.00     0.267 C 
ATOM     12  C   UNL A   1      37.334  33.149  31.650  1.00  0.00     0.299 C 
ATOM     13  H   UNL A   1      36.249  33.258  33.368  1.00  0.00     0.349 HD
ATOM     14  C   UNL A   1      39.202  34.116  33.369  1.00  0.00     0.097 C 
ATOM     15  C   UNL A   1      38.466  33.906  31.040  1.00  0.00     0.010 A 
ATOM     16  C   UNL A   1      39.553  34.105  31.895  1.00  0.00    -0.034 A 
ATOM     17  C   UNL A   1      38.494  34.377  29.738  1.00  0.00     0.010 A 
ATOM     18  C   UNL A   1      40.803  34.307  31.331  1.00  0.00     0.004 A 
ATOM     19  C   UNL A   1      39.720  34.728  29.197  1.00  0.00     0.001 A 
ATOM     20  C   UNL A   1      40.885  34.574  29.959  1.00  0.00     0.000 A 
ENDBRANCH   8  10
ENDBRANCH   5   8
ENDBRANCH   3   4
ENDBRANCH   2   3
ENDBRANCH   1   2
BRANCH   1  21
ATOM     21  N   UNL A   1      34.306  32.239  27.895  1.00  0.00    -0.352 N 
ATOM     22  C   UNL A   1      34.606  30.940  27.588  1.00  0.00     0.251 C 
ATOM     23  H   UNL A   1      33.380  32.516  27.709  1.00  0.00     0.163 HD
ATOM     24  O   UNL A   1      33.814  30.290  26.896  1.00  0.00    -0.269 OA
BRANCH  22  25
ATOM     25  C   UNL A   1      35.855  30.316  28.071  1.00  0.00     0.039 A 
ATOM     26  C   UNL A   1      35.863  29.709  29.328  1.00  0.00     0.014 A 
ATOM     27  C   UNL A   1      37.032  30.368  27.316  1.00  0.00     0.014 A 
ATOM     28  C   UNL A   1      37.043  29.148  29.820  1.00  0.00     0.010 A 
ATOM     29  C   UNL A   1      38.177  29.715  27.761  1.00  0.00     0.010 A 
ATOM     30  C   UNL A   1      38.209  29.139  29.037  1.00  0.00    -0.014 A 
BRANCH  30  31
ATOM     31  C   UNL A   1      39.482  28.594  29.574  1.00  0.00     0.031 A 
ATOM     32  C   UNL A   1      40.115  29.210  30.795  1.00  0.00     0.074 A 
ATOM     33  C   UNL A   1      40.088  27.568  28.946  1.00  0.00     0.049 A 
ATOM     34  N   UNL A   1      41.216  28.871  31.415  1.00  0.00    -0.248 NA
ATOM     35  C   UNL A   1      39.439  30.381  31.383  1.00  0.00     0.031 C 
ATOM     36  C   UNL A   1      39.624  26.940  27.708  1.00  0.00     0.029 A 
ATOM     37  N   UNL A   1      41.236  26.882  29.256  1.00  0.00    -0.354 N 
ATOM     38  C   UNL A   1      41.377  29.798  32.439  1.00  0.00     0.074 A 
ATOM     39  C   UNL A   1      40.294  30.747  32.324  1.00  0.00     0.031 C 
ATOM     40  C   UNL A   1      40.471  25.955  27.369  1.00  0.00     0.029 A 
ATOM     41  C   UNL A   1      41.552  25.898  28.350  1.00  0.00     0.049 A 
ATOM     42  H   UNL A   1      41.782  27.078  30.052  1.00  0.00     0.167 HD
ATOM     43  C   UNL A   1      42.316  29.836  33.414  1.00  0.00     0.034 A 
ATOM     44  C   UNL A   1      42.595  25.047  28.312  1.00  0.00     0.034 A 
ATOM     45  C   UNL A   1      43.372  28.870  33.547  1.00  0.00     0.049 A 
ATOM     46  C   UNL A   1      43.599  25.075  29.432  1.00  0.00     0.074 A 
ATOM     47  C   UNL A   1      44.336  28.776  34.535  1.00  0.00     0.029 A 
ATOM     48  N   UNL A   1      43.608  27.832  32.658  1.00  0.00    -0.354 N 
ATOM     49  N   UNL A   1      43.654  25.870  30.473  1.00  0.00    -0.248 NA
ATOM     50  C   UNL A   1      44.660  24.057  29.397  1.00  0.00     0.031 C 
ATOM     51  C   UNL A   1      45.171  27.696  34.228  1.00  0.00     0.029 A 
ATOM     52  C   UNL A   1      44.702  27.092  33.073  1.00  0.00     0.049 A 
ATOM     53  H   UNL A   1      43.076  27.648  31.850  1.00  0.00     0.167 HD
ATOM     54  C   UNL A   1      44.726  25.425  31.237  1.00  0.00     0.074 A 
ATOM     55  C   UNL A   1      45.280  24.278  30.548  1.00  0.00     0.031 C 
ATOM     56  C   UNL A   1      45.213  25.924  32.400  1.00  0.00     0.034 A 
BRANCH  43  57
ATOM     57  C   UNL A   1      42.207  30.935  34.442  1.00  0.00     0.023 A 
ATOM     58  C   UNL A   1      41.541  30.686  35.662  1.00  0.00     0.012 A 
ATOM     59  C   UNL A   1      42.787  32.200  34.222  1.00  0.00     0.148 A 
ATOM     60  C   UNL A   1      41.409  31.690  36.620  1.00  0.00     0.002 A 
ATOM     61  C   UNL A   1      42.698  33.178  35.205  1.00  0.00     0.091 A 
ATOM     62  F   UNL A   1      43.400  32.427  33.052  1.00  0.00    -0.205 F 
ATOM     63  C   UNL A   1      41.996  32.931  36.397  1.00  0.00     0.022 A 
BRANCH  61  64
ATOM     64  S   UNL A   1      43.491  34.783  35.051  1.00  0.00     0.127 S 
ATOM     65  O   UNL A   1      42.701  35.402  33.986  1.00  0.00    -0.237 OA
ATOM     66  O   UNL A   1      43.279  35.358  36.379  1.00  0.00    -0.237 OA
ATOM     67  O   UNL A   1      44.883  34.513  34.720  1.00  0.00    -0.744 OA
ENDBRANCH  61  64
ENDBRANCH  43  57
BRANCH  44  68
ATOM     68  C   UNL A   1      42.702  24.057  27.204  1.00  0.00     0.023 A 
ATOM     69  C   UNL A   1      43.465  24.365  26.060  1.00  0.00     0.012 A 
ATOM     70  C   UNL A   1      42.081  22.796  27.297  1.00  0.00     0.148 A 
ATOM     71  C   UNL A   1      43.578  23.450  25.014  1.00  0.00     0.002 A 
ATOM     72  C   UNL A   1      42.247  21.867  26.278  1.00  0.00     0.091 A 
ATOM     73  F   UNL A   1      41.357  22.527  28.392  1.00  0.00    -0.205 F 
ATOM     74  C   UNL A   1      42.979  22.197  25.126  1.00  0.00     0.022 A 
BRANCH  72  75
ATOM     75  S   UNL A   1      41.627  20.186  26.398  1.00  0.00     0.127 S 
ATOM     76  O   UNL A   1      42.131  19.774  27.706  1.00  0.00    -0.237 OA
ATOM     77  O   UNL A   1      40.180  20.395  26.333  1.00  0.00    -0.237 OA
ATOM     78  O   UNL A   1      42.183  19.476  25.254  1.00  0.00    -0.744 OA
ENDBRANCH  72  75
ENDBRANCH  44  68
BRANCH  56  79
ATOM     79  C   UNL A   1      46.374  25.204  33.037  1.00  0.00     0.023 A 
ATOM     80  C   UNL A   1      47.694  25.633  32.797  1.00  0.00     0.012 A 
ATOM     81  C   UNL A   1      46.146  24.132  33.923  1.00  0.00     0.148 A 
ATOM     82  C   UNL A   1      48.771  24.978  33.392  1.00  0.00     0.002 A 
ATOM     83  C   UNL A   1      47.220  23.520  34.555  1.00  0.00     0.091 A 
ATOM     84  F   UNL A   1      44.884  23.725  34.124  1.00  0.00    -0.205 F 
ATOM     85  C   UNL A   1      48.534  23.931  34.279  1.00  0.00     0.022 A 
BRANCH  83  86
ATOM     86  S   UNL A   1      47.001  22.232  35.788  1.00  0.00     0.127 S 
ATOM     87  O   UNL A   1      48.375  22.009  36.234  1.00  0.00    -0.237 OA
ATOM     88  O   UNL A   1      46.138  22.887  36.772  1.00  0.00    -0.237 OA
ATOM     89  O   UNL A   1      46.379  21.113  35.092  1.00  0.00    -0.744 OA
ENDBRANCH  83  86
ENDBRANCH  56  79
ENDBRANCH  30  31
ENDBRANCH  22  25
ENDBRANCH   1  21
TORSDOF 14
ENDMDL
MODEL 3
REMARK VINA RESULT:     -12.3      3.540      6.515
REMARK SMILES C[C@H](C(=O)NCCCNC(=O)c1ccc(-c2c3nc(c(-c4cccc(S(=O)(=O)[O-])c4F)c4ccc([nH]4)c(-c4cccc(S(=O)(=O)[O-])c4F)c4nc(c(-c5cccc(S(=O)(=O)[O-])c5F)c5ccc2[nH]5)C=C4)C=C3)cc1)[N@@H+]1CCc2ccccc2C1
REMARK SMILES IDX 8 1 7 2 6 3 5 4 3 5 4 6 2 8 1 9 75 10 76 11 84 12 77 14
REMARK SMILES IDX 83 15 78 16 82 17 79 18 81 19 80 20 9 21 10 22 11 24 12 25
REMARK SMILES IDX 13 26 74 27 14 28 73 29 15 30 16 31 17 32 67 33 18 34 72 35
REMARK SMILES IDX 66 36 68 37 19 38 71 39 65 40 64 41 20 43 52 44 32 45 51 46
REMARK SMILES IDX 33 47 36 48 50 49 69 50 34 51 35 52 49 54 70 55 37 56 21 57
REMARK SMILES IDX 22 58 30 59 23 60 25 61 31 62 24 63 26 64 27 65 28 66 29 67
REMARK SMILES IDX 53 68 54 69 62 70 55 71 57 72 63 73 56 74 58 75 59 76 60 77
REMARK SMILES IDX 61 78 38 79 39 80 47 81 40 82 42 83 48 84 41 85 43 86 44 87
REMARK SMILES IDX 45 88 46 89
REMARK H PARENT 5 7 75 13 9 23 68 42 36 53
REMARK Flexibility Score: inf
ROOT
ATOM      1  C   UNL A   1      34.447  32.727  28.400  1.00  0.00     0.118 C 
ENDROOT
BRANCH   1   2
ATOM      2  C   UNL A   1      33.590  33.972  28.222  1.00  0.00     0.042 C 
BRANCH   2   3
ATOM      3  C   UNL A   1      34.084  35.179  29.015  1.00  0.00     0.118 C 
BRANCH   3   4
ATOM      4  N   UNL A   1      33.000  35.791  29.760  1.00  0.00    -0.351 N 
ATOM      5  C   UNL A   1      32.921  36.130  31.078  1.00  0.00     0.278 C 
ATOM      6  O   UNL A   1      31.819  36.495  31.496  1.00  0.00    -0.268 OA
ATOM      7  H   UNL A   1      32.195  35.992  29.231  1.00  0.00     0.163 HD
BRANCH   5   8
ATOM      8  C   UNL A   1      34.199  36.169  31.938  1.00  0.00     0.271 C 
ATOM      9  C   UNL A   1      34.089  37.474  32.769  1.00  0.00     0.086 C 
BRANCH   8  10
ATOM     10  N   UNL A   1      34.475  34.961  32.765  1.00  0.00    -0.321 N 
ATOM     11  C   UNL A   1      34.721  35.120  34.225  1.00  0.00     0.267 C 
ATOM     12  C   UNL A   1      35.444  34.048  32.191  1.00  0.00     0.299 C 
ATOM     13  H   UNL A   1      33.544  34.547  32.722  1.00  0.00     0.349 HD
ATOM     14  C   UNL A   1      35.651  34.026  34.900  1.00  0.00     0.097 C 
ATOM     15  C   UNL A   1      36.810  34.259  32.752  1.00  0.00     0.010 A 
ATOM     16  C   UNL A   1      36.937  33.927  34.103  1.00  0.00    -0.034 A 
ATOM     17  C   UNL A   1      37.898  34.726  32.034  1.00  0.00     0.010 A 
ATOM     18  C   UNL A   1      38.192  33.585  34.580  1.00  0.00     0.004 A 
ATOM     19  C   UNL A   1      39.164  34.528  32.562  1.00  0.00     0.001 A 
ATOM     20  C   UNL A   1      39.309  33.848  33.778  1.00  0.00     0.000 A 
ENDBRANCH   8  10
ENDBRANCH   5   8
ENDBRANCH   3   4
ENDBRANCH   2   3
ENDBRANCH   1   2
BRANCH   1  21
ATOM     21  N   UNL A   1      33.800  31.538  27.867  1.00  0.00    -0.352 N 
ATOM     22  C   UNL A   1      34.342  30.313  27.590  1.00  0.00     0.251 C 
ATOM     23  H   UNL A   1      32.839  31.629  27.678  1.00  0.00     0.163 HD
ATOM     24  O   UNL A   1      33.689  29.507  26.917  1.00  0.00    -0.269 OA
BRANCH  22  25
ATOM     25  C   UNL A   1      35.687  29.950  28.083  1.00  0.00     0.039 A 
ATOM     26  C   UNL A   1      36.783  30.121  27.235  1.00  0.00     0.014 A 
ATOM     27  C   UNL A   1      35.870  29.396  29.355  1.00  0.00     0.014 A 
ATOM     28  C   UNL A   1      38.057  29.748  27.666  1.00  0.00     0.010 A 
ATOM     29  C   UNL A   1      37.153  29.125  29.820  1.00  0.00     0.010 A 
ATOM     30  C   UNL A   1      38.255  29.253  28.965  1.00  0.00    -0.014 A 
BRANCH  30  31
ATOM     31  C   UNL A   1      39.598  28.802  29.414  1.00  0.00     0.031 A 
ATOM     32  C   UNL A   1      40.308  29.531  30.526  1.00  0.00     0.074 A 
ATOM     33  C   UNL A   1      40.194  27.762  28.801  1.00  0.00     0.049 A 
ATOM     34  N   UNL A   1      41.477  29.285  31.060  1.00  0.00    -0.248 NA
ATOM     35  C   UNL A   1      39.631  30.710  31.096  1.00  0.00     0.031 C 
ATOM     36  C   UNL A   1      39.650  27.028  27.657  1.00  0.00     0.029 A 
ATOM     37  N   UNL A   1      41.398  27.151  29.046  1.00  0.00    -0.354 N 
ATOM     38  C   UNL A   1      41.684  30.288  32.000  1.00  0.00     0.074 A 
ATOM     39  C   UNL A   1      40.550  31.179  31.925  1.00  0.00     0.031 C 
ATOM     40  C   UNL A   1      40.511  26.060  27.306  1.00  0.00     0.029 A 
ATOM     41  C   UNL A   1      41.678  26.120  28.182  1.00  0.00     0.049 A 
ATOM     42  H   UNL A   1      42.003  27.426  29.772  1.00  0.00     0.167 HD
ATOM     43  C   UNL A   1      42.706  30.436  32.877  1.00  0.00     0.034 A 
ATOM     44  C   UNL A   1      42.754  25.314  28.102  1.00  0.00     0.034 A 
ATOM     45  C   UNL A   1      43.816  29.528  32.974  1.00  0.00     0.049 A 
ATOM     46  C   UNL A   1      43.854  25.464  29.117  1.00  0.00     0.074 A 
ATOM     47  C   UNL A   1      44.869  29.546  33.870  1.00  0.00     0.029 A 
ATOM     48  N   UNL A   1      44.021  28.441  32.137  1.00  0.00    -0.354 N 
ATOM     49  N   UNL A   1      43.964  26.333  30.093  1.00  0.00    -0.248 NA
ATOM     50  C   UNL A   1      44.956  24.493  29.050  1.00  0.00     0.031 C 
ATOM     51  C   UNL A   1      45.726  28.484  33.558  1.00  0.00     0.029 A 
ATOM     52  C   UNL A   1      45.183  27.780  32.495  1.00  0.00     0.049 A 
ATOM     53  H   UNL A   1      43.427  28.178  31.398  1.00  0.00     0.167 HD
ATOM     54  C   UNL A   1      45.122  25.990  30.780  1.00  0.00     0.074 A 
ATOM     55  C   UNL A   1      45.668  24.822  30.120  1.00  0.00     0.031 C 
ATOM     56  C   UNL A   1      45.689  26.591  31.857  1.00  0.00     0.034 A 
BRANCH  43  57
ATOM     57  C   UNL A   1      42.637  31.599  33.836  1.00  0.00     0.023 A 
ATOM     58  C   UNL A   1      43.127  32.862  33.437  1.00  0.00     0.012 A 
ATOM     59  C   UNL A   1      42.062  31.457  35.114  1.00  0.00     0.148 A 
ATOM     60  C   UNL A   1      43.093  33.948  34.311  1.00  0.00     0.002 A 
ATOM     61  C   UNL A   1      41.983  32.558  35.959  1.00  0.00     0.091 A 
ATOM     62  F   UNL A   1      41.618  30.248  35.485  1.00  0.00    -0.205 F 
ATOM     63  C   UNL A   1      42.512  33.799  35.566  1.00  0.00     0.022 A 
BRANCH  61  64
ATOM     64  S   UNL A   1      41.178  32.493  37.564  1.00  0.00     0.127 S 
ATOM     65  O   UNL A   1      41.192  33.901  37.959  1.00  0.00    -0.237 OA
ATOM     66  O   UNL A   1      39.855  31.969  37.222  1.00  0.00    -0.237 OA
ATOM     67  O   UNL A   1      41.990  31.605  38.384  1.00  0.00    -0.744 OA
ENDBRANCH  61  64
ENDBRANCH  43  57
BRANCH  44  68
ATOM     68  C   UNL A   1      42.809  24.253  27.057  1.00  0.00     0.023 A 
ATOM     69  C   UNL A   1      43.559  24.464  25.883  1.00  0.00     0.012 A 
ATOM     70  C   UNL A   1      42.150  23.022  27.240  1.00  0.00     0.148 A 
ATOM     71  C   UNL A   1      43.623  23.481  24.895  1.00  0.00     0.002 A 
ATOM     72  C   UNL A   1      42.266  22.026  26.279  1.00  0.00     0.091 A 
ATOM     73  F   UNL A   1      41.439  22.845  28.362  1.00  0.00    -0.205 F 
ATOM     74  C   UNL A   1      42.986  22.259  25.097  1.00  0.00     0.022 A 
BRANCH  72  75
ATOM     75  S   UNL A   1      41.596  20.377  26.516  1.00  0.00     0.127 S 
ATOM     76  O   UNL A   1      40.158  20.627  26.458  1.00  0.00    -0.237 OA
ATOM     77  O   UNL A   1      42.144  19.662  25.362  1.00  0.00    -0.237 OA
ATOM     78  O   UNL A   1      42.106  19.923  27.801  1.00  0.00    -0.744 OA
ENDBRANCH  72  75
ENDBRANCH  44  68
BRANCH  56  79
ATOM     79  C   UNL A   1      46.937  25.968  32.427  1.00  0.00     0.023 A 
ATOM     80  C   UNL A   1      48.206  26.384  31.979  1.00  0.00     0.012 A 
ATOM     81  C   UNL A   1      46.847  25.007  33.453  1.00  0.00     0.148 A 
ATOM     82  C   UNL A   1      49.365  25.820  32.511  1.00  0.00     0.002 A 
ATOM     83  C   UNL A   1      48.006  24.491  34.017  1.00  0.00     0.091 A 
ATOM     84  F   UNL A   1      45.631  24.610  33.853  1.00  0.00    -0.205 F 
ATOM     85  C   UNL A   1      49.266  24.884  33.537  1.00  0.00     0.022 A 
BRANCH  83  86
ATOM     86  S   UNL A   1      47.973  23.356  35.410  1.00  0.00     0.127 S 
ATOM     87  O   UNL A   1      49.398  23.141  35.654  1.00  0.00    -0.237 OA
ATOM     88  O   UNL A   1      47.289  24.145  36.436  1.00  0.00    -0.237 OA
ATOM     89  O   UNL A   1      47.231  22.187  34.956  1.00  0.00    -0.744 OA
ENDBRANCH  83  86
ENDBRANCH  56  79
ENDBRANCH  30  31
ENDBRANCH  22  25
ENDBRANCH   1  21
TORSDOF 14
ENDMDL
