MODEL 1
REMARK VINA RESULT:     -12.3      0.000      0.000
REMARK SMILES O=C(NCCCNC(=O)[C@@H]1[C@@H](C(=O)NCCCn2ccnc2)[C@@H]2C=C[C@H]1C2)c1ccc(-c2c3nc(c(-c4cccc(S(=O)(=O)[O-])c4F)c4ccc([nH]4)c(-c4cccc(S(=O)(=O)[O-])c4F)c4nc(c(-c5cccc(S(=O)(=O)[O-])c5F)c5ccc2[nH]5)C=C4)C=C3)cc1
REMARK SMILES IDX 6 1 5 2 4 3 3 4 1 5 2 6 28 8 29 9 90 10 30 11 89 12 31 13
REMARK SMILES IDX 32 14 33 15 83 16 34 17 88 18 82 19 84 20 35 21 87 22 81 23
REMARK SMILES IDX 80 24 36 26 68 27 48 28 67 29 49 30 52 31 66 32 85 33 50 34
REMARK SMILES IDX 51 35 65 37 86 38 53 39 37 40 38 41 46 42 39 43 41 44 47 45
REMARK SMILES IDX 40 46 42 47 43 48 44 49 45 50 69 51 70 52 78 53 71 54 73 55
REMARK SMILES IDX 79 56 72 57 74 58 75 59 76 60 77 61 54 62 55 63 63 64 56 65
REMARK SMILES IDX 58 66 64 67 57 68 59 69 60 70 61 71 62 72 7 73 8 74 9 76
REMARK SMILES IDX 10 77 11 78 26 79 23 80 25 81 27 82 24 83 12 84 13 85 14 86
REMARK SMILES IDX 15 88 16 89 17 90 18 91 19 92 22 93 20 94 21 95
REMARK H PARENT 3 7 84 25 52 36 7 75 14 87
REMARK Flexibility Score: inf
ROOT
ATOM      1  C   UNL A   1      31.855  30.185  25.762  1.00  0.00     0.117 C 
ENDROOT
BRANCH   1   2
ATOM      2  C   UNL A   1      32.725  29.406  26.735  1.00  0.00     0.042 C 
BRANCH   2   3
ATOM      3  C   UNL A   1      34.189  29.844  26.775  1.00  0.00     0.118 C 
BRANCH   3   4
ATOM      4  N   UNL A   1      34.430  31.168  27.314  1.00  0.00    -0.352 N 
ATOM      5  O   UNL A   1      35.324  33.011  28.117  1.00  0.00    -0.269 OA
ATOM      6  C   UNL A   1      35.487  31.808  27.899  1.00  0.00     0.251 C 
ATOM      7  H   UNL A   1      33.639  31.749  27.242  1.00  0.00     0.163 HD
BRANCH   6   8
ATOM      8  C   UNL A   1      36.743  31.154  28.354  1.00  0.00     0.039 A 
ATOM      9  C   UNL A   1      37.757  31.767  29.091  1.00  0.00     0.014 A 
ATOM     10  C   UNL A   1      36.916  29.819  27.946  1.00  0.00     0.014 A 
ATOM     11  C   UNL A   1      38.969  31.115  29.296  1.00  0.00     0.010 A 
ATOM     12  C   UNL A   1      38.110  29.150  28.175  1.00  0.00     0.010 A 
ATOM     13  C   UNL A   1      39.154  29.823  28.803  1.00  0.00    -0.014 A 
BRANCH  13  14
ATOM     14  C   UNL A   1      40.412  29.143  29.085  1.00  0.00     0.031 A 
ATOM     15  C   UNL A   1      40.642  28.839  30.527  1.00  0.00     0.074 A 
ATOM     16  C   UNL A   1      41.215  28.676  28.107  1.00  0.00     0.049 A 
ATOM     17  N   UNL A   1      41.614  29.231  31.287  1.00  0.00    -0.248 NA
ATOM     18  C   UNL A   1      39.582  28.110  31.242  1.00  0.00     0.031 C 
ATOM     19  C   UNL A   1      40.939  28.649  26.666  1.00  0.00     0.029 A 
ATOM     20  N   UNL A   1      42.383  27.979  28.209  1.00  0.00    -0.354 N 
ATOM     21  C   UNL A   1      41.401  28.605  32.518  1.00  0.00     0.074 A 
ATOM     22  C   UNL A   1      40.058  28.093  32.486  1.00  0.00     0.031 C 
ATOM     23  C   UNL A   1      41.760  27.755  26.075  1.00  0.00     0.029 A 
ATOM     24  C   UNL A   1      42.694  27.248  27.064  1.00  0.00     0.049 A 
ATOM     25  H   UNL A   1      42.950  27.990  29.013  1.00  0.00     0.167 HD
ATOM     26  C   UNL A   1      42.426  28.337  33.375  1.00  0.00     0.034 A 
ATOM     27  C   UNL A   1      43.585  26.229  26.969  1.00  0.00     0.034 A 
ATOM     28  C   UNL A   1      43.593  29.122  33.067  1.00  0.00     0.049 A 
ATOM     29  C   UNL A   1      44.502  26.327  28.125  1.00  0.00     0.074 A 
ATOM     30  C   UNL A   1      43.885  30.469  33.000  1.00  0.00     0.029 A 
ATOM     31  N   UNL A   1      44.623  28.482  32.424  1.00  0.00    -0.354 N 
ATOM     32  N   UNL A   1      45.346  27.307  28.294  1.00  0.00    -0.248 NA
ATOM     33  C   UNL A   1      44.183  25.559  29.316  1.00  0.00     0.031 C 
ATOM     34  C   UNL A   1      44.797  30.590  31.910  1.00  0.00     0.029 A 
ATOM     35  C   UNL A   1      45.044  29.307  31.417  1.00  0.00     0.049 A 
ATOM     36  H   UNL A   1      44.991  27.596  32.646  1.00  0.00     0.167 HD
ATOM     37  C   UNL A   1      45.299  27.567  29.656  1.00  0.00     0.074 A 
ATOM     38  C   UNL A   1      44.656  26.394  30.246  1.00  0.00     0.031 C 
ATOM     39  C   UNL A   1      45.517  28.826  30.139  1.00  0.00     0.034 A 
BRANCH  26  40
ATOM     40  C   UNL A   1      42.528  27.096  34.242  1.00  0.00     0.023 A 
ATOM     41  C   UNL A   1      42.115  27.218  35.590  1.00  0.00     0.012 A 
ATOM     42  C   UNL A   1      43.272  25.940  33.907  1.00  0.00     0.148 A 
ATOM     43  C   UNL A   1      42.496  26.288  36.564  1.00  0.00     0.002 A 
ATOM     44  C   UNL A   1      43.586  24.983  34.866  1.00  0.00     0.091 A 
ATOM     45  F   UNL A   1      43.803  25.810  32.690  1.00  0.00    -0.205 F 
ATOM     46  C   UNL A   1      43.234  25.169  36.202  1.00  0.00     0.022 A 
BRANCH  44  47
ATOM     47  S   UNL A   1      44.503  23.496  34.436  1.00  0.00     0.127 S 
ATOM     48  O   UNL A   1      44.270  22.664  35.619  1.00  0.00    -0.237 OA
ATOM     49  O   UNL A   1      43.801  23.055  33.226  1.00  0.00    -0.237 OA
ATOM     50  O   UNL A   1      45.867  23.928  34.211  1.00  0.00    -0.744 OA
ENDBRANCH  44  47
ENDBRANCH  26  40
BRANCH  27  51
ATOM     51  C   UNL A   1      43.519  25.011  26.127  1.00  0.00     0.023 A 
ATOM     52  C   UNL A   1      44.480  24.795  25.119  1.00  0.00     0.012 A 
ATOM     53  C   UNL A   1      42.681  23.932  26.488  1.00  0.00     0.148 A 
ATOM     54  C   UNL A   1      44.617  23.542  24.508  1.00  0.00     0.002 A 
ATOM     55  C   UNL A   1      42.812  22.692  25.870  1.00  0.00     0.091 A 
ATOM     56  F   UNL A   1      41.821  24.095  27.502  1.00  0.00    -0.205 F 
ATOM     57  C   UNL A   1      43.787  22.490  24.887  1.00  0.00     0.022 A 
BRANCH  55  58
ATOM     58  S   UNL A   1      41.786  21.286  26.323  1.00  0.00     0.127 S 
ATOM     59  O   UNL A   1      42.101  21.130  27.744  1.00  0.00    -0.237 OA
ATOM     60  O   UNL A   1      40.444  21.790  26.046  1.00  0.00    -0.237 OA
ATOM     61  O   UNL A   1      42.232  20.180  25.487  1.00  0.00    -0.744 OA
ENDBRANCH  55  58
ENDBRANCH  27  51
BRANCH  39  62
ATOM     62  C   UNL A   1      46.032  29.872  29.184  1.00  0.00     0.023 A 
ATOM     63  C   UNL A   1      47.406  30.011  28.892  1.00  0.00     0.012 A 
ATOM     64  C   UNL A   1      45.103  30.610  28.433  1.00  0.00     0.148 A 
ATOM     65  C   UNL A   1      47.844  30.883  27.893  1.00  0.00     0.002 A 
ATOM     66  C   UNL A   1      45.538  31.442  27.409  1.00  0.00     0.091 A 
ATOM     67  F   UNL A   1      43.800  30.457  28.713  1.00  0.00    -0.205 F 
ATOM     68  C   UNL A   1      46.909  31.590  27.142  1.00  0.00     0.022 A 
BRANCH  66  69
ATOM     69  S   UNL A   1      44.384  32.278  26.320  1.00  0.00     0.127 S 
ATOM     70  O   UNL A   1      43.449  31.205  25.986  1.00  0.00    -0.237 OA
ATOM     71  O   UNL A   1      43.834  33.321  27.187  1.00  0.00    -0.237 OA
ATOM     72  O   UNL A   1      45.177  32.787  25.208  1.00  0.00    -0.744 OA
ENDBRANCH  66  69
ENDBRANCH  39  62
ENDBRANCH  13  14
ENDBRANCH   6   8
ENDBRANCH   3   4
ENDBRANCH   2   3
ENDBRANCH   1   2
BRANCH   1  73
ATOM     73  N   UNL A   1      31.739  29.576  24.455  1.00  0.00    -0.356 N 
ATOM     74  C   UNL A   1      30.786  29.656  23.493  1.00  0.00     0.224 C 
ATOM     75  H   UNL A   1      32.497  28.993  24.219  1.00  0.00     0.163 HD
ATOM     76  O   UNL A   1      31.091  29.168  22.398  1.00  0.00    -0.275 OA
BRANCH  74  77
ATOM     77  C   UNL A   1      29.344  30.084  23.772  1.00  0.00     0.098 C 
ATOM     78  C   UNL A   1      28.369  29.389  22.765  1.00  0.00     0.098 C 
ATOM     79  C   UNL A   1      28.888  31.562  23.656  1.00  0.00     0.025 C 
ATOM     80  C   UNL A   1      27.527  30.560  22.194  1.00  0.00     0.025 C 
ATOM     81  C   UNL A   1      29.249  32.086  22.286  1.00  0.00    -0.027 C 
ATOM     82  C   UNL A   1      27.370  31.460  23.410  1.00  0.00     0.017 C 
ATOM     83  C   UNL A   1      28.445  31.472  21.405  1.00  0.00    -0.027 C 
BRANCH  78  84
ATOM     84  C   UNL A   1      27.495  28.251  23.272  1.00  0.00     0.224 C 
ATOM     85  O   UNL A   1      26.282  28.450  23.432  1.00  0.00    -0.275 OA
ATOM     86  N   UNL A   1      27.924  27.026  23.663  1.00  0.00    -0.356 N 
ATOM     87  H   UNL A   1      27.203  26.476  24.045  1.00  0.00     0.163 HD
BRANCH  86  88
ATOM     88  C   UNL A   1      29.205  26.339  23.647  1.00  0.00     0.117 C 
BRANCH  88  89
ATOM     89  C   UNL A   1      29.912  26.396  24.998  1.00  0.00     0.043 C 
BRANCH  89  90
ATOM     90  C   UNL A   1      30.708  25.141  25.343  1.00  0.00     0.125 C 
BRANCH  90  91
ATOM     91  N   UNL A   1      32.126  25.289  25.085  1.00  0.00    -0.337 N 
ATOM     92  C   UNL A   1      33.103  25.526  26.012  1.00  0.00     0.107 A 
ATOM     93  C   UNL A   1      32.732  25.172  23.867  1.00  0.00     0.199 A 
ATOM     94  C   UNL A   1      34.282  25.439  25.310  1.00  0.00     0.130 A 
ATOM     95  N   UNL A   1      34.039  25.246  23.976  1.00  0.00    -0.245 NA
ENDBRANCH  90  91
ENDBRANCH  89  90
ENDBRANCH  88  89
ENDBRANCH  86  88
ENDBRANCH  78  84
ENDBRANCH  74  77
ENDBRANCH   1  73
TORSDOF 18
ENDMDL
MODEL 2
REMARK VINA RESULT:     -12.2      2.079      2.731
REMARK SMILES O=C(NCCCNC(=O)[C@@H]1[C@@H](C(=O)NCCCn2ccnc2)[C@@H]2C=C[C@H]1C2)c1ccc(-c2c3nc(c(-c4cccc(S(=O)(=O)[O-])c4F)c4ccc([nH]4)c(-c4cccc(S(=O)(=O)[O-])c4F)c4nc(c(-c5cccc(S(=O)(=O)[O-])c5F)c5ccc2[nH]5)C=C4)C=C3)cc1
REMARK SMILES IDX 6 1 5 2 4 3 3 4 1 5 2 6 28 8 29 9 90 10 30 11 89 12 31 13
REMARK SMILES IDX 32 14 33 15 83 16 34 17 88 18 82 19 84 20 35 21 87 22 81 23
REMARK SMILES IDX 80 24 36 26 68 27 48 28 67 29 49 30 52 31 66 32 85 33 50 34
REMARK SMILES IDX 51 35 65 37 86 38 53 39 37 40 38 41 46 42 39 43 41 44 47 45
REMARK SMILES IDX 40 46 42 47 43 48 44 49 45 50 69 51 70 52 78 53 71 54 73 55
REMARK SMILES IDX 79 56 72 57 74 58 75 59 76 60 77 61 54 62 55 63 63 64 56 65
REMARK SMILES IDX 58 66 64 67 57 68 59 69 60 70 61 71 62 72 7 73 8 74 9 76
REMARK SMILES IDX 10 77 11 78 26 79 23 80 25 81 27 82 24 83 12 84 13 85 14 86
REMARK SMILES IDX 15 88 16 89 17 90 18 91 19 92 22 93 20 94 21 95
REMARK H PARENT 3 7 84 25 52 36 7 75 14 87
REMARK Flexibility Score: inf
ROOT
ATOM      1  C   UNL A   1      33.279  28.190  26.896  1.00  0.00     0.117 C 
ENDROOT
BRANCH   1   2
ATOM      2  C   UNL A   1      32.675  29.527  27.299  1.00  0.00     0.042 C 
BRANCH   2   3
ATOM      3  C   UNL A   1      33.599  30.729  27.105  1.00  0.00     0.118 C 
BRANCH   3   4
ATOM      4  N   UNL A   1      33.838  31.530  28.289  1.00  0.00    -0.352 N 
ATOM      5  O   UNL A   1      34.733  32.652  29.957  1.00  0.00    -0.269 OA
ATOM      6  C   UNL A   1      34.915  31.794  29.089  1.00  0.00     0.251 C 
ATOM      7  H   UNL A   1      33.028  32.000  28.591  1.00  0.00     0.163 HD
BRANCH   6   8
ATOM      8  C   UNL A   1      36.217  31.078  29.041  1.00  0.00     0.039 A 
ATOM      9  C   UNL A   1      36.383  29.707  28.840  1.00  0.00     0.014 A 
ATOM     10  C   UNL A   1      37.356  31.870  29.275  1.00  0.00     0.014 A 
ATOM     11  C   UNL A   1      37.634  29.119  29.006  1.00  0.00     0.010 A 
ATOM     12  C   UNL A   1      38.612  31.295  29.409  1.00  0.00     0.010 A 
ATOM     13  C   UNL A   1      38.736  29.912  29.328  1.00  0.00    -0.014 A 
BRANCH  13  14
ATOM     14  C   UNL A   1      40.044  29.277  29.436  1.00  0.00     0.031 A 
ATOM     15  C   UNL A   1      40.526  29.085  30.834  1.00  0.00     0.074 A 
ATOM     16  C   UNL A   1      40.682  28.754  28.368  1.00  0.00     0.049 A 
ATOM     17  N   UNL A   1      41.601  29.549  31.386  1.00  0.00    -0.248 NA
ATOM     18  C   UNL A   1      39.627  28.390  31.770  1.00  0.00     0.031 C 
ATOM     19  C   UNL A   1      40.164  28.616  27.003  1.00  0.00     0.029 A 
ATOM     20  N   UNL A   1      41.870  28.087  28.315  1.00  0.00    -0.354 N 
ATOM     21  C   UNL A   1      41.621  29.011  32.675  1.00  0.00     0.074 A 
ATOM     22  C   UNL A   1      40.309  28.474  32.912  1.00  0.00     0.031 C 
ATOM     23  C   UNL A   1      40.899  27.696  26.342  1.00  0.00     0.029 A 
ATOM     24  C   UNL A   1      42.004  27.280  27.187  1.00  0.00     0.049 A 
ATOM     25  H   UNL A   1      42.566  28.169  29.006  1.00  0.00     0.167 HD
ATOM     26  C   UNL A   1      42.785  28.826  33.358  1.00  0.00     0.034 A 
ATOM     27  C   UNL A   1      42.896  26.274  27.011  1.00  0.00     0.034 A 
ATOM     28  C   UNL A   1      43.858  29.607  32.800  1.00  0.00     0.049 A 
ATOM     29  C   UNL A   1      43.994  26.473  27.981  1.00  0.00     0.074 A 
ATOM     30  C   UNL A   1      44.093  30.951  32.591  1.00  0.00     0.029 A 
ATOM     31  N   UNL A   1      44.782  28.941  32.035  1.00  0.00    -0.354 N 
ATOM     32  N   UNL A   1      44.824  27.478  27.934  1.00  0.00    -0.248 NA
ATOM     33  C   UNL A   1      43.907  25.789  29.260  1.00  0.00     0.031 C 
ATOM     34  C   UNL A   1      44.801  31.008  31.354  1.00  0.00     0.029 A 
ATOM     35  C   UNL A   1      44.999  29.696  30.916  1.00  0.00     0.049 A 
ATOM     36  H   UNL A   1      45.209  28.081  32.251  1.00  0.00     0.167 HD
ATOM     37  C   UNL A   1      45.002  27.837  29.262  1.00  0.00     0.074 A 
ATOM     38  C   UNL A   1      44.506  26.699  30.034  1.00  0.00     0.031 C 
ATOM     39  C   UNL A   1      45.261  29.132  29.612  1.00  0.00     0.034 A 
BRANCH  26  40
ATOM     40  C   UNL A   1      43.072  27.654  34.280  1.00  0.00     0.023 A 
ATOM     41  C   UNL A   1      43.233  27.942  35.655  1.00  0.00     0.012 A 
ATOM     42  C   UNL A   1      43.487  26.374  33.845  1.00  0.00     0.148 A 
ATOM     43  C   UNL A   1      43.852  27.041  36.529  1.00  0.00     0.002 A 
ATOM     44  C   UNL A   1      44.036  25.455  34.733  1.00  0.00     0.091 A 
ATOM     45  F   UNL A   1      43.484  26.069  32.546  1.00  0.00    -0.205 F 
ATOM     46  C   UNL A   1      44.255  25.796  36.068  1.00  0.00     0.022 A 
BRANCH  44  47
ATOM     47  S   UNL A   1      44.535  23.814  34.190  1.00  0.00     0.127 S 
ATOM     48  O   UNL A   1      45.632  24.137  33.274  1.00  0.00    -0.237 OA
ATOM     49  O   UNL A   1      44.951  23.197  35.454  1.00  0.00    -0.237 OA
ATOM     50  O   UNL A   1      43.355  23.221  33.596  1.00  0.00    -0.744 OA
ENDBRANCH  44  47
ENDBRANCH  26  40
BRANCH  27  51
ATOM     51  C   UNL A   1      42.724  24.996  26.279  1.00  0.00     0.023 A 
ATOM     52  C   UNL A   1      43.662  24.611  25.300  1.00  0.00     0.012 A 
ATOM     53  C   UNL A   1      41.799  24.028  26.730  1.00  0.00     0.148 A 
ATOM     54  C   UNL A   1      43.689  23.301  24.803  1.00  0.00     0.002 A 
ATOM     55  C   UNL A   1      41.822  22.732  26.225  1.00  0.00     0.091 A 
ATOM     56  F   UNL A   1      40.958  24.353  27.721  1.00  0.00    -0.205 F 
ATOM     57  C   UNL A   1      42.774  22.361  25.269  1.00  0.00     0.022 A 
BRANCH  55  58
ATOM     58  S   UNL A   1      40.680  21.464  26.795  1.00  0.00     0.127 S 
ATOM     59  O   UNL A   1      39.399  21.968  26.297  1.00  0.00    -0.237 OA
ATOM     60  O   UNL A   1      41.179  20.277  26.107  1.00  0.00    -0.237 OA
ATOM     61  O   UNL A   1      40.794  21.450  28.247  1.00  0.00    -0.744 OA
ENDBRANCH  55  58
ENDBRANCH  27  51
BRANCH  39  62
ATOM     62  C   UNL A   1      45.573  30.114  28.512  1.00  0.00     0.023 A 
ATOM     63  C   UNL A   1      44.567  30.874  27.876  1.00  0.00     0.012 A 
ATOM     64  C   UNL A   1      46.918  30.406  28.236  1.00  0.00     0.148 A 
ATOM     65  C   UNL A   1      44.895  31.884  26.969  1.00  0.00     0.002 A 
ATOM     66  C   UNL A   1      47.242  31.441  27.369  1.00  0.00     0.091 A 
ATOM     67  F   UNL A   1      47.863  29.685  28.858  1.00  0.00    -0.205 F 
ATOM     68  C   UNL A   1      46.234  32.176  26.724  1.00  0.00     0.022 A 
BRANCH  66  69
ATOM     69  S   UNL A   1      48.941  31.957  27.111  1.00  0.00     0.127 S 
ATOM     70  O   UNL A   1      49.545  30.748  26.553  1.00  0.00    -0.237 OA
ATOM     71  O   UNL A   1      48.792  33.062  26.162  1.00  0.00    -0.237 OA
ATOM     72  O   UNL A   1      49.441  32.361  28.419  1.00  0.00    -0.744 OA
ENDBRANCH  66  69
ENDBRANCH  39  62
ENDBRANCH  13  14
ENDBRANCH   6   8
ENDBRANCH   3   4
ENDBRANCH   2   3
ENDBRANCH   1   2
BRANCH   1  73
ATOM     73  N   UNL A   1      33.989  28.219  25.637  1.00  0.00    -0.356 N 
ATOM     74  C   UNL A   1      33.589  27.999  24.360  1.00  0.00     0.224 C 
ATOM     75  H   UNL A   1      34.944  28.442  25.723  1.00  0.00     0.163 HD
ATOM     76  O   UNL A   1      34.406  28.306  23.484  1.00  0.00    -0.275 OA
BRANCH  74  77
ATOM     77  C   UNL A   1      32.333  27.203  23.997  1.00  0.00     0.098 C 
ATOM     78  C   UNL A   1      32.179  27.114  22.443  1.00  0.00     0.098 C 
ATOM     79  C   UNL A   1      30.914  27.672  24.411  1.00  0.00     0.025 C 
ATOM     80  C   UNL A   1      30.720  27.575  22.187  1.00  0.00     0.025 C 
ATOM     81  C   UNL A   1      30.699  29.086  23.926  1.00  0.00    -0.027 C 
ATOM     82  C   UNL A   1      29.988  26.991  23.386  1.00  0.00     0.017 C 
ATOM     83  C   UNL A   1      30.600  29.032  22.589  1.00  0.00    -0.027 C 
BRANCH  78  84
ATOM     84  C   UNL A   1      32.487  25.789  21.759  1.00  0.00     0.224 C 
ATOM     85  O   UNL A   1      33.065  25.799  20.663  1.00  0.00    -0.275 OA
ATOM     86  N   UNL A   1      32.112  24.562  22.190  1.00  0.00    -0.356 N 
ATOM     87  H   UNL A   1      32.333  23.850  21.548  1.00  0.00     0.163 HD
BRANCH  86  88
ATOM     88  C   UNL A   1      31.455  24.054  23.384  1.00  0.00     0.117 C 
BRANCH  88  89
ATOM     89  C   UNL A   1      32.450  23.563  24.431  1.00  0.00     0.043 C 
BRANCH  89  90
ATOM     90  C   UNL A   1      33.170  22.271  24.055  1.00  0.00     0.125 C 
BRANCH  90  91
ATOM     91  N   UNL A   1      34.598  22.454  23.894  1.00  0.00    -0.337 N 
ATOM     92  C   UNL A   1      35.580  21.962  24.708  1.00  0.00     0.107 A 
ATOM     93  C   UNL A   1      35.206  23.116  22.866  1.00  0.00     0.199 A 
ATOM     94  C   UNL A   1      36.756  22.272  24.067  1.00  0.00     0.130 A 
ATOM     95  N   UNL A   1      36.514  23.012  22.939  1.00  0.00    -0.245 NA
ENDBRANCH  90  91
ENDBRANCH  89  90
ENDBRANCH  88  89
ENDBRANCH  86  88
ENDBRANCH  78  84
ENDBRANCH  74  77
ENDBRANCH   1  73
TORSDOF 18
ENDMDL
MODEL 3
REMARK VINA RESULT:     -12.0      1.798      2.507
REMARK SMILES O=C(NCCCNC(=O)[C@@H]1[C@@H](C(=O)NCCCn2ccnc2)[C@@H]2C=C[C@H]1C2)c1ccc(-c2c3nc(c(-c4cccc(S(=O)(=O)[O-])c4F)c4ccc([nH]4)c(-c4cccc(S(=O)(=O)[O-])c4F)c4nc(c(-c5cccc(S(=O)(=O)[O-])c5F)c5ccc2[nH]5)C=C4)C=C3)cc1
REMARK SMILES IDX 6 1 5 2 4 3 3 4 1 5 2 6 28 8 29 9 90 10 30 11 89 12 31 13
REMARK SMILES IDX 32 14 33 15 83 16 34 17 88 18 82 19 84 20 35 21 87 22 81 23
REMARK SMILES IDX 80 24 36 26 68 27 48 28 67 29 49 30 52 31 66 32 85 33 50 34
REMARK SMILES IDX 51 35 65 37 86 38 53 39 37 40 38 41 46 42 39 43 41 44 47 45
REMARK SMILES IDX 40 46 42 47 43 48 44 49 45 50 69 51 70 52 78 53 71 54 73 55
REMARK SMILES IDX 79 56 72 57 74 58 75 59 76 60 77 61 54 62 55 63 63 64 56 65
REMARK SMILES IDX 58 66 64 67 57 68 59 69 60 70 61 71 62 72 7 73 8 74 9 76
REMARK SMILES IDX 10 77 11 78 26 79 23 80 25 81 27 82 24 83 12 84 13 85 14 86
REMARK SMILES IDX 15 88 16 89 17 90 18 91 19 92 22 93 20 94 21 95
REMARK H PARENT 3 7 84 25 52 36 7 75 14 87
REMARK Flexibility Score: inf
ROOT
ATOM      1  C   UNL A   1      31.746  28.881  27.332  1.00  0.00     0.117 C 
ENDROOT
BRANCH   1   2
ATOM      2  C   UNL A   1      32.427  30.169  26.898  1.00  0.00     0.042 C 
BRANCH   2   3
ATOM      3  C   UNL A   1      33.920  30.242  27.218  1.00  0.00     0.118 C 
BRANCH   3   4
ATOM      4  N   UNL A   1      34.336  31.386  28.004  1.00  0.00    -0.352 N 
ATOM      5  O   UNL A   1      35.473  32.946  29.059  1.00  0.00    -0.269 OA
ATOM      6  C   UNL A   1      35.511  31.825  28.545  1.00  0.00     0.251 C 
ATOM      7  H   UNL A   1      33.589  31.997  28.195  1.00  0.00     0.163 HD
BRANCH   6   8
ATOM      8  C   UNL A   1      36.767  31.033  28.631  1.00  0.00     0.039 A 
ATOM      9  C   UNL A   1      36.900  29.684  28.301  1.00  0.00     0.014 A 
ATOM     10  C   UNL A   1      37.885  31.718  29.141  1.00  0.00     0.014 A 
ATOM     11  C   UNL A   1      38.074  29.000  28.601  1.00  0.00     0.010 A 
ATOM     12  C   UNL A   1      39.070  31.050  29.412  1.00  0.00     0.010 A 
ATOM     13  C   UNL A   1      39.140  29.677  29.192  1.00  0.00    -0.014 A 
BRANCH  13  14
ATOM     14  C   UNL A   1      40.379  28.949  29.440  1.00  0.00     0.031 A 
ATOM     15  C   UNL A   1      40.671  28.697  30.881  1.00  0.00     0.074 A 
ATOM     16  C   UNL A   1      41.105  28.402  28.444  1.00  0.00     0.049 A 
ATOM     17  N   UNL A   1      41.699  29.073  31.571  1.00  0.00    -0.248 NA
ATOM     18  C   UNL A   1      39.618  28.051  31.682  1.00  0.00     0.031 C 
ATOM     19  C   UNL A   1      40.751  28.326  27.022  1.00  0.00     0.029 A 
ATOM     20  N   UNL A   1      42.243  27.653  28.517  1.00  0.00    -0.354 N 
ATOM     21  C   UNL A   1      41.525  28.511  32.838  1.00  0.00     0.074 A 
ATOM     22  C   UNL A   1      40.160  28.065  32.899  1.00  0.00     0.031 C 
ATOM     23  C   UNL A   1      41.496  27.369  26.430  1.00  0.00     0.029 A 
ATOM     24  C   UNL A   1      42.458  26.860  27.392  1.00  0.00     0.049 A 
ATOM     25  H   UNL A   1      42.852  27.671  29.289  1.00  0.00     0.167 HD
ATOM     26  C   UNL A   1      42.581  28.230  33.652  1.00  0.00     0.034 A 
ATOM     27  C   UNL A   1      43.294  25.795  27.297  1.00  0.00     0.034 A 
ATOM     28  C   UNL A   1      43.765  28.943  33.249  1.00  0.00     0.049 A 
ATOM     29  C   UNL A   1      44.276  25.898  28.398  1.00  0.00     0.074 A 
ATOM     30  C   UNL A   1      44.115  30.270  33.106  1.00  0.00     0.029 A 
ATOM     31  N   UNL A   1      44.728  28.227  32.583  1.00  0.00    -0.354 N 
ATOM     32  N   UNL A   1      45.172  26.841  28.479  1.00  0.00    -0.248 NA
ATOM     33  C   UNL A   1      43.985  25.198  29.639  1.00  0.00     0.031 C 
ATOM     34  C   UNL A   1      44.972  30.300  31.966  1.00  0.00     0.029 A 
ATOM     35  C   UNL A   1      45.132  28.986  31.520  1.00  0.00     0.049 A 
ATOM     36  H   UNL A   1      45.065  27.335  32.826  1.00  0.00     0.167 HD
ATOM     37  C   UNL A   1      45.210  27.162  29.829  1.00  0.00     0.074 A 
ATOM     38  C   UNL A   1      44.546  26.048  30.504  1.00  0.00     0.031 C 
ATOM     39  C   UNL A   1      45.512  28.428  30.242  1.00  0.00     0.034 A 
BRANCH  26  40
ATOM     40  C   UNL A   1      42.671  27.024  34.569  1.00  0.00     0.023 A 
ATOM     41  C   UNL A   1      42.350  27.226  35.931  1.00  0.00     0.012 A 
ATOM     42  C   UNL A   1      43.331  25.816  34.244  1.00  0.00     0.148 A 
ATOM     43  C   UNL A   1      42.742  26.320  36.923  1.00  0.00     0.002 A 
ATOM     44  C   UNL A   1      43.653  24.885  35.226  1.00  0.00     0.091 A 
ATOM     45  F   UNL A   1      43.778  25.604  33.004  1.00  0.00    -0.205 F 
ATOM     46  C   UNL A   1      43.395  25.148  36.570  1.00  0.00     0.022 A 
BRANCH  44  47
ATOM     47  S   UNL A   1      44.463  23.333  34.811  1.00  0.00     0.127 S 
ATOM     48  O   UNL A   1      44.632  22.735  36.137  1.00  0.00    -0.237 OA
ATOM     49  O   UNL A   1      43.451  22.686  33.969  1.00  0.00    -0.237 OA
ATOM     50  O   UNL A   1      45.677  23.698  34.110  1.00  0.00    -0.744 OA
ENDBRANCH  44  47
ENDBRANCH  26  40
BRANCH  27  51
ATOM     51  C   UNL A   1      43.125  24.547  26.516  1.00  0.00     0.023 A 
ATOM     52  C   UNL A   1      44.157  24.101  25.665  1.00  0.00     0.012 A 
ATOM     53  C   UNL A   1      42.073  23.651  26.809  1.00  0.00     0.148 A 
ATOM     54  C   UNL A   1      44.151  22.801  25.143  1.00  0.00     0.002 A 
ATOM     55  C   UNL A   1      42.064  22.365  26.278  1.00  0.00     0.091 A 
ATOM     56  F   UNL A   1      41.130  24.029  27.682  1.00  0.00    -0.205 F 
ATOM     57  C   UNL A   1      43.108  21.932  25.453  1.00  0.00     0.022 A 
BRANCH  55  58
ATOM     58  S   UNL A   1      40.757  21.187  26.652  1.00  0.00     0.127 S 
ATOM     59  O   UNL A   1      41.256  19.971  26.006  1.00  0.00    -0.237 OA
ATOM     60  O   UNL A   1      40.784  21.159  28.111  1.00  0.00    -0.237 OA
ATOM     61  O   UNL A   1      39.547  21.730  26.051  1.00  0.00    -0.744 OA
ENDBRANCH  55  58
ENDBRANCH  27  51
BRANCH  39  62
ATOM     62  C   UNL A   1      46.023  29.406  29.215  1.00  0.00     0.023 A 
ATOM     63  C   UNL A   1      47.370  29.412  28.789  1.00  0.00     0.012 A 
ATOM     64  C   UNL A   1      45.095  30.213  28.537  1.00  0.00     0.148 A 
ATOM     65  C   UNL A   1      47.784  30.224  27.731  1.00  0.00     0.002 A 
ATOM     66  C   UNL A   1      45.502  30.983  27.455  1.00  0.00     0.091 A 
ATOM     67  F   UNL A   1      43.817  30.185  28.944  1.00  0.00    -0.205 F 
ATOM     68  C   UNL A   1      46.847  31.000  27.055  1.00  0.00     0.022 A 
BRANCH  66  69
ATOM     69  S   UNL A   1      44.326  31.902  26.460  1.00  0.00     0.127 S 
ATOM     70  O   UNL A   1      45.159  32.357  25.348  1.00  0.00    -0.237 OA
ATOM     71  O   UNL A   1      43.343  30.876  26.109  1.00  0.00    -0.237 OA
ATOM     72  O   UNL A   1      43.804  32.954  27.324  1.00  0.00    -0.744 OA
ENDBRANCH  66  69
ENDBRANCH  39  62
ENDBRANCH  13  14
ENDBRANCH   6   8
ENDBRANCH   3   4
ENDBRANCH   2   3
ENDBRANCH   1   2
BRANCH   1  73
ATOM     73  N   UNL A   1      32.488  27.683  27.006  1.00  0.00    -0.356 N 
ATOM     74  C   UNL A   1      32.698  27.031  25.835  1.00  0.00     0.224 C 
ATOM     75  H   UNL A   1      32.923  27.260  27.781  1.00  0.00     0.163 HD
ATOM     76  O   UNL A   1      33.557  26.141  25.867  1.00  0.00    -0.275 OA
BRANCH  74  77
ATOM     77  C   UNL A   1      31.792  27.185  24.612  1.00  0.00     0.098 C 
ATOM     78  C   UNL A   1      32.104  26.066  23.564  1.00  0.00     0.098 C 
ATOM     79  C   UNL A   1      31.827  28.450  23.716  1.00  0.00     0.025 C 
ATOM     80  C   UNL A   1      32.307  26.845  22.238  1.00  0.00     0.025 C 
ATOM     81  C   UNL A   1      33.243  28.689  23.251  1.00  0.00    -0.027 C 
ATOM     82  C   UNL A   1      31.278  27.958  22.363  1.00  0.00     0.017 C 
ATOM     83  C   UNL A   1      33.540  27.715  22.376  1.00  0.00    -0.027 C 
BRANCH  78  84
ATOM     84  C   UNL A   1      31.110  24.922  23.408  1.00  0.00     0.224 C 
ATOM     85  O   UNL A   1      29.912  25.132  23.641  1.00  0.00    -0.275 OA
ATOM     86  N   UNL A   1      31.414  23.635  23.115  1.00  0.00    -0.356 N 
ATOM     87  H   UNL A   1      30.630  23.042  23.156  1.00  0.00     0.163 HD
BRANCH  86  88
ATOM     88  C   UNL A   1      32.633  22.928  22.756  1.00  0.00     0.117 C 
BRANCH  88  89
ATOM     89  C   UNL A   1      32.722  21.553  23.411  1.00  0.00     0.043 C 
BRANCH  89  90
ATOM     90  C   UNL A   1      31.933  21.425  24.711  1.00  0.00     0.125 C 
BRANCH  90  91
ATOM     91  N   UNL A   1      32.724  21.749  25.880  1.00  0.00    -0.337 N 
ATOM     92  C   UNL A   1      32.382  22.615  26.882  1.00  0.00     0.107 A 
ATOM     93  C   UNL A   1      33.935  21.205  26.200  1.00  0.00     0.199 A 
ATOM     94  C   UNL A   1      33.374  22.473  27.823  1.00  0.00     0.130 A 
ATOM     95  N   UNL A   1      34.346  21.616  27.378  1.00  0.00    -0.245 NA
ENDBRANCH  90  91
ENDBRANCH  89  90
ENDBRANCH  88  89
ENDBRANCH  86  88
ENDBRANCH  78  84
ENDBRANCH  74  77
ENDBRANCH   1  73
TORSDOF 18
ENDMDL
