MODEL 1
REMARK VINA RESULT:     -12.4      0.000      0.000
REMARK SMILES C[C@@H](C(=O)NCCCNC(=O)c1ccc(-c2c3nc(c(-c4cccc(S(=O)(=O)[O-])c4F)c4ccc([nH]4)c(-c4cccc(S(=O)(=O)[O-])c4F)c4nc(c(-c5cccc(S(=O)(=O)[O-])c5F)c5ccc2[nH]5)C=C4)C=C3)cc1)c1ccc2c(c1)[nH]c1ccc(Cl)cc12
REMARK SMILES IDX 8 1 7 2 6 3 5 4 3 5 4 6 2 8 1 9 75 10 76 11 80 12 77 13
REMARK SMILES IDX 79 14 78 15 81 16 88 17 82 18 87 20 83 21 85 22 84 23 86 24
REMARK SMILES IDX 9 25 10 26 11 28 12 29 13 30 74 31 14 32 73 33 15 34 16 35
REMARK SMILES IDX 17 36 67 37 18 38 72 39 66 40 68 41 19 42 71 43 65 44 64 45
REMARK SMILES IDX 20 47 52 48 32 49 51 50 33 51 36 52 50 53 69 54 34 55 35 56
REMARK SMILES IDX 49 58 70 59 37 60 21 61 22 62 30 63 23 64 25 65 31 66 24 67
REMARK SMILES IDX 26 68 27 69 28 70 29 71 53 72 54 73 62 74 55 75 57 76 63 77
REMARK SMILES IDX 56 78 58 79 59 80 60 81 61 82 38 83 39 84 47 85 40 86 42 87
REMARK SMILES IDX 48 88 41 89 43 90 44 91 45 92 46 93
REMARK H PARENT 5 7 81 19 9 27 68 46 36 57
REMARK Flexibility Score: inf
ROOT
ATOM      1  C   UNL A   1      38.724  20.261  25.752  1.00  0.00     0.118 C 
ENDROOT
BRANCH   1   2
ATOM      2  C   UNL A   1      37.737  19.841  24.667  1.00  0.00     0.042 C 
BRANCH   2   3
ATOM      3  C   UNL A   1      36.271  19.940  25.077  1.00  0.00     0.117 C 
BRANCH   3   4
ATOM      4  N   UNL A   1      36.019  21.127  25.873  1.00  0.00    -0.356 N 
ATOM      5  C   UNL A   1      35.600  22.370  25.499  1.00  0.00     0.227 C 
ATOM      6  O   UNL A   1      35.582  23.233  26.379  1.00  0.00    -0.274 OA
ATOM      7  H   UNL A   1      36.175  21.017  26.838  1.00  0.00     0.163 HD
BRANCH   5   8
ATOM      8  C   UNL A   1      35.140  22.632  24.051  1.00  0.00     0.105 C 
ATOM      9  C   UNL A   1      36.336  23.058  23.198  1.00  0.00     0.023 C 
BRANCH   8  10
ATOM     10  C   UNL A   1      33.949  23.593  24.026  1.00  0.00    -0.034 A 
ATOM     11  C   UNL A   1      32.615  23.177  24.140  1.00  0.00     0.005 A 
ATOM     12  C   UNL A   1      34.224  24.958  23.813  1.00  0.00     0.031 A 
ATOM     13  C   UNL A   1      31.551  24.090  24.042  1.00  0.00     0.011 A 
ATOM     14  C   UNL A   1      33.150  25.835  23.634  1.00  0.00     0.047 A 
ATOM     15  C   UNL A   1      31.822  25.444  23.760  1.00  0.00     0.007 A 
ATOM     16  N   UNL A   1      33.153  27.157  23.268  1.00  0.00    -0.355 N 
ATOM     17  C   UNL A   1      31.013  26.600  23.513  1.00  0.00     0.009 A 
ATOM     18  C   UNL A   1      31.871  27.627  23.118  1.00  0.00     0.047 A 
ATOM     19  H   UNL A   1      33.965  27.698  23.131  1.00  0.00     0.167 HD
ATOM     20  C   UNL A   1      29.626  26.855  23.534  1.00  0.00     0.031 A 
ATOM     21  C   UNL A   1      31.418  28.867  22.656  1.00  0.00     0.028 A 
ATOM     22  C   UNL A   1      29.162  28.106  23.111  1.00  0.00     0.041 A 
ATOM     23  C   UNL A   1      30.038  29.086  22.651  1.00  0.00     0.022 A 
ATOM     24  Cl  UNL A   1      27.472  28.438  23.148  1.00  0.00    -0.084 Cl
ENDBRANCH   8  10
ENDBRANCH   5   8
ENDBRANCH   3   4
ENDBRANCH   2   3
ENDBRANCH   1   2
BRANCH   1  25
ATOM     25  N   UNL A   1      39.780  19.281  25.964  1.00  0.00    -0.352 N 
ATOM     26  C   UNL A   1      41.119  19.463  26.219  1.00  0.00     0.251 C 
ATOM     27  H   UNL A   1      39.491  18.341  25.916  1.00  0.00     0.163 HD
ATOM     28  O   UNL A   1      41.870  18.494  26.193  1.00  0.00    -0.269 OA
BRANCH  26  29
ATOM     29  C   UNL A   1      41.660  20.813  26.505  1.00  0.00     0.039 A 
ATOM     30  C   UNL A   1      41.809  21.715  25.446  1.00  0.00     0.014 A 
ATOM     31  C   UNL A   1      42.050  21.186  27.793  1.00  0.00     0.014 A 
ATOM     32  C   UNL A   1      42.291  23.004  25.690  1.00  0.00     0.010 A 
ATOM     33  C   UNL A   1      42.453  22.496  28.048  1.00  0.00     0.010 A 
ATOM     34  C   UNL A   1      42.586  23.418  26.998  1.00  0.00    -0.014 A 
BRANCH  34  35
ATOM     35  C   UNL A   1      43.025  24.810  27.289  1.00  0.00     0.031 A 
ATOM     36  C   UNL A   1      42.083  25.786  27.943  1.00  0.00     0.074 A 
ATOM     37  C   UNL A   1      44.245  25.221  26.890  1.00  0.00     0.049 A 
ATOM     38  N   UNL A   1      42.271  27.050  28.227  1.00  0.00    -0.248 NA
ATOM     39  C   UNL A   1      40.747  25.286  28.302  1.00  0.00     0.031 C 
ATOM     40  C   UNL A   1      45.226  24.396  26.184  1.00  0.00     0.029 A 
ATOM     41  N   UNL A   1      44.858  26.445  26.998  1.00  0.00    -0.354 N 
ATOM     42  C   UNL A   1      41.070  27.505  28.758  1.00  0.00     0.074 A 
ATOM     43  C   UNL A   1      40.149  26.390  28.726  1.00  0.00     0.031 C 
ATOM     44  C   UNL A   1      46.319  25.133  25.929  1.00  0.00     0.029 A 
ATOM     45  C   UNL A   1      46.104  26.491  26.419  1.00  0.00     0.049 A 
ATOM     46  H   UNL A   1      44.444  27.218  27.447  1.00  0.00     0.167 HD
ATOM     47  C   UNL A   1      40.765  28.730  29.249  1.00  0.00     0.034 A 
ATOM     48  C   UNL A   1      46.975  27.511  26.286  1.00  0.00     0.034 A 
ATOM     49  C   UNL A   1      41.693  29.828  29.309  1.00  0.00     0.049 A 
ATOM     50  C   UNL A   1      46.623  28.855  26.862  1.00  0.00     0.074 A 
ATOM     51  C   UNL A   1      41.509  31.079  29.871  1.00  0.00     0.029 A 
ATOM     52  N   UNL A   1      42.972  29.815  28.776  1.00  0.00    -0.354 N 
ATOM     53  N   UNL A   1      45.540  29.222  27.502  1.00  0.00    -0.248 NA
ATOM     54  C   UNL A   1      47.631  29.918  26.731  1.00  0.00     0.031 C 
ATOM     55  C   UNL A   1      42.664  31.835  29.644  1.00  0.00     0.029 A 
ATOM     56  C   UNL A   1      43.584  31.040  28.979  1.00  0.00     0.049 A 
ATOM     57  H   UNL A   1      43.385  29.047  28.319  1.00  0.00     0.167 HD
ATOM     58  C   UNL A   1      45.750  30.543  27.883  1.00  0.00     0.074 A 
ATOM     59  C   UNL A   1      47.071  30.906  27.417  1.00  0.00     0.031 C 
ATOM     60  C   UNL A   1      44.918  31.379  28.552  1.00  0.00     0.034 A 
BRANCH  47  61
ATOM     61  C   UNL A   1      39.375  28.938  29.796  1.00  0.00     0.023 A 
ATOM     62  C   UNL A   1      39.079  28.563  31.123  1.00  0.00     0.012 A 
ATOM     63  C   UNL A   1      38.372  29.542  29.011  1.00  0.00     0.148 A 
ATOM     64  C   UNL A   1      37.799  28.743  31.646  1.00  0.00     0.002 A 
ATOM     65  C   UNL A   1      37.112  29.764  29.555  1.00  0.00     0.091 A 
ATOM     66  F   UNL A   1      38.662  29.875  27.746  1.00  0.00    -0.205 F 
ATOM     67  C   UNL A   1      36.819  29.351  30.866  1.00  0.00     0.022 A 
BRANCH  65  68
ATOM     68  S   UNL A   1      35.808  30.616  28.662  1.00  0.00     0.127 S 
ATOM     69  O   UNL A   1      35.106  29.501  28.027  1.00  0.00    -0.237 OA
ATOM     70  O   UNL A   1      35.067  31.266  29.743  1.00  0.00    -0.237 OA
ATOM     71  O   UNL A   1      36.479  31.533  27.750  1.00  0.00    -0.744 OA
ENDBRANCH  65  68
ENDBRANCH  47  61
BRANCH  48  72
ATOM     72  C   UNL A   1      48.295  27.280  25.633  1.00  0.00     0.023 A 
ATOM     73  C   UNL A   1      49.377  26.813  26.405  1.00  0.00     0.012 A 
ATOM     74  C   UNL A   1      48.475  27.488  24.252  1.00  0.00     0.148 A 
ATOM     75  C   UNL A   1      50.622  26.585  25.820  1.00  0.00     0.002 A 
ATOM     76  C   UNL A   1      49.703  27.205  23.664  1.00  0.00     0.091 A 
ATOM     77  F   UNL A   1      47.435  27.938  23.537  1.00  0.00    -0.205 F 
ATOM     78  C   UNL A   1      50.783  26.771  24.450  1.00  0.00     0.022 A 
BRANCH  76  79
ATOM     79  S   UNL A   1      49.969  27.289  21.890  1.00  0.00     0.127 S 
ATOM     80  O   UNL A   1      49.811  28.717  21.631  1.00  0.00    -0.237 OA
ATOM     81  O   UNL A   1      51.339  26.787  21.769  1.00  0.00    -0.237 OA
ATOM     82  O   UNL A   1      48.957  26.425  21.297  1.00  0.00    -0.744 OA
ENDBRANCH  76  79
ENDBRANCH  48  72
BRANCH  60  83
ATOM     83  C   UNL A   1      45.423  32.764  28.868  1.00  0.00     0.023 A 
ATOM     84  C   UNL A   1      46.109  33.010  30.075  1.00  0.00     0.012 A 
ATOM     85  C   UNL A   1      45.279  33.807  27.932  1.00  0.00     0.148 A 
ATOM     86  C   UNL A   1      46.612  34.279  30.358  1.00  0.00     0.002 A 
ATOM     87  C   UNL A   1      45.830  35.055  28.197  1.00  0.00     0.091 A 
ATOM     88  F   UNL A   1      44.607  33.560  26.798  1.00  0.00    -0.205 F 
ATOM     89  C   UNL A   1      46.484  35.297  29.415  1.00  0.00     0.022 A 
BRANCH  87  90
ATOM     90  S   UNL A   1      45.800  36.396  27.001  1.00  0.00     0.127 S 
ATOM     91  O   UNL A   1      46.348  35.746  25.812  1.00  0.00    -0.237 OA
ATOM     92  O   UNL A   1      44.373  36.708  26.923  1.00  0.00    -0.237 OA
ATOM     93  O   UNL A   1      46.621  37.458  27.566  1.00  0.00    -0.744 OA
ENDBRANCH  87  90
ENDBRANCH  60  83
ENDBRANCH  34  35
ENDBRANCH  26  29
ENDBRANCH   1  25
TORSDOF 14
ENDMDL
MODEL 2
REMARK VINA RESULT:     -12.3      1.678      7.881
REMARK SMILES C[C@@H](C(=O)NCCCNC(=O)c1ccc(-c2c3nc(c(-c4cccc(S(=O)(=O)[O-])c4F)c4ccc([nH]4)c(-c4cccc(S(=O)(=O)[O-])c4F)c4nc(c(-c5cccc(S(=O)(=O)[O-])c5F)c5ccc2[nH]5)C=C4)C=C3)cc1)c1ccc2c(c1)[nH]c1ccc(Cl)cc12
REMARK SMILES IDX 8 1 7 2 6 3 5 4 3 5 4 6 2 8 1 9 75 10 76 11 80 12 77 13
REMARK SMILES IDX 79 14 78 15 81 16 88 17 82 18 87 20 83 21 85 22 84 23 86 24
REMARK SMILES IDX 9 25 10 26 11 28 12 29 13 30 74 31 14 32 73 33 15 34 16 35
REMARK SMILES IDX 17 36 67 37 18 38 72 39 66 40 68 41 19 42 71 43 65 44 64 45
REMARK SMILES IDX 20 47 52 48 32 49 51 50 33 51 36 52 50 53 69 54 34 55 35 56
REMARK SMILES IDX 49 58 70 59 37 60 21 61 22 62 30 63 23 64 25 65 31 66 24 67
REMARK SMILES IDX 26 68 27 69 28 70 29 71 53 72 54 73 62 74 55 75 57 76 63 77
REMARK SMILES IDX 56 78 58 79 59 80 60 81 61 82 38 83 39 84 47 85 40 86 42 87
REMARK SMILES IDX 48 88 41 89 43 90 44 91 45 92 46 93
REMARK H PARENT 5 7 81 19 9 27 68 46 36 57
REMARK Flexibility Score: inf
ROOT
ATOM      1  C   UNL A   1      37.732  21.453  25.125  1.00  0.00     0.118 C 
ENDROOT
BRANCH   1   2
ATOM      2  C   UNL A   1      36.278  21.009  25.258  1.00  0.00     0.042 C 
BRANCH   2   3
ATOM      3  C   UNL A   1      35.267  22.152  25.247  1.00  0.00     0.117 C 
BRANCH   3   4
ATOM      4  N   UNL A   1      34.573  22.239  23.975  1.00  0.00    -0.356 N 
ATOM      5  C   UNL A   1      33.336  22.729  23.675  1.00  0.00     0.227 C 
ATOM      6  O   UNL A   1      32.946  22.568  22.516  1.00  0.00    -0.274 OA
ATOM      7  H   UNL A   1      35.076  21.887  23.206  1.00  0.00     0.163 HD
BRANCH   5   8
ATOM      8  C   UNL A   1      32.516  23.477  24.745  1.00  0.00     0.105 C 
ATOM      9  C   UNL A   1      31.541  22.511  25.418  1.00  0.00     0.023 C 
BRANCH   8  10
ATOM     10  C   UNL A   1      31.879  24.738  24.155  1.00  0.00    -0.034 A 
ATOM     11  C   UNL A   1      32.616  25.848  23.718  1.00  0.00     0.005 A 
ATOM     12  C   UNL A   1      30.472  24.794  24.116  1.00  0.00     0.031 A 
ATOM     13  C   UNL A   1      31.982  27.010  23.248  1.00  0.00     0.011 A 
ATOM     14  C   UNL A   1      29.862  25.989  23.726  1.00  0.00     0.047 A 
ATOM     15  C   UNL A   1      30.576  27.093  23.273  1.00  0.00     0.007 A 
ATOM     16  N   UNL A   1      28.536  26.342  23.749  1.00  0.00    -0.355 N 
ATOM     17  C   UNL A   1      29.623  28.118  22.965  1.00  0.00     0.009 A 
ATOM     18  C   UNL A   1      28.371  27.649  23.361  1.00  0.00     0.047 A 
ATOM     19  H   UNL A   1      27.802  25.740  24.009  1.00  0.00     0.167 HD
ATOM     20  C   UNL A   1      29.716  29.422  22.437  1.00  0.00     0.031 A 
ATOM     21  C   UNL A   1      27.217  28.441  23.345  1.00  0.00     0.028 A 
ATOM     22  C   UNL A   1      28.563  30.212  22.379  1.00  0.00     0.041 A 
ATOM     23  C   UNL A   1      27.340  29.743  22.851  1.00  0.00     0.022 A 
ATOM     24  Cl  UNL A   1      28.657  31.801  21.720  1.00  0.00    -0.084 Cl
ENDBRANCH   8  10
ENDBRANCH   5   8
ENDBRANCH   3   4
ENDBRANCH   2   3
ENDBRANCH   1   2
BRANCH   1  25
ATOM     25  N   UNL A   1      38.664  20.519  25.742  1.00  0.00    -0.352 N 
ATOM     26  C   UNL A   1      39.833  20.757  26.425  1.00  0.00     0.251 C 
ATOM     27  H   UNL A   1      38.419  19.569  25.656  1.00  0.00     0.163 HD
ATOM     28  O   UNL A   1      40.560  19.812  26.714  1.00  0.00    -0.269 OA
BRANCH  26  29
ATOM     29  C   UNL A   1      40.229  22.137  26.794  1.00  0.00     0.039 A 
ATOM     30  C   UNL A   1      41.182  22.315  27.803  1.00  0.00     0.014 A 
ATOM     31  C   UNL A   1      39.652  23.251  26.182  1.00  0.00     0.014 A 
ATOM     32  C   UNL A   1      41.595  23.603  28.154  1.00  0.00     0.010 A 
ATOM     33  C   UNL A   1      40.123  24.530  26.475  1.00  0.00     0.010 A 
ATOM     34  C   UNL A   1      41.094  24.722  27.470  1.00  0.00    -0.014 A 
BRANCH  34  35
ATOM     35  C   UNL A   1      41.578  26.096  27.773  1.00  0.00     0.031 A 
ATOM     36  C   UNL A   1      42.987  26.502  27.429  1.00  0.00     0.074 A 
ATOM     37  C   UNL A   1      40.777  26.954  28.434  1.00  0.00     0.049 A 
ATOM     38  N   UNL A   1      43.599  27.634  27.662  1.00  0.00    -0.248 NA
ATOM     39  C   UNL A   1      43.826  25.496  26.758  1.00  0.00     0.031 C 
ATOM     40  C   UNL A   1      39.416  26.661  28.888  1.00  0.00     0.029 A 
ATOM     41  N   UNL A   1      41.000  28.239  28.864  1.00  0.00    -0.354 N 
ATOM     42  C   UNL A   1      44.901  27.465  27.206  1.00  0.00     0.074 A 
ATOM     43  C   UNL A   1      45.000  26.109  26.712  1.00  0.00     0.031 C 
ATOM     44  C   UNL A   1      38.924  27.737  29.524  1.00  0.00     0.029 A 
ATOM     45  C   UNL A   1      39.943  28.781  29.557  1.00  0.00     0.049 A 
ATOM     46  H   UNL A   1      41.838  28.727  28.692  1.00  0.00     0.167 HD
ATOM     47  C   UNL A   1      45.918  28.361  27.177  1.00  0.00     0.034 A 
ATOM     48  C   UNL A   1      39.809  29.978  30.161  1.00  0.00     0.034 A 
ATOM     49  C   UNL A   1      45.807  29.719  27.639  1.00  0.00     0.049 A 
ATOM     50  C   UNL A   1      40.942  30.965  30.093  1.00  0.00     0.074 A 
ATOM     51  C   UNL A   1      46.750  30.730  27.570  1.00  0.00     0.029 A 
ATOM     52  N   UNL A   1      44.696  30.254  28.273  1.00  0.00    -0.354 N 
ATOM     53  N   UNL A   1      42.113  30.840  29.518  1.00  0.00    -0.248 NA
ATOM     54  C   UNL A   1      40.723  32.273  30.728  1.00  0.00     0.031 C 
ATOM     55  C   UNL A   1      46.222  31.865  28.194  1.00  0.00     0.029 A 
ATOM     56  C   UNL A   1      44.934  31.574  28.614  1.00  0.00     0.049 A 
ATOM     57  H   UNL A   1      43.861  29.766  28.452  1.00  0.00     0.167 HD
ATOM     58  C   UNL A   1      42.754  32.063  29.685  1.00  0.00     0.074 A 
ATOM     59  C   UNL A   1      41.833  32.920  30.402  1.00  0.00     0.031 C 
ATOM     60  C   UNL A   1      43.995  32.436  29.287  1.00  0.00     0.034 A 
BRANCH  47  61
ATOM     61  C   UNL A   1      47.232  27.909  26.593  1.00  0.00     0.023 A 
ATOM     62  C   UNL A   1      48.279  27.507  27.447  1.00  0.00     0.012 A 
ATOM     63  C   UNL A   1      47.418  27.840  25.197  1.00  0.00     0.148 A 
ATOM     64  C   UNL A   1      49.504  27.089  26.927  1.00  0.00     0.002 A 
ATOM     65  C   UNL A   1      48.623  27.375  24.685  1.00  0.00     0.091 A 
ATOM     66  F   UNL A   1      46.421  28.243  24.398  1.00  0.00    -0.205 F 
ATOM     67  C   UNL A   1      49.673  27.015  25.548  1.00  0.00     0.022 A 
BRANCH  65  68
ATOM     68  S   UNL A   1      48.910  27.161  22.925  1.00  0.00     0.127 S 
ATOM     69  O   UNL A   1      50.371  27.159  22.861  1.00  0.00    -0.237 OA
ATOM     70  O   UNL A   1      48.286  25.863  22.667  1.00  0.00    -0.237 OA
ATOM     71  O   UNL A   1      48.257  28.288  22.273  1.00  0.00    -0.744 OA
ENDBRANCH  65  68
ENDBRANCH  47  61
BRANCH  48  72
ATOM     72  C   UNL A   1      38.524  30.334  30.827  1.00  0.00     0.023 A 
ATOM     73  C   UNL A   1      38.299  29.931  32.158  1.00  0.00     0.012 A 
ATOM     74  C   UNL A   1      37.541  31.095  30.165  1.00  0.00     0.148 A 
ATOM     75  C   UNL A   1      37.108  30.252  32.808  1.00  0.00     0.002 A 
ATOM     76  C   UNL A   1      36.380  31.460  30.836  1.00  0.00     0.091 A 
ATOM     77  F   UNL A   1      37.772  31.463  28.897  1.00  0.00    -0.205 F 
ATOM     78  C   UNL A   1      36.153  31.025  32.152  1.00  0.00     0.022 A 
BRANCH  76  79
ATOM     79  S   UNL A   1      35.154  32.560  30.121  1.00  0.00     0.127 S 
ATOM     80  O   UNL A   1      34.641  31.758  29.014  1.00  0.00    -0.237 OA
ATOM     81  O   UNL A   1      34.224  32.739  31.237  1.00  0.00    -0.237 OA
ATOM     82  O   UNL A   1      35.877  33.767  29.742  1.00  0.00    -0.744 OA
ENDBRANCH  76  79
ENDBRANCH  48  72
BRANCH  60  83
ATOM     83  C   UNL A   1      44.426  33.852  29.572  1.00  0.00     0.023 A 
ATOM     84  C   UNL A   1      45.008  34.179  30.814  1.00  0.00     0.012 A 
ATOM     85  C   UNL A   1      44.319  34.845  28.577  1.00  0.00     0.148 A 
ATOM     86  C   UNL A   1      45.443  35.479  31.072  1.00  0.00     0.002 A 
ATOM     87  C   UNL A   1      44.805  36.124  28.823  1.00  0.00     0.091 A 
ATOM     88  F   UNL A   1      43.747  34.520  27.409  1.00  0.00    -0.205 F 
ATOM     89  C   UNL A   1      45.354  36.446  30.073  1.00  0.00     0.022 A 
BRANCH  87  90
ATOM     90  S   UNL A   1      44.822  37.406  27.563  1.00  0.00     0.127 S 
ATOM     91  O   UNL A   1      43.430  37.407  27.119  1.00  0.00    -0.237 OA
ATOM     92  O   UNL A   1      45.218  38.587  28.331  1.00  0.00    -0.237 OA
ATOM     93  O   UNL A   1      45.795  36.979  26.567  1.00  0.00    -0.744 OA
ENDBRANCH  87  90
ENDBRANCH  60  83
ENDBRANCH  34  35
ENDBRANCH  26  29
ENDBRANCH   1  25
TORSDOF 14
ENDMDL
MODEL 3
REMARK VINA RESULT:     -12.3      6.008     11.534
REMARK SMILES C[C@@H](C(=O)NCCCNC(=O)c1ccc(-c2c3nc(c(-c4cccc(S(=O)(=O)[O-])c4F)c4ccc([nH]4)c(-c4cccc(S(=O)(=O)[O-])c4F)c4nc(c(-c5cccc(S(=O)(=O)[O-])c5F)c5ccc2[nH]5)C=C4)C=C3)cc1)c1ccc2c(c1)[nH]c1ccc(Cl)cc12
REMARK SMILES IDX 8 1 7 2 6 3 5 4 3 5 4 6 2 8 1 9 75 10 76 11 80 12 77 13
REMARK SMILES IDX 79 14 78 15 81 16 88 17 82 18 87 20 83 21 85 22 84 23 86 24
REMARK SMILES IDX 9 25 10 26 11 28 12 29 13 30 74 31 14 32 73 33 15 34 16 35
REMARK SMILES IDX 17 36 67 37 18 38 72 39 66 40 68 41 19 42 71 43 65 44 64 45
REMARK SMILES IDX 20 47 52 48 32 49 51 50 33 51 36 52 50 53 69 54 34 55 35 56
REMARK SMILES IDX 49 58 70 59 37 60 21 61 22 62 30 63 23 64 25 65 31 66 24 67
REMARK SMILES IDX 26 68 27 69 28 70 29 71 53 72 54 73 62 74 55 75 57 76 63 77
REMARK SMILES IDX 56 78 58 79 59 80 60 81 61 82 38 83 39 84 47 85 40 86 42 87
REMARK SMILES IDX 48 88 41 89 43 90 44 91 45 92 46 93
REMARK H PARENT 5 7 81 19 9 27 68 46 36 57
REMARK Flexibility Score: inf
ROOT
ATOM      1  C   UNL A   1      32.543  32.455  26.926  1.00  0.00     0.118 C 
ENDROOT
BRANCH   1   2
ATOM      2  C   UNL A   1      31.261  31.903  26.309  1.00  0.00     0.042 C 
BRANCH   2   3
ATOM      3  C   UNL A   1      31.238  30.385  26.160  1.00  0.00     0.117 C 
BRANCH   3   4
ATOM      4  N   UNL A   1      32.088  29.943  25.070  1.00  0.00    -0.356 N 
ATOM      5  C   UNL A   1      33.113  29.043  25.057  1.00  0.00     0.227 C 
ATOM      6  O   UNL A   1      33.747  28.946  24.004  1.00  0.00    -0.274 OA
ATOM      7  H   UNL A   1      31.893  30.359  24.200  1.00  0.00     0.163 HD
BRANCH   5   8
ATOM      8  C   UNL A   1      33.406  28.181  26.301  1.00  0.00     0.105 C 
ATOM      9  C   UNL A   1      34.745  28.595  26.914  1.00  0.00     0.023 C 
BRANCH   8  10
ATOM     10  C   UNL A   1      33.275  26.692  25.971  1.00  0.00    -0.034 A 
ATOM     11  C   UNL A   1      32.091  25.961  26.145  1.00  0.00     0.005 A 
ATOM     12  C   UNL A   1      34.433  26.023  25.532  1.00  0.00     0.031 A 
ATOM     13  C   UNL A   1      32.039  24.580  25.894  1.00  0.00     0.011 A 
ATOM     14  C   UNL A   1      34.381  24.635  25.369  1.00  0.00     0.047 A 
ATOM     15  C   UNL A   1      33.213  23.897  25.520  1.00  0.00     0.007 A 
ATOM     16  N   UNL A   1      35.393  23.748  25.103  1.00  0.00    -0.355 N 
ATOM     17  C   UNL A   1      33.543  22.524  25.276  1.00  0.00     0.009 A 
ATOM     18  C   UNL A   1      34.927  22.456  25.111  1.00  0.00     0.047 A 
ATOM     19  H   UNL A   1      36.329  24.002  24.929  1.00  0.00     0.167 HD
ATOM     20  C   UNL A   1      32.802  21.325  25.235  1.00  0.00     0.031 A 
ATOM     21  C   UNL A   1      35.625  21.249  24.997  1.00  0.00     0.028 A 
ATOM     22  C   UNL A   1      33.484  20.113  25.083  1.00  0.00     0.041 A 
ATOM     23  C   UNL A   1      34.874  20.071  24.995  1.00  0.00     0.022 A 
ATOM     24  Cl  UNL A   1      32.591  18.641  25.013  1.00  0.00    -0.084 Cl
ENDBRANCH   8  10
ENDBRANCH   5   8
ENDBRANCH   3   4
ENDBRANCH   2   3
ENDBRANCH   1   2
BRANCH   1  25
ATOM     25  N   UNL A   1      32.421  33.851  27.323  1.00  0.00    -0.352 N 
ATOM     26  C   UNL A   1      33.090  34.556  28.296  1.00  0.00     0.251 C 
ATOM     27  H   UNL A   1      31.757  34.371  26.817  1.00  0.00     0.163 HD
ATOM     28  O   UNL A   1      32.709  35.686  28.584  1.00  0.00    -0.269 OA
BRANCH  26  29
ATOM     29  C   UNL A   1      34.245  33.959  29.008  1.00  0.00     0.039 A 
ATOM     30  C   UNL A   1      34.014  32.908  29.901  1.00  0.00     0.014 A 
ATOM     31  C   UNL A   1      35.542  34.443  28.828  1.00  0.00     0.014 A 
ATOM     32  C   UNL A   1      35.087  32.307  30.565  1.00  0.00     0.010 A 
ATOM     33  C   UNL A   1      36.620  33.791  29.427  1.00  0.00     0.010 A 
ATOM     34  C   UNL A   1      36.404  32.721  30.309  1.00  0.00    -0.014 A 
BRANCH  34  35
ATOM     35  C   UNL A   1      37.566  32.043  30.945  1.00  0.00     0.031 A 
ATOM     36  C   UNL A   1      38.344  30.997  30.193  1.00  0.00     0.074 A 
ATOM     37  C   UNL A   1      37.871  32.309  32.231  1.00  0.00     0.049 A 
ATOM     38  N   UNL A   1      39.350  30.265  30.601  1.00  0.00    -0.248 NA
ATOM     39  C   UNL A   1      37.922  30.715  28.812  1.00  0.00     0.031 C 
ATOM     40  C   UNL A   1      37.152  33.249  33.093  1.00  0.00     0.029 A 
ATOM     41  N   UNL A   1      38.848  31.794  33.046  1.00  0.00    -0.354 N 
ATOM     42  C   UNL A   1      39.655  29.413  29.546  1.00  0.00     0.074 A 
ATOM     43  C   UNL A   1      38.705  29.695  28.492  1.00  0.00     0.031 C 
ATOM     44  C   UNL A   1      37.717  33.249  34.311  1.00  0.00     0.029 A 
ATOM     45  C   UNL A   1      38.813  32.286  34.330  1.00  0.00     0.049 A 
ATOM     46  H   UNL A   1      39.513  31.134  32.739  1.00  0.00     0.167 HD
ATOM     47  C   UNL A   1      40.647  28.495  29.450  1.00  0.00     0.034 A 
ATOM     48  C   UNL A   1      39.568  31.989  35.405  1.00  0.00     0.034 A 
ATOM     49  C   UNL A   1      41.611  28.240  30.488  1.00  0.00     0.049 A 
ATOM     50  C   UNL A   1      40.680  30.985  35.267  1.00  0.00     0.074 A 
ATOM     51  C   UNL A   1      42.708  27.398  30.453  1.00  0.00     0.029 A 
ATOM     52  N   UNL A   1      41.585  28.810  31.752  1.00  0.00    -0.354 N 
ATOM     53  N   UNL A   1      41.051  30.303  34.212  1.00  0.00    -0.248 NA
ATOM     54  C   UNL A   1      41.503  30.736  36.460  1.00  0.00     0.031 C 
ATOM     55  C   UNL A   1      43.324  27.429  31.709  1.00  0.00     0.029 A 
ATOM     56  C   UNL A   1      42.636  28.325  32.512  1.00  0.00     0.049 A 
ATOM     57  H   UNL A   1      40.918  29.463  32.062  1.00  0.00     0.167 HD
ATOM     58  C   UNL A   1      42.170  29.576  34.599  1.00  0.00     0.074 A 
ATOM     59  C   UNL A   1      42.427  29.914  35.983  1.00  0.00     0.031 C 
ATOM     60  C   UNL A   1      42.912  28.702  33.875  1.00  0.00     0.034 A 
BRANCH  47  61
ATOM     61  C   UNL A   1      40.763  27.722  28.161  1.00  0.00     0.023 A 
ATOM     62  C   UNL A   1      41.440  28.288  27.061  1.00  0.00     0.012 A 
ATOM     63  C   UNL A   1      40.238  26.418  28.050  1.00  0.00     0.148 A 
ATOM     64  C   UNL A   1      41.554  27.591  25.858  1.00  0.00     0.002 A 
ATOM     65  C   UNL A   1      40.399  25.710  26.865  1.00  0.00     0.091 A 
ATOM     66  F   UNL A   1      39.581  25.901  29.097  1.00  0.00    -0.205 F 
ATOM     67  C   UNL A   1      41.042  26.300  25.763  1.00  0.00     0.022 A 
BRANCH  65  68
ATOM     68  S   UNL A   1      39.852  24.010  26.671  1.00  0.00     0.127 S 
ATOM     69  O   UNL A   1      40.858  23.479  25.752  1.00  0.00    -0.237 OA
ATOM     70  O   UNL A   1      39.945  23.499  28.038  1.00  0.00    -0.237 OA
ATOM     71  O   UNL A   1      38.497  24.084  26.141  1.00  0.00    -0.744 OA
ENDBRANCH  65  68
ENDBRANCH  47  61
BRANCH  48  72
ATOM     72  C   UNL A   1      39.338  32.702  36.693  1.00  0.00     0.023 A 
ATOM     73  C   UNL A   1      40.027  33.904  36.952  1.00  0.00     0.012 A 
ATOM     74  C   UNL A   1      38.420  32.219  37.645  1.00  0.00     0.148 A 
ATOM     75  C   UNL A   1      39.830  34.594  38.148  1.00  0.00     0.002 A 
ATOM     76  C   UNL A   1      38.185  32.941  38.810  1.00  0.00     0.091 A 
ATOM     77  F   UNL A   1      37.779  31.071  37.382  1.00  0.00    -0.205 F 
ATOM     78  C   UNL A   1      38.902  34.120  39.071  1.00  0.00     0.022 A 
BRANCH  76  79
ATOM     79  S   UNL A   1      36.917  32.480  39.995  1.00  0.00     0.127 S 
ATOM     80  O   UNL A   1      37.398  31.181  40.458  1.00  0.00    -0.237 OA
ATOM     81  O   UNL A   1      37.018  33.560  40.977  1.00  0.00    -0.237 OA
ATOM     82  O   UNL A   1      35.666  32.459  39.250  1.00  0.00    -0.744 OA
ENDBRANCH  76  79
ENDBRANCH  48  72
BRANCH  60  83
ATOM     83  C   UNL A   1      44.109  28.075  34.545  1.00  0.00     0.023 A 
ATOM     84  C   UNL A   1      45.358  28.727  34.516  1.00  0.00     0.012 A 
ATOM     85  C   UNL A   1      43.974  26.872  35.267  1.00  0.00     0.148 A 
ATOM     86  C   UNL A   1      46.461  28.173  35.165  1.00  0.00     0.002 A 
ATOM     87  C   UNL A   1      45.065  26.355  35.956  1.00  0.00     0.091 A 
ATOM     88  F   UNL A   1      42.783  26.257  35.268  1.00  0.00    -0.205 F 
ATOM     89  C   UNL A   1      46.312  26.995  35.894  1.00  0.00     0.022 A 
BRANCH  87  90
ATOM     90  S   UNL A   1      44.941  24.898  37.001  1.00  0.00     0.127 S 
ATOM     91  O   UNL A   1      44.574  23.867  36.033  1.00  0.00    -0.237 OA
ATOM     92  O   UNL A   1      46.300  24.782  37.530  1.00  0.00    -0.237 OA
ATOM     93  O   UNL A   1      43.928  25.205  38.001  1.00  0.00    -0.744 OA
ENDBRANCH  87  90
ENDBRANCH  60  83
ENDBRANCH  34  35
ENDBRANCH  26  29
ENDBRANCH   1  25
TORSDOF 14
ENDMDL
