MODEL 1
REMARK VINA RESULT:     -13.1      0.000      0.000
REMARK SMILES O=C(NCCCNC(=O)c1cccc(COc2ccccc2C=C2C(=O)c3ccccc3C2=O)c1)c1ccc(-c2c3nc(c(-c4cccc(S(=O)(=O)[O-])c4F)c4ccc([nH]4)c(-c4cccc(S(=O)(=O)[O-])c4F)c4nc(c(-c5cccc(S(=O)(=O)[O-])c5F)c5ccc2[nH]5)C=C4)C=C3)cc1
REMARK SMILES IDX 5 1 4 2 3 3 1 4 2 5 36 7 37 8 98 9 38 10 97 11 39 12 40 13
REMARK SMILES IDX 41 14 91 15 42 16 96 17 90 18 92 19 43 20 95 21 89 22 88 23
REMARK SMILES IDX 44 25 76 26 56 27 75 28 57 29 60 30 74 31 93 32 58 33 59 34
REMARK SMILES IDX 73 36 94 37 61 38 45 39 46 40 54 41 47 42 49 43 55 44 48 45
REMARK SMILES IDX 50 46 51 47 52 48 53 49 77 50 78 51 86 52 79 53 81 54 87 55
REMARK SMILES IDX 80 56 82 57 83 58 84 59 85 60 62 61 63 62 71 63 64 64 66 65
REMARK SMILES IDX 72 66 65 67 67 68 68 69 69 70 70 71 6 72 7 73 8 74 9 76
REMARK SMILES IDX 10 77 11 78 35 79 12 80 14 81 13 82 15 83 16 84 17 85 18 86
REMARK SMILES IDX 22 87 19 88 21 89 20 90 23 91 24 92 25 93 33 94 26 95 27 96
REMARK SMILES IDX 32 97 34 98 28 99 31 100 29 101 30 102
REMARK H PARENT 3 6 92 24 60 35 7 75
REMARK Flexibility Score: inf
ROOT
ATOM      1  C   UNL A   1      41.755  19.676  25.753  1.00  0.00     0.042 C 
ENDROOT
BRANCH   1   2
ATOM      2  C   UNL A   1      43.091  19.137  26.240  1.00  0.00     0.118 C 
BRANCH   2   3
ATOM      3  N   UNL A   1      43.961  18.766  25.130  1.00  0.00    -0.352 N 
ATOM      4  O   UNL A   1      45.135  19.126  23.243  1.00  0.00    -0.269 OA
ATOM      5  C   UNL A   1      44.702  19.571  24.300  1.00  0.00     0.251 C 
ATOM      6  H   UNL A   1      44.027  17.800  24.950  1.00  0.00     0.163 HD
BRANCH   5   7
ATOM      7  C   UNL A   1      44.945  20.974  24.690  1.00  0.00     0.039 A 
ATOM      8  C   UNL A   1      45.590  21.253  25.895  1.00  0.00     0.014 A 
ATOM      9  C   UNL A   1      44.529  22.013  23.857  1.00  0.00     0.014 A 
ATOM     10  C   UNL A   1      45.647  22.556  26.361  1.00  0.00     0.010 A 
ATOM     11  C   UNL A   1      44.712  23.336  24.268  1.00  0.00     0.010 A 
ATOM     12  C   UNL A   1      45.245  23.616  25.536  1.00  0.00    -0.014 A 
BRANCH  12  13
ATOM     13  C   UNL A   1      45.497  25.005  25.989  1.00  0.00     0.031 A 
ATOM     14  C   UNL A   1      44.388  25.881  26.491  1.00  0.00     0.074 A 
ATOM     15  C   UNL A   1      46.761  25.469  25.931  1.00  0.00     0.049 A 
ATOM     16  N   UNL A   1      44.449  27.118  26.909  1.00  0.00    -0.248 NA
ATOM     17  C   UNL A   1      43.034  25.306  26.517  1.00  0.00     0.031 C 
ATOM     18  C   UNL A   1      47.910  24.714  25.416  1.00  0.00     0.029 A 
ATOM     19  N   UNL A   1      47.296  26.677  26.293  1.00  0.00    -0.354 N 
ATOM     20  C   UNL A   1      43.142  27.490  27.200  1.00  0.00     0.074 A 
ATOM     21  C   UNL A   1      42.307  26.344  26.909  1.00  0.00     0.031 C 
ATOM     22  C   UNL A   1      49.012  25.468  25.510  1.00  0.00     0.029 A 
ATOM     23  C   UNL A   1      48.638  26.781  26.019  1.00  0.00     0.049 A 
ATOM     24  H   UNL A   1      46.771  27.399  26.707  1.00  0.00     0.167 HD
ATOM     25  C   UNL A   1      42.687  28.675  27.673  1.00  0.00     0.034 A 
ATOM     26  C   UNL A   1      49.477  27.828  26.120  1.00  0.00     0.034 A 
ATOM     27  C   UNL A   1      43.535  29.797  27.979  1.00  0.00     0.049 A 
ATOM     28  C   UNL A   1      48.948  29.122  26.658  1.00  0.00     0.074 A 
ATOM     29  C   UNL A   1      43.183  31.014  28.535  1.00  0.00     0.029 A 
ATOM     30  N   UNL A   1      44.900  29.850  27.735  1.00  0.00    -0.354 N 
ATOM     31  N   UNL A   1      47.732  29.412  27.055  1.00  0.00    -0.248 NA
ATOM     32  C   UNL A   1      49.907  30.225  26.792  1.00  0.00     0.031 C 
ATOM     33  C   UNL A   1      44.327  31.818  28.590  1.00  0.00     0.029 A 
ATOM     34  C   UNL A   1      45.402  31.087  28.108  1.00  0.00     0.049 A 
ATOM     35  H   UNL A   1      45.434  29.116  27.354  1.00  0.00     0.167 HD
ATOM     36  C   UNL A   1      47.783  30.723  27.505  1.00  0.00     0.074 A 
ATOM     37  C   UNL A   1      49.156  31.162  27.357  1.00  0.00     0.031 C 
ATOM     38  C   UNL A   1      46.780  31.497  27.986  1.00  0.00     0.034 A 
BRANCH  25  39
ATOM     39  C   UNL A   1      41.203  28.818  27.898  1.00  0.00     0.023 A 
ATOM     40  C   UNL A   1      40.344  29.071  26.809  1.00  0.00     0.012 A 
ATOM     41  C   UNL A   1      40.652  28.653  29.185  1.00  0.00     0.148 A 
ATOM     42  C   UNL A   1      38.969  29.199  27.002  1.00  0.00     0.002 A 
ATOM     43  C   UNL A   1      39.275  28.735  29.362  1.00  0.00     0.091 A 
ATOM     44  F   UNL A   1      41.482  28.432  30.214  1.00  0.00    -0.205 F 
ATOM     45  C   UNL A   1      38.434  29.021  28.275  1.00  0.00     0.022 A 
BRANCH  43  46
ATOM     46  S   UNL A   1      38.485  28.441  30.949  1.00  0.00     0.127 S 
ATOM     47  O   UNL A   1      38.645  26.995  31.093  1.00  0.00    -0.237 OA
ATOM     48  O   UNL A   1      39.308  29.240  31.856  1.00  0.00    -0.237 OA
ATOM     49  O   UNL A   1      37.113  28.909  30.806  1.00  0.00    -0.744 OA
ENDBRANCH  43  46
ENDBRANCH  25  39
BRANCH  26  50
ATOM     50  C   UNL A   1      50.895  27.668  25.702  1.00  0.00     0.023 A 
ATOM     51  C   UNL A   1      51.874  27.342  26.659  1.00  0.00     0.012 A 
ATOM     52  C   UNL A   1      51.261  27.761  24.344  1.00  0.00     0.148 A 
ATOM     53  C   UNL A   1      53.198  27.132  26.272  1.00  0.00     0.002 A 
ATOM     54  C   UNL A   1      52.567  27.488  23.959  1.00  0.00     0.091 A 
ATOM     55  F   UNL A   1      50.312  28.078  23.452  1.00  0.00    -0.205 F 
ATOM     56  C   UNL A   1      53.542  27.191  24.922  1.00  0.00     0.022 A 
BRANCH  54  57
ATOM     57  S   UNL A   1      53.060  27.393  22.235  1.00  0.00     0.127 S 
ATOM     58  O   UNL A   1      53.148  28.806  21.872  1.00  0.00    -0.237 OA
ATOM     59  O   UNL A   1      54.345  26.700  22.329  1.00  0.00    -0.237 OA
ATOM     60  O   UNL A   1      52.014  26.632  21.565  1.00  0.00    -0.744 OA
ENDBRANCH  54  57
ENDBRANCH  26  50
BRANCH  38  61
ATOM     61  C   UNL A   1      47.132  32.894  28.421  1.00  0.00     0.023 A 
ATOM     62  C   UNL A   1      47.518  33.142  29.753  1.00  0.00     0.012 A 
ATOM     63  C   UNL A   1      47.146  33.950  27.488  1.00  0.00     0.148 A 
ATOM     64  C   UNL A   1      47.883  34.424  30.157  1.00  0.00     0.002 A 
ATOM     65  C   UNL A   1      47.562  35.214  27.885  1.00  0.00     0.091 A 
ATOM     66  F   UNL A   1      46.755  33.697  26.231  1.00  0.00    -0.205 F 
ATOM     67  C   UNL A   1      47.918  35.456  29.222  1.00  0.00     0.022 A 
BRANCH  65  68
ATOM     68  S   UNL A   1      47.733  36.579  26.731  1.00  0.00     0.127 S 
ATOM     69  O   UNL A   1      48.372  37.595  27.565  1.00  0.00    -0.237 OA
ATOM     70  O   UNL A   1      48.596  36.005  25.700  1.00  0.00    -0.237 OA
ATOM     71  O   UNL A   1      46.385  36.900  26.282  1.00  0.00    -0.744 OA
ENDBRANCH  65  68
ENDBRANCH  38  61
ENDBRANCH  12  13
ENDBRANCH   5   7
ENDBRANCH   2   3
ENDBRANCH   1   2
BRANCH   1  72
ATOM     72  C   UNL A   1      40.733  19.761  26.875  1.00  0.00     0.118 C 
BRANCH  72  73
ATOM     73  N   UNL A   1      41.194  20.681  27.907  1.00  0.00    -0.352 N 
ATOM     74  C   UNL A   1      41.102  22.046  27.907  1.00  0.00     0.251 C 
ATOM     75  H   UNL A   1      41.621  20.274  28.694  1.00  0.00     0.163 HD
ATOM     76  O   UNL A   1      41.848  22.725  28.602  1.00  0.00    -0.269 OA
BRANCH  74  77
ATOM     77  C   UNL A   1      40.011  22.678  27.147  1.00  0.00     0.040 A 
ATOM     78  C   UNL A   1      39.580  23.970  27.447  1.00  0.00     0.014 A 
ATOM     79  C   UNL A   1      39.291  21.875  26.259  1.00  0.00     0.021 A 
ATOM     80  C   UNL A   1      38.447  24.477  26.811  1.00  0.00     0.001 A 
ATOM     81  C   UNL A   1      38.134  22.361  25.658  1.00  0.00    -0.010 A 
ATOM     82  C   UNL A   1      37.731  23.681  25.915  1.00  0.00     0.007 A 
BRANCH  81  83
ATOM     83  C   UNL A   1      37.223  21.397  24.953  1.00  0.00     0.265 C 
BRANCH  83  84
ATOM     84  O   UNL A   1      36.234  22.201  24.300  1.00  0.00    -0.488 OA
BRANCH  84  85
ATOM     85  C   UNL A   1      34.958  21.703  24.396  1.00  0.00     0.127 A 
ATOM     86  C   UNL A   1      34.821  20.457  25.025  1.00  0.00     0.047 A 
ATOM     87  C   UNL A   1      33.878  22.291  23.711  1.00  0.00     0.017 A 
ATOM     88  C   UNL A   1      33.621  19.756  24.937  1.00  0.00     0.004 A 
ATOM     89  C   UNL A   1      32.711  21.523  23.573  1.00  0.00     0.012 A 
ATOM     90  C   UNL A   1      32.575  20.276  24.187  1.00  0.00     0.001 A 
BRANCH  87  91
ATOM     91  C   UNL A   1      33.943  23.614  23.047  1.00  0.00     0.028 C 
ATOM     92  C   UNL A   1      33.954  24.822  23.642  1.00  0.00     0.071 C 
ATOM     93  C   UNL A   1      33.966  25.179  25.093  1.00  0.00     0.197 C 
ATOM     94  C   UNL A   1      33.841  26.100  22.867  1.00  0.00     0.197 C 
ATOM     95  O   UNL A   1      34.141  24.472  26.066  1.00  0.00    -0.288 OA
ATOM     96  C   UNL A   1      33.693  26.615  25.154  1.00  0.00     0.034 A 
ATOM     97  C   UNL A   1      33.660  27.158  23.876  1.00  0.00     0.034 A 
ATOM     98  O   UNL A   1      33.789  26.244  21.662  1.00  0.00    -0.288 OA
ATOM     99  C   UNL A   1      33.432  27.375  26.283  1.00  0.00     0.013 A 
ATOM    100  C   UNL A   1      33.403  28.504  23.678  1.00  0.00     0.013 A 
ATOM    101  C   UNL A   1      33.145  28.730  26.098  1.00  0.00     0.001 A 
ATOM    102  C   UNL A   1      33.143  29.292  24.807  1.00  0.00     0.001 A 
ENDBRANCH  87  91
ENDBRANCH  84  85
ENDBRANCH  83  84
ENDBRANCH  81  83
ENDBRANCH  74  77
ENDBRANCH  72  73
ENDBRANCH   1  72
TORSDOF 17
ENDMDL
MODEL 2
REMARK VINA RESULT:     -12.9      7.222     12.322
REMARK SMILES O=C(NCCCNC(=O)c1cccc(COc2ccccc2C=C2C(=O)c3ccccc3C2=O)c1)c1ccc(-c2c3nc(c(-c4cccc(S(=O)(=O)[O-])c4F)c4ccc([nH]4)c(-c4cccc(S(=O)(=O)[O-])c4F)c4nc(c(-c5cccc(S(=O)(=O)[O-])c5F)c5ccc2[nH]5)C=C4)C=C3)cc1
REMARK SMILES IDX 5 1 4 2 3 3 1 4 2 5 36 7 37 8 98 9 38 10 97 11 39 12 40 13
REMARK SMILES IDX 41 14 91 15 42 16 96 17 90 18 92 19 43 20 95 21 89 22 88 23
REMARK SMILES IDX 44 25 76 26 56 27 75 28 57 29 60 30 74 31 93 32 58 33 59 34
REMARK SMILES IDX 73 36 94 37 61 38 45 39 46 40 54 41 47 42 49 43 55 44 48 45
REMARK SMILES IDX 50 46 51 47 52 48 53 49 77 50 78 51 86 52 79 53 81 54 87 55
REMARK SMILES IDX 80 56 82 57 83 58 84 59 85 60 62 61 63 62 71 63 64 64 66 65
REMARK SMILES IDX 72 66 65 67 67 68 68 69 69 70 70 71 6 72 7 73 8 74 9 76
REMARK SMILES IDX 10 77 11 78 35 79 12 80 14 81 13 82 15 83 16 84 17 85 18 86
REMARK SMILES IDX 22 87 19 88 21 89 20 90 23 91 24 92 25 93 33 94 26 95 27 96
REMARK SMILES IDX 32 97 34 98 28 99 31 100 29 101 30 102
REMARK H PARENT 3 6 92 24 60 35 7 75
REMARK Flexibility Score: inf
ROOT
ATOM      1  C   UNL A   1      33.558  35.282  28.619  1.00  0.00     0.042 C 
ENDROOT
BRANCH   1   2
ATOM      2  C   UNL A   1      32.931  34.698  29.874  1.00  0.00     0.118 C 
BRANCH   2   3
ATOM      3  N   UNL A   1      32.577  35.736  30.836  1.00  0.00    -0.352 N 
ATOM      4  O   UNL A   1      32.359  36.632  32.891  1.00  0.00    -0.269 OA
ATOM      5  C   UNL A   1      32.978  35.883  32.141  1.00  0.00     0.251 C 
ATOM      6  H   UNL A   1      31.963  36.429  30.502  1.00  0.00     0.163 HD
BRANCH   5   7
ATOM      7  C   UNL A   1      34.143  35.117  32.625  1.00  0.00     0.039 A 
ATOM      8  C   UNL A   1      35.432  35.586  32.372  1.00  0.00     0.014 A 
ATOM      9  C   UNL A   1      33.952  33.928  33.331  1.00  0.00     0.014 A 
ATOM     10  C   UNL A   1      36.525  34.781  32.648  1.00  0.00     0.010 A 
ATOM     11  C   UNL A   1      35.064  33.182  33.730  1.00  0.00     0.010 A 
ATOM     12  C   UNL A   1      36.357  33.588  33.364  1.00  0.00    -0.014 A 
BRANCH  12  13
ATOM     13  C   UNL A   1      37.564  32.850  33.808  1.00  0.00     0.031 A 
ATOM     14  C   UNL A   1      38.343  33.275  35.018  1.00  0.00     0.074 A 
ATOM     15  C   UNL A   1      37.952  31.780  33.087  1.00  0.00     0.049 A 
ATOM     16  N   UNL A   1      39.424  32.740  35.523  1.00  0.00    -0.248 NA
ATOM     17  C   UNL A   1      37.861  34.457  35.749  1.00  0.00     0.031 C 
ATOM     18  C   UNL A   1      37.291  31.307  31.865  1.00  0.00     0.029 A 
ATOM     19  N   UNL A   1      38.992  30.905  33.259  1.00  0.00    -0.354 N 
ATOM     20  C   UNL A   1      39.783  33.544  36.598  1.00  0.00     0.074 A 
ATOM     21  C   UNL A   1      38.803  34.607  36.672  1.00  0.00     0.031 C 
ATOM     22  C   UNL A   1      37.928  30.222  31.409  1.00  0.00     0.029 A 
ATOM     23  C   UNL A   1      39.084  29.968  32.259  1.00  0.00     0.049 A 
ATOM     24  H   UNL A   1      39.611  30.944  34.023  1.00  0.00     0.167 HD
ATOM     25  C   UNL A   1      40.829  33.401  37.446  1.00  0.00     0.034 A 
ATOM     26  C   UNL A   1      40.019  29.030  32.018  1.00  0.00     0.034 A 
ATOM     27  C   UNL A   1      41.782  32.324  37.373  1.00  0.00     0.049 A 
ATOM     28  C   UNL A   1      41.157  28.886  32.981  1.00  0.00     0.074 A 
ATOM     29  C   UNL A   1      42.832  32.045  38.230  1.00  0.00     0.029 A 
ATOM     30  N   UNL A   1      41.817  31.361  36.374  1.00  0.00    -0.354 N 
ATOM     31  N   UNL A   1      41.404  29.574  34.069  1.00  0.00    -0.248 NA
ATOM     32  C   UNL A   1      42.129  27.822  32.703  1.00  0.00     0.031 C 
ATOM     33  C   UNL A   1      43.525  30.938  37.728  1.00  0.00     0.029 A 
ATOM     34  C   UNL A   1      42.882  30.500  36.580  1.00  0.00     0.049 A 
ATOM     35  H   UNL A   1      41.177  31.299  35.628  1.00  0.00     0.167 HD
ATOM     36  C   UNL A   1      42.549  29.014  34.619  1.00  0.00     0.074 A 
ATOM     37  C   UNL A   1      42.929  27.914  33.757  1.00  0.00     0.031 C 
ATOM     38  C   UNL A   1      43.229  29.387  35.731  1.00  0.00     0.034 A 
BRANCH  25  39
ATOM     39  C   UNL A   1      40.995  34.430  38.537  1.00  0.00     0.023 A 
ATOM     40  C   UNL A   1      41.819  35.554  38.327  1.00  0.00     0.012 A 
ATOM     41  C   UNL A   1      40.296  34.306  39.754  1.00  0.00     0.148 A 
ATOM     42  C   UNL A   1      41.976  36.517  39.324  1.00  0.00     0.002 A 
ATOM     43  C   UNL A   1      40.421  35.294  40.725  1.00  0.00     0.091 A 
ATOM     44  F   UNL A   1      39.532  33.222  39.947  1.00  0.00    -0.205 F 
ATOM     45  C   UNL A   1      41.271  36.392  40.518  1.00  0.00     0.022 A 
BRANCH  43  46
ATOM     46  S   UNL A   1      39.490  35.263  42.262  1.00  0.00     0.127 S 
ATOM     47  O   UNL A   1      38.121  35.438  41.779  1.00  0.00    -0.237 OA
ATOM     48  O   UNL A   1      39.789  33.927  42.777  1.00  0.00    -0.237 OA
ATOM     49  O   UNL A   1      40.015  36.354  43.070  1.00  0.00    -0.744 OA
ENDBRANCH  43  46
ENDBRANCH  25  39
BRANCH  26  50
ATOM     50  C   UNL A   1      39.889  28.166  30.814  1.00  0.00     0.023 A 
ATOM     51  C   UNL A   1      38.980  27.093  30.816  1.00  0.00     0.012 A 
ATOM     52  C   UNL A   1      40.611  28.456  29.639  1.00  0.00     0.148 A 
ATOM     53  C   UNL A   1      38.806  26.311  29.674  1.00  0.00     0.002 A 
ATOM     54  C   UNL A   1      40.387  27.714  28.487  1.00  0.00     0.091 A 
ATOM     55  F   UNL A   1      41.476  29.481  29.662  1.00  0.00    -0.205 F 
ATOM     56  C   UNL A   1      39.498  26.629  28.507  1.00  0.00     0.022 A 
BRANCH  54  57
ATOM     57  S   UNL A   1      41.118  28.148  26.906  1.00  0.00     0.127 S 
ATOM     58  O   UNL A   1      42.482  28.501  27.295  1.00  0.00    -0.237 OA
ATOM     59  O   UNL A   1      40.994  26.893  26.164  1.00  0.00    -0.237 OA
ATOM     60  O   UNL A   1      40.309  29.239  26.381  1.00  0.00    -0.744 OA
ENDBRANCH  54  57
ENDBRANCH  26  50
BRANCH  38  61
ATOM     61  C   UNL A   1      44.442  28.577  36.102  1.00  0.00     0.023 A 
ATOM     62  C   UNL A   1      45.717  28.971  35.650  1.00  0.00     0.012 A 
ATOM     63  C   UNL A   1      44.323  27.464  36.959  1.00  0.00     0.148 A 
ATOM     64  C   UNL A   1      46.852  28.251  36.019  1.00  0.00     0.002 A 
ATOM     65  C   UNL A   1      45.464  26.785  37.364  1.00  0.00     0.091 A 
ATOM     66  F   UNL A   1      43.099  27.095  37.360  1.00  0.00    -0.205 F 
ATOM     67  C   UNL A   1      46.728  27.167  36.885  1.00  0.00     0.022 A 
BRANCH  65  68
ATOM     68  S   UNL A   1      45.412  25.441  38.554  1.00  0.00     0.127 S 
ATOM     69  O   UNL A   1      44.668  24.420  37.817  1.00  0.00    -0.237 OA
ATOM     70  O   UNL A   1      46.831  25.142  38.746  1.00  0.00    -0.237 OA
ATOM     71  O   UNL A   1      44.739  25.970  39.733  1.00  0.00    -0.744 OA
ENDBRANCH  65  68
ENDBRANCH  38  61
ENDBRANCH  12  13
ENDBRANCH   5   7
ENDBRANCH   2   3
ENDBRANCH   1   2
BRANCH   1  72
ATOM     72  C   UNL A   1      34.116  34.202  27.706  1.00  0.00     0.118 C 
BRANCH  72  73
ATOM     73  N   UNL A   1      35.553  34.071  27.902  1.00  0.00    -0.352 N 
ATOM     74  C   UNL A   1      36.237  32.974  28.350  1.00  0.00     0.251 C 
ATOM     75  H   UNL A   1      36.095  34.864  27.688  1.00  0.00     0.163 HD
ATOM     76  O   UNL A   1      37.353  33.088  28.844  1.00  0.00    -0.269 OA
BRANCH  74  77
ATOM     77  C   UNL A   1      35.656  31.641  28.119  1.00  0.00     0.040 A 
ATOM     78  C   UNL A   1      36.470  30.518  27.977  1.00  0.00     0.014 A 
ATOM     79  C   UNL A   1      34.289  31.569  27.846  1.00  0.00     0.021 A 
ATOM     80  C   UNL A   1      35.897  29.301  27.607  1.00  0.00     0.001 A 
ATOM     81  C   UNL A   1      33.721  30.368  27.433  1.00  0.00    -0.010 A 
ATOM     82  C   UNL A   1      34.527  29.223  27.344  1.00  0.00     0.007 A 
BRANCH  81  83
ATOM     83  C   UNL A   1      32.331  30.381  26.863  1.00  0.00     0.265 C 
BRANCH  83  84
ATOM     84  O   UNL A   1      31.954  29.006  26.723  1.00  0.00    -0.488 OA
BRANCH  84  85
ATOM     85  C   UNL A   1      31.431  28.696  25.492  1.00  0.00     0.127 A 
ATOM     86  C   UNL A   1      31.173  29.774  24.633  1.00  0.00     0.047 A 
ATOM     87  C   UNL A   1      30.971  27.400  25.186  1.00  0.00     0.017 A 
ATOM     88  C   UNL A   1      30.408  29.588  23.485  1.00  0.00     0.004 A 
ATOM     89  C   UNL A   1      30.136  27.264  24.065  1.00  0.00     0.012 A 
ATOM     90  C   UNL A   1      29.866  28.338  23.216  1.00  0.00     0.001 A 
BRANCH  87  91
ATOM     91  C   UNL A   1      31.229  26.211  26.031  1.00  0.00     0.028 C 
ATOM     92  C   UNL A   1      32.360  25.482  26.085  1.00  0.00     0.071 C 
ATOM     93  C   UNL A   1      33.665  25.679  25.383  1.00  0.00     0.197 C 
ATOM     94  C   UNL A   1      32.450  24.193  26.844  1.00  0.00     0.197 C 
ATOM     95  O   UNL A   1      34.066  26.629  24.740  1.00  0.00    -0.288 OA
ATOM     96  C   UNL A   1      34.423  24.446  25.595  1.00  0.00     0.034 A 
ATOM     97  C   UNL A   1      33.746  23.604  26.469  1.00  0.00     0.034 A 
ATOM     98  O   UNL A   1      31.599  23.669  27.534  1.00  0.00    -0.288 OA
ATOM     99  C   UNL A   1      35.618  24.079  24.998  1.00  0.00     0.013 A 
ATOM    100  C   UNL A   1      34.264  22.366  26.812  1.00  0.00     0.013 A 
ATOM    101  C   UNL A   1      36.140  22.822  25.314  1.00  0.00     0.001 A 
ATOM    102  C   UNL A   1      35.474  21.978  26.223  1.00  0.00     0.001 A 
ENDBRANCH  87  91
ENDBRANCH  84  85
ENDBRANCH  83  84
ENDBRANCH  81  83
ENDBRANCH  74  77
ENDBRANCH  72  73
ENDBRANCH   1  72
TORSDOF 17
ENDMDL
MODEL 3
REMARK VINA RESULT:     -12.4      2.433      8.379
REMARK SMILES O=C(NCCCNC(=O)c1cccc(COc2ccccc2C=C2C(=O)c3ccccc3C2=O)c1)c1ccc(-c2c3nc(c(-c4cccc(S(=O)(=O)[O-])c4F)c4ccc([nH]4)c(-c4cccc(S(=O)(=O)[O-])c4F)c4nc(c(-c5cccc(S(=O)(=O)[O-])c5F)c5ccc2[nH]5)C=C4)C=C3)cc1
REMARK SMILES IDX 5 1 4 2 3 3 1 4 2 5 36 7 37 8 98 9 38 10 97 11 39 12 40 13
REMARK SMILES IDX 41 14 91 15 42 16 96 17 90 18 92 19 43 20 95 21 89 22 88 23
REMARK SMILES IDX 44 25 76 26 56 27 75 28 57 29 60 30 74 31 93 32 58 33 59 34
REMARK SMILES IDX 73 36 94 37 61 38 45 39 46 40 54 41 47 42 49 43 55 44 48 45
REMARK SMILES IDX 50 46 51 47 52 48 53 49 77 50 78 51 86 52 79 53 81 54 87 55
REMARK SMILES IDX 80 56 82 57 83 58 84 59 85 60 62 61 63 62 71 63 64 64 66 65
REMARK SMILES IDX 72 66 65 67 67 68 68 69 69 70 70 71 6 72 7 73 8 74 9 76
REMARK SMILES IDX 10 77 11 78 35 79 12 80 14 81 13 82 15 83 16 84 17 85 18 86
REMARK SMILES IDX 22 87 19 88 21 89 20 90 23 91 24 92 25 93 33 94 26 95 27 96
REMARK SMILES IDX 32 97 34 98 28 99 31 100 29 101 30 102
REMARK H PARENT 3 6 92 24 60 35 7 75
REMARK Flexibility Score: inf
ROOT
ATOM      1  C   UNL A   1      39.394  21.526  25.739  1.00  0.00     0.042 C 
ENDROOT
BRANCH   1   2
ATOM      2  C   UNL A   1      39.650  20.333  26.645  1.00  0.00     0.118 C 
BRANCH   2   3
ATOM      3  N   UNL A   1      40.866  19.620  26.272  1.00  0.00    -0.352 N 
ATOM      4  O   UNL A   1      42.935  19.420  25.406  1.00  0.00    -0.269 OA
ATOM      5  C   UNL A   1      42.113  20.121  25.987  1.00  0.00     0.251 C 
ATOM      6  H   UNL A   1      40.782  18.641  26.217  1.00  0.00     0.163 HD
BRANCH   5   7
ATOM      7  C   UNL A   1      42.434  21.509  26.371  1.00  0.00     0.039 A 
ATOM      8  C   UNL A   1      42.519  21.851  27.720  1.00  0.00     0.014 A 
ATOM      9  C   UNL A   1      42.649  22.474  25.385  1.00  0.00     0.014 A 
ATOM     10  C   UNL A   1      42.624  23.181  28.089  1.00  0.00     0.010 A 
ATOM     11  C   UNL A   1      42.892  23.797  25.763  1.00  0.00     0.010 A 
ATOM     12  C   UNL A   1      42.851  24.165  27.117  1.00  0.00    -0.014 A 
BRANCH  12  13
ATOM     13  C   UNL A   1      43.150  25.548  27.560  1.00  0.00     0.031 A 
ATOM     14  C   UNL A   1      44.550  26.086  27.564  1.00  0.00     0.074 A 
ATOM     15  C   UNL A   1      42.122  26.316  27.972  1.00  0.00     0.049 A 
ATOM     16  N   UNL A   1      44.971  27.267  27.934  1.00  0.00    -0.248 NA
ATOM     17  C   UNL A   1      45.620  25.185  27.107  1.00  0.00     0.031 C 
ATOM     18  C   UNL A   1      40.724  25.876  28.052  1.00  0.00     0.029 A 
ATOM     19  N   UNL A   1      42.085  27.614  28.409  1.00  0.00    -0.354 N 
ATOM     20  C   UNL A   1      46.354  27.239  27.806  1.00  0.00     0.074 A 
ATOM     21  C   UNL A   1      46.703  25.919  27.324  1.00  0.00     0.031 C 
ATOM     22  C   UNL A   1      39.967  26.888  28.493  1.00  0.00     0.029 A 
ATOM     23  C   UNL A   1      40.831  28.020  28.798  1.00  0.00     0.049 A 
ATOM     24  H   UNL A   1      42.876  28.197  28.442  1.00  0.00     0.167 HD
ATOM     25  C   UNL A   1      47.246  28.226  28.061  1.00  0.00     0.034 A 
ATOM     26  C   UNL A   1      40.418  29.161  29.380  1.00  0.00     0.034 A 
ATOM     27  C   UNL A   1      46.880  29.541  28.519  1.00  0.00     0.049 A 
ATOM     28  C   UNL A   1      41.425  30.241  29.638  1.00  0.00     0.074 A 
ATOM     29  C   UNL A   1      47.699  30.636  28.732  1.00  0.00     0.029 A 
ATOM     30  N   UNL A   1      45.593  29.934  28.856  1.00  0.00    -0.354 N 
ATOM     31  N   UNL A   1      42.711  30.242  29.384  1.00  0.00    -0.248 NA
ATOM     32  C   UNL A   1      40.924  31.485  30.234  1.00  0.00     0.031 C 
ATOM     33  C   UNL A   1      46.913  31.678  29.237  1.00  0.00     0.029 A 
ATOM     34  C   UNL A   1      45.597  31.248  29.297  1.00  0.00     0.049 A 
ATOM     35  H   UNL A   1      44.793  29.364  28.790  1.00  0.00     0.167 HD
ATOM     36  C   UNL A   1      43.172  31.493  29.769  1.00  0.00     0.074 A 
ATOM     37  C   UNL A   1      42.020  32.231  30.249  1.00  0.00     0.031 C 
ATOM     38  C   UNL A   1      44.436  31.981  29.739  1.00  0.00     0.034 A 
BRANCH  25  39
ATOM     39  C   UNL A   1      48.708  27.926  27.842  1.00  0.00     0.023 A 
ATOM     40  C   UNL A   1      49.503  27.469  28.912  1.00  0.00     0.012 A 
ATOM     41  C   UNL A   1      49.283  28.053  26.561  1.00  0.00     0.148 A 
ATOM     42  C   UNL A   1      50.854  27.181  28.722  1.00  0.00     0.002 A 
ATOM     43  C   UNL A   1      50.620  27.720  26.369  1.00  0.00     0.091 A 
ATOM     44  F   UNL A   1      48.520  28.508  25.558  1.00  0.00    -0.205 F 
ATOM     45  C   UNL A   1      51.410  27.297  27.450  1.00  0.00     0.022 A 
BRANCH  43  46
ATOM     46  S   UNL A   1      51.404  27.759  24.753  1.00  0.00     0.127 S 
ATOM     47  O   UNL A   1      50.489  26.936  23.963  1.00  0.00    -0.237 OA
ATOM     48  O   UNL A   1      51.375  29.185  24.431  1.00  0.00    -0.237 OA
ATOM     49  O   UNL A   1      52.738  27.207  24.942  1.00  0.00    -0.744 OA
ENDBRANCH  43  46
ENDBRANCH  25  39
BRANCH  26  50
ATOM     50  C   UNL A   1      38.984  29.317  29.741  1.00  0.00     0.023 A 
ATOM     51  C   UNL A   1      38.549  28.987  31.038  1.00  0.00     0.012 A 
ATOM     52  C   UNL A   1      38.066  29.867  28.824  1.00  0.00     0.148 A 
ATOM     53  C   UNL A   1      37.218  29.183  31.408  1.00  0.00     0.002 A 
ATOM     54  C   UNL A   1      36.759  30.118  29.219  1.00  0.00     0.091 A 
ATOM     55  F   UNL A   1      38.503  30.168  27.592  1.00  0.00    -0.205 F 
ATOM     56  C   UNL A   1      36.327  29.760  30.504  1.00  0.00     0.022 A 
BRANCH  54  57
ATOM     57  S   UNL A   1      35.590  30.994  28.174  1.00  0.00     0.127 S 
ATOM     58  O   UNL A   1      36.351  32.187  27.810  1.00  0.00    -0.237 OA
ATOM     59  O   UNL A   1      35.386  30.037  27.086  1.00  0.00    -0.237 OA
ATOM     60  O   UNL A   1      34.414  31.223  29.002  1.00  0.00    -0.744 OA
ENDBRANCH  54  57
ENDBRANCH  26  50
BRANCH  38  61
ATOM     61  C   UNL A   1      44.642  33.395  30.210  1.00  0.00     0.023 A 
ATOM     62  C   UNL A   1      45.089  33.643  31.523  1.00  0.00     0.012 A 
ATOM     63  C   UNL A   1      44.457  34.477  29.326  1.00  0.00     0.148 A 
ATOM     64  C   UNL A   1      45.320  34.946  31.958  1.00  0.00     0.002 A 
ATOM     65  C   UNL A   1      44.740  35.768  29.750  1.00  0.00     0.091 A 
ATOM     66  F   UNL A   1      44.011  34.220  28.088  1.00  0.00    -0.205 F 
ATOM     67  C   UNL A   1      45.158  36.007  31.069  1.00  0.00     0.022 A 
BRANCH  65  68
ATOM     68  S   UNL A   1      44.656  37.184  28.648  1.00  0.00     0.127 S 
ATOM     69  O   UNL A   1      45.023  36.584  27.366  1.00  0.00    -0.237 OA
ATOM     70  O   UNL A   1      43.252  37.577  28.758  1.00  0.00    -0.237 OA
ATOM     71  O   UNL A   1      45.601  38.160  29.171  1.00  0.00    -0.744 OA
ENDBRANCH  65  68
ENDBRANCH  38  61
ENDBRANCH  12  13
ENDBRANCH   5   7
ENDBRANCH   2   3
ENDBRANCH   1   2
BRANCH   1  72
ATOM     72  C   UNL A   1      37.914  21.857  25.638  1.00  0.00     0.118 C 
BRANCH  72  73
ATOM     73  N   UNL A   1      37.581  22.262  24.278  1.00  0.00    -0.352 N 
ATOM     74  C   UNL A   1      36.401  22.789  23.831  1.00  0.00     0.251 C 
ATOM     75  H   UNL A   1      38.288  22.143  23.604  1.00  0.00     0.163 HD
ATOM     76  O   UNL A   1      36.093  22.725  22.646  1.00  0.00    -0.269 OA
BRANCH  74  77
ATOM     77  C   UNL A   1      35.561  23.540  24.779  1.00  0.00     0.040 A 
ATOM     78  C   UNL A   1      34.873  22.887  25.801  1.00  0.00     0.014 A 
ATOM     79  C   UNL A   1      35.315  24.886  24.502  1.00  0.00     0.021 A 
ATOM     80  C   UNL A   1      33.969  23.606  26.583  1.00  0.00     0.001 A 
ATOM     81  C   UNL A   1      34.381  25.595  25.250  1.00  0.00    -0.010 A 
ATOM     82  C   UNL A   1      33.729  24.955  26.316  1.00  0.00     0.007 A 
BRANCH  81  83
ATOM     83  C   UNL A   1      33.918  26.934  24.752  1.00  0.00     0.265 C 
BRANCH  83  84
ATOM     84  O   UNL A   1      32.536  27.030  25.116  1.00  0.00    -0.488 OA
BRANCH  84  85
ATOM     85  C   UNL A   1      31.781  27.774  24.244  1.00  0.00     0.127 A 
ATOM     86  C   UNL A   1      31.222  28.955  24.753  1.00  0.00     0.047 A 
ATOM     87  C   UNL A   1      31.399  27.278  22.981  1.00  0.00     0.017 A 
ATOM     88  C   UNL A   1      30.239  29.632  24.037  1.00  0.00     0.004 A 
ATOM     89  C   UNL A   1      30.349  27.939  22.324  1.00  0.00     0.012 A 
ATOM     90  C   UNL A   1      29.782  29.108  22.835  1.00  0.00     0.001 A 
BRANCH  87  91
ATOM     91  C   UNL A   1      31.965  26.054  22.370  1.00  0.00     0.028 C 
ATOM     92  C   UNL A   1      31.844  24.790  22.819  1.00  0.00     0.071 C 
ATOM     93  C   UNL A   1      31.082  24.255  23.987  1.00  0.00     0.197 C 
ATOM     94  C   UNL A   1      32.608  23.649  22.221  1.00  0.00     0.197 C 
ATOM     95  O   UNL A   1      30.261  24.802  24.697  1.00  0.00    -0.288 OA
ATOM     96  C   UNL A   1      31.533  22.874  24.160  1.00  0.00     0.034 A 
ATOM     97  C   UNL A   1      32.381  22.506  23.122  1.00  0.00     0.034 A 
ATOM     98  O   UNL A   1      33.357  23.667  21.264  1.00  0.00    -0.288 OA
ATOM     99  C   UNL A   1      31.246  22.019  25.212  1.00  0.00     0.013 A 
ATOM    100  C   UNL A   1      32.948  21.244  23.076  1.00  0.00     0.013 A 
ATOM    101  C   UNL A   1      31.832  20.751  25.194  1.00  0.00     0.001 A 
ATOM    102  C   UNL A   1      32.666  20.363  24.128  1.00  0.00     0.001 A 
ENDBRANCH  87  91
ENDBRANCH  84  85
ENDBRANCH  83  84
ENDBRANCH  81  83
ENDBRANCH  74  77
ENDBRANCH  72  73
ENDBRANCH   1  72
TORSDOF 17
ENDMDL
