MODEL 1
REMARK VINA RESULT:     -12.7      0.000      0.000
REMARK SMILES Cc1ncc(CC(=O)N2CCc3c(c(C(=O)NCCCNC(=O)c4ccc(-c5c6nc(c(-c7cccc(S(=O)(=O)[O-])c7F)c7ccc([nH]7)c(-c7cccc(S(=O)(=O)[O-])c7F)c7nc(c(-c8cccc(S(=O)(=O)[O-])c8F)c8ccc5[nH]8)C=C7)C=C6)cc4)nn3CC3CC3)C2)c(=O)[nH]1
REMARK SMILES IDX 19 1 18 2 17 3 15 4 16 5 14 7 9 8 10 9 93 10 11 11 13 12
REMARK SMILES IDX 12 13 88 14 87 15 7 16 8 17 6 18 5 19 1 20 2 21 3 22 96 23
REMARK SMILES IDX 4 24 94 25 95 27 89 28 90 29 91 30 92 31 20 32 21 33 22 34
REMARK SMILES IDX 23 36 24 37 25 38 86 39 26 40 85 41 27 42 28 43 29 44 79 45
REMARK SMILES IDX 30 46 84 47 78 48 80 49 31 50 83 51 77 52 76 53 32 55 64 56
REMARK SMILES IDX 44 57 63 58 45 59 48 60 62 61 81 62 46 63 47 64 61 66 82 67
REMARK SMILES IDX 49 68 33 69 34 70 42 71 35 72 37 73 43 74 36 75 38 76 39 77
REMARK SMILES IDX 40 78 41 79 65 80 66 81 74 82 67 83 69 84 75 85 68 86 70 87
REMARK SMILES IDX 71 88 72 89 73 90 50 91 51 92 59 93 52 94 54 95 60 96 53 97
REMARK SMILES IDX 55 98 56 99 57 100 58 101
REMARK H PARENT 17 6 96 26 21 35 80 54 48 65
REMARK Flexibility Score: inf
ROOT
ATOM      1  C   UNL A   1      38.634  19.024  25.365  1.00  0.00     0.042 C 
ENDROOT
BRANCH   1   2
ATOM      2  C   UNL A   1      37.747  20.052  24.652  1.00  0.00     0.118 C 
BRANCH   2   3
ATOM      3  N   UNL A   1      37.725  21.357  25.295  1.00  0.00    -0.351 N 
ATOM      4  C   UNL A   1      36.662  22.171  25.637  1.00  0.00     0.272 C 
ATOM      5  O   UNL A   1      36.884  23.147  26.345  1.00  0.00    -0.267 OA
ATOM      6  H   UNL A   1      38.612  21.718  25.526  1.00  0.00     0.163 HD
BRANCH   4   7
ATOM      7  C   UNL A   1      35.297  21.882  25.162  1.00  0.00     0.155 A 
ATOM      8  N   UNL A   1      33.758  24.187  22.564  1.00  0.00    -0.338 N 
ATOM      9  C   UNL A   1      32.989  23.106  21.925  1.00  0.00     0.126 C 
ATOM     10  C   UNL A   1      34.995  23.739  23.257  1.00  0.00     0.159 C 
ATOM     11  C   UNL A   1      32.362  22.177  22.977  1.00  0.00     0.078 C 
ATOM     12  C   UNL A   1      34.604  22.562  24.115  1.00  0.00     0.026 A 
ATOM     13  C   UNL A   1      33.414  21.869  23.975  1.00  0.00     0.046 A 
ATOM     14  N   UNL A   1      33.410  20.898  24.919  1.00  0.00    -0.268 N 
ATOM     15  N   UNL A   1      34.522  20.901  25.664  1.00  0.00    -0.167 NA
BRANCH   8  16
ATOM     16  C   UNL A   1      33.464  25.538  22.550  1.00  0.00     0.227 C 
ATOM     17  O   UNL A   1      33.857  26.264  21.629  1.00  0.00    -0.275 OA
BRANCH  16  18
ATOM     18  C   UNL A   1      32.914  26.229  23.813  1.00  0.00     0.143 C 
BRANCH  18  19
ATOM     19  C   UNL A   1      32.081  25.473  24.788  1.00  0.00     0.045 A 
ATOM     20  C   UNL A   1      29.796  22.898  27.237  1.00  0.00     0.087 C 
ATOM     21  C   UNL A   1      30.624  23.854  26.432  1.00  0.00     0.105 A 
ATOM     22  N   UNL A   1      31.837  24.139  26.781  1.00  0.00    -0.243 NA
ATOM     23  N   UNL A   1      30.018  24.377  25.326  1.00  0.00    -0.311 N 
ATOM     24  C   UNL A   1      32.539  24.961  25.941  1.00  0.00     0.123 A 
ATOM     25  C   UNL A   1      30.656  25.240  24.482  1.00  0.00     0.254 A 
ATOM     26  H   UNL A   1      29.088  24.123  25.130  1.00  0.00     0.171 HD
ATOM     27  O   UNL A   1      30.086  25.761  23.533  1.00  0.00    -0.269 OA
ENDBRANCH  18  19
ENDBRANCH  16  18
ENDBRANCH   8  16
BRANCH  14  28
ATOM     28  C   UNL A   1      32.360  19.937  25.223  1.00  0.00     0.148 C 
BRANCH  28  29
ATOM     29  C   UNL A   1      32.571  18.561  24.649  1.00  0.00     0.011 C 
ATOM     30  C   UNL A   1      32.578  18.235  23.170  1.00  0.00     0.006 C 
ATOM     31  C   UNL A   1      33.867  18.248  23.937  1.00  0.00     0.006 C 
ENDBRANCH  28  29
ENDBRANCH  14  28
ENDBRANCH   4   7
ENDBRANCH   2   3
ENDBRANCH   1   2
BRANCH   1  32
ATOM     32  C   UNL A   1      39.794  19.703  26.075  1.00  0.00     0.118 C 
BRANCH  32  33
ATOM     33  N   UNL A   1      41.066  18.971  25.911  1.00  0.00    -0.352 N 
ATOM     34  C   UNL A   1      42.372  19.442  25.904  1.00  0.00     0.251 C 
ATOM     35  H   UNL A   1      40.974  17.998  25.786  1.00  0.00     0.163 HD
ATOM     36  O   UNL A   1      43.283  18.750  25.486  1.00  0.00    -0.269 OA
BRANCH  34  37
ATOM     37  C   UNL A   1      42.633  20.801  26.414  1.00  0.00     0.039 A 
ATOM     38  C   UNL A   1      43.181  21.819  25.624  1.00  0.00     0.014 A 
ATOM     39  C   UNL A   1      42.288  21.044  27.733  1.00  0.00     0.014 A 
ATOM     40  C   UNL A   1      43.312  23.094  26.175  1.00  0.00     0.010 A 
ATOM     41  C   UNL A   1      42.143  22.323  28.162  1.00  0.00     0.010 A 
ATOM     42  C   UNL A   1      42.783  23.325  27.448  1.00  0.00    -0.014 A 
BRANCH  42  43
ATOM     43  C   UNL A   1      42.845  24.604  28.130  1.00  0.00     0.031 A 
ATOM     44  C   UNL A   1      41.639  25.448  27.969  1.00  0.00     0.074 A 
ATOM     45  C   UNL A   1      43.745  24.782  29.125  1.00  0.00     0.049 A 
ATOM     46  N   UNL A   1      41.549  26.588  27.369  1.00  0.00    -0.248 NA
ATOM     47  C   UNL A   1      40.340  24.887  28.375  1.00  0.00     0.031 C 
ATOM     48  C   UNL A   1      44.720  23.805  29.642  1.00  0.00     0.029 A 
ATOM     49  N   UNL A   1      43.815  25.781  30.040  1.00  0.00    -0.354 N 
ATOM     50  C   UNL A   1      40.229  26.997  27.554  1.00  0.00     0.074 A 
ATOM     51  C   UNL A   1      39.501  25.809  27.901  1.00  0.00     0.031 C 
ATOM     52  C   UNL A   1      45.043  24.130  30.911  1.00  0.00     0.029 A 
ATOM     53  C   UNL A   1      44.428  25.403  31.232  1.00  0.00     0.049 A 
ATOM     54  H   UNL A   1      43.464  26.687  29.878  1.00  0.00     0.167 HD
ATOM     55  C   UNL A   1      39.914  28.315  27.718  1.00  0.00     0.034 A 
ATOM     56  C   UNL A   1      44.329  26.044  32.425  1.00  0.00     0.034 A 
ATOM     57  C   UNL A   1      41.051  29.154  27.402  1.00  0.00     0.049 A 
ATOM     58  C   UNL A   1      43.881  27.429  32.135  1.00  0.00     0.074 A 
ATOM     59  C   UNL A   1      41.893  29.293  26.315  1.00  0.00     0.029 A 
ATOM     60  N   UNL A   1      41.720  29.723  28.463  1.00  0.00    -0.354 N 
ATOM     61  N   UNL A   1      44.587  28.283  31.443  1.00  0.00    -0.248 NA
ATOM     62  C   UNL A   1      42.454  27.703  32.193  1.00  0.00     0.031 C 
ATOM     63  C   UNL A   1      43.192  29.462  26.880  1.00  0.00     0.029 A 
ATOM     64  C   UNL A   1      43.058  29.505  28.269  1.00  0.00     0.049 A 
ATOM     65  H   UNL A   1      41.312  30.199  29.222  1.00  0.00     0.167 HD
ATOM     66  C   UNL A   1      43.662  28.894  30.604  1.00  0.00     0.074 A 
ATOM     67  C   UNL A   1      42.357  28.583  31.192  1.00  0.00     0.031 C 
ATOM     68  C   UNL A   1      44.004  29.315  29.349  1.00  0.00     0.034 A 
BRANCH  55  69
ATOM     69  C   UNL A   1      38.756  28.864  28.539  1.00  0.00     0.023 A 
ATOM     70  C   UNL A   1      37.862  29.725  27.858  1.00  0.00     0.012 A 
ATOM     71  C   UNL A   1      38.639  28.824  29.948  1.00  0.00     0.148 A 
ATOM     72  C   UNL A   1      36.990  30.580  28.541  1.00  0.00     0.002 A 
ATOM     73  C   UNL A   1      37.721  29.626  30.620  1.00  0.00     0.091 A 
ATOM     74  F   UNL A   1      39.484  28.105  30.683  1.00  0.00    -0.205 F 
ATOM     75  C   UNL A   1      36.924  30.535  29.925  1.00  0.00     0.022 A 
BRANCH  73  76
ATOM     76  S   UNL A   1      37.562  29.574  32.412  1.00  0.00     0.127 S 
ATOM     77  O   UNL A   1      38.769  30.282  32.830  1.00  0.00    -0.237 OA
ATOM     78  O   UNL A   1      36.310  30.304  32.621  1.00  0.00    -0.237 OA
ATOM     79  O   UNL A   1      37.493  28.162  32.763  1.00  0.00    -0.744 OA
ENDBRANCH  73  76
ENDBRANCH  55  69
BRANCH  56  80
ATOM     80  C   UNL A   1      44.292  25.443  33.781  1.00  0.00     0.023 A 
ATOM     81  C   UNL A   1      43.217  24.618  34.166  1.00  0.00     0.012 A 
ATOM     82  C   UNL A   1      45.424  25.484  34.628  1.00  0.00     0.148 A 
ATOM     83  C   UNL A   1      43.272  23.862  35.347  1.00  0.00     0.002 A 
ATOM     84  C   UNL A   1      45.460  24.760  35.814  1.00  0.00     0.091 A 
ATOM     85  F   UNL A   1      46.514  26.152  34.225  1.00  0.00    -0.205 F 
ATOM     86  C   UNL A   1      44.389  23.937  36.175  1.00  0.00     0.022 A 
BRANCH  84  87
ATOM     87  S   UNL A   1      46.875  24.854  36.918  1.00  0.00     0.127 S 
ATOM     88  O   UNL A   1      46.432  24.047  38.056  1.00  0.00    -0.237 OA
ATOM     89  O   UNL A   1      47.931  24.254  36.109  1.00  0.00    -0.237 OA
ATOM     90  O   UNL A   1      47.025  26.274  37.217  1.00  0.00    -0.744 OA
ENDBRANCH  84  87
ENDBRANCH  56  80
BRANCH  68  91
ATOM     91  C   UNL A   1      45.461  29.312  28.946  1.00  0.00     0.023 A 
ATOM     92  C   UNL A   1      46.355  30.328  29.345  1.00  0.00     0.012 A 
ATOM     93  C   UNL A   1      45.986  28.152  28.351  1.00  0.00     0.148 A 
ATOM     94  C   UNL A   1      47.733  30.198  29.147  1.00  0.00     0.002 A 
ATOM     95  C   UNL A   1      47.360  28.005  28.198  1.00  0.00     0.091 A 
ATOM     96  F   UNL A   1      45.130  27.188  27.978  1.00  0.00    -0.205 F 
ATOM     97  C   UNL A   1      48.238  29.029  28.588  1.00  0.00     0.022 A 
BRANCH  95  98
ATOM     98  S   UNL A   1      48.079  26.468  27.613  1.00  0.00     0.127 S 
ATOM     99  O   UNL A   1      47.543  26.379  26.256  1.00  0.00    -0.237 OA
ATOM    100  O   UNL A   1      49.515  26.740  27.687  1.00  0.00    -0.237 OA
ATOM    101  O   UNL A   1      47.623  25.436  28.537  1.00  0.00    -0.744 OA
ENDBRANCH  95  98
ENDBRANCH  68  91
ENDBRANCH  42  43
ENDBRANCH  34  37
ENDBRANCH  32  33
ENDBRANCH   1  32
TORSDOF 18
ENDMDL
MODEL 2
REMARK VINA RESULT:     -12.6      1.609      2.197
REMARK SMILES Cc1ncc(CC(=O)N2CCc3c(c(C(=O)NCCCNC(=O)c4ccc(-c5c6nc(c(-c7cccc(S(=O)(=O)[O-])c7F)c7ccc([nH]7)c(-c7cccc(S(=O)(=O)[O-])c7F)c7nc(c(-c8cccc(S(=O)(=O)[O-])c8F)c8ccc5[nH]8)C=C7)C=C6)cc4)nn3CC3CC3)C2)c(=O)[nH]1
REMARK SMILES IDX 19 1 18 2 17 3 15 4 16 5 14 7 9 8 10 9 93 10 11 11 13 12
REMARK SMILES IDX 12 13 88 14 87 15 7 16 8 17 6 18 5 19 1 20 2 21 3 22 96 23
REMARK SMILES IDX 4 24 94 25 95 27 89 28 90 29 91 30 92 31 20 32 21 33 22 34
REMARK SMILES IDX 23 36 24 37 25 38 86 39 26 40 85 41 27 42 28 43 29 44 79 45
REMARK SMILES IDX 30 46 84 47 78 48 80 49 31 50 83 51 77 52 76 53 32 55 64 56
REMARK SMILES IDX 44 57 63 58 45 59 48 60 62 61 81 62 46 63 47 64 61 66 82 67
REMARK SMILES IDX 49 68 33 69 34 70 42 71 35 72 37 73 43 74 36 75 38 76 39 77
REMARK SMILES IDX 40 78 41 79 65 80 66 81 74 82 67 83 69 84 75 85 68 86 70 87
REMARK SMILES IDX 71 88 72 89 73 90 50 91 51 92 59 93 52 94 54 95 60 96 53 97
REMARK SMILES IDX 55 98 56 99 57 100 58 101
REMARK H PARENT 17 6 96 26 21 35 80 54 48 65
REMARK Flexibility Score: inf
ROOT
ATOM      1  C   UNL A   1      38.578  18.889  25.387  1.00  0.00     0.042 C 
ENDROOT
BRANCH   1   2
ATOM      2  C   UNL A   1      37.698  19.897  24.639  1.00  0.00     0.118 C 
BRANCH   2   3
ATOM      3  N   UNL A   1      37.711  21.233  25.217  1.00  0.00    -0.351 N 
ATOM      4  C   UNL A   1      36.669  22.088  25.525  1.00  0.00     0.272 C 
ATOM      5  O   UNL A   1      36.919  23.091  26.182  1.00  0.00    -0.267 OA
ATOM      6  H   UNL A   1      38.608  21.584  25.423  1.00  0.00     0.163 HD
BRANCH   4   7
ATOM      7  C   UNL A   1      35.295  21.807  25.073  1.00  0.00     0.155 A 
ATOM      8  N   UNL A   1      33.697  24.167  22.563  1.00  0.00    -0.338 N 
ATOM      9  C   UNL A   1      32.915  23.100  21.917  1.00  0.00     0.126 C 
ATOM     10  C   UNL A   1      34.949  23.705  23.218  1.00  0.00     0.159 C 
ATOM     11  C   UNL A   1      32.312  22.146  22.962  1.00  0.00     0.078 C 
ATOM     12  C   UNL A   1      34.579  22.509  24.057  1.00  0.00     0.026 A 
ATOM     13  C   UNL A   1      33.386  21.818  23.929  1.00  0.00     0.046 A 
ATOM     14  N   UNL A   1      33.404  20.826  24.850  1.00  0.00    -0.268 N 
ATOM     15  N   UNL A   1      34.532  20.814  25.571  1.00  0.00    -0.167 NA
BRANCH   8  16
ATOM     16  C   UNL A   1      33.401  25.518  22.585  1.00  0.00     0.227 C 
ATOM     17  O   UNL A   1      34.006  26.313  21.857  1.00  0.00    -0.275 OA
BRANCH  16  18
ATOM     18  C   UNL A   1      32.541  26.109  23.721  1.00  0.00     0.143 C 
BRANCH  18  19
ATOM     19  C   UNL A   1      33.059  27.223  24.562  1.00  0.00     0.045 A 
ATOM     20  C   UNL A   1      34.025  30.431  27.135  1.00  0.00     0.087 C 
ATOM     21  C   UNL A   1      33.757  29.267  26.229  1.00  0.00     0.105 A 
ATOM     22  N   UNL A   1      34.050  28.061  26.592  1.00  0.00    -0.243 NA
ATOM     23  N   UNL A   1      33.182  29.571  25.028  1.00  0.00    -0.311 N 
ATOM     24  C   UNL A   1      33.697  27.058  25.731  1.00  0.00     0.123 A 
ATOM     25  C   UNL A   1      32.855  28.613  24.111  1.00  0.00     0.254 A 
ATOM     26  H   UNL A   1      32.998  30.513  24.815  1.00  0.00     0.171 HD
ATOM     27  O   UNL A   1      32.406  28.896  23.008  1.00  0.00    -0.269 OA
ENDBRANCH  18  19
ENDBRANCH  16  18
ENDBRANCH   8  16
BRANCH  14  28
ATOM     28  C   UNL A   1      32.362  19.857  25.156  1.00  0.00     0.148 C 
BRANCH  28  29
ATOM     29  C   UNL A   1      32.858  18.486  25.532  1.00  0.00     0.011 C 
ATOM     30  C   UNL A   1      32.312  17.188  24.976  1.00  0.00     0.006 C 
ATOM     31  C   UNL A   1      33.654  17.686  24.527  1.00  0.00     0.006 C 
ENDBRANCH  28  29
ENDBRANCH  14  28
ENDBRANCH   4   7
ENDBRANCH   2   3
ENDBRANCH   1   2
BRANCH   1  32
ATOM     32  C   UNL A   1      39.749  19.583  26.064  1.00  0.00     0.118 C 
BRANCH  32  33
ATOM     33  N   UNL A   1      41.010  18.825  25.936  1.00  0.00    -0.352 N 
ATOM     34  C   UNL A   1      42.320  19.277  25.862  1.00  0.00     0.251 C 
ATOM     35  H   UNL A   1      40.904  17.846  25.898  1.00  0.00     0.163 HD
ATOM     36  O   UNL A   1      43.214  18.540  25.487  1.00  0.00    -0.269 OA
BRANCH  34  37
ATOM     37  C   UNL A   1      42.606  20.671  26.248  1.00  0.00     0.039 A 
ATOM     38  C   UNL A   1      43.111  21.622  25.352  1.00  0.00     0.014 A 
ATOM     39  C   UNL A   1      42.332  21.019  27.560  1.00  0.00     0.014 A 
ATOM     40  C   UNL A   1      43.270  22.936  25.792  1.00  0.00     0.010 A 
ATOM     41  C   UNL A   1      42.208  22.329  27.893  1.00  0.00     0.010 A 
ATOM     42  C   UNL A   1      42.808  23.269  27.069  1.00  0.00    -0.014 A 
BRANCH  42  43
ATOM     43  C   UNL A   1      42.906  24.597  27.643  1.00  0.00     0.031 A 
ATOM     44  C   UNL A   1      41.618  25.324  27.738  1.00  0.00     0.074 A 
ATOM     45  C   UNL A   1      43.996  24.926  28.374  1.00  0.00     0.049 A 
ATOM     46  N   UNL A   1      41.274  26.402  27.117  1.00  0.00    -0.248 NA
ATOM     47  C   UNL A   1      40.517  24.691  28.482  1.00  0.00     0.031 C 
ATOM     48  C   UNL A   1      45.158  24.076  28.688  1.00  0.00     0.029 A 
ATOM     49  N   UNL A   1      44.184  25.996  29.188  1.00  0.00    -0.354 N 
ATOM     50  C   UNL A   1      40.004  26.714  27.599  1.00  0.00     0.074 A 
ATOM     51  C   UNL A   1      39.501  25.501  28.179  1.00  0.00     0.031 C 
ATOM     52  C   UNL A   1      45.743  24.524  29.819  1.00  0.00     0.029 A 
ATOM     53  C   UNL A   1      45.100  25.763  30.211  1.00  0.00     0.049 A 
ATOM     54  H   UNL A   1      43.717  26.854  29.067  1.00  0.00     0.167 HD
ATOM     55  C   UNL A   1      39.609  28.010  27.762  1.00  0.00     0.034 A 
ATOM     56  C   UNL A   1      45.228  26.484  31.354  1.00  0.00     0.034 A 
ATOM     57  C   UNL A   1      40.547  28.914  27.130  1.00  0.00     0.049 A 
ATOM     58  C   UNL A   1      44.588  27.801  31.107  1.00  0.00     0.074 A 
ATOM     59  C   UNL A   1      41.085  29.036  25.863  1.00  0.00     0.029 A 
ATOM     60  N   UNL A   1      41.392  29.616  27.961  1.00  0.00    -0.354 N 
ATOM     61  N   UNL A   1      45.019  28.654  30.217  1.00  0.00    -0.248 NA
ATOM     62  C   UNL A   1      43.197  27.959  31.501  1.00  0.00     0.031 C 
ATOM     63  C   UNL A   1      42.458  29.356  26.080  1.00  0.00     0.029 A 
ATOM     64  C   UNL A   1      42.659  29.496  27.455  1.00  0.00     0.049 A 
ATOM     65  H   UNL A   1      41.133  30.114  28.770  1.00  0.00     0.167 HD
ATOM     66  C   UNL A   1      43.863  29.119  29.600  1.00  0.00     0.074 A 
ATOM     67  C   UNL A   1      42.775  28.748  30.507  1.00  0.00     0.031 C 
ATOM     68  C   UNL A   1      43.851  29.469  28.277  1.00  0.00     0.034 A 
BRANCH  55  69
ATOM     69  C   UNL A   1      38.633  28.524  28.811  1.00  0.00     0.023 A 
ATOM     70  C   UNL A   1      37.576  29.337  28.336  1.00  0.00     0.012 A 
ATOM     71  C   UNL A   1      38.826  28.501  30.212  1.00  0.00     0.148 A 
ATOM     72  C   UNL A   1      36.837  30.165  29.187  1.00  0.00     0.002 A 
ATOM     73  C   UNL A   1      38.041  29.274  31.063  1.00  0.00     0.091 A 
ATOM     74  F   UNL A   1      39.841  27.828  30.751  1.00  0.00    -0.205 F 
ATOM     75  C   UNL A   1      37.074  30.138  30.552  1.00  0.00     0.022 A 
BRANCH  73  76
ATOM     76  S   UNL A   1      38.277  29.243  32.847  1.00  0.00     0.127 S 
ATOM     77  O   UNL A   1      37.591  28.006  33.208  1.00  0.00    -0.237 OA
ATOM     78  O   UNL A   1      39.736  29.200  32.955  1.00  0.00    -0.237 OA
ATOM     79  O   UNL A   1      37.680  30.475  33.346  1.00  0.00    -0.744 OA
ENDBRANCH  73  76
ENDBRANCH  55  69
BRANCH  56  80
ATOM     80  C   UNL A   1      45.577  25.989  32.708  1.00  0.00     0.023 A 
ATOM     81  C   UNL A   1      46.417  26.745  33.549  1.00  0.00     0.012 A 
ATOM     82  C   UNL A   1      44.904  24.882  33.276  1.00  0.00     0.148 A 
ATOM     83  C   UNL A   1      46.574  26.412  34.903  1.00  0.00     0.002 A 
ATOM     84  C   UNL A   1      45.090  24.536  34.610  1.00  0.00     0.091 A 
ATOM     85  F   UNL A   1      43.997  24.225  32.540  1.00  0.00    -0.205 F 
ATOM     86  C   UNL A   1      45.917  25.305  35.433  1.00  0.00     0.022 A 
BRANCH  84  87
ATOM     87  S   UNL A   1      44.277  23.099  35.319  1.00  0.00     0.127 S 
ATOM     88  O   UNL A   1      44.892  23.019  36.644  1.00  0.00    -0.237 OA
ATOM     89  O   UNL A   1      42.876  23.509  35.313  1.00  0.00    -0.237 OA
ATOM     90  O   UNL A   1      44.626  21.994  34.432  1.00  0.00    -0.744 OA
ENDBRANCH  84  87
ENDBRANCH  56  80
BRANCH  68  91
ATOM     91  C   UNL A   1      45.161  29.554  27.529  1.00  0.00     0.023 A 
ATOM     92  C   UNL A   1      46.039  30.650  27.670  1.00  0.00     0.012 A 
ATOM     93  C   UNL A   1      45.619  28.411  26.852  1.00  0.00     0.148 A 
ATOM     94  C   UNL A   1      47.333  30.613  27.143  1.00  0.00     0.002 A 
ATOM     95  C   UNL A   1      46.922  28.359  26.370  1.00  0.00     0.091 A 
ATOM     96  F   UNL A   1      44.780  27.372  26.725  1.00  0.00    -0.205 F 
ATOM     97  C   UNL A   1      47.781  29.461  26.506  1.00  0.00     0.022 A 
BRANCH  95  98
ATOM     98  S   UNL A   1      47.600  26.854  25.664  1.00  0.00     0.127 S 
ATOM     99  O   UNL A   1      47.406  25.894  26.748  1.00  0.00    -0.237 OA
ATOM    100  O   UNL A   1      46.744  26.639  24.495  1.00  0.00    -0.237 OA
ATOM    101  O   UNL A   1      48.987  27.158  25.334  1.00  0.00    -0.744 OA
ENDBRANCH  95  98
ENDBRANCH  68  91
ENDBRANCH  42  43
ENDBRANCH  34  37
ENDBRANCH  32  33
ENDBRANCH   1  32
TORSDOF 18
ENDMDL
MODEL 3
REMARK VINA RESULT:     -12.1      1.811      2.329
REMARK SMILES Cc1ncc(CC(=O)N2CCc3c(c(C(=O)NCCCNC(=O)c4ccc(-c5c6nc(c(-c7cccc(S(=O)(=O)[O-])c7F)c7ccc([nH]7)c(-c7cccc(S(=O)(=O)[O-])c7F)c7nc(c(-c8cccc(S(=O)(=O)[O-])c8F)c8ccc5[nH]8)C=C7)C=C6)cc4)nn3CC3CC3)C2)c(=O)[nH]1
REMARK SMILES IDX 19 1 18 2 17 3 15 4 16 5 14 7 9 8 10 9 93 10 11 11 13 12
REMARK SMILES IDX 12 13 88 14 87 15 7 16 8 17 6 18 5 19 1 20 2 21 3 22 96 23
REMARK SMILES IDX 4 24 94 25 95 27 89 28 90 29 91 30 92 31 20 32 21 33 22 34
REMARK SMILES IDX 23 36 24 37 25 38 86 39 26 40 85 41 27 42 28 43 29 44 79 45
REMARK SMILES IDX 30 46 84 47 78 48 80 49 31 50 83 51 77 52 76 53 32 55 64 56
REMARK SMILES IDX 44 57 63 58 45 59 48 60 62 61 81 62 46 63 47 64 61 66 82 67
REMARK SMILES IDX 49 68 33 69 34 70 42 71 35 72 37 73 43 74 36 75 38 76 39 77
REMARK SMILES IDX 40 78 41 79 65 80 66 81 74 82 67 83 69 84 75 85 68 86 70 87
REMARK SMILES IDX 71 88 72 89 73 90 50 91 51 92 59 93 52 94 54 95 60 96 53 97
REMARK SMILES IDX 55 98 56 99 57 100 58 101
REMARK H PARENT 17 6 96 26 21 35 80 54 48 65
REMARK Flexibility Score: inf
ROOT
ATOM      1  C   UNL A   1      38.148  19.669  24.832  1.00  0.00     0.042 C 
ENDROOT
BRANCH   1   2
ATOM      2  C   UNL A   1      37.517  20.945  24.264  1.00  0.00     0.118 C 
BRANCH   2   3
ATOM      3  N   UNL A   1      37.140  21.918  25.278  1.00  0.00    -0.351 N 
ATOM      4  C   UNL A   1      35.895  22.272  25.764  1.00  0.00     0.272 C 
ATOM      5  O   UNL A   1      35.844  22.987  26.759  1.00  0.00    -0.267 OA
ATOM      6  H   UNL A   1      37.894  22.402  25.686  1.00  0.00     0.163 HD
BRANCH   4   7
ATOM      7  C   UNL A   1      34.660  21.809  25.106  1.00  0.00     0.155 A 
ATOM      8  N   UNL A   1      32.037  24.388  24.160  1.00  0.00    -0.338 N 
ATOM      9  C   UNL A   1      31.604  23.645  22.965  1.00  0.00     0.126 C 
ATOM     10  C   UNL A   1      33.444  24.132  24.570  1.00  0.00     0.159 C 
ATOM     11  C   UNL A   1      31.508  22.138  23.255  1.00  0.00     0.078 C 
ATOM     12  C   UNL A   1      33.623  22.635  24.578  1.00  0.00     0.026 A 
ATOM     13  C   UNL A   1      32.742  21.752  23.980  1.00  0.00     0.046 A 
ATOM     14  N   UNL A   1      33.220  20.505  24.204  1.00  0.00    -0.268 N 
ATOM     15  N   UNL A   1      34.362  20.511  24.903  1.00  0.00    -0.167 NA
BRANCH   8  16
ATOM     16  C   UNL A   1      31.293  25.296  24.890  1.00  0.00     0.227 C 
ATOM     17  O   UNL A   1      30.431  24.915  25.690  1.00  0.00    -0.275 OA
BRANCH  16  18
ATOM     18  C   UNL A   1      31.297  26.791  24.511  1.00  0.00     0.143 C 
BRANCH  18  19
ATOM     19  C   UNL A   1      32.120  27.765  25.279  1.00  0.00     0.045 A 
ATOM     20  C   UNL A   1      34.009  30.831  27.488  1.00  0.00     0.087 C 
ATOM     21  C   UNL A   1      33.389  29.691  26.735  1.00  0.00     0.105 A 
ATOM     22  N   UNL A   1      33.013  28.617  27.349  1.00  0.00    -0.243 NA
ATOM     23  N   UNL A   1      33.246  29.878  25.390  1.00  0.00    -0.311 N 
ATOM     24  C   UNL A   1      32.388  27.664  26.589  1.00  0.00     0.123 A 
ATOM     25  C   UNL A   1      32.675  28.940  24.579  1.00  0.00     0.254 A 
ATOM     26  H   UNL A   1      33.566  30.718  24.991  1.00  0.00     0.171 HD
ATOM     27  O   UNL A   1      32.614  29.081  23.365  1.00  0.00    -0.269 OA
ENDBRANCH  18  19
ENDBRANCH  16  18
ENDBRANCH   8  16
BRANCH  14  28
ATOM     28  C   UNL A   1      32.630  19.228  23.830  1.00  0.00     0.148 C 
BRANCH  28  29
ATOM     29  C   UNL A   1      33.456  18.018  24.178  1.00  0.00     0.011 C 
ATOM     30  C   UNL A   1      32.894  16.636  24.439  1.00  0.00     0.006 C 
ATOM     31  C   UNL A   1      33.622  16.917  23.156  1.00  0.00     0.006 C 
ENDBRANCH  28  29
ENDBRANCH  14  28
ENDBRANCH   4   7
ENDBRANCH   2   3
ENDBRANCH   1   2
BRANCH   1  32
ATOM     32  C   UNL A   1      39.149  19.997  25.929  1.00  0.00     0.118 C 
BRANCH  32  33
ATOM     33  N   UNL A   1      40.322  19.100  25.912  1.00  0.00    -0.352 N 
ATOM     34  C   UNL A   1      41.674  19.398  26.013  1.00  0.00     0.251 C 
ATOM     35  H   UNL A   1      40.113  18.143  25.813  1.00  0.00     0.163 HD
ATOM     36  O   UNL A   1      42.520  18.576  25.709  1.00  0.00    -0.269 OA
BRANCH  34  37
ATOM     37  C   UNL A   1      42.066  20.734  26.498  1.00  0.00     0.039 A 
ATOM     38  C   UNL A   1      42.719  21.676  25.693  1.00  0.00     0.014 A 
ATOM     39  C   UNL A   1      41.738  21.039  27.808  1.00  0.00     0.014 A 
ATOM     40  C   UNL A   1      42.973  22.943  26.219  1.00  0.00     0.010 A 
ATOM     41  C   UNL A   1      41.718  22.335  28.210  1.00  0.00     0.010 A 
ATOM     42  C   UNL A   1      42.460  23.253  27.482  1.00  0.00    -0.014 A 
BRANCH  42  43
ATOM     43  C   UNL A   1      42.645  24.533  28.139  1.00  0.00     0.031 A 
ATOM     44  C   UNL A   1      41.493  25.456  28.025  1.00  0.00     0.074 A 
ATOM     45  C   UNL A   1      43.606  24.661  29.083  1.00  0.00     0.049 A 
ATOM     46  N   UNL A   1      41.450  26.591  27.412  1.00  0.00    -0.248 NA
ATOM     47  C   UNL A   1      40.181  24.992  28.507  1.00  0.00     0.031 C 
ATOM     48  C   UNL A   1      44.537  23.626  29.566  1.00  0.00     0.029 A 
ATOM     49  N   UNL A   1      43.791  25.665  29.977  1.00  0.00    -0.354 N 
ATOM     50  C   UNL A   1      40.173  27.093  27.657  1.00  0.00     0.074 A 
ATOM     51  C   UNL A   1      39.384  25.963  28.060  1.00  0.00     0.031 C 
ATOM     52  C   UNL A   1      44.947  23.945  30.811  1.00  0.00     0.029 A 
ATOM     53  C   UNL A   1      44.438  25.261  31.143  1.00  0.00     0.049 A 
ATOM     54  H   UNL A   1      43.496  26.591  29.818  1.00  0.00     0.167 HD
ATOM     55  C   UNL A   1      39.958  28.432  27.815  1.00  0.00     0.034 A 
ATOM     56  C   UNL A   1      44.446  25.923  32.327  1.00  0.00     0.034 A 
ATOM     57  C   UNL A   1      41.131  29.186  27.427  1.00  0.00     0.049 A 
ATOM     58  C   UNL A   1      44.079  27.332  32.038  1.00  0.00     0.074 A 
ATOM     59  C   UNL A   1      41.922  29.252  26.297  1.00  0.00     0.029 A 
ATOM     60  N   UNL A   1      41.892  29.721  28.444  1.00  0.00    -0.354 N 
ATOM     61  N   UNL A   1      44.805  28.126  31.297  1.00  0.00    -0.248 NA
ATOM     62  C   UNL A   1      42.679  27.704  32.164  1.00  0.00     0.031 C 
ATOM     63  C   UNL A   1      43.257  29.339  26.792  1.00  0.00     0.029 A 
ATOM     64  C   UNL A   1      43.199  29.409  28.185  1.00  0.00     0.049 A 
ATOM     65  H   UNL A   1      41.557  30.234  29.215  1.00  0.00     0.167 HD
ATOM     66  C   UNL A   1      43.881  28.788  30.496  1.00  0.00     0.074 A 
ATOM     67  C   UNL A   1      42.590  28.575  31.155  1.00  0.00     0.031 C 
ATOM     68  C   UNL A   1      44.186  29.168  29.218  1.00  0.00     0.034 A 
BRANCH  55  69
ATOM     69  C   UNL A   1      38.884  29.070  28.684  1.00  0.00     0.023 A 
ATOM     70  C   UNL A   1      38.113  30.090  28.076  1.00  0.00     0.012 A 
ATOM     71  C   UNL A   1      38.763  28.945  30.088  1.00  0.00     0.148 A 
ATOM     72  C   UNL A   1      37.363  31.002  28.827  1.00  0.00     0.002 A 
ATOM     73  C   UNL A   1      37.962  29.812  30.825  1.00  0.00     0.091 A 
ATOM     74  F   UNL A   1      39.505  28.068  30.761  1.00  0.00    -0.205 F 
ATOM     75  C   UNL A   1      37.293  30.867  30.205  1.00  0.00     0.022 A 
BRANCH  73  76
ATOM     76  S   UNL A   1      37.798  29.654  32.610  1.00  0.00     0.127 S 
ATOM     77  O   UNL A   1      39.113  30.097  33.062  1.00  0.00    -0.237 OA
ATOM     78  O   UNL A   1      36.699  30.579  32.893  1.00  0.00    -0.237 OA
ATOM     79  O   UNL A   1      37.475  28.254  32.855  1.00  0.00    -0.744 OA
ENDBRANCH  73  76
ENDBRANCH  55  69
BRANCH  56  80
ATOM     80  C   UNL A   1      44.438  25.344  33.693  1.00  0.00     0.023 A 
ATOM     81  C   UNL A   1      43.222  25.127  34.369  1.00  0.00     0.012 A 
ATOM     82  C   UNL A   1      45.609  24.783  34.254  1.00  0.00     0.148 A 
ATOM     83  C   UNL A   1      43.176  24.378  35.555  1.00  0.00     0.002 A 
ATOM     84  C   UNL A   1      45.564  24.070  35.447  1.00  0.00     0.091 A 
ATOM     85  F   UNL A   1      46.758  24.856  33.568  1.00  0.00    -0.205 F 
ATOM     86  C   UNL A   1      44.346  23.854  36.098  1.00  0.00     0.022 A 
BRANCH  84  87
ATOM     87  S   UNL A   1      47.059  23.403  36.189  1.00  0.00     0.127 S 
ATOM     88  O   UNL A   1      46.558  22.848  37.446  1.00  0.00    -0.237 OA
ATOM     89  O   UNL A   1      47.474  22.414  35.199  1.00  0.00    -0.237 OA
ATOM     90  O   UNL A   1      47.942  24.554  36.355  1.00  0.00    -0.744 OA
ENDBRANCH  84  87
ENDBRANCH  56  80
BRANCH  68  91
ATOM     91  C   UNL A   1      45.616  29.059  28.742  1.00  0.00     0.023 A 
ATOM     92  C   UNL A   1      46.195  27.826  28.373  1.00  0.00     0.012 A 
ATOM     93  C   UNL A   1      46.313  30.242  28.445  1.00  0.00     0.148 A 
ATOM     94  C   UNL A   1      47.438  27.772  27.735  1.00  0.00     0.002 A 
ATOM     95  C   UNL A   1      47.526  30.189  27.769  1.00  0.00     0.091 A 
ATOM     96  F   UNL A   1      45.754  31.411  28.796  1.00  0.00    -0.205 F 
ATOM     97  C   UNL A   1      48.097  28.955  27.418  1.00  0.00     0.022 A 
BRANCH  95  98
ATOM     98  S   UNL A   1      48.355  31.680  27.212  1.00  0.00     0.127 S 
ATOM     99  O   UNL A   1      49.557  31.142  26.579  1.00  0.00    -0.237 OA
ATOM    100  O   UNL A   1      47.381  32.258  26.285  1.00  0.00    -0.237 OA
ATOM    101  O   UNL A   1      48.581  32.482  28.409  1.00  0.00    -0.744 OA
ENDBRANCH  95  98
ENDBRANCH  68  91
ENDBRANCH  42  43
ENDBRANCH  34  37
ENDBRANCH  32  33
ENDBRANCH   1  32
TORSDOF 18
ENDMDL
