MODEL 1
REMARK VINA RESULT:     -12.7      0.000      0.000
REMARK SMILES CC1(C)CC(=O)C(/C=N/Cc2ccc(C(=O)NCCCNC(=O)c3ccc(-c4c5nc(c(-c6cccc(S(=O)(=O)[O-])c6F)c6ccc([nH]6)c(-c6cccc(S(=O)(=O)[O-])c6F)c6nc(c(-c7cccc(S(=O)(=O)[O-])c7F)c7ccc4[nH]7)C=C6)C=C5)cc3)cc2)=C([O-])C1
REMARK SMILES IDX 19 1 18 2 17 3 15 4 16 5 14 7 11 8 12 9 88 10 13 11 87 12
REMARK SMILES IDX 10 13 9 14 8 15 7 16 1 17 2 18 3 19 4 20 91 21 5 22 89 23
REMARK SMILES IDX 6 24 90 25 20 26 21 27 22 28 23 30 24 31 25 32 86 33 26 34
REMARK SMILES IDX 85 35 27 36 28 37 29 38 79 39 30 40 84 41 78 42 80 43 31 44
REMARK SMILES IDX 83 45 77 46 76 47 32 49 64 50 44 51 63 52 45 53 48 54 62 55
REMARK SMILES IDX 81 56 46 57 47 58 61 60 82 61 49 62 33 63 34 64 42 65 35 66
REMARK SMILES IDX 37 67 43 68 36 69 38 70 39 71 40 72 41 73 65 74 66 75 74 76
REMARK SMILES IDX 67 77 69 78 75 79 68 80 70 81 71 82 72 83 73 84 50 85 51 86
REMARK SMILES IDX 59 87 52 88 54 89 60 90 53 91 55 92 56 93 57 94 58 95
REMARK H PARENT 17 6 21 29 80 48 48 59
REMARK Flexibility Score: inf
ROOT
ATOM      1  C   UNL A   1      35.662  21.557  25.780  1.00  0.00     0.042 C 
ENDROOT
BRANCH   1   2
ATOM      2  C   UNL A   1      35.556  20.360  24.837  1.00  0.00     0.118 C 
BRANCH   2   3
ATOM      3  N   UNL A   1      34.522  19.442  25.276  1.00  0.00    -0.352 N 
ATOM      4  C   UNL A   1      33.158  19.560  25.288  1.00  0.00     0.251 C 
ATOM      5  O   UNL A   1      32.489  18.593  25.649  1.00  0.00    -0.269 OA
ATOM      6  H   UNL A   1      34.859  18.585  25.623  1.00  0.00     0.163 HD
BRANCH   4   7
ATOM      7  C   UNL A   1      32.466  20.779  24.801  1.00  0.00     0.039 A 
ATOM      8  C   UNL A   1      31.231  23.056  23.703  1.00  0.00    -0.027 A 
ATOM      9  C   UNL A   1      31.900  22.140  22.879  1.00  0.00     0.006 A 
ATOM     10  C   UNL A   1      31.163  22.805  25.078  1.00  0.00     0.006 A 
ATOM     11  C   UNL A   1      32.503  21.006  23.422  1.00  0.00     0.014 A 
ATOM     12  C   UNL A   1      31.765  21.665  25.621  1.00  0.00     0.014 A 
BRANCH   8  13
ATOM     13  C   UNL A   1      30.529  24.252  23.104  1.00  0.00     0.177 C 
BRANCH  13  14
ATOM     14  N   UNL A   1      31.176  25.499  23.516  1.00  0.00    -0.288 NA
ATOM     15  C   UNL A   1      30.480  26.241  24.299  1.00  0.00     0.116 C 
BRANCH  15  16
ATOM     16  C   UNL A   1      30.948  27.503  24.927  1.00  0.00     0.024 C 
ATOM     17  C   UNL A   1      32.122  31.159  27.039  1.00  0.00     0.012 C 
ATOM     18  C   UNL A   1      32.151  29.882  26.178  1.00  0.00    -0.025 C 
ATOM     19  C   UNL A   1      33.598  29.657  25.696  1.00  0.00     0.012 C 
ATOM     20  C   UNL A   1      31.209  30.068  24.983  1.00  0.00     0.087 C 
ATOM     21  C   UNL A   1      31.671  28.695  27.031  1.00  0.00     0.026 C 
ATOM     22  C   UNL A   1      30.997  28.799  24.187  1.00  0.00     0.164 C 
ATOM     23  C   UNL A   1      31.276  27.478  26.236  1.00  0.00    -0.120 C 
ATOM     24  O   UNL A   1      30.780  28.874  22.980  1.00  0.00    -0.294 OA
ATOM     25  O   UNL A   1      31.303  26.321  26.999  1.00  0.00    -0.875 OA
ENDBRANCH  15  16
ENDBRANCH  13  14
ENDBRANCH   8  13
ENDBRANCH   4   7
ENDBRANCH   2   3
ENDBRANCH   1   2
BRANCH   1  26
ATOM     26  C   UNL A   1      37.051  22.190  25.800  1.00  0.00     0.118 C 
BRANCH  26  27
ATOM     27  N   UNL A   1      38.094  21.201  26.032  1.00  0.00    -0.352 N 
ATOM     28  C   UNL A   1      39.423  21.377  26.319  1.00  0.00     0.251 C 
ATOM     29  H   UNL A   1      37.800  20.263  25.974  1.00  0.00     0.163 HD
ATOM     30  O   UNL A   1      40.184  20.415  26.238  1.00  0.00    -0.269 OA
BRANCH  28  31
ATOM     31  C   UNL A   1      39.942  22.703  26.720  1.00  0.00     0.039 A 
ATOM     32  C   UNL A   1      40.793  22.781  27.825  1.00  0.00     0.014 A 
ATOM     33  C   UNL A   1      39.552  23.869  26.054  1.00  0.00     0.014 A 
ATOM     34  C   UNL A   1      41.280  24.022  28.239  1.00  0.00     0.010 A 
ATOM     35  C   UNL A   1      40.097  25.096  26.421  1.00  0.00     0.010 A 
ATOM     36  C   UNL A   1      40.952  25.189  27.527  1.00  0.00    -0.014 A 
BRANCH  36  37
ATOM     37  C   UNL A   1      41.507  26.504  27.933  1.00  0.00     0.031 A 
ATOM     38  C   UNL A   1      42.931  26.870  27.616  1.00  0.00     0.074 A 
ATOM     39  C   UNL A   1      40.735  27.352  28.641  1.00  0.00     0.049 A 
ATOM     40  N   UNL A   1      43.571  27.983  27.868  1.00  0.00    -0.248 NA
ATOM     41  C   UNL A   1      43.752  25.843  26.953  1.00  0.00     0.031 C 
ATOM     42  C   UNL A   1      39.368  27.074  29.088  1.00  0.00     0.029 A 
ATOM     43  N   UNL A   1      40.993  28.610  29.120  1.00  0.00    -0.354 N 
ATOM     44  C   UNL A   1      44.873  27.783  27.422  1.00  0.00     0.074 A 
ATOM     45  C   UNL A   1      44.942  26.427  26.922  1.00  0.00     0.031 C 
ATOM     46  C   UNL A   1      38.900  28.140  29.755  1.00  0.00     0.029 A 
ATOM     47  C   UNL A   1      39.936  29.166  29.802  1.00  0.00     0.049 A 
ATOM     48  H   UNL A   1      41.852  29.072  28.989  1.00  0.00     0.167 HD
ATOM     49  C   UNL A   1      45.908  28.659  27.397  1.00  0.00     0.034 A 
ATOM     50  C   UNL A   1      39.812  30.373  30.387  1.00  0.00     0.034 A 
ATOM     51  C   UNL A   1      45.822  30.017  27.863  1.00  0.00     0.049 A 
ATOM     52  C   UNL A   1      40.955  31.346  30.300  1.00  0.00     0.074 A 
ATOM     53  C   UNL A   1      46.782  31.011  27.805  1.00  0.00     0.029 A 
ATOM     54  N   UNL A   1      44.711  30.572  28.482  1.00  0.00    -0.354 N 
ATOM     55  N   UNL A   1      42.121  31.199  29.720  1.00  0.00    -0.248 NA
ATOM     56  C   UNL A   1      40.746  32.666  30.910  1.00  0.00     0.031 C 
ATOM     57  C   UNL A   1      46.258  32.162  28.406  1.00  0.00     0.029 A 
ATOM     58  C   UNL A   1      44.962  31.891  28.820  1.00  0.00     0.049 A 
ATOM     59  H   UNL A   1      43.867  30.096  28.656  1.00  0.00     0.167 HD
ATOM     60  C   UNL A   1      42.777  32.415  29.872  1.00  0.00     0.074 A 
ATOM     61  C   UNL A   1      41.862  33.296  30.571  1.00  0.00     0.031 C 
ATOM     62  C   UNL A   1      44.029  32.766  29.483  1.00  0.00     0.034 A 
BRANCH  49  63
ATOM     63  C   UNL A   1      47.204  28.182  26.790  1.00  0.00     0.023 A 
ATOM     64  C   UNL A   1      48.289  27.865  27.634  1.00  0.00     0.012 A 
ATOM     65  C   UNL A   1      47.344  28.019  25.398  1.00  0.00     0.148 A 
ATOM     66  C   UNL A   1      49.505  27.436  27.103  1.00  0.00     0.002 A 
ATOM     67  C   UNL A   1      48.546  27.547  24.878  1.00  0.00     0.091 A 
ATOM     68  F   UNL A   1      46.314  28.346  24.606  1.00  0.00    -0.205 F 
ATOM     69  C   UNL A   1      49.630  27.269  25.727  1.00  0.00     0.022 A 
BRANCH  67  70
ATOM     70  S   UNL A   1      48.779  27.226  23.125  1.00  0.00     0.127 S 
ATOM     71  O   UNL A   1      50.237  27.196  23.022  1.00  0.00    -0.237 OA
ATOM     72  O   UNL A   1      48.130  25.924  22.960  1.00  0.00    -0.237 OA
ATOM     73  O   UNL A   1      48.121  28.322  22.430  1.00  0.00    -0.744 OA
ENDBRANCH  67  70
ENDBRANCH  49  63
BRANCH  50  74
ATOM     74  C   UNL A   1      38.516  30.758  31.014  1.00  0.00     0.023 A 
ATOM     75  C   UNL A   1      38.306  30.485  32.380  1.00  0.00     0.012 A 
ATOM     76  C   UNL A   1      37.519  31.436  30.287  1.00  0.00     0.148 A 
ATOM     77  C   UNL A   1      37.117  30.859  33.006  1.00  0.00     0.002 A 
ATOM     78  C   UNL A   1      36.360  31.854  30.930  1.00  0.00     0.091 A 
ATOM     79  F   UNL A   1      37.736  31.678  28.986  1.00  0.00    -0.205 F 
ATOM     80  C   UNL A   1      36.149  31.552  32.284  1.00  0.00     0.022 A 
BRANCH  78  81
ATOM     81  S   UNL A   1      35.117  32.867  30.119  1.00  0.00     0.127 S 
ATOM     82  O   UNL A   1      35.908  34.009  29.671  1.00  0.00    -0.237 OA
ATOM     83  O   UNL A   1      34.654  31.978  29.054  1.00  0.00    -0.237 OA
ATOM     84  O   UNL A   1      34.116  33.153  31.140  1.00  0.00    -0.744 OA
ENDBRANCH  78  81
ENDBRANCH  50  74
BRANCH  62  85
ATOM     85  C   UNL A   1      44.478  34.171  29.796  1.00  0.00     0.023 A 
ATOM     86  C   UNL A   1      45.178  34.429  30.992  1.00  0.00     0.012 A 
ATOM     87  C   UNL A   1      44.245  35.226  28.891  1.00  0.00     0.148 A 
ATOM     88  C   UNL A   1      45.600  35.721  31.303  1.00  0.00     0.002 A 
ATOM     89  C   UNL A   1      44.712  36.501  29.185  1.00  0.00     0.091 A 
ATOM     90  F   UNL A   1      43.558  34.968  27.769  1.00  0.00    -0.205 F 
ATOM     91  C   UNL A   1      45.377  36.754  30.396  1.00  0.00     0.022 A 
BRANCH  89  92
ATOM     92  S   UNL A   1      44.548  37.867  28.030  1.00  0.00     0.127 S 
ATOM     93  O   UNL A   1      43.097  37.987  27.911  1.00  0.00    -0.237 OA
ATOM     94  O   UNL A   1      45.195  38.967  28.749  1.00  0.00    -0.237 OA
ATOM     95  O   UNL A   1      45.248  37.448  26.822  1.00  0.00    -0.744 OA
ENDBRANCH  89  92
ENDBRANCH  62  85
ENDBRANCH  36  37
ENDBRANCH  28  31
ENDBRANCH  26  27
ENDBRANCH   1  26
TORSDOF 16
ENDMDL
MODEL 2
REMARK VINA RESULT:     -12.6      5.038     10.706
REMARK SMILES CC1(C)CC(=O)C(/C=N/Cc2ccc(C(=O)NCCCNC(=O)c3ccc(-c4c5nc(c(-c6cccc(S(=O)(=O)[O-])c6F)c6ccc([nH]6)c(-c6cccc(S(=O)(=O)[O-])c6F)c6nc(c(-c7cccc(S(=O)(=O)[O-])c7F)c7ccc4[nH]7)C=C6)C=C5)cc3)cc2)=C([O-])C1
REMARK SMILES IDX 19 1 18 2 17 3 15 4 16 5 14 7 11 8 12 9 88 10 13 11 87 12
REMARK SMILES IDX 10 13 9 14 8 15 7 16 1 17 2 18 3 19 4 20 91 21 5 22 89 23
REMARK SMILES IDX 6 24 90 25 20 26 21 27 22 28 23 30 24 31 25 32 86 33 26 34
REMARK SMILES IDX 85 35 27 36 28 37 29 38 79 39 30 40 84 41 78 42 80 43 31 44
REMARK SMILES IDX 83 45 77 46 76 47 32 49 64 50 44 51 63 52 45 53 48 54 62 55
REMARK SMILES IDX 81 56 46 57 47 58 61 60 82 61 49 62 33 63 34 64 42 65 35 66
REMARK SMILES IDX 37 67 43 68 36 69 38 70 39 71 40 72 41 73 65 74 66 75 74 76
REMARK SMILES IDX 67 77 69 78 75 79 68 80 70 81 71 82 72 83 73 84 50 85 51 86
REMARK SMILES IDX 59 87 52 88 54 89 60 90 53 91 55 92 56 93 57 94 58 95
REMARK H PARENT 17 6 21 29 80 48 48 59
REMARK Flexibility Score: inf
ROOT
ATOM      1  C   UNL A   1      31.249  31.203  26.230  1.00  0.00     0.042 C 
ENDROOT
BRANCH   1   2
ATOM      2  C   UNL A   1      31.361  30.068  25.215  1.00  0.00     0.118 C 
BRANCH   2   3
ATOM      3  N   UNL A   1      30.581  30.353  24.025  1.00  0.00    -0.352 N 
ATOM      4  C   UNL A   1      30.066  29.524  23.065  1.00  0.00     0.251 C 
ATOM      5  O   UNL A   1      29.367  30.015  22.180  1.00  0.00    -0.269 OA
ATOM      6  H   UNL A   1      30.388  31.307  23.884  1.00  0.00     0.163 HD
BRANCH   4   7
ATOM      7  C   UNL A   1      30.252  28.052  23.108  1.00  0.00     0.039 A 
ATOM      8  C   UNL A   1      30.463  25.255  23.324  1.00  0.00    -0.027 A 
ATOM      9  C   UNL A   1      29.411  25.941  23.947  1.00  0.00     0.006 A 
ATOM     10  C   UNL A   1      31.391  25.981  22.568  1.00  0.00     0.006 A 
ATOM     11  C   UNL A   1      29.301  27.325  23.832  1.00  0.00     0.014 A 
ATOM     12  C   UNL A   1      31.277  27.369  22.450  1.00  0.00     0.014 A 
BRANCH   8  13
ATOM     13  C   UNL A   1      30.545  23.749  23.401  1.00  0.00     0.177 C 
BRANCH  13  14
ATOM     14  N   UNL A   1      31.756  23.327  24.110  1.00  0.00    -0.288 NA
ATOM     15  C   UNL A   1      32.558  22.592  23.428  1.00  0.00     0.116 C 
BRANCH  15  16
ATOM     16  C   UNL A   1      33.888  22.118  23.887  1.00  0.00     0.024 C 
ATOM     17  C   UNL A   1      37.916  20.737  24.923  1.00  0.00     0.012 C 
ATOM     18  C   UNL A   1      36.539  21.425  24.967  1.00  0.00    -0.025 C 
ATOM     19  C   UNL A   1      36.451  22.247  26.268  1.00  0.00     0.012 C 
ATOM     20  C   UNL A   1      35.446  20.350  24.936  1.00  0.00     0.087 C 
ATOM     21  C   UNL A   1      36.397  22.338  23.736  1.00  0.00     0.026 C 
ATOM     22  C   UNL A   1      34.055  20.918  24.761  1.00  0.00     0.164 C 
ATOM     23  C   UNL A   1      34.984  22.764  23.438  1.00  0.00    -0.120 C 
ATOM     24  O   UNL A   1      33.097  20.331  25.260  1.00  0.00    -0.294 OA
ATOM     25  O   UNL A   1      34.934  23.908  22.658  1.00  0.00    -0.875 OA
ENDBRANCH  15  16
ENDBRANCH  13  14
ENDBRANCH   8  13
ENDBRANCH   4   7
ENDBRANCH   2   3
ENDBRANCH   1   2
BRANCH   1  26
ATOM     26  C   UNL A   1      32.583  31.576  26.869  1.00  0.00     0.118 C 
BRANCH  26  27
ATOM     27  N   UNL A   1      32.673  33.003  27.143  1.00  0.00    -0.352 N 
ATOM     28  C   UNL A   1      33.494  33.683  28.005  1.00  0.00     0.251 C 
ATOM     29  H   UNL A   1      32.047  33.566  26.632  1.00  0.00     0.163 HD
ATOM     30  O   UNL A   1      33.245  34.857  28.267  1.00  0.00    -0.269 OA
BRANCH  28  31
ATOM     31  C   UNL A   1      34.666  33.018  28.616  1.00  0.00     0.039 A 
ATOM     32  C   UNL A   1      35.944  33.403  28.203  1.00  0.00     0.014 A 
ATOM     33  C   UNL A   1      34.514  31.984  29.545  1.00  0.00     0.014 A 
ATOM     34  C   UNL A   1      37.066  32.776  28.747  1.00  0.00     0.010 A 
ATOM     35  C   UNL A   1      35.635  31.413  30.142  1.00  0.00     0.010 A 
ATOM     36  C   UNL A   1      36.921  31.790  29.737  1.00  0.00    -0.014 A 
BRANCH  36  37
ATOM     37  C   UNL A   1      38.113  31.156  30.354  1.00  0.00     0.031 A 
ATOM     38  C   UNL A   1      38.556  31.538  31.741  1.00  0.00     0.074 A 
ATOM     39  C   UNL A   1      38.832  30.271  29.637  1.00  0.00     0.049 A 
ATOM     40  N   UNL A   1      39.553  31.067  32.445  1.00  0.00    -0.248 NA
ATOM     41  C   UNL A   1      37.798  32.605  32.414  1.00  0.00     0.031 C 
ATOM     42  C   UNL A   1      38.556  29.888  28.250  1.00  0.00     0.029 A 
ATOM     43  N   UNL A   1      39.947  29.545  29.967  1.00  0.00    -0.354 N 
ATOM     44  C   UNL A   1      39.560  31.795  33.630  1.00  0.00     0.074 A 
ATOM     45  C   UNL A   1      38.494  32.769  33.530  1.00  0.00     0.031 C 
ATOM     46  C   UNL A   1      39.462  28.980  27.858  1.00  0.00     0.029 A 
ATOM     47  C   UNL A   1      40.394  28.732  28.953  1.00  0.00     0.049 A 
ATOM     48  H   UNL A   1      40.386  29.600  30.847  1.00  0.00     0.167 HD
ATOM     49  C   UNL A   1      40.358  31.646  34.715  1.00  0.00     0.034 A 
ATOM     50  C   UNL A   1      41.430  27.873  28.914  1.00  0.00     0.034 A 
ATOM     51  C   UNL A   1      41.393  30.652  34.822  1.00  0.00     0.049 A 
ATOM     52  C   UNL A   1      42.267  27.686  30.149  1.00  0.00     0.074 A 
ATOM     53  C   UNL A   1      42.200  30.359  35.906  1.00  0.00     0.029 A 
ATOM     54  N   UNL A   1      41.772  29.793  33.800  1.00  0.00    -0.354 N 
ATOM     55  N   UNL A   1      42.150  28.261  31.321  1.00  0.00    -0.248 NA
ATOM     56  C   UNL A   1      43.352  26.698  30.068  1.00  0.00     0.031 C 
ATOM     57  C   UNL A   1      43.079  29.334  35.534  1.00  0.00     0.029 A 
ATOM     58  C   UNL A   1      42.806  28.975  34.224  1.00  0.00     0.049 A 
ATOM     59  H   UNL A   1      41.365  29.769  32.904  1.00  0.00     0.167 HD
ATOM     60  C   UNL A   1      43.128  27.688  32.126  1.00  0.00     0.074 A 
ATOM     61  C   UNL A   1      43.806  26.698  31.315  1.00  0.00     0.031 C 
ATOM     62  C   UNL A   1      43.447  27.968  33.415  1.00  0.00     0.034 A 
BRANCH  49  63
ATOM     63  C   UNL A   1      40.095  32.545  35.897  1.00  0.00     0.023 A 
ATOM     64  C   UNL A   1      40.785  33.771  36.003  1.00  0.00     0.012 A 
ATOM     65  C   UNL A   1      39.150  32.200  36.883  1.00  0.00     0.148 A 
ATOM     66  C   UNL A   1      40.575  34.617  37.091  1.00  0.00     0.002 A 
ATOM     67  C   UNL A   1      38.913  33.071  37.944  1.00  0.00     0.091 A 
ATOM     68  F   UNL A   1      38.518  31.023  36.784  1.00  0.00    -0.205 F 
ATOM     69  C   UNL A   1      39.633  34.272  38.055  1.00  0.00     0.022 A 
BRANCH  67  70
ATOM     70  S   UNL A   1      37.663  32.750  39.194  1.00  0.00     0.127 S 
ATOM     71  O   UNL A   1      37.832  33.899  40.082  1.00  0.00    -0.237 OA
ATOM     72  O   UNL A   1      36.427  32.765  38.409  1.00  0.00    -0.237 OA
ATOM     73  O   UNL A   1      37.999  31.455  39.769  1.00  0.00    -0.744 OA
ENDBRANCH  67  70
ENDBRANCH  49  63
BRANCH  50  74
ATOM     74  C   UNL A   1      41.663  27.052  27.693  1.00  0.00     0.023 A 
ATOM     75  C   UNL A   1      42.237  27.656  26.559  1.00  0.00     0.012 A 
ATOM     76  C   UNL A   1      41.370  25.674  27.665  1.00  0.00     0.148 A 
ATOM     77  C   UNL A   1      42.496  26.910  25.409  1.00  0.00     0.002 A 
ATOM     78  C   UNL A   1      41.681  24.926  26.536  1.00  0.00     0.091 A 
ATOM     79  F   UNL A   1      40.816  25.121  28.753  1.00  0.00    -0.205 F 
ATOM     80  C   UNL A   1      42.228  25.544  25.401  1.00  0.00     0.022 A 
BRANCH  78  81
ATOM     81  S   UNL A   1      41.496  23.140  26.480  1.00  0.00     0.127 S 
ATOM     82  O   UNL A   1      42.096  22.737  27.748  1.00  0.00    -0.237 OA
ATOM     83  O   UNL A   1      40.043  22.991  26.408  1.00  0.00    -0.237 OA
ATOM     84  O   UNL A   1      42.204  22.708  25.280  1.00  0.00    -0.744 OA
ENDBRANCH  78  81
ENDBRANCH  50  74
BRANCH  62  85
ATOM     85  C   UNL A   1      44.575  27.181  34.032  1.00  0.00     0.023 A 
ATOM     86  C   UNL A   1      45.901  27.638  33.894  1.00  0.00     0.012 A 
ATOM     87  C   UNL A   1      44.321  26.014  34.779  1.00  0.00     0.148 A 
ATOM     88  C   UNL A   1      46.960  26.924  34.453  1.00  0.00     0.002 A 
ATOM     89  C   UNL A   1      45.377  25.335  35.376  1.00  0.00     0.091 A 
ATOM     90  F   UNL A   1      43.057  25.580  34.882  1.00  0.00    -0.205 F 
ATOM     91  C   UNL A   1      46.698  25.780  35.202  1.00  0.00     0.022 A 
BRANCH  89  92
ATOM     92  S   UNL A   1      45.117  23.907  36.434  1.00  0.00     0.127 S 
ATOM     93  O   UNL A   1      46.488  23.542  36.787  1.00  0.00    -0.237 OA
ATOM     94  O   UNL A   1      44.332  24.469  37.534  1.00  0.00    -0.237 OA
ATOM     95  O   UNL A   1      44.397  22.937  35.619  1.00  0.00    -0.744 OA
ENDBRANCH  89  92
ENDBRANCH  62  85
ENDBRANCH  36  37
ENDBRANCH  28  31
ENDBRANCH  26  27
ENDBRANCH   1  26
TORSDOF 16
ENDMDL
MODEL 3
REMARK VINA RESULT:     -12.3      4.970     10.716
REMARK SMILES CC1(C)CC(=O)C(/C=N/Cc2ccc(C(=O)NCCCNC(=O)c3ccc(-c4c5nc(c(-c6cccc(S(=O)(=O)[O-])c6F)c6ccc([nH]6)c(-c6cccc(S(=O)(=O)[O-])c6F)c6nc(c(-c7cccc(S(=O)(=O)[O-])c7F)c7ccc4[nH]7)C=C6)C=C5)cc3)cc2)=C([O-])C1
REMARK SMILES IDX 19 1 18 2 17 3 15 4 16 5 14 7 11 8 12 9 88 10 13 11 87 12
REMARK SMILES IDX 10 13 9 14 8 15 7 16 1 17 2 18 3 19 4 20 91 21 5 22 89 23
REMARK SMILES IDX 6 24 90 25 20 26 21 27 22 28 23 30 24 31 25 32 86 33 26 34
REMARK SMILES IDX 85 35 27 36 28 37 29 38 79 39 30 40 84 41 78 42 80 43 31 44
REMARK SMILES IDX 83 45 77 46 76 47 32 49 64 50 44 51 63 52 45 53 48 54 62 55
REMARK SMILES IDX 81 56 46 57 47 58 61 60 82 61 49 62 33 63 34 64 42 65 35 66
REMARK SMILES IDX 37 67 43 68 36 69 38 70 39 71 40 72 41 73 65 74 66 75 74 76
REMARK SMILES IDX 67 77 69 78 75 79 68 80 70 81 71 82 72 83 73 84 50 85 51 86
REMARK SMILES IDX 59 87 52 88 54 89 60 90 53 91 55 92 56 93 57 94 58 95
REMARK H PARENT 17 6 21 29 80 48 48 59
REMARK Flexibility Score: inf
ROOT
ATOM      1  C   UNL A   1      31.802  29.549  27.271  1.00  0.00     0.042 C 
ENDROOT
BRANCH   1   2
ATOM      2  C   UNL A   1      32.003  28.047  27.463  1.00  0.00     0.118 C 
BRANCH   2   3
ATOM      3  N   UNL A   1      30.885  27.299  26.919  1.00  0.00    -0.352 N 
ATOM      4  C   UNL A   1      30.848  26.184  26.125  1.00  0.00     0.251 C 
ATOM      5  O   UNL A   1      29.754  25.692  25.855  1.00  0.00    -0.269 OA
ATOM      6  H   UNL A   1      30.000  27.652  27.163  1.00  0.00     0.163 HD
BRANCH   4   7
ATOM      7  C   UNL A   1      32.082  25.507  25.655  1.00  0.00     0.039 A 
ATOM      8  C   UNL A   1      34.422  24.122  24.931  1.00  0.00    -0.027 A 
ATOM      9  C   UNL A   1      33.695  23.749  26.070  1.00  0.00     0.006 A 
ATOM     10  C   UNL A   1      33.950  25.179  24.143  1.00  0.00     0.006 A 
ATOM     11  C   UNL A   1      32.531  24.427  26.423  1.00  0.00     0.014 A 
ATOM     12  C   UNL A   1      32.779  25.856  24.496  1.00  0.00     0.014 A 
BRANCH   8  13
ATOM     13  C   UNL A   1      35.651  23.346  24.519  1.00  0.00     0.177 C 
BRANCH  13  14
ATOM     14  N   UNL A   1      35.297  21.987  24.105  1.00  0.00    -0.288 NA
ATOM     15  C   UNL A   1      35.149  21.147  25.065  1.00  0.00     0.116 C 
BRANCH  15  16
ATOM     16  C   UNL A   1      34.701  19.739  24.912  1.00  0.00     0.024 C 
ATOM     17  C   UNL A   1      33.165  15.639  24.715  1.00  0.00     0.012 C 
ATOM     18  C   UNL A   1      33.725  17.022  24.331  1.00  0.00    -0.025 C 
ATOM     19  C   UNL A   1      33.829  17.092  22.794  1.00  0.00     0.012 C 
ATOM     20  C   UNL A   1      35.108  17.193  24.971  1.00  0.00     0.087 C 
ATOM     21  C   UNL A   1      32.775  18.110  24.862  1.00  0.00     0.026 C 
ATOM     22  C   UNL A   1      35.658  18.596  24.836  1.00  0.00     0.164 C 
ATOM     23  C   UNL A   1      33.375  19.490  24.909  1.00  0.00    -0.120 C 
ATOM     24  O   UNL A   1      36.874  18.761  24.762  1.00  0.00    -0.294 OA
ATOM     25  O   UNL A   1      32.408  20.482  24.933  1.00  0.00    -0.875 OA
ENDBRANCH  15  16
ENDBRANCH  13  14
ENDBRANCH   8  13
ENDBRANCH   4   7
ENDBRANCH   2   3
ENDBRANCH   1   2
BRANCH   1  26
ATOM     26  C   UNL A   1      32.954  30.223  26.532  1.00  0.00     0.118 C 
BRANCH  26  27
ATOM     27  N   UNL A   1      32.975  31.661  26.755  1.00  0.00    -0.352 N 
ATOM     28  C   UNL A   1      33.766  32.410  27.587  1.00  0.00     0.251 C 
ATOM     29  H   UNL A   1      32.320  32.175  26.229  1.00  0.00     0.163 HD
ATOM     30  O   UNL A   1      33.462  33.579  27.810  1.00  0.00    -0.269 OA
BRANCH  28  31
ATOM     31  C   UNL A   1      34.973  31.825  28.213  1.00  0.00     0.039 A 
ATOM     32  C   UNL A   1      36.155  32.571  28.212  1.00  0.00     0.014 A 
ATOM     33  C   UNL A   1      34.963  30.532  28.745  1.00  0.00     0.014 A 
ATOM     34  C   UNL A   1      37.313  32.034  28.775  1.00  0.00     0.010 A 
ATOM     35  C   UNL A   1      36.098  30.028  29.373  1.00  0.00     0.010 A 
ATOM     36  C   UNL A   1      37.289  30.765  29.379  1.00  0.00    -0.014 A 
BRANCH  36  37
ATOM     37  C   UNL A   1      38.506  30.211  30.024  1.00  0.00     0.031 A 
ATOM     38  C   UNL A   1      38.917  30.654  31.403  1.00  0.00     0.074 A 
ATOM     39  C   UNL A   1      39.276  29.344  29.339  1.00  0.00     0.049 A 
ATOM     40  N   UNL A   1      39.930  30.255  32.128  1.00  0.00    -0.248 NA
ATOM     41  C   UNL A   1      38.099  31.700  32.039  1.00  0.00     0.031 C 
ATOM     42  C   UNL A   1      39.032  28.907  27.962  1.00  0.00     0.029 A 
ATOM     43  N   UNL A   1      40.422  28.685  29.698  1.00  0.00    -0.354 N 
ATOM     44  C   UNL A   1      39.889  31.016  33.291  1.00  0.00     0.074 A 
ATOM     45  C   UNL A   1      38.776  31.931  33.155  1.00  0.00     0.031 C 
ATOM     46  C   UNL A   1      39.986  28.035  27.602  1.00  0.00     0.029 A 
ATOM     47  C   UNL A   1      40.919  27.867  28.712  1.00  0.00     0.049 A 
ATOM     48  H   UNL A   1      40.850  28.787  30.579  1.00  0.00     0.167 HD
ATOM     49  C   UNL A   1      40.684  30.938  34.387  1.00  0.00     0.034 A 
ATOM     50  C   UNL A   1      41.998  27.060  28.706  1.00  0.00     0.034 A 
ATOM     51  C   UNL A   1      41.766  30.002  34.530  1.00  0.00     0.049 A 
ATOM     52  C   UNL A   1      42.832  26.951  29.952  1.00  0.00     0.074 A 
ATOM     53  C   UNL A   1      42.577  29.781  35.628  1.00  0.00     0.029 A 
ATOM     54  N   UNL A   1      42.198  29.134  33.536  1.00  0.00    -0.354 N 
ATOM     55  N   UNL A   1      42.675  27.553  31.106  1.00  0.00    -0.248 NA
ATOM     56  C   UNL A   1      43.966  26.018  29.908  1.00  0.00     0.031 C 
ATOM     57  C   UNL A   1      43.510  28.792  35.293  1.00  0.00     0.029 A 
ATOM     58  C   UNL A   1      43.267  28.382  33.991  1.00  0.00     0.049 A 
ATOM     59  H   UNL A   1      41.800  29.065  32.638  1.00  0.00     0.167 HD
ATOM     60  C   UNL A   1      43.673  27.055  31.935  1.00  0.00     0.074 A 
ATOM     61  C   UNL A   1      44.408  26.077  31.157  1.00  0.00     0.031 C 
ATOM     62  C   UNL A   1      43.965  27.387  33.218  1.00  0.00     0.034 A 
BRANCH  49  63
ATOM     63  C   UNL A   1      40.364  31.857  35.540  1.00  0.00     0.023 A 
ATOM     64  C   UNL A   1      41.202  32.962  35.799  1.00  0.00     0.012 A 
ATOM     65  C   UNL A   1      39.227  31.651  36.346  1.00  0.00     0.148 A 
ATOM     66  C   UNL A   1      40.943  33.820  36.867  1.00  0.00     0.002 A 
ATOM     67  C   UNL A   1      38.949  32.539  37.383  1.00  0.00     0.091 A 
ATOM     68  F   UNL A   1      38.452  30.585  36.105  1.00  0.00    -0.205 F 
ATOM     69  C   UNL A   1      39.812  33.614  37.652  1.00  0.00     0.022 A 
BRANCH  67  70
ATOM     70  S   UNL A   1      37.475  32.401  38.401  1.00  0.00     0.127 S 
ATOM     71  O   UNL A   1      37.866  33.157  39.590  1.00  0.00    -0.237 OA
ATOM     72  O   UNL A   1      36.462  33.054  37.570  1.00  0.00    -0.237 OA
ATOM     73  O   UNL A   1      37.263  30.975  38.602  1.00  0.00    -0.744 OA
ENDBRANCH  67  70
ENDBRANCH  49  63
BRANCH  50  74
ATOM     74  C   UNL A   1      42.283  26.218  27.511  1.00  0.00     0.023 A 
ATOM     75  C   UNL A   1      43.007  26.771  26.437  1.00  0.00     0.012 A 
ATOM     76  C   UNL A   1      41.891  24.866  27.452  1.00  0.00     0.148 A 
ATOM     77  C   UNL A   1      43.317  26.002  25.316  1.00  0.00     0.002 A 
ATOM     78  C   UNL A   1      42.250  24.090  26.356  1.00  0.00     0.091 A 
ATOM     79  F   UNL A   1      41.195  24.363  28.482  1.00  0.00    -0.205 F 
ATOM     80  C   UNL A   1      42.948  24.659  25.280  1.00  0.00     0.022 A 
BRANCH  78  81
ATOM     81  S   UNL A   1      41.936  22.323  26.280  1.00  0.00     0.127 S 
ATOM     82  O   UNL A   1      42.782  21.917  25.161  1.00  0.00    -0.237 OA
ATOM     83  O   UNL A   1      42.396  21.880  27.596  1.00  0.00    -0.237 OA
ATOM     84  O   UNL A   1      40.500  22.187  26.068  1.00  0.00    -0.744 OA
ENDBRANCH  78  81
ENDBRANCH  50  74
BRANCH  62  85
ATOM     85  C   UNL A   1      45.126  26.675  33.865  1.00  0.00     0.023 A 
ATOM     86  C   UNL A   1      46.432  27.182  33.704  1.00  0.00     0.012 A 
ATOM     87  C   UNL A   1      44.923  25.533  34.664  1.00  0.00     0.148 A 
ATOM     88  C   UNL A   1      47.521  26.539  34.292  1.00  0.00     0.002 A 
ATOM     89  C   UNL A   1      46.007  24.926  35.287  1.00  0.00     0.091 A 
ATOM     90  F   UNL A   1      43.678  25.052  34.789  1.00  0.00    -0.205 F 
ATOM     91  C   UNL A   1      47.307  25.418  35.091  1.00  0.00     0.022 A 
BRANCH  89  92
ATOM     92  S   UNL A   1      45.808  23.536  36.408  1.00  0.00     0.127 S 
ATOM     93  O   UNL A   1      47.193  23.241  36.768  1.00  0.00    -0.237 OA
ATOM     94  O   UNL A   1      45.007  24.115  37.488  1.00  0.00    -0.237 OA
ATOM     95  O   UNL A   1      45.122  22.505  35.640  1.00  0.00    -0.744 OA
ENDBRANCH  89  92
ENDBRANCH  62  85
ENDBRANCH  36  37
ENDBRANCH  28  31
ENDBRANCH  26  27
ENDBRANCH   1  26
TORSDOF 16
ENDMDL
