MODEL 1
REMARK VINA RESULT:     -12.2      0.000      0.000
REMARK SMILES O=C(CC1(NC(=O)c2ccc3cc[nH]c3c2)CCC1)NCCCNC(=O)c1ccc(-c2c3nc(c(-c4cccc(S(=O)(=O)[O-])c4F)c4ccc([nH]4)c(-c4cccc(S(=O)(=O)[O-])c4F)c4nc(c(-c5cccc(S(=O)(=O)[O-])c5F)c5ccc2[nH]5)C=C4)C=C3)cc1
REMARK SMILES IDX 22 1 21 2 20 3 1 4 2 5 3 7 4 8 17 9 19 10 18 11 5 12 6 13
REMARK SMILES IDX 7 15 8 16 9 17 16 18 10 19 15 20 11 21 14 22 12 23 13 24
REMARK SMILES IDX 23 26 24 27 25 28 26 30 27 31 28 32 89 33 29 34 88 35 30 36
REMARK SMILES IDX 31 37 32 38 82 39 33 40 87 41 81 42 83 43 34 44 86 45 80 46
REMARK SMILES IDX 79 47 35 49 67 50 47 51 66 52 48 53 51 54 65 55 84 56 49 57
REMARK SMILES IDX 50 58 64 60 85 61 52 62 36 63 37 64 45 65 38 66 40 67 46 68
REMARK SMILES IDX 39 69 41 70 42 71 43 72 44 73 68 74 69 75 77 76 70 77 72 78
REMARK SMILES IDX 78 79 71 80 73 81 74 82 75 83 76 84 53 85 54 86 62 87 55 88
REMARK SMILES IDX 57 89 63 90 56 91 58 92 59 93 60 94 61 95
REMARK H PARENT 20 6 5 14 14 25 24 29 83 48 51 59
REMARK Flexibility Score: inf
ROOT
ATOM      1  C   UNL A   1      34.212  31.393  27.262  1.00  0.00     0.042 C 
ENDROOT
BRANCH   1   2
ATOM      2  C   UNL A   1      34.561  29.944  27.576  1.00  0.00     0.117 C 
BRANCH   2   3
ATOM      3  N   UNL A   1      33.376  29.117  27.633  1.00  0.00    -0.356 N 
ATOM      4  O   UNL A   1      34.048  27.612  26.029  1.00  0.00    -0.275 OA
ATOM      5  C   UNL A   1      33.202  28.035  26.808  1.00  0.00     0.222 C 
ATOM      6  H   UNL A   1      32.672  29.339  28.284  1.00  0.00     0.163 HD
BRANCH   5   7
ATOM      7  C   UNL A   1      31.824  27.441  26.901  1.00  0.00     0.128 C 
BRANCH   7   8
ATOM      8  C   UNL A   1      31.487  26.293  25.947  1.00  0.00     0.049 C 
ATOM      9  C   UNL A   1      31.944  24.897  26.487  1.00  0.00     0.029 C 
ATOM     10  C   UNL A   1      30.016  25.764  26.090  1.00  0.00     0.029 C 
ATOM     11  C   UNL A   1      30.547  24.333  26.191  1.00  0.00     0.005 C 
BRANCH   8  12
ATOM     12  N   UNL A   1      31.848  26.435  24.492  1.00  0.00    -0.346 N 
ATOM     13  C   UNL A   1      31.480  27.251  23.442  1.00  0.00     0.251 C 
ATOM     14  H   UNL A   1      32.522  25.772  24.218  1.00  0.00     0.164 HD
ATOM     15  O   UNL A   1      32.064  27.145  22.366  1.00  0.00    -0.269 OA
BRANCH  13  16
ATOM     16  C   UNL A   1      30.339  28.165  23.544  1.00  0.00     0.041 A 
ATOM     17  C   UNL A   1      29.057  27.753  23.177  1.00  0.00     0.014 A 
ATOM     18  C   UNL A   1      30.625  29.492  23.900  1.00  0.00     0.040 A 
ATOM     19  C   UNL A   1      28.055  28.713  22.988  1.00  0.00     0.011 A 
ATOM     20  C   UNL A   1      29.614  30.431  23.683  1.00  0.00     0.046 A 
ATOM     21  C   UNL A   1      28.357  30.079  23.188  1.00  0.00    -0.001 A 
ATOM     22  N   UNL A   1      29.618  31.799  23.847  1.00  0.00    -0.361 N 
ATOM     23  C   UNL A   1      27.652  31.291  22.951  1.00  0.00     0.028 A 
ATOM     24  C   UNL A   1      28.461  32.332  23.347  1.00  0.00     0.083 A 
ATOM     25  H   UNL A   1      30.346  32.317  24.263  1.00  0.00     0.166 HD
ENDBRANCH  13  16
ENDBRANCH   8  12
ENDBRANCH   7   8
ENDBRANCH   5   7
ENDBRANCH   2   3
ENDBRANCH   1   2
BRANCH   1  26
ATOM     26  C   UNL A   1      32.790  31.786  27.646  1.00  0.00     0.118 C 
BRANCH  26  27
ATOM     27  N   UNL A   1      32.589  33.228  27.671  1.00  0.00    -0.352 N 
ATOM     28  C   UNL A   1      33.209  34.191  28.434  1.00  0.00     0.251 C 
ATOM     29  H   UNL A   1      31.906  33.565  27.048  1.00  0.00     0.163 HD
ATOM     30  O   UNL A   1      32.778  35.336  28.443  1.00  0.00    -0.269 OA
BRANCH  28  31
ATOM     31  C   UNL A   1      34.382  33.830  29.259  1.00  0.00     0.039 A 
ATOM     32  C   UNL A   1      34.195  33.026  30.387  1.00  0.00     0.014 A 
ATOM     33  C   UNL A   1      35.661  34.272  28.915  1.00  0.00     0.014 A 
ATOM     34  C   UNL A   1      35.303  32.596  31.121  1.00  0.00     0.010 A 
ATOM     35  C   UNL A   1      36.767  33.778  29.598  1.00  0.00     0.010 A 
ATOM     36  C   UNL A   1      36.602  32.930  30.704  1.00  0.00    -0.014 A 
BRANCH  36  37
ATOM     37  C   UNL A   1      37.808  32.387  31.382  1.00  0.00     0.031 A 
ATOM     38  C   UNL A   1      38.574  31.250  30.762  1.00  0.00     0.074 A 
ATOM     39  C   UNL A   1      38.140  32.831  32.611  1.00  0.00     0.049 A 
ATOM     40  N   UNL A   1      39.557  30.549  31.261  1.00  0.00    -0.248 NA
ATOM     41  C   UNL A   1      38.159  30.826  29.414  1.00  0.00     0.031 C 
ATOM     42  C   UNL A   1      37.440  33.886  33.349  1.00  0.00     0.029 A 
ATOM     43  N   UNL A   1      39.127  32.423  33.476  1.00  0.00    -0.354 N 
ATOM     44  C   UNL A   1      39.850  29.575  30.313  1.00  0.00     0.074 A 
ATOM     45  C   UNL A   1      38.923  29.761  29.219  1.00  0.00     0.031 C 
ATOM     46  C   UNL A   1      38.013  34.036  34.553  1.00  0.00     0.029 A 
ATOM     47  C   UNL A   1      39.091  33.062  34.694  1.00  0.00     0.049 A 
ATOM     48  H   UNL A   1      39.796  31.739  33.245  1.00  0.00     0.167 HD
ATOM     49  C   UNL A   1      40.818  28.628  30.340  1.00  0.00     0.034 A 
ATOM     50  C   UNL A   1      39.826  32.872  35.808  1.00  0.00     0.034 A 
ATOM     51  C   UNL A   1      41.763  28.473  31.412  1.00  0.00     0.049 A 
ATOM     52  C   UNL A   1      40.906  31.825  35.805  1.00  0.00     0.074 A 
ATOM     53  C   UNL A   1      42.832  27.598  31.494  1.00  0.00     0.029 A 
ATOM     54  N   UNL A   1      41.751  29.200  32.591  1.00  0.00    -0.354 N 
ATOM     55  N   UNL A   1      41.257  31.007  34.843  1.00  0.00    -0.248 NA
ATOM     56  C   UNL A   1      41.714  31.695  37.027  1.00  0.00     0.031 C 
ATOM     57  C   UNL A   1      43.447  27.774  32.737  1.00  0.00     0.029 A 
ATOM     58  C   UNL A   1      42.785  28.787  33.412  1.00  0.00     0.049 A 
ATOM     59  H   UNL A   1      41.101  29.906  32.813  1.00  0.00     0.167 HD
ATOM     60  C   UNL A   1      42.353  30.299  35.325  1.00  0.00     0.074 A 
ATOM     61  C   UNL A   1      42.613  30.791  36.663  1.00  0.00     0.031 C 
ATOM     62  C   UNL A   1      43.074  29.328  34.716  1.00  0.00     0.034 A 
BRANCH  49  63
ATOM     63  C   UNL A   1      40.931  27.705  29.154  1.00  0.00     0.023 A 
ATOM     64  C   UNL A   1      40.136  26.542  29.096  1.00  0.00     0.012 A 
ATOM     65  C   UNL A   1      41.771  28.023  28.069  1.00  0.00     0.148 A 
ATOM     66  C   UNL A   1      40.204  25.690  27.995  1.00  0.00     0.002 A 
ATOM     67  C   UNL A   1      41.797  27.194  26.954  1.00  0.00     0.091 A 
ATOM     68  F   UNL A   1      42.533  29.123  28.150  1.00  0.00    -0.205 F 
ATOM     69  C   UNL A   1      41.025  26.022  26.920  1.00  0.00     0.022 A 
BRANCH  67  70
ATOM     70  S   UNL A   1      42.756  27.578  25.483  1.00  0.00     0.127 S 
ATOM     71  O   UNL A   1      42.545  26.378  24.674  1.00  0.00    -0.237 OA
ATOM     72  O   UNL A   1      42.083  28.777  24.983  1.00  0.00    -0.237 OA
ATOM     73  O   UNL A   1      44.122  27.793  25.939  1.00  0.00    -0.744 OA
ENDBRANCH  67  70
ENDBRANCH  49  63
BRANCH  50  74
ATOM     74  C   UNL A   1      39.592  33.724  37.009  1.00  0.00     0.023 A 
ATOM     75  C   UNL A   1      40.028  35.063  37.001  1.00  0.00     0.012 A 
ATOM     76  C   UNL A   1      38.924  33.225  38.143  1.00  0.00     0.148 A 
ATOM     77  C   UNL A   1      39.833  35.881  38.116  1.00  0.00     0.002 A 
ATOM     78  C   UNL A   1      38.682  34.061  39.227  1.00  0.00     0.091 A 
ATOM     79  F   UNL A   1      38.525  31.946  38.133  1.00  0.00    -0.205 F 
ATOM     80  C   UNL A   1      39.152  35.383  39.223  1.00  0.00     0.022 A 
BRANCH  78  81
ATOM     81  S   UNL A   1      37.700  33.545  40.639  1.00  0.00     0.127 S 
ATOM     82  O   UNL A   1      38.563  32.539  41.252  1.00  0.00    -0.237 OA
ATOM     83  O   UNL A   1      37.576  34.794  41.391  1.00  0.00    -0.237 OA
ATOM     84  O   UNL A   1      36.446  33.051  40.087  1.00  0.00    -0.744 OA
ENDBRANCH  78  81
ENDBRANCH  50  74
BRANCH  62  85
ATOM     85  C   UNL A   1      44.261  28.760  35.449  1.00  0.00     0.023 A 
ATOM     86  C   UNL A   1      45.534  29.338  35.293  1.00  0.00     0.012 A 
ATOM     87  C   UNL A   1      44.084  27.712  36.376  1.00  0.00     0.148 A 
ATOM     88  C   UNL A   1      46.619  28.870  36.035  1.00  0.00     0.002 A 
ATOM     89  C   UNL A   1      45.156  27.286  37.148  1.00  0.00     0.091 A 
ATOM     90  F   UNL A   1      42.866  27.164  36.495  1.00  0.00    -0.205 F 
ATOM     91  C   UNL A   1      46.428  27.856  36.971  1.00  0.00     0.022 A 
BRANCH  89  92
ATOM     92  S   UNL A   1      44.983  26.059  38.448  1.00  0.00     0.127 S 
ATOM     93  O   UNL A   1      44.112  26.752  39.396  1.00  0.00    -0.237 OA
ATOM     94  O   UNL A   1      44.353  24.945  37.741  1.00  0.00    -0.237 OA
ATOM     95  O   UNL A   1      46.331  25.787  38.930  1.00  0.00    -0.744 OA
ENDBRANCH  89  92
ENDBRANCH  62  85
ENDBRANCH  36  37
ENDBRANCH  28  31
ENDBRANCH  26  27
ENDBRANCH   1  26
TORSDOF 16
ENDMDL
MODEL 2
REMARK VINA RESULT:     -12.1      1.682      2.091
REMARK SMILES O=C(CC1(NC(=O)c2ccc3cc[nH]c3c2)CCC1)NCCCNC(=O)c1ccc(-c2c3nc(c(-c4cccc(S(=O)(=O)[O-])c4F)c4ccc([nH]4)c(-c4cccc(S(=O)(=O)[O-])c4F)c4nc(c(-c5cccc(S(=O)(=O)[O-])c5F)c5ccc2[nH]5)C=C4)C=C3)cc1
REMARK SMILES IDX 22 1 21 2 20 3 1 4 2 5 3 7 4 8 17 9 19 10 18 11 5 12 6 13
REMARK SMILES IDX 7 15 8 16 9 17 16 18 10 19 15 20 11 21 14 22 12 23 13 24
REMARK SMILES IDX 23 26 24 27 25 28 26 30 27 31 28 32 89 33 29 34 88 35 30 36
REMARK SMILES IDX 31 37 32 38 82 39 33 40 87 41 81 42 83 43 34 44 86 45 80 46
REMARK SMILES IDX 79 47 35 49 67 50 47 51 66 52 48 53 51 54 65 55 84 56 49 57
REMARK SMILES IDX 50 58 64 60 85 61 52 62 36 63 37 64 45 65 38 66 40 67 46 68
REMARK SMILES IDX 39 69 41 70 42 71 43 72 44 73 68 74 69 75 77 76 70 77 72 78
REMARK SMILES IDX 78 79 71 80 73 81 74 82 75 83 76 84 53 85 54 86 62 87 55 88
REMARK SMILES IDX 57 89 63 90 56 91 58 92 59 93 60 94 61 95
REMARK H PARENT 20 6 5 14 14 25 24 29 83 48 51 59
REMARK Flexibility Score: inf
ROOT
ATOM      1  C   UNL A   1      31.400  31.593  26.558  1.00  0.00     0.042 C 
ENDROOT
BRANCH   1   2
ATOM      2  C   UNL A   1      31.777  30.209  27.071  1.00  0.00     0.117 C 
BRANCH   2   3
ATOM      3  N   UNL A   1      32.224  29.352  25.996  1.00  0.00    -0.356 N 
ATOM      4  O   UNL A   1      34.198  28.718  26.990  1.00  0.00    -0.275 OA
ATOM      5  C   UNL A   1      33.435  28.710  26.032  1.00  0.00     0.222 C 
ATOM      6  H   UNL A   1      31.640  29.227  25.213  1.00  0.00     0.163 HD
BRANCH   5   7
ATOM      7  C   UNL A   1      33.780  28.034  24.733  1.00  0.00     0.128 C 
BRANCH   7   8
ATOM      8  C   UNL A   1      33.348  26.576  24.563  1.00  0.00     0.049 C 
ATOM      9  C   UNL A   1      34.403  25.559  25.111  1.00  0.00     0.029 C 
ATOM     10  C   UNL A   1      32.397  26.062  25.701  1.00  0.00     0.029 C 
ATOM     11  C   UNL A   1      33.293  24.836  25.887  1.00  0.00     0.005 C 
BRANCH   8  12
ATOM     12  N   UNL A   1      32.837  26.128  23.219  1.00  0.00    -0.346 N 
ATOM     13  C   UNL A   1      31.827  26.497  22.355  1.00  0.00     0.251 C 
ATOM     14  H   UNL A   1      33.361  25.373  22.864  1.00  0.00     0.164 HD
ATOM     15  O   UNL A   1      31.748  25.953  21.255  1.00  0.00    -0.269 OA
BRANCH  13  16
ATOM     16  C   UNL A   1      30.782  27.443  22.756  1.00  0.00     0.041 A 
ATOM     17  C   UNL A   1      29.629  27.002  23.407  1.00  0.00     0.014 A 
ATOM     18  C   UNL A   1      30.944  28.774  22.340  1.00  0.00     0.040 A 
ATOM     19  C   UNL A   1      28.524  27.858  23.501  1.00  0.00     0.011 A 
ATOM     20  C   UNL A   1      29.820  29.598  22.427  1.00  0.00     0.046 A 
ATOM     21  C   UNL A   1      28.604  29.156  22.949  1.00  0.00    -0.001 A 
ATOM     22  N   UNL A   1      29.640  30.904  22.025  1.00  0.00    -0.361 N 
ATOM     23  C   UNL A   1      27.660  30.199  22.738  1.00  0.00     0.028 A 
ATOM     24  C   UNL A   1      28.322  31.252  22.150  1.00  0.00     0.083 A 
ATOM     25  H   UNL A   1      30.354  31.499  21.696  1.00  0.00     0.166 HD
ENDBRANCH  13  16
ENDBRANCH   8  12
ENDBRANCH   7   8
ENDBRANCH   5   7
ENDBRANCH   2   3
ENDBRANCH   1   2
BRANCH   1  26
ATOM     26  C   UNL A   1      32.572  32.565  26.480  1.00  0.00     0.118 C 
BRANCH  26  27
ATOM     27  N   UNL A   1      32.354  33.779  27.255  1.00  0.00    -0.352 N 
ATOM     28  C   UNL A   1      33.011  34.242  28.371  1.00  0.00     0.251 C 
ATOM     29  H   UNL A   1      31.625  34.356  26.931  1.00  0.00     0.163 HD
ATOM     30  O   UNL A   1      32.567  35.198  28.991  1.00  0.00    -0.269 OA
BRANCH  28  31
ATOM     31  C   UNL A   1      34.243  33.563  28.831  1.00  0.00     0.039 A 
ATOM     32  C   UNL A   1      35.478  34.183  28.617  1.00  0.00     0.014 A 
ATOM     33  C   UNL A   1      34.179  32.328  29.479  1.00  0.00     0.014 A 
ATOM     34  C   UNL A   1      36.641  33.603  29.130  1.00  0.00     0.010 A 
ATOM     35  C   UNL A   1      35.326  31.795  30.057  1.00  0.00     0.010 A 
ATOM     36  C   UNL A   1      36.568  32.428  29.895  1.00  0.00    -0.014 A 
BRANCH  36  37
ATOM     37  C   UNL A   1      37.764  31.852  30.564  1.00  0.00     0.031 A 
ATOM     38  C   UNL A   1      38.571  30.785  29.878  1.00  0.00     0.074 A 
ATOM     39  C   UNL A   1      38.050  32.201  31.835  1.00  0.00     0.049 A 
ATOM     40  N   UNL A   1      39.554  30.063  30.349  1.00  0.00    -0.248 NA
ATOM     41  C   UNL A   1      38.206  30.466  28.488  1.00  0.00     0.031 C 
ATOM     42  C   UNL A   1      37.306  33.178  32.634  1.00  0.00     0.029 A 
ATOM     43  N   UNL A   1      39.019  31.742  32.694  1.00  0.00    -0.354 N 
ATOM     44  C   UNL A   1      39.895  29.176  29.334  1.00  0.00     0.074 A 
ATOM     45  C   UNL A   1      38.997  29.434  28.230  1.00  0.00     0.031 C 
ATOM     46  C   UNL A   1      37.840  33.240  33.864  1.00  0.00     0.029 A 
ATOM     47  C   UNL A   1      38.933  32.278  33.959  1.00  0.00     0.049 A 
ATOM     48  H   UNL A   1      39.709  31.090  32.430  1.00  0.00     0.167 HD
ATOM     49  C   UNL A   1      40.881  28.247  29.315  1.00  0.00     0.034 A 
ATOM     50  C   UNL A   1      39.638  32.010  35.076  1.00  0.00     0.034 A 
ATOM     51  C   UNL A   1      41.797  28.022  30.400  1.00  0.00     0.049 A 
ATOM     52  C   UNL A   1      40.739  30.987  35.022  1.00  0.00     0.074 A 
ATOM     53  C   UNL A   1      42.881  27.163  30.444  1.00  0.00     0.029 A 
ATOM     54  N   UNL A   1      41.734  28.650  31.634  1.00  0.00    -0.354 N 
ATOM     55  N   UNL A   1      41.136  30.257  34.009  1.00  0.00    -0.248 NA
ATOM     56  C   UNL A   1      41.512  30.771  36.255  1.00  0.00     0.031 C 
ATOM     57  C   UNL A   1      43.454  27.248  31.716  1.00  0.00     0.029 A 
ATOM     58  C   UNL A   1      42.752  28.190  32.450  1.00  0.00     0.049 A 
ATOM     59  H   UNL A   1      41.063  29.323  31.892  1.00  0.00     0.167 HD
ATOM     60  C   UNL A   1      42.231  29.532  34.466  1.00  0.00     0.074 A 
ATOM     61  C   UNL A   1      42.441  29.917  35.846  1.00  0.00     0.031 C 
ATOM     62  C   UNL A   1      42.990  28.627  33.802  1.00  0.00     0.034 A 
BRANCH  49  63
ATOM     63  C   UNL A   1      41.049  27.427  28.062  1.00  0.00     0.023 A 
ATOM     64  C   UNL A   1      41.638  28.008  26.921  1.00  0.00     0.012 A 
ATOM     65  C   UNL A   1      40.686  26.066  28.036  1.00  0.00     0.148 A 
ATOM     66  C   UNL A   1      41.829  27.259  25.761  1.00  0.00     0.002 A 
ATOM     67  C   UNL A   1      40.925  25.313  26.892  1.00  0.00     0.091 A 
ATOM     68  F   UNL A   1      40.111  25.536  29.124  1.00  0.00    -0.205 F 
ATOM     69  C   UNL A   1      41.484  25.910  25.751  1.00  0.00     0.022 A 
BRANCH  67  70
ATOM     70  S   UNL A   1      40.594  23.549  26.808  1.00  0.00     0.127 S 
ATOM     71  O   UNL A   1      40.944  23.119  28.161  1.00  0.00    -0.237 OA
ATOM     72  O   UNL A   1      39.162  23.519  26.509  1.00  0.00    -0.237 OA
ATOM     73  O   UNL A   1      41.446  23.031  25.747  1.00  0.00    -0.744 OA
ENDBRANCH  67  70
ENDBRANCH  49  63
BRANCH  50  74
ATOM     74  C   UNL A   1      39.351  32.757  36.335  1.00  0.00     0.023 A 
ATOM     75  C   UNL A   1      39.942  34.018  36.540  1.00  0.00     0.012 A 
ATOM     76  C   UNL A   1      38.483  32.237  37.313  1.00  0.00     0.148 A 
ATOM     77  C   UNL A   1      39.700  34.734  37.713  1.00  0.00     0.002 A 
ATOM     78  C   UNL A   1      38.201  32.981  38.453  1.00  0.00     0.091 A 
ATOM     79  F   UNL A   1      37.938  31.031  37.103  1.00  0.00    -0.205 F 
ATOM     80  C   UNL A   1      38.823  34.221  38.664  1.00  0.00     0.022 A 
BRANCH  78  81
ATOM     81  S   UNL A   1      36.984  32.458  39.667  1.00  0.00     0.127 S 
ATOM     82  O   UNL A   1      37.093  33.511  40.672  1.00  0.00    -0.237 OA
ATOM     83  O   UNL A   1      35.750  32.477  38.882  1.00  0.00    -0.237 OA
ATOM     84  O   UNL A   1      37.402  31.129  40.095  1.00  0.00    -0.744 OA
ENDBRANCH  78  81
ENDBRANCH  50  74
BRANCH  62  85
ATOM     85  C   UNL A   1      44.166  28.023  34.524  1.00  0.00     0.023 A 
ATOM     86  C   UNL A   1      45.403  28.694  34.552  1.00  0.00     0.012 A 
ATOM     87  C   UNL A   1      44.005  26.833  35.264  1.00  0.00     0.148 A 
ATOM     88  C   UNL A   1      46.470  28.180  35.289  1.00  0.00     0.002 A 
ATOM     89  C   UNL A   1      45.055  26.355  36.037  1.00  0.00     0.091 A 
ATOM     90  F   UNL A   1      42.824  26.202  35.208  1.00  0.00    -0.205 F 
ATOM     91  C   UNL A   1      46.292  27.022  36.042  1.00  0.00     0.022 A 
BRANCH  89  92
ATOM     92  S   UNL A   1      44.889  24.931  37.118  1.00  0.00     0.127 S 
ATOM     93  O   UNL A   1      46.199  24.895  37.765  1.00  0.00    -0.237 OA
ATOM     94  O   UNL A   1      43.787  25.333  37.991  1.00  0.00    -0.237 OA
ATOM     95  O   UNL A   1      44.593  23.797  36.251  1.00  0.00    -0.744 OA
ENDBRANCH  89  92
ENDBRANCH  62  85
ENDBRANCH  36  37
ENDBRANCH  28  31
ENDBRANCH  26  27
ENDBRANCH   1  26
TORSDOF 16
ENDMDL
MODEL 3
REMARK VINA RESULT:     -12.0      0.967      7.830
REMARK SMILES O=C(CC1(NC(=O)c2ccc3cc[nH]c3c2)CCC1)NCCCNC(=O)c1ccc(-c2c3nc(c(-c4cccc(S(=O)(=O)[O-])c4F)c4ccc([nH]4)c(-c4cccc(S(=O)(=O)[O-])c4F)c4nc(c(-c5cccc(S(=O)(=O)[O-])c5F)c5ccc2[nH]5)C=C4)C=C3)cc1
REMARK SMILES IDX 22 1 21 2 20 3 1 4 2 5 3 7 4 8 17 9 19 10 18 11 5 12 6 13
REMARK SMILES IDX 7 15 8 16 9 17 16 18 10 19 15 20 11 21 14 22 12 23 13 24
REMARK SMILES IDX 23 26 24 27 25 28 26 30 27 31 28 32 89 33 29 34 88 35 30 36
REMARK SMILES IDX 31 37 32 38 82 39 33 40 87 41 81 42 83 43 34 44 86 45 80 46
REMARK SMILES IDX 79 47 35 49 67 50 47 51 66 52 48 53 51 54 65 55 84 56 49 57
REMARK SMILES IDX 50 58 64 60 85 61 52 62 36 63 37 64 45 65 38 66 40 67 46 68
REMARK SMILES IDX 39 69 41 70 42 71 43 72 44 73 68 74 69 75 77 76 70 77 72 78
REMARK SMILES IDX 78 79 71 80 73 81 74 82 75 83 76 84 53 85 54 86 62 87 55 88
REMARK SMILES IDX 57 89 63 90 56 91 58 92 59 93 60 94 61 95
REMARK H PARENT 20 6 5 14 14 25 24 29 83 48 51 59
REMARK Flexibility Score: inf
ROOT
ATOM      1  C   UNL A   1      31.750  32.275  26.538  1.00  0.00     0.042 C 
ENDROOT
BRANCH   1   2
ATOM      2  C   UNL A   1      31.474  30.819  26.888  1.00  0.00     0.117 C 
BRANCH   2   3
ATOM      3  N   UNL A   1      31.933  29.930  25.845  1.00  0.00    -0.356 N 
ATOM      4  O   UNL A   1      33.816  29.205  26.949  1.00  0.00    -0.275 OA
ATOM      5  C   UNL A   1      33.106  29.227  25.951  1.00  0.00     0.222 C 
ATOM      6  H   UNL A   1      31.387  29.826  25.033  1.00  0.00     0.163 HD
BRANCH   5   7
ATOM      7  C   UNL A   1      33.485  28.521  24.678  1.00  0.00     0.128 C 
BRANCH   7   8
ATOM      8  C   UNL A   1      33.080  27.051  24.541  1.00  0.00     0.049 C 
ATOM      9  C   UNL A   1      34.146  26.068  25.129  1.00  0.00     0.029 C 
ATOM     10  C   UNL A   1      32.124  26.551  25.681  1.00  0.00     0.029 C 
ATOM     11  C   UNL A   1      33.039  25.347  25.911  1.00  0.00     0.005 C 
BRANCH   8  12
ATOM     12  N   UNL A   1      32.594  26.559  23.203  1.00  0.00    -0.346 N 
ATOM     13  C   UNL A   1      31.609  26.907  22.303  1.00  0.00     0.251 C 
ATOM     14  H   UNL A   1      33.116  25.785  22.889  1.00  0.00     0.164 HD
ATOM     15  O   UNL A   1      31.547  26.324  21.223  1.00  0.00    -0.269 OA
BRANCH  13  16
ATOM     16  C   UNL A   1      30.567  27.880  22.645  1.00  0.00     0.041 A 
ATOM     17  C   UNL A   1      29.359  27.467  23.211  1.00  0.00     0.014 A 
ATOM     18  C   UNL A   1      30.796  29.210  22.258  1.00  0.00     0.040 A 
ATOM     19  C   UNL A   1      28.276  28.354  23.240  1.00  0.00     0.011 A 
ATOM     20  C   UNL A   1      29.693  30.067  22.280  1.00  0.00     0.046 A 
ATOM     21  C   UNL A   1      28.431  29.656  22.712  1.00  0.00    -0.001 A 
ATOM     22  N   UNL A   1      29.579  31.382  21.884  1.00  0.00    -0.361 N 
ATOM     23  C   UNL A   1      27.535  30.728  22.452  1.00  0.00     0.028 A 
ATOM     24  C   UNL A   1      28.266  31.768  21.924  1.00  0.00     0.083 A 
ATOM     25  H   UNL A   1      30.331  31.959  21.612  1.00  0.00     0.166 HD
ENDBRANCH  13  16
ENDBRANCH   8  12
ENDBRANCH   7   8
ENDBRANCH   5   7
ENDBRANCH   2   3
ENDBRANCH   1   2
BRANCH   1  26
ATOM     26  C   UNL A   1      32.891  32.899  27.333  1.00  0.00     0.118 C 
BRANCH  26  27
ATOM     27  N   UNL A   1      32.607  34.262  27.759  1.00  0.00    -0.352 N 
ATOM     28  C   UNL A   1      33.103  34.973  28.827  1.00  0.00     0.251 C 
ATOM     29  H   UNL A   1      31.962  34.749  27.196  1.00  0.00     0.163 HD
ATOM     30  O   UNL A   1      32.608  36.051  29.127  1.00  0.00    -0.269 OA
BRANCH  28  31
ATOM     31  C   UNL A   1      34.219  34.418  29.623  1.00  0.00     0.039 A 
ATOM     32  C   UNL A   1      33.933  33.749  30.816  1.00  0.00     0.014 A 
ATOM     33  C   UNL A   1      35.540  34.547  29.188  1.00  0.00     0.014 A 
ATOM     34  C   UNL A   1      34.966  33.135  31.530  1.00  0.00     0.010 A 
ATOM     35  C   UNL A   1      36.553  33.867  29.855  1.00  0.00     0.010 A 
ATOM     36  C   UNL A   1      36.278  33.150  31.029  1.00  0.00    -0.014 A 
BRANCH  36  37
ATOM     37  C   UNL A   1      37.378  32.400  31.691  1.00  0.00     0.031 A 
ATOM     38  C   UNL A   1      37.928  32.876  33.008  1.00  0.00     0.074 A 
ATOM     39  C   UNL A   1      37.961  31.367  31.051  1.00  0.00     0.049 A 
ATOM     40  N   UNL A   1      38.972  32.447  33.668  1.00  0.00    -0.248 NA
ATOM     41  C   UNL A   1      37.232  34.001  33.652  1.00  0.00     0.031 C 
ATOM     42  C   UNL A   1      37.561  30.847  29.740  1.00  0.00     0.029 A 
ATOM     43  N   UNL A   1      39.043  30.594  31.396  1.00  0.00    -0.354 N 
ATOM     44  C   UNL A   1      39.085  33.274  34.780  1.00  0.00     0.074 A 
ATOM     45  C   UNL A   1      38.018  34.247  34.690  1.00  0.00     0.031 C 
ATOM     46  C   UNL A   1      38.389  29.850  29.391  1.00  0.00     0.029 A 
ATOM     47  C   UNL A   1      39.403  29.686  30.426  1.00  0.00     0.049 A 
ATOM     48  H   UNL A   1      39.516  30.682  32.255  1.00  0.00     0.167 HD
ATOM     49  C   UNL A   1      39.981  33.216  35.794  1.00  0.00     0.034 A 
ATOM     50  C   UNL A   1      40.446  28.833  30.365  1.00  0.00     0.034 A 
ATOM     51  C   UNL A   1      41.016  32.223  35.898  1.00  0.00     0.049 A 
ATOM     52  C   UNL A   1      41.416  28.776  31.513  1.00  0.00     0.074 A 
ATOM     53  C   UNL A   1      41.918  32.030  36.928  1.00  0.00     0.029 A 
ATOM     54  N   UNL A   1      41.291  31.262  34.939  1.00  0.00    -0.354 N 
ATOM     55  N   UNL A   1      41.423  29.476  32.621  1.00  0.00    -0.248 NA
ATOM     56  C   UNL A   1      42.504  27.791  31.420  1.00  0.00     0.031 C 
ATOM     57  C   UNL A   1      42.762  30.972  36.577  1.00  0.00     0.029 A 
ATOM     58  C   UNL A   1      42.358  30.481  35.346  1.00  0.00     0.049 A 
ATOM     59  H   UNL A   1      40.802  31.152  34.092  1.00  0.00     0.167 HD
ATOM     60  C   UNL A   1      42.483  28.985  33.376  1.00  0.00     0.074 A 
ATOM     61  C   UNL A   1      43.091  27.923  32.602  1.00  0.00     0.031 C 
ATOM     62  C   UNL A   1      42.915  29.384  34.597  1.00  0.00     0.034 A 
BRANCH  49  63
ATOM     63  C   UNL A   1      39.860  34.235  36.897  1.00  0.00     0.023 A 
ATOM     64  C   UNL A   1      40.165  35.586  36.637  1.00  0.00     0.012 A 
ATOM     65  C   UNL A   1      39.381  33.867  38.170  1.00  0.00     0.148 A 
ATOM     66  C   UNL A   1      40.033  36.550  37.636  1.00  0.00     0.002 A 
ATOM     67  C   UNL A   1      39.205  34.841  39.146  1.00  0.00     0.091 A 
ATOM     68  F   UNL A   1      39.113  32.575  38.404  1.00  0.00    -0.205 F 
ATOM     69  C   UNL A   1      39.542  36.179  38.885  1.00  0.00     0.022 A 
BRANCH  67  70
ATOM     70  S   UNL A   1      38.499  34.481  40.758  1.00  0.00     0.127 S 
ATOM     71  O   UNL A   1      38.306  35.825  41.302  1.00  0.00    -0.237 OA
ATOM     72  O   UNL A   1      37.263  33.782  40.403  1.00  0.00    -0.237 OA
ATOM     73  O   UNL A   1      39.482  33.661  41.453  1.00  0.00    -0.744 OA
ENDBRANCH  67  70
ENDBRANCH  49  63
BRANCH  50  74
ATOM     74  C   UNL A   1      40.601  27.930  29.189  1.00  0.00     0.023 A 
ATOM     75  C   UNL A   1      39.814  26.765  29.103  1.00  0.00     0.012 A 
ATOM     76  C   UNL A   1      41.502  28.228  28.150  1.00  0.00     0.148 A 
ATOM     77  C   UNL A   1      39.946  25.896  28.020  1.00  0.00     0.002 A 
ATOM     78  C   UNL A   1      41.587  27.388  27.045  1.00  0.00     0.091 A 
ATOM     79  F   UNL A   1      42.248  29.336  28.255  1.00  0.00    -0.205 F 
ATOM     80  C   UNL A   1      40.824  26.212  26.987  1.00  0.00     0.022 A 
BRANCH  78  81
ATOM     81  S   UNL A   1      42.593  27.784  25.611  1.00  0.00     0.127 S 
ATOM     82  O   UNL A   1      41.949  28.999  25.120  1.00  0.00    -0.237 OA
ATOM     83  O   UNL A   1      43.911  27.984  26.215  1.00  0.00    -0.237 OA
ATOM     84  O   UNL A   1      42.505  26.623  24.736  1.00  0.00    -0.744 OA
ENDBRANCH  78  81
ENDBRANCH  50  74
BRANCH  62  85
ATOM     85  C   UNL A   1      44.065  28.637  35.220  1.00  0.00     0.023 A 
ATOM     86  C   UNL A   1      45.391  29.019  34.943  1.00  0.00     0.012 A 
ATOM     87  C   UNL A   1      43.819  27.621  36.165  1.00  0.00     0.148 A 
ATOM     88  C   UNL A   1      46.457  28.386  35.583  1.00  0.00     0.002 A 
ATOM     89  C   UNL A   1      44.881  27.031  36.836  1.00  0.00     0.091 A 
ATOM     90  F   UNL A   1      42.548  27.262  36.400  1.00  0.00    -0.205 F 
ATOM     91  C   UNL A   1      46.203  27.404  36.539  1.00  0.00     0.022 A 
BRANCH  89  92
ATOM     92  S   UNL A   1      44.647  25.833  38.154  1.00  0.00     0.127 S 
ATOM     93  O   UNL A   1      46.027  25.533  38.531  1.00  0.00    -0.237 OA
ATOM     94  O   UNL A   1      43.897  26.606  39.144  1.00  0.00    -0.237 OA
ATOM     95  O   UNL A   1      43.909  24.723  37.566  1.00  0.00    -0.744 OA
ENDBRANCH  89  92
ENDBRANCH  62  85
ENDBRANCH  36  37
ENDBRANCH  28  31
ENDBRANCH  26  27
ENDBRANCH   1  26
TORSDOF 16
ENDMDL
