MODEL 1
REMARK VINA RESULT:     -12.8      0.000      0.000
REMARK SMILES O=C(NCCCNC(=O)C1(Cc2ccncc2)Cc2ccccc2C1)c1ccc(-c2c3nc(c(-c4cccc(S(=O)(=O)[O-])c4F)c4ccc([nH]4)c(-c4cccc(S(=O)(=O)[O-])c4F)c4nc(c(-c5cccc(S(=O)(=O)[O-])c5F)c5ccc2[nH]5)C=C4)C=C3)cc1
REMARK SMILES IDX 4 1 3 2 1 3 2 4 26 6 27 7 88 8 28 9 87 10 29 11 30 12 31 13
REMARK SMILES IDX 81 14 32 15 86 16 80 17 82 18 33 19 85 20 79 21 78 22 34 24
REMARK SMILES IDX 66 25 46 26 65 27 47 28 50 29 64 30 83 31 48 32 49 33 63 35
REMARK SMILES IDX 84 36 51 37 35 38 36 39 44 40 37 41 39 42 45 43 38 44 40 45
REMARK SMILES IDX 41 46 42 47 43 48 67 49 68 50 76 51 69 52 71 53 77 54 70 55
REMARK SMILES IDX 72 56 73 57 74 58 75 59 52 60 53 61 61 62 54 63 56 64 62 65
REMARK SMILES IDX 55 66 57 67 58 68 59 69 60 70 5 71 6 72 7 73 8 74 9 76 10 77
REMARK SMILES IDX 18 78 25 79 19 80 24 81 20 82 23 83 21 84 22 85 11 86 12 87
REMARK SMILES IDX 13 88 17 89 14 90 16 91 15 92
REMARK H PARENT 3 5 82 23 50 34 7 75
REMARK Flexibility Score: inf
ROOT
ATOM      1  C   UNL A   1      33.269  29.046  24.958  1.00  0.00     0.118 C 
ENDROOT
BRANCH   1   2
ATOM      2  N   UNL A   1      32.706  30.230  25.613  1.00  0.00    -0.352 N 
ATOM      3  O   UNL A   1      32.283  31.829  27.121  1.00  0.00    -0.269 OA
ATOM      4  C   UNL A   1      33.072  30.973  26.714  1.00  0.00     0.251 C 
ATOM      5  H   UNL A   1      31.893  30.566  25.171  1.00  0.00     0.163 HD
BRANCH   4   6
ATOM      6  C   UNL A   1      34.352  30.752  27.424  1.00  0.00     0.039 A 
ATOM      7  C   UNL A   1      34.707  29.488  27.874  1.00  0.00     0.014 A 
ATOM      8  C   UNL A   1      35.249  31.812  27.622  1.00  0.00     0.014 A 
ATOM      9  C   UNL A   1      35.774  29.327  28.739  1.00  0.00     0.010 A 
ATOM     10  C   UNL A   1      36.440  31.606  28.335  1.00  0.00     0.010 A 
ATOM     11  C   UNL A   1      36.690  30.367  28.941  1.00  0.00    -0.014 A 
BRANCH  11  12
ATOM     12  C   UNL A   1      37.931  30.054  29.697  1.00  0.00     0.031 A 
ATOM     13  C   UNL A   1      38.142  30.529  31.107  1.00  0.00     0.074 A 
ATOM     14  C   UNL A   1      38.846  29.256  29.106  1.00  0.00     0.049 A 
ATOM     15  N   UNL A   1      39.127  30.250  31.922  1.00  0.00    -0.248 NA
ATOM     16  C   UNL A   1      37.137  31.441  31.676  1.00  0.00     0.031 C 
ATOM     17  C   UNL A   1      38.766  28.769  27.722  1.00  0.00     0.029 A 
ATOM     18  N   UNL A   1      39.994  28.681  29.584  1.00  0.00    -0.354 N 
ATOM     19  C   UNL A   1      38.888  30.983  33.078  1.00  0.00     0.074 A 
ATOM     20  C   UNL A   1      37.665  31.724  32.859  1.00  0.00     0.031 C 
ATOM     21  C   UNL A   1      39.770  27.914  27.492  1.00  0.00     0.029 A 
ATOM     22  C   UNL A   1      40.620  27.863  28.672  1.00  0.00     0.049 A 
ATOM     23  H   UNL A   1      40.338  28.838  30.493  1.00  0.00     0.167 HD
ATOM     24  C   UNL A   1      39.619  31.023  34.218  1.00  0.00     0.034 A 
ATOM     25  C   UNL A   1      41.766  27.163  28.758  1.00  0.00     0.034 A 
ATOM     26  C   UNL A   1      40.815  30.251  34.437  1.00  0.00     0.049 A 
ATOM     27  C   UNL A   1      42.536  27.211  30.042  1.00  0.00     0.074 A 
ATOM     28  C   UNL A   1      41.595  30.179  35.578  1.00  0.00     0.029 A 
ATOM     29  N   UNL A   1      41.411  29.426  33.494  1.00  0.00    -0.354 N 
ATOM     30  N   UNL A   1      42.230  27.822  31.161  1.00  0.00    -0.248 NA
ATOM     31  C   UNL A   1      43.797  26.462  30.085  1.00  0.00     0.031 C 
ATOM     32  C   UNL A   1      42.679  29.334  35.315  1.00  0.00     0.029 A 
ATOM     33  C   UNL A   1      42.557  28.852  34.022  1.00  0.00     0.049 A 
ATOM     34  H   UNL A   1      41.071  29.271  32.584  1.00  0.00     0.167 HD
ATOM     35  C   UNL A   1      43.253  27.518  32.049  1.00  0.00     0.074 A 
ATOM     36  C   UNL A   1      44.167  26.639  31.346  1.00  0.00     0.031 C 
ATOM     37  C   UNL A   1      43.431  27.946  33.322  1.00  0.00     0.034 A 
BRANCH  24  38
ATOM     38  C   UNL A   1      39.136  31.913  35.336  1.00  0.00     0.023 A 
ATOM     39  C   UNL A   1      38.194  31.426  36.264  1.00  0.00     0.012 A 
ATOM     40  C   UNL A   1      39.673  33.205  35.511  1.00  0.00     0.148 A 
ATOM     41  C   UNL A   1      37.772  32.220  37.331  1.00  0.00     0.002 A 
ATOM     42  C   UNL A   1      39.279  33.973  36.601  1.00  0.00     0.091 A 
ATOM     43  F   UNL A   1      40.553  33.660  34.608  1.00  0.00    -0.205 F 
ATOM     44  C   UNL A   1      38.321  33.486  37.505  1.00  0.00     0.022 A 
BRANCH  42  45
ATOM     45  S   UNL A   1      39.988  35.585  36.960  1.00  0.00     0.127 S 
ATOM     46  O   UNL A   1      39.320  35.930  38.214  1.00  0.00    -0.237 OA
ATOM     47  O   UNL A   1      41.410  35.274  37.094  1.00  0.00    -0.237 OA
ATOM     48  O   UNL A   1      39.657  36.432  35.822  1.00  0.00    -0.744 OA
ENDBRANCH  42  45
ENDBRANCH  24  38
BRANCH  25  49
ATOM     49  C   UNL A   1      42.232  26.357  27.595  1.00  0.00     0.023 A 
ATOM     50  C   UNL A   1      43.120  26.923  26.662  1.00  0.00     0.012 A 
ATOM     51  C   UNL A   1      41.835  25.013  27.438  1.00  0.00     0.148 A 
ATOM     52  C   UNL A   1      43.584  26.172  25.579  1.00  0.00     0.002 A 
ATOM     53  C   UNL A   1      42.353  24.253  26.399  1.00  0.00     0.091 A 
ATOM     54  F   UNL A   1      40.976  24.496  28.329  1.00  0.00    -0.205 F 
ATOM     55  C   UNL A   1      43.213  24.836  25.457  1.00  0.00     0.022 A 
BRANCH  53  56
ATOM     56  S   UNL A   1      42.049  22.488  26.263  1.00  0.00     0.127 S 
ATOM     57  O   UNL A   1      42.741  22.161  25.019  1.00  0.00    -0.237 OA
ATOM     58  O   UNL A   1      42.688  21.976  27.477  1.00  0.00    -0.237 OA
ATOM     59  O   UNL A   1      40.601  22.342  26.245  1.00  0.00    -0.744 OA
ENDBRANCH  53  56
ENDBRANCH  25  49
BRANCH  37  60
ATOM     60  C   UNL A   1      44.652  27.446  34.047  1.00  0.00     0.023 A 
ATOM     61  C   UNL A   1      45.852  28.182  33.987  1.00  0.00     0.012 A 
ATOM     62  C   UNL A   1      44.592  26.276  34.827  1.00  0.00     0.148 A 
ATOM     63  C   UNL A   1      46.987  27.737  34.662  1.00  0.00     0.002 A 
ATOM     64  C   UNL A   1      45.713  25.868  35.539  1.00  0.00     0.091 A 
ATOM     65  F   UNL A   1      43.446  25.580  34.852  1.00  0.00    -0.205 F 
ATOM     66  C   UNL A   1      46.915  26.589  35.448  1.00  0.00     0.022 A 
BRANCH  64  67
ATOM     67  S   UNL A   1      45.685  24.457  36.649  1.00  0.00     0.127 S 
ATOM     68  O   UNL A   1      47.077  24.397  37.090  1.00  0.00    -0.237 OA
ATOM     69  O   UNL A   1      44.736  24.888  37.676  1.00  0.00    -0.237 OA
ATOM     70  O   UNL A   1      45.235  23.326  35.848  1.00  0.00    -0.744 OA
ENDBRANCH  64  67
ENDBRANCH  37  60
ENDBRANCH  11  12
ENDBRANCH   4   6
ENDBRANCH   1   2
BRANCH   1  71
ATOM     71  C   UNL A   1      33.221  29.093  23.444  1.00  0.00     0.042 C 
BRANCH  71  72
ATOM     72  C   UNL A   1      32.386  28.008  22.817  1.00  0.00     0.117 C 
BRANCH  72  73
ATOM     73  N   UNL A   1      32.945  27.312  21.699  1.00  0.00    -0.356 N 
ATOM     74  C   UNL A   1      33.007  25.960  21.542  1.00  0.00     0.227 C 
ATOM     75  H   UNL A   1      33.321  27.862  20.975  1.00  0.00     0.163 HD
ATOM     76  O   UNL A   1      33.268  25.580  20.396  1.00  0.00    -0.274 OA
BRANCH  74  77
ATOM     77  C   UNL A   1      32.870  24.963  22.738  1.00  0.00     0.061 C 
ATOM     78  C   UNL A   1      33.700  23.680  22.326  1.00  0.00     0.053 C 
ATOM     79  C   UNL A   1      33.675  25.535  23.943  1.00  0.00     0.053 C 
ATOM     80  C   UNL A   1      34.347  23.274  23.609  1.00  0.00    -0.044 A 
ATOM     81  C   UNL A   1      34.326  24.319  24.532  1.00  0.00    -0.044 A 
ATOM     82  C   UNL A   1      34.983  22.075  23.884  1.00  0.00     0.004 A 
ATOM     83  C   UNL A   1      34.939  24.181  25.766  1.00  0.00     0.004 A 
ATOM     84  C   UNL A   1      35.598  21.924  25.125  1.00  0.00     0.000 A 
ATOM     85  C   UNL A   1      35.571  22.969  26.063  1.00  0.00     0.000 A 
BRANCH  77  86
ATOM     86  C   UNL A   1      31.409  24.426  23.070  1.00  0.00     0.053 C 
BRANCH  86  87
ATOM     87  C   UNL A   1      30.886  24.190  24.482  1.00  0.00    -0.044 A 
ATOM     88  C   UNL A   1      30.245  25.224  25.188  1.00  0.00     0.024 A 
ATOM     89  C   UNL A   1      31.028  22.964  25.142  1.00  0.00     0.024 A 
ATOM     90  C   UNL A   1      29.919  25.040  26.526  1.00  0.00     0.111 A 
ATOM     91  C   UNL A   1      30.655  22.869  26.479  1.00  0.00     0.111 A 
ATOM     92  N   UNL A   1      30.127  23.886  27.188  1.00  0.00    -0.265 NA
ENDBRANCH  86  87
ENDBRANCH  77  86
ENDBRANCH  74  77
ENDBRANCH  72  73
ENDBRANCH  71  72
ENDBRANCH   1  71
TORSDOF 15
ENDMDL
MODEL 2
REMARK VINA RESULT:     -12.6      4.739      9.797
REMARK SMILES O=C(NCCCNC(=O)C1(Cc2ccncc2)Cc2ccccc2C1)c1ccc(-c2c3nc(c(-c4cccc(S(=O)(=O)[O-])c4F)c4ccc([nH]4)c(-c4cccc(S(=O)(=O)[O-])c4F)c4nc(c(-c5cccc(S(=O)(=O)[O-])c5F)c5ccc2[nH]5)C=C4)C=C3)cc1
REMARK SMILES IDX 4 1 3 2 1 3 2 4 26 6 27 7 88 8 28 9 87 10 29 11 30 12 31 13
REMARK SMILES IDX 81 14 32 15 86 16 80 17 82 18 33 19 85 20 79 21 78 22 34 24
REMARK SMILES IDX 66 25 46 26 65 27 47 28 50 29 64 30 83 31 48 32 49 33 63 35
REMARK SMILES IDX 84 36 51 37 35 38 36 39 44 40 37 41 39 42 45 43 38 44 40 45
REMARK SMILES IDX 41 46 42 47 43 48 67 49 68 50 76 51 69 52 71 53 77 54 70 55
REMARK SMILES IDX 72 56 73 57 74 58 75 59 52 60 53 61 61 62 54 63 56 64 62 65
REMARK SMILES IDX 55 66 57 67 58 68 59 69 60 70 5 71 6 72 7 73 8 74 9 76 10 77
REMARK SMILES IDX 18 78 25 79 19 80 24 81 20 82 23 83 21 84 22 85 11 86 12 87
REMARK SMILES IDX 13 88 17 89 14 90 16 91 15 92
REMARK H PARENT 3 5 82 23 50 34 7 75
REMARK Flexibility Score: inf
ROOT
ATOM      1  C   UNL A   1      35.716  22.388  25.899  1.00  0.00     0.118 C 
ENDROOT
BRANCH   1   2
ATOM      2  N   UNL A   1      36.733  21.354  25.683  1.00  0.00    -0.352 N 
ATOM      3  O   UNL A   1      38.700  20.341  25.344  1.00  0.00    -0.269 OA
ATOM      4  C   UNL A   1      38.108  21.341  25.757  1.00  0.00     0.251 C 
ATOM      5  H   UNL A   1      36.350  20.482  25.431  1.00  0.00     0.163 HD
BRANCH   4   6
ATOM      6  C   UNL A   1      38.880  22.490  26.283  1.00  0.00     0.039 A 
ATOM      7  C   UNL A   1      38.480  23.793  26.026  1.00  0.00     0.014 A 
ATOM      8  C   UNL A   1      40.012  22.279  27.083  1.00  0.00     0.014 A 
ATOM      9  C   UNL A   1      39.322  24.853  26.308  1.00  0.00     0.010 A 
ATOM     10  C   UNL A   1      40.765  23.372  27.542  1.00  0.00     0.010 A 
ATOM     11  C   UNL A   1      40.451  24.669  27.116  1.00  0.00    -0.014 A 
BRANCH  11  12
ATOM     12  C   UNL A   1      41.181  25.884  27.565  1.00  0.00     0.031 A 
ATOM     13  C   UNL A   1      42.582  26.181  27.112  1.00  0.00     0.074 A 
ATOM     14  C   UNL A   1      40.517  26.768  28.341  1.00  0.00     0.049 A 
ATOM     15  N   UNL A   1      43.304  27.248  27.340  1.00  0.00    -0.248 NA
ATOM     16  C   UNL A   1      43.271  25.155  26.313  1.00  0.00     0.031 C 
ATOM     17  C   UNL A   1      39.165  26.565  28.878  1.00  0.00     0.029 A 
ATOM     18  N   UNL A   1      40.856  28.019  28.786  1.00  0.00    -0.354 N 
ATOM     19  C   UNL A   1      44.542  27.006  26.760  1.00  0.00     0.074 A 
ATOM     20  C   UNL A   1      44.477  25.687  26.168  1.00  0.00     0.031 C 
ATOM     21  C   UNL A   1      38.764  27.675  29.508  1.00  0.00     0.029 A 
ATOM     22  C   UNL A   1      39.857  28.634  29.507  1.00  0.00     0.049 A 
ATOM     23  H   UNL A   1      41.728  28.438  28.607  1.00  0.00     0.167 HD
ATOM     24  C   UNL A   1      45.628  27.816  26.716  1.00  0.00     0.034 A 
ATOM     25  C   UNL A   1      39.827  29.830  30.124  1.00  0.00     0.034 A 
ATOM     26  C   UNL A   1      45.667  29.142  27.277  1.00  0.00     0.049 A 
ATOM     27  C   UNL A   1      41.035  30.710  30.036  1.00  0.00     0.074 A 
ATOM     28  C   UNL A   1      46.699  30.063  27.236  1.00  0.00     0.029 A 
ATOM     29  N   UNL A   1      44.634  29.734  27.989  1.00  0.00    -0.354 N 
ATOM     30  N   UNL A   1      42.154  30.506  29.384  1.00  0.00    -0.248 NA
ATOM     31  C   UNL A   1      40.974  31.991  30.749  1.00  0.00     0.031 C 
ATOM     32  C   UNL A   1      46.302  31.199  27.948  1.00  0.00     0.029 A 
ATOM     33  C   UNL A   1      45.010  31.002  28.405  1.00  0.00     0.049 A 
ATOM     34  H   UNL A   1      43.762  29.315  28.172  1.00  0.00     0.167 HD
ATOM     35  C   UNL A   1      42.927  31.639  29.594  1.00  0.00     0.074 A 
ATOM     36  C   UNL A   1      42.131  32.540  30.405  1.00  0.00     0.031 C 
ATOM     37  C   UNL A   1      44.188  31.901  29.175  1.00  0.00     0.034 A 
BRANCH  24  38
ATOM     38  C   UNL A   1      46.863  27.306  26.017  1.00  0.00     0.023 A 
ATOM     39  C   UNL A   1      47.043  27.552  24.641  1.00  0.00     0.012 A 
ATOM     40  C   UNL A   1      47.880  26.649  26.739  1.00  0.00     0.148 A 
ATOM     41  C   UNL A   1      48.201  27.127  23.989  1.00  0.00     0.002 A 
ATOM     42  C   UNL A   1      49.050  26.268  26.092  1.00  0.00     0.091 A 
ATOM     43  F   UNL A   1      47.684  26.407  28.043  1.00  0.00    -0.205 F 
ATOM     44  C   UNL A   1      49.207  26.497  24.715  1.00  0.00     0.022 A 
BRANCH  42  45
ATOM     45  S   UNL A   1      50.439  25.522  26.954  1.00  0.00     0.127 S 
ATOM     46  O   UNL A   1      51.374  25.283  25.856  1.00  0.00    -0.237 OA
ATOM     47  O   UNL A   1      50.839  26.587  27.873  1.00  0.00    -0.237 OA
ATOM     48  O   UNL A   1      49.916  24.327  27.600  1.00  0.00    -0.744 OA
ENDBRANCH  42  45
ENDBRANCH  24  38
BRANCH  25  49
ATOM     49  C   UNL A   1      38.603  30.252  30.861  1.00  0.00     0.023 A 
ATOM     50  C   UNL A   1      38.463  29.935  32.226  1.00  0.00     0.012 A 
ATOM     51  C   UNL A   1      37.598  31.010  30.226  1.00  0.00     0.148 A 
ATOM     52  C   UNL A   1      37.333  30.344  32.937  1.00  0.00     0.002 A 
ATOM     53  C   UNL A   1      36.511  31.471  30.955  1.00  0.00     0.091 A 
ATOM     54  F   UNL A   1      37.741  31.288  28.922  1.00  0.00    -0.205 F 
ATOM     55  C   UNL A   1      36.366  31.123  32.306  1.00  0.00     0.022 A 
BRANCH  53  56
ATOM     56  S   UNL A   1      35.307  32.607  30.259  1.00  0.00     0.127 S 
ATOM     57  O   UNL A   1      34.795  31.840  29.125  1.00  0.00    -0.237 OA
ATOM     58  O   UNL A   1      34.366  32.771  31.368  1.00  0.00    -0.237 OA
ATOM     59  O   UNL A   1      36.053  33.813  29.928  1.00  0.00    -0.744 OA
ENDBRANCH  53  56
ENDBRANCH  25  49
BRANCH  37  60
ATOM     60  C   UNL A   1      44.777  33.230  29.565  1.00  0.00     0.023 A 
ATOM     61  C   UNL A   1      45.538  33.339  30.746  1.00  0.00     0.012 A 
ATOM     62  C   UNL A   1      44.616  34.356  28.735  1.00  0.00     0.148 A 
ATOM     63  C   UNL A   1      46.099  34.561  31.114  1.00  0.00     0.002 A 
ATOM     64  C   UNL A   1      45.222  35.557  29.082  1.00  0.00     0.091 A 
ATOM     65  F   UNL A   1      43.870  34.234  27.628  1.00  0.00    -0.205 F 
ATOM     66  C   UNL A   1      45.952  35.665  30.278  1.00  0.00     0.022 A 
BRANCH  64  67
ATOM     67  S   UNL A   1      45.165  37.003  28.021  1.00  0.00     0.127 S 
ATOM     68  O   UNL A   1      45.785  36.499  26.797  1.00  0.00    -0.237 OA
ATOM     69  O   UNL A   1      43.729  37.258  27.918  1.00  0.00    -0.237 OA
ATOM     70  O   UNL A   1      45.914  38.041  28.717  1.00  0.00    -0.744 OA
ENDBRANCH  64  67
ENDBRANCH  37  60
ENDBRANCH  11  12
ENDBRANCH   4   6
ENDBRANCH   1   2
BRANCH   1  71
ATOM     71  C   UNL A   1      35.010  22.838  24.635  1.00  0.00     0.042 C 
BRANCH  71  72
ATOM     72  C   UNL A   1      33.510  22.722  24.691  1.00  0.00     0.117 C 
BRANCH  72  73
ATOM     73  N   UNL A   1      32.888  22.855  25.973  1.00  0.00    -0.356 N 
ATOM     74  C   UNL A   1      32.148  23.917  26.401  1.00  0.00     0.227 C 
ATOM     75  H   UNL A   1      33.007  22.110  26.605  1.00  0.00     0.163 HD
ATOM     76  O   UNL A   1      31.478  23.708  27.418  1.00  0.00    -0.274 OA
BRANCH  74  77
ATOM     77  C   UNL A   1      32.220  25.325  25.727  1.00  0.00     0.061 C 
ATOM     78  C   UNL A   1      31.291  26.265  26.596  1.00  0.00     0.053 C 
ATOM     79  C   UNL A   1      33.645  25.908  25.972  1.00  0.00     0.053 C 
ATOM     80  C   UNL A   1      32.048  27.553  26.622  1.00  0.00    -0.044 A 
ATOM     81  C   UNL A   1      33.379  27.357  26.259  1.00  0.00    -0.044 A 
ATOM     82  C   UNL A   1      31.581  28.791  27.028  1.00  0.00     0.004 A 
ATOM     83  C   UNL A   1      34.279  28.409  26.287  1.00  0.00     0.004 A 
ATOM     84  C   UNL A   1      32.476  29.857  27.054  1.00  0.00     0.000 A 
ATOM     85  C   UNL A   1      33.816  29.669  26.680  1.00  0.00     0.000 A 
BRANCH  77  86
ATOM     86  C   UNL A   1      31.666  25.447  24.241  1.00  0.00     0.053 C 
BRANCH  86  87
ATOM     87  C   UNL A   1      30.983  26.691  23.682  1.00  0.00    -0.044 A 
ATOM     88  C   UNL A   1      29.589  26.840  23.771  1.00  0.00     0.024 A 
ATOM     89  C   UNL A   1      31.693  27.718  23.050  1.00  0.00     0.024 A 
ATOM     90  C   UNL A   1      28.970  27.898  23.117  1.00  0.00     0.111 A 
ATOM     91  C   UNL A   1      30.988  28.750  22.440  1.00  0.00     0.111 A 
ATOM     92  N   UNL A   1      29.644  28.847  22.439  1.00  0.00    -0.265 NA
ENDBRANCH  86  87
ENDBRANCH  77  86
ENDBRANCH  74  77
ENDBRANCH  72  73
ENDBRANCH  71  72
ENDBRANCH   1  71
TORSDOF 15
ENDMDL
MODEL 3
REMARK VINA RESULT:     -12.6      1.617      1.976
REMARK SMILES O=C(NCCCNC(=O)C1(Cc2ccncc2)Cc2ccccc2C1)c1ccc(-c2c3nc(c(-c4cccc(S(=O)(=O)[O-])c4F)c4ccc([nH]4)c(-c4cccc(S(=O)(=O)[O-])c4F)c4nc(c(-c5cccc(S(=O)(=O)[O-])c5F)c5ccc2[nH]5)C=C4)C=C3)cc1
REMARK SMILES IDX 4 1 3 2 1 3 2 4 26 6 27 7 88 8 28 9 87 10 29 11 30 12 31 13
REMARK SMILES IDX 81 14 32 15 86 16 80 17 82 18 33 19 85 20 79 21 78 22 34 24
REMARK SMILES IDX 66 25 46 26 65 27 47 28 50 29 64 30 83 31 48 32 49 33 63 35
REMARK SMILES IDX 84 36 51 37 35 38 36 39 44 40 37 41 39 42 45 43 38 44 40 45
REMARK SMILES IDX 41 46 42 47 43 48 67 49 68 50 76 51 69 52 71 53 77 54 70 55
REMARK SMILES IDX 72 56 73 57 74 58 75 59 52 60 53 61 61 62 54 63 56 64 62 65
REMARK SMILES IDX 55 66 57 67 58 68 59 69 60 70 5 71 6 72 7 73 8 74 9 76 10 77
REMARK SMILES IDX 18 78 25 79 19 80 24 81 20 82 23 83 21 84 22 85 11 86 12 87
REMARK SMILES IDX 13 88 17 89 14 90 16 91 15 92
REMARK H PARENT 3 5 82 23 50 34 7 75
REMARK Flexibility Score: inf
ROOT
ATOM      1  C   UNL A   1      33.074  29.200  25.269  1.00  0.00     0.118 C 
ENDROOT
BRANCH   1   2
ATOM      2  N   UNL A   1      32.624  30.467  25.853  1.00  0.00    -0.352 N 
ATOM      3  O   UNL A   1      32.379  32.197  27.252  1.00  0.00    -0.269 OA
ATOM      4  C   UNL A   1      33.087  31.259  26.881  1.00  0.00     0.251 C 
ATOM      5  H   UNL A   1      31.819  30.829  25.417  1.00  0.00     0.163 HD
BRANCH   4   6
ATOM      6  C   UNL A   1      34.378  30.996  27.559  1.00  0.00     0.039 A 
ATOM      7  C   UNL A   1      34.708  29.719  27.989  1.00  0.00     0.014 A 
ATOM      8  C   UNL A   1      35.307  32.030  27.745  1.00  0.00     0.014 A 
ATOM      9  C   UNL A   1      35.791  29.520  28.826  1.00  0.00     0.010 A 
ATOM     10  C   UNL A   1      36.508  31.784  28.428  1.00  0.00     0.010 A 
ATOM     11  C   UNL A   1      36.739  30.533  29.016  1.00  0.00    -0.014 A 
BRANCH  11  12
ATOM     12  C   UNL A   1      37.988  30.179  29.741  1.00  0.00     0.031 A 
ATOM     13  C   UNL A   1      38.246  30.636  31.148  1.00  0.00     0.074 A 
ATOM     14  C   UNL A   1      38.866  29.361  29.121  1.00  0.00     0.049 A 
ATOM     15  N   UNL A   1      39.241  30.322  31.937  1.00  0.00    -0.248 NA
ATOM     16  C   UNL A   1      37.280  31.570  31.749  1.00  0.00     0.031 C 
ATOM     17  C   UNL A   1      38.740  28.888  27.736  1.00  0.00     0.029 A 
ATOM     18  N   UNL A   1      40.009  28.751  29.567  1.00  0.00    -0.354 N 
ATOM     19  C   UNL A   1      39.051  31.051  33.104  1.00  0.00     0.074 A 
ATOM     20  C   UNL A   1      37.844  31.829  32.921  1.00  0.00     0.031 C 
ATOM     21  C   UNL A   1      39.713  28.008  27.475  1.00  0.00     0.029 A 
ATOM     22  C   UNL A   1      40.589  27.923  28.633  1.00  0.00     0.049 A 
ATOM     23  H   UNL A   1      40.378  28.890  30.469  1.00  0.00     0.167 HD
ATOM     24  C   UNL A   1      39.809  31.061  34.227  1.00  0.00     0.034 A 
ATOM     25  C   UNL A   1      41.717  27.191  28.686  1.00  0.00     0.034 A 
ATOM     26  C   UNL A   1      40.988  30.255  34.411  1.00  0.00     0.049 A 
ATOM     27  C   UNL A   1      42.519  27.207  29.952  1.00  0.00     0.074 A 
ATOM     28  C   UNL A   1      41.793  30.151  35.532  1.00  0.00     0.029 A 
ATOM     29  N   UNL A   1      41.538  29.421  33.448  1.00  0.00    -0.354 N 
ATOM     30  N   UNL A   1      42.257  27.816  31.083  1.00  0.00    -0.248 NA
ATOM     31  C   UNL A   1      43.759  26.422  29.959  1.00  0.00     0.031 C 
ATOM     32  C   UNL A   1      42.845  29.278  35.237  1.00  0.00     0.029 A 
ATOM     33  C   UNL A   1      42.680  28.812  33.944  1.00  0.00     0.049 A 
ATOM     34  H   UNL A   1      41.172  29.284  32.544  1.00  0.00     0.167 HD
ATOM     35  C   UNL A   1      43.291  27.476  31.944  1.00  0.00     0.074 A 
ATOM     36  C   UNL A   1      44.163  26.578  31.212  1.00  0.00     0.031 C 
ATOM     37  C   UNL A   1      43.511  27.888  33.215  1.00  0.00     0.034 A 
BRANCH  24  38
ATOM     38  C   UNL A   1      39.378  31.955  35.364  1.00  0.00     0.023 A 
ATOM     39  C   UNL A   1      39.701  33.326  35.339  1.00  0.00     0.012 A 
ATOM     40  C   UNL A   1      38.589  31.451  36.418  1.00  0.00     0.148 A 
ATOM     41  C   UNL A   1      39.271  34.176  36.358  1.00  0.00     0.002 A 
ATOM     42  C   UNL A   1      38.128  32.312  37.407  1.00  0.00     0.091 A 
ATOM     43  F   UNL A   1      38.307  30.140  36.435  1.00  0.00    -0.205 F 
ATOM     44  C   UNL A   1      38.477  33.673  37.383  1.00  0.00     0.022 A 
BRANCH  42  45
ATOM     45  S   UNL A   1      37.032  31.778  38.727  1.00  0.00     0.127 S 
ATOM     46  O   UNL A   1      37.841  32.056  39.913  1.00  0.00    -0.237 OA
ATOM     47  O   UNL A   1      35.883  32.665  38.552  1.00  0.00    -0.237 OA
ATOM     48  O   UNL A   1      36.756  30.370  38.475  1.00  0.00    -0.744 OA
ENDBRANCH  42  45
ENDBRANCH  24  38
BRANCH  25  49
ATOM     49  C   UNL A   1      42.133  26.382  27.506  1.00  0.00     0.023 A 
ATOM     50  C   UNL A   1      42.931  26.965  26.504  1.00  0.00     0.012 A 
ATOM     51  C   UNL A   1      41.779  25.022  27.399  1.00  0.00     0.148 A 
ATOM     52  C   UNL A   1      43.348  26.213  25.404  1.00  0.00     0.002 A 
ATOM     53  C   UNL A   1      42.254  24.263  26.337  1.00  0.00     0.091 A 
ATOM     54  F   UNL A   1      41.005  24.489  28.355  1.00  0.00    -0.205 F 
ATOM     55  C   UNL A   1      43.023  24.861  25.328  1.00  0.00     0.022 A 
BRANCH  53  56
ATOM     56  S   UNL A   1      42.011  22.486  26.250  1.00  0.00     0.127 S 
ATOM     57  O   UNL A   1      42.694  22.152  25.003  1.00  0.00    -0.237 OA
ATOM     58  O   UNL A   1      42.687  22.027  27.466  1.00  0.00    -0.237 OA
ATOM     59  O   UNL A   1      40.568  22.288  26.261  1.00  0.00    -0.744 OA
ENDBRANCH  53  56
ENDBRANCH  25  49
BRANCH  37  60
ATOM     60  C   UNL A   1      44.734  27.348  33.907  1.00  0.00     0.023 A 
ATOM     61  C   UNL A   1      45.955  28.046  33.817  1.00  0.00     0.012 A 
ATOM     62  C   UNL A   1      44.659  26.177  34.685  1.00  0.00     0.148 A 
ATOM     63  C   UNL A   1      47.093  27.564  34.462  1.00  0.00     0.002 A 
ATOM     64  C   UNL A   1      45.784  25.732  35.367  1.00  0.00     0.091 A 
ATOM     65  F   UNL A   1      43.493  25.517  34.738  1.00  0.00    -0.205 F 
ATOM     66  C   UNL A   1      47.006  26.416  35.246  1.00  0.00     0.022 A 
BRANCH  64  67
ATOM     67  S   UNL A   1      45.741  24.319  36.473  1.00  0.00     0.127 S 
ATOM     68  O   UNL A   1      47.123  24.271  36.949  1.00  0.00    -0.237 OA
ATOM     69  O   UNL A   1      44.764  24.739  37.477  1.00  0.00    -0.237 OA
ATOM     70  O   UNL A   1      45.322  23.186  35.659  1.00  0.00    -0.744 OA
ENDBRANCH  64  67
ENDBRANCH  37  60
ENDBRANCH  11  12
ENDBRANCH   4   6
ENDBRANCH   1   2
BRANCH   1  71
ATOM     71  C   UNL A   1      32.217  28.006  25.641  1.00  0.00     0.042 C 
BRANCH  71  72
ATOM     72  C   UNL A   1      31.737  27.200  24.463  1.00  0.00     0.117 C 
BRANCH  72  73
ATOM     73  N   UNL A   1      32.573  27.170  23.303  1.00  0.00    -0.356 N 
ATOM     74  C   UNL A   1      33.222  26.079  22.807  1.00  0.00     0.227 C 
ATOM     75  H   UNL A   1      32.690  28.018  22.817  1.00  0.00     0.163 HD
ATOM     76  O   UNL A   1      33.653  26.209  21.656  1.00  0.00    -0.274 OA
BRANCH  74  77
ATOM     77  C   UNL A   1      33.501  24.801  23.660  1.00  0.00     0.061 C 
ATOM     78  C   UNL A   1      34.441  23.888  22.773  1.00  0.00     0.053 C 
ATOM     79  C   UNL A   1      34.421  25.203  24.853  1.00  0.00     0.053 C 
ATOM     80  C   UNL A   1      35.392  23.315  23.772  1.00  0.00    -0.044 A 
ATOM     81  C   UNL A   1      35.376  24.052  24.956  1.00  0.00    -0.044 A 
ATOM     82  C   UNL A   1      36.267  22.259  23.586  1.00  0.00     0.004 A 
ATOM     83  C   UNL A   1      36.238  23.736  25.993  1.00  0.00     0.004 A 
ATOM     84  C   UNL A   1      37.134  21.930  24.625  1.00  0.00     0.000 A 
ATOM     85  C   UNL A   1      37.117  22.661  25.824  1.00  0.00     0.000 A 
BRANCH  77  86
ATOM     86  C   UNL A   1      32.252  23.885  24.024  1.00  0.00     0.053 C 
BRANCH  86  87
ATOM     87  C   UNL A   1      32.256  22.363  23.946  1.00  0.00    -0.044 A 
ATOM     88  C   UNL A   1      32.548  21.590  25.083  1.00  0.00     0.024 A 
ATOM     89  C   UNL A   1      31.991  21.670  22.759  1.00  0.00     0.024 A 
ATOM     90  C   UNL A   1      32.704  20.215  24.956  1.00  0.00     0.111 A 
ATOM     91  C   UNL A   1      32.154  20.289  22.731  1.00  0.00     0.111 A 
ATOM     92  N   UNL A   1      32.528  19.553  23.796  1.00  0.00    -0.265 NA
ENDBRANCH  86  87
ENDBRANCH  77  86
ENDBRANCH  74  77
ENDBRANCH  72  73
ENDBRANCH  71  72
ENDBRANCH   1  71
TORSDOF 15
ENDMDL
