MODEL 1
REMARK VINA RESULT:     -13.1      0.000      0.000
REMARK SMILES O=C(NCCCNC(=O)[C@H]1C[C@H](O)CN1S(=O)(=O)c1ccc2c(c1)OCCO2)c1ccc(-c2c3nc(c(-c4cccc(S(=O)(=O)[O-])c4F)c4ccc([nH]4)c(-c4cccc(S(=O)(=O)[O-])c4F)c4nc(c(-c5cccc(S(=O)(=O)[O-])c5F)c5ccc2[nH]5)C=C4)C=C3)cc1
REMARK SMILES IDX 4 1 3 2 1 3 2 4 29 6 30 7 91 8 31 9 90 10 32 11 33 12 34 13
REMARK SMILES IDX 84 14 35 15 89 16 83 17 85 18 36 19 88 20 82 21 81 22 37 24
REMARK SMILES IDX 69 25 49 26 68 27 50 28 53 29 67 30 86 31 51 32 52 33 66 35
REMARK SMILES IDX 87 36 54 37 38 38 39 39 47 40 40 41 42 42 48 43 41 44 43 45
REMARK SMILES IDX 44 46 45 47 46 48 70 49 71 50 79 51 72 52 74 53 80 54 73 55
REMARK SMILES IDX 75 56 76 57 77 58 78 59 55 60 56 61 64 62 57 63 59 64 65 65
REMARK SMILES IDX 58 66 60 67 61 68 62 69 63 70 5 71 6 72 7 73 8 74 9 76 10 77
REMARK SMILES IDX 11 78 15 79 12 80 14 81 16 82 17 83 18 84 19 85 20 86 24 87
REMARK SMILES IDX 21 88 23 89 22 90 25 91 28 92 26 93 27 94 13 95
REMARK H PARENT 3 5 85 23 53 34 7 75 13 96
REMARK Flexibility Score: inf
ROOT
ATOM      1  C   UNL A   1      32.784  29.300  25.711  1.00  0.00     0.118 C 
ENDROOT
BRANCH   1   2
ATOM      2  N   UNL A   1      32.302  30.626  26.108  1.00  0.00    -0.352 N 
ATOM      3  O   UNL A   1      32.203  32.531  27.319  1.00  0.00    -0.269 OA
ATOM      4  C   UNL A   1      32.840  31.534  26.992  1.00  0.00     0.251 C 
ATOM      5  H   UNL A   1      31.464  30.911  25.677  1.00  0.00     0.163 HD
BRANCH   4   6
ATOM      6  C   UNL A   1      34.174  31.273  27.566  1.00  0.00     0.039 A 
ATOM      7  C   UNL A   1      34.501  29.983  27.976  1.00  0.00     0.014 A 
ATOM      8  C   UNL A   1      35.081  32.322  27.745  1.00  0.00     0.014 A 
ATOM      9  C   UNL A   1      35.614  29.787  28.771  1.00  0.00     0.010 A 
ATOM     10  C   UNL A   1      36.284  32.084  28.417  1.00  0.00     0.010 A 
ATOM     11  C   UNL A   1      36.539  30.824  28.974  1.00  0.00    -0.014 A 
BRANCH  11  12
ATOM     12  C   UNL A   1      37.792  30.495  29.699  1.00  0.00     0.031 A 
ATOM     13  C   UNL A   1      38.020  30.902  31.126  1.00  0.00     0.074 A 
ATOM     14  C   UNL A   1      38.697  29.731  29.052  1.00  0.00     0.049 A 
ATOM     15  N   UNL A   1      39.016  30.589  31.913  1.00  0.00    -0.248 NA
ATOM     16  C   UNL A   1      37.019  31.781  31.754  1.00  0.00     0.031 C 
ATOM     17  C   UNL A   1      38.595  29.327  27.644  1.00  0.00     0.029 A 
ATOM     18  N   UNL A   1      39.841  29.117  29.485  1.00  0.00    -0.354 N 
ATOM     19  C   UNL A   1      38.794  31.267  33.105  1.00  0.00     0.074 A 
ATOM     20  C   UNL A   1      37.563  32.009  32.944  1.00  0.00     0.031 C 
ATOM     21  C   UNL A   1      39.575  28.464  27.358  1.00  0.00     0.029 A 
ATOM     22  C   UNL A   1      40.423  28.313  28.532  1.00  0.00     0.049 A 
ATOM     23  H   UNL A   1      40.210  29.238  30.389  1.00  0.00     0.167 HD
ATOM     24  C   UNL A   1      39.546  31.258  34.232  1.00  0.00     0.034 A 
ATOM     25  C   UNL A   1      41.522  27.538  28.592  1.00  0.00     0.034 A 
ATOM     26  C   UNL A   1      40.744  30.475  34.392  1.00  0.00     0.049 A 
ATOM     27  C   UNL A   1      42.280  27.481  29.883  1.00  0.00     0.074 A 
ATOM     28  C   UNL A   1      41.570  30.380  35.499  1.00  0.00     0.029 A 
ATOM     29  N   UNL A   1      41.283  29.642  33.422  1.00  0.00    -0.354 N 
ATOM     30  N   UNL A   1      42.005  28.068  31.022  1.00  0.00    -0.248 NA
ATOM     31  C   UNL A   1      43.489  26.649  29.904  1.00  0.00     0.031 C 
ATOM     32  C   UNL A   1      42.605  29.488  35.198  1.00  0.00     0.029 A 
ATOM     33  C   UNL A   1      42.423  29.023  33.906  1.00  0.00     0.049 A 
ATOM     34  H   UNL A   1      40.908  29.510  32.521  1.00  0.00     0.167 HD
ATOM     35  C   UNL A   1      43.013  27.687  31.895  1.00  0.00     0.074 A 
ATOM     36  C   UNL A   1      43.870  26.771  31.167  1.00  0.00     0.031 C 
ATOM     37  C   UNL A   1      43.237  28.091  33.170  1.00  0.00     0.034 A 
BRANCH  24  38
ATOM     38  C   UNL A   1      39.075  32.080  35.403  1.00  0.00     0.023 A 
ATOM     39  C   UNL A   1      39.213  33.481  35.364  1.00  0.00     0.012 A 
ATOM     40  C   UNL A   1      38.425  31.479  36.501  1.00  0.00     0.148 A 
ATOM     41  C   UNL A   1      38.728  34.273  36.405  1.00  0.00     0.002 A 
ATOM     42  C   UNL A   1      37.914  32.278  37.519  1.00  0.00     0.091 A 
ATOM     43  F   UNL A   1      38.321  30.143  36.531  1.00  0.00    -0.205 F 
ATOM     44  C   UNL A   1      38.069  33.673  37.476  1.00  0.00     0.022 A 
BRANCH  42  45
ATOM     45  S   UNL A   1      36.993  31.609  38.910  1.00  0.00     0.127 S 
ATOM     46  O   UNL A   1      36.769  30.229  38.479  1.00  0.00    -0.237 OA
ATOM     47  O   UNL A   1      37.944  31.756  40.012  1.00  0.00    -0.237 OA
ATOM     48  O   UNL A   1      35.795  32.429  39.029  1.00  0.00    -0.744 OA
ENDBRANCH  42  45
ENDBRANCH  24  38
BRANCH  25  49
ATOM     49  C   UNL A   1      41.923  26.739  27.400  1.00  0.00     0.023 A 
ATOM     50  C   UNL A   1      42.689  27.340  26.383  1.00  0.00     0.012 A 
ATOM     51  C   UNL A   1      41.627  25.365  27.313  1.00  0.00     0.148 A 
ATOM     52  C   UNL A   1      43.141  26.587  25.297  1.00  0.00     0.002 A 
ATOM     53  C   UNL A   1      42.142  24.608  26.268  1.00  0.00     0.091 A 
ATOM     54  F   UNL A   1      40.876  24.809  28.274  1.00  0.00    -0.205 F 
ATOM     55  C   UNL A   1      42.885  25.219  25.249  1.00  0.00     0.022 A 
BRANCH  53  56
ATOM     56  S   UNL A   1      41.995  22.817  26.272  1.00  0.00     0.127 S 
ATOM     57  O   UNL A   1      42.638  22.456  25.013  1.00  0.00    -0.237 OA
ATOM     58  O   UNL A   1      42.738  22.439  27.476  1.00  0.00    -0.237 OA
ATOM     59  O   UNL A   1      40.561  22.571  26.365  1.00  0.00    -0.744 OA
ENDBRANCH  53  56
ENDBRANCH  25  49
BRANCH  37  60
ATOM     60  C   UNL A   1      44.473  27.556  33.838  1.00  0.00     0.023 A 
ATOM     61  C   UNL A   1      45.673  28.287  33.742  1.00  0.00     0.012 A 
ATOM     62  C   UNL A   1      44.443  26.362  34.578  1.00  0.00     0.148 A 
ATOM     63  C   UNL A   1      46.837  27.818  34.345  1.00  0.00     0.002 A 
ATOM     64  C   UNL A   1      45.599  25.920  35.212  1.00  0.00     0.091 A 
ATOM     65  F   UNL A   1      43.297  25.667  34.635  1.00  0.00    -0.205 F 
ATOM     66  C   UNL A   1      46.798  26.640  35.089  1.00  0.00     0.022 A 
BRANCH  64  67
ATOM     67  S   UNL A   1      45.605  24.453  36.246  1.00  0.00     0.127 S 
ATOM     68  O   UNL A   1      45.423  23.390  35.260  1.00  0.00    -0.237 OA
ATOM     69  O   UNL A   1      46.935  24.499  36.856  1.00  0.00    -0.237 OA
ATOM     70  O   UNL A   1      44.509  24.638  37.189  1.00  0.00    -0.744 OA
ENDBRANCH  64  67
ENDBRANCH  37  60
ENDBRANCH  11  12
ENDBRANCH   4   6
ENDBRANCH   1   2
BRANCH   1  71
ATOM     71  C   UNL A   1      31.935  28.172  26.265  1.00  0.00     0.042 C 
BRANCH  71  72
ATOM     72  C   UNL A   1      32.648  26.845  26.172  1.00  0.00     0.117 C 
BRANCH  72  73
ATOM     73  N   UNL A   1      31.894  25.733  26.706  1.00  0.00    -0.355 N 
ATOM     74  C   UNL A   1      32.214  24.411  26.760  1.00  0.00     0.238 C 
ATOM     75  H   UNL A   1      31.017  25.967  27.089  1.00  0.00     0.163 HD
ATOM     76  O   UNL A   1      31.453  23.679  27.402  1.00  0.00    -0.273 OA
BRANCH  74  77
ATOM     77  C   UNL A   1      33.374  23.809  25.972  1.00  0.00     0.165 C 
ATOM     78  C   UNL A   1      34.322  23.023  26.890  1.00  0.00     0.063 C 
ATOM     79  N   UNL A   1      33.194  22.992  24.735  1.00  0.00    -0.183 NA
ATOM     80  C   UNL A   1      34.414  21.627  26.310  1.00  0.00     0.131 C 
ATOM     81  C   UNL A   1      34.025  21.778  24.844  1.00  0.00     0.135 C 
BRANCH  79  82
ATOM     82  S   UNL A   1      31.705  23.013  23.951  1.00  0.00     0.244 S 
ATOM     83  O   UNL A   1      31.774  22.171  22.776  1.00  0.00    -0.207 OA
ATOM     84  O   UNL A   1      30.687  22.801  24.953  1.00  0.00    -0.207 OA
BRANCH  82  85
ATOM     85  C   UNL A   1      31.479  24.640  23.277  1.00  0.00     0.086 A 
ATOM     86  C   UNL A   1      32.556  25.321  22.705  1.00  0.00     0.026 A 
ATOM     87  C   UNL A   1      30.299  25.324  23.594  1.00  0.00     0.072 A 
ATOM     88  C   UNL A   1      32.441  26.692  22.445  1.00  0.00     0.052 A 
ATOM     89  C   UNL A   1      30.170  26.667  23.280  1.00  0.00     0.162 A 
ATOM     90  C   UNL A   1      31.256  27.365  22.746  1.00  0.00     0.161 A 
ATOM     91  O   UNL A   1      28.961  27.242  23.569  1.00  0.00    -0.486 OA
ATOM     92  O   UNL A   1      31.225  28.719  22.521  1.00  0.00    -0.486 OA
ATOM     93  C   UNL A   1      28.844  28.526  22.950  1.00  0.00     0.271 C 
ATOM     94  C   UNL A   1      30.110  29.331  23.190  1.00  0.00     0.271 C 
ENDBRANCH  82  85
ENDBRANCH  79  82
BRANCH  80  95
ATOM     95  O   UNL A   1      35.737  21.119  26.439  1.00  0.00    -0.392 OA
ATOM     96  H   UNL A   1      35.884  20.829  27.353  1.00  0.00     0.211 HD
ENDBRANCH  80  95
ENDBRANCH  74  77
ENDBRANCH  72  73
ENDBRANCH  71  72
ENDBRANCH   1  71
TORSDOF 16
ENDMDL
MODEL 2
REMARK VINA RESULT:     -13.0      1.413      3.432
REMARK SMILES O=C(NCCCNC(=O)[C@H]1C[C@H](O)CN1S(=O)(=O)c1ccc2c(c1)OCCO2)c1ccc(-c2c3nc(c(-c4cccc(S(=O)(=O)[O-])c4F)c4ccc([nH]4)c(-c4cccc(S(=O)(=O)[O-])c4F)c4nc(c(-c5cccc(S(=O)(=O)[O-])c5F)c5ccc2[nH]5)C=C4)C=C3)cc1
REMARK SMILES IDX 4 1 3 2 1 3 2 4 29 6 30 7 91 8 31 9 90 10 32 11 33 12 34 13
REMARK SMILES IDX 84 14 35 15 89 16 83 17 85 18 36 19 88 20 82 21 81 22 37 24
REMARK SMILES IDX 69 25 49 26 68 27 50 28 53 29 67 30 86 31 51 32 52 33 66 35
REMARK SMILES IDX 87 36 54 37 38 38 39 39 47 40 40 41 42 42 48 43 41 44 43 45
REMARK SMILES IDX 44 46 45 47 46 48 70 49 71 50 79 51 72 52 74 53 80 54 73 55
REMARK SMILES IDX 75 56 76 57 77 58 78 59 55 60 56 61 64 62 57 63 59 64 65 65
REMARK SMILES IDX 58 66 60 67 61 68 62 69 63 70 5 71 6 72 7 73 8 74 9 76 10 77
REMARK SMILES IDX 11 78 15 79 12 80 14 81 16 82 17 83 18 84 19 85 20 86 24 87
REMARK SMILES IDX 21 88 23 89 22 90 25 91 28 92 26 93 27 94 13 95
REMARK H PARENT 3 5 85 23 53 34 7 75 13 96
REMARK Flexibility Score: inf
ROOT
ATOM      1  C   UNL A   1      32.894  28.917  25.824  1.00  0.00     0.118 C 
ENDROOT
BRANCH   1   2
ATOM      2  N   UNL A   1      32.439  30.278  26.121  1.00  0.00    -0.352 N 
ATOM      3  O   UNL A   1      32.385  32.272  27.182  1.00  0.00    -0.269 OA
ATOM      4  C   UNL A   1      33.000  31.241  26.930  1.00  0.00     0.251 C 
ATOM      5  H   UNL A   1      31.604  30.546  25.673  1.00  0.00     0.163 HD
BRANCH   4   6
ATOM      6  C   UNL A   1      34.332  30.999  27.515  1.00  0.00     0.039 A 
ATOM      7  C   UNL A   1      34.645  29.731  28.001  1.00  0.00     0.014 A 
ATOM      8  C   UNL A   1      35.252  32.045  27.631  1.00  0.00     0.014 A 
ATOM      9  C   UNL A   1      35.758  29.569  28.804  1.00  0.00     0.010 A 
ATOM     10  C   UNL A   1      36.454  31.833  28.313  1.00  0.00     0.010 A 
ATOM     11  C   UNL A   1      36.696  30.605  28.944  1.00  0.00    -0.014 A 
BRANCH  11  12
ATOM     12  C   UNL A   1      37.947  30.305  29.684  1.00  0.00     0.031 A 
ATOM     13  C   UNL A   1      38.156  30.739  31.106  1.00  0.00     0.074 A 
ATOM     14  C   UNL A   1      38.867  29.542  29.058  1.00  0.00     0.049 A 
ATOM     15  N   UNL A   1      39.150  30.452  31.907  1.00  0.00    -0.248 NA
ATOM     16  C   UNL A   1      37.139  31.614  31.711  1.00  0.00     0.031 C 
ATOM     17  C   UNL A   1      38.782  29.114  27.656  1.00  0.00     0.029 A 
ATOM     18  N   UNL A   1      40.015  28.951  29.511  1.00  0.00    -0.354 N 
ATOM     19  C   UNL A   1      38.909  31.146  33.086  1.00  0.00     0.074 A 
ATOM     20  C   UNL A   1      37.669  31.869  32.902  1.00  0.00     0.031 C 
ATOM     21  C   UNL A   1      39.776  28.260  27.393  1.00  0.00     0.029 A 
ATOM     22  C   UNL A   1      40.616  28.139  28.577  1.00  0.00     0.049 A 
ATOM     23  H   UNL A   1      40.375  29.092  30.416  1.00  0.00     0.167 HD
ATOM     24  C   UNL A   1      39.651  31.166  34.219  1.00  0.00     0.034 A 
ATOM     25  C   UNL A   1      41.724  27.380  28.658  1.00  0.00     0.034 A 
ATOM     26  C   UNL A   1      40.858  30.401  34.403  1.00  0.00     0.049 A 
ATOM     27  C   UNL A   1      42.472  27.354  29.957  1.00  0.00     0.074 A 
ATOM     28  C   UNL A   1      41.675  30.336  35.518  1.00  0.00     0.029 A 
ATOM     29  N   UNL A   1      41.416  29.560  33.451  1.00  0.00    -0.354 N 
ATOM     30  N   UNL A   1      42.179  27.956  31.084  1.00  0.00    -0.248 NA
ATOM     31  C   UNL A   1      43.691  26.538  30.002  1.00  0.00     0.031 C 
ATOM     32  C   UNL A   1      42.725  29.453  35.241  1.00  0.00     0.029 A 
ATOM     33  C   UNL A   1      42.560  28.965  33.955  1.00  0.00     0.049 A 
ATOM     34  H   UNL A   1      41.050  29.408  32.549  1.00  0.00     0.167 HD
ATOM     35  C   UNL A   1      43.184  27.603  31.972  1.00  0.00     0.074 A 
ATOM     36  C   UNL A   1      44.060  26.687  31.266  1.00  0.00     0.031 C 
ATOM     37  C   UNL A   1      43.392  28.031  33.242  1.00  0.00     0.034 A 
BRANCH  24  38
ATOM     38  C   UNL A   1      39.159  32.001  35.372  1.00  0.00     0.023 A 
ATOM     39  C   UNL A   1      39.292  33.401  35.317  1.00  0.00     0.012 A 
ATOM     40  C   UNL A   1      38.495  31.411  36.468  1.00  0.00     0.148 A 
ATOM     41  C   UNL A   1      38.787  34.205  36.341  1.00  0.00     0.002 A 
ATOM     42  C   UNL A   1      37.966  32.221  37.468  1.00  0.00     0.091 A 
ATOM     43  F   UNL A   1      38.397  30.076  36.514  1.00  0.00    -0.205 F 
ATOM     44  C   UNL A   1      38.116  33.616  37.409  1.00  0.00     0.022 A 
BRANCH  42  45
ATOM     45  S   UNL A   1      37.027  31.566  38.854  1.00  0.00     0.127 S 
ATOM     46  O   UNL A   1      36.803  30.184  38.431  1.00  0.00    -0.237 OA
ATOM     47  O   UNL A   1      37.967  31.718  39.965  1.00  0.00    -0.237 OA
ATOM     48  O   UNL A   1      35.831  32.391  38.953  1.00  0.00    -0.744 OA
ENDBRANCH  42  45
ENDBRANCH  24  38
BRANCH  25  49
ATOM     49  C   UNL A   1      42.146  26.567  27.484  1.00  0.00     0.023 A 
ATOM     50  C   UNL A   1      43.012  27.124  26.524  1.00  0.00     0.012 A 
ATOM     51  C   UNL A   1      41.768  25.216  27.361  1.00  0.00     0.148 A 
ATOM     52  C   UNL A   1      43.481  26.353  25.458  1.00  0.00     0.002 A 
ATOM     53  C   UNL A   1      42.296  24.436  26.340  1.00  0.00     0.091 A 
ATOM     54  F   UNL A   1      40.923  24.702  28.267  1.00  0.00    -0.205 F 
ATOM     55  C   UNL A   1      43.140  25.005  25.377  1.00  0.00     0.022 A 
BRANCH  53  56
ATOM     56  S   UNL A   1      42.033  22.659  26.312  1.00  0.00     0.127 S 
ATOM     57  O   UNL A   1      40.577  22.566  26.339  1.00  0.00    -0.237 OA
ATOM     58  O   UNL A   1      42.654  22.264  25.046  1.00  0.00    -0.237 OA
ATOM     59  O   UNL A   1      42.738  22.168  27.491  1.00  0.00    -0.744 OA
ENDBRANCH  53  56
ENDBRANCH  25  49
BRANCH  37  60
ATOM     60  C   UNL A   1      44.629  27.523  33.928  1.00  0.00     0.023 A 
ATOM     61  C   UNL A   1      45.823  28.263  33.822  1.00  0.00     0.012 A 
ATOM     62  C   UNL A   1      44.606  26.347  34.697  1.00  0.00     0.148 A 
ATOM     63  C   UNL A   1      46.988  27.820  34.443  1.00  0.00     0.002 A 
ATOM     64  C   UNL A   1      45.762  25.931  35.347  1.00  0.00     0.091 A 
ATOM     65  F   UNL A   1      43.466  25.642  34.763  1.00  0.00    -0.205 F 
ATOM     66  C   UNL A   1      46.955  26.659  35.213  1.00  0.00     0.022 A 
BRANCH  64  67
ATOM     67  S   UNL A   1      45.776  24.488  36.415  1.00  0.00     0.127 S 
ATOM     68  O   UNL A   1      45.427  23.420  35.481  1.00  0.00    -0.237 OA
ATOM     69  O   UNL A   1      47.161  24.456  36.889  1.00  0.00    -0.237 OA
ATOM     70  O   UNL A   1      44.795  24.767  37.456  1.00  0.00    -0.744 OA
ENDBRANCH  64  67
ENDBRANCH  37  60
ENDBRANCH  11  12
ENDBRANCH   4   6
ENDBRANCH   1   2
BRANCH   1  71
ATOM     71  C   UNL A   1      33.295  28.731  24.373  1.00  0.00     0.042 C 
BRANCH  71  72
ATOM     72  C   UNL A   1      33.512  27.274  24.040  1.00  0.00     0.117 C 
BRANCH  72  73
ATOM     73  N   UNL A   1      32.385  26.646  23.390  1.00  0.00    -0.355 N 
ATOM     74  C   UNL A   1      31.473  25.766  23.888  1.00  0.00     0.238 C 
ATOM     75  H   UNL A   1      32.256  26.891  22.445  1.00  0.00     0.163 HD
ATOM     76  O   UNL A   1      30.514  25.486  23.161  1.00  0.00    -0.273 OA
BRANCH  74  77
ATOM     77  C   UNL A   1      31.664  25.044  25.219  1.00  0.00     0.165 C 
ATOM     78  C   UNL A   1      30.354  25.000  26.021  1.00  0.00     0.063 C 
ATOM     79  N   UNL A   1      32.291  23.694  25.343  1.00  0.00    -0.183 NA
ATOM     80  C   UNL A   1      30.089  23.540  26.322  1.00  0.00     0.131 C 
ATOM     81  C   UNL A   1      31.448  22.858  26.218  1.00  0.00     0.135 C 
BRANCH  79  82
ATOM     82  S   UNL A   1      33.152  23.071  24.038  1.00  0.00     0.244 S 
ATOM     83  O   UNL A   1      32.243  22.834  22.937  1.00  0.00    -0.207 OA
ATOM     84  O   UNL A   1      34.325  23.893  23.863  1.00  0.00    -0.207 OA
BRANCH  82  85
ATOM     85  C   UNL A   1      33.690  21.438  24.483  1.00  0.00     0.086 A 
ATOM     86  C   UNL A   1      35.014  21.212  24.864  1.00  0.00     0.026 A 
ATOM     87  C   UNL A   1      32.854  20.361  24.162  1.00  0.00     0.072 A 
ATOM     88  C   UNL A   1      35.496  19.899  24.929  1.00  0.00     0.052 A 
ATOM     89  C   UNL A   1      33.319  19.062  24.285  1.00  0.00     0.162 A 
ATOM     90  C   UNL A   1      34.653  18.828  24.626  1.00  0.00     0.161 A 
ATOM     91  O   UNL A   1      32.416  18.069  24.010  1.00  0.00    -0.486 OA
ATOM     92  O   UNL A   1      35.198  17.569  24.653  1.00  0.00    -0.486 OA
ATOM     93  C   UNL A   1      32.907  16.797  24.442  1.00  0.00     0.271 C 
ATOM     94  C   UNL A   1      34.347  16.620  23.990  1.00  0.00     0.271 C 
ENDBRANCH  82  85
ENDBRANCH  79  82
BRANCH  80  95
ATOM     95  O   UNL A   1      29.540  23.391  27.626  1.00  0.00    -0.392 OA
ATOM     96  H   UNL A   1      28.714  23.896  27.688  1.00  0.00     0.211 HD
ENDBRANCH  80  95
ENDBRANCH  74  77
ENDBRANCH  72  73
ENDBRANCH  71  72
ENDBRANCH   1  71
TORSDOF 16
ENDMDL
MODEL 3
REMARK VINA RESULT:     -12.9      1.860      3.677
REMARK SMILES O=C(NCCCNC(=O)[C@H]1C[C@H](O)CN1S(=O)(=O)c1ccc2c(c1)OCCO2)c1ccc(-c2c3nc(c(-c4cccc(S(=O)(=O)[O-])c4F)c4ccc([nH]4)c(-c4cccc(S(=O)(=O)[O-])c4F)c4nc(c(-c5cccc(S(=O)(=O)[O-])c5F)c5ccc2[nH]5)C=C4)C=C3)cc1
REMARK SMILES IDX 4 1 3 2 1 3 2 4 29 6 30 7 91 8 31 9 90 10 32 11 33 12 34 13
REMARK SMILES IDX 84 14 35 15 89 16 83 17 85 18 36 19 88 20 82 21 81 22 37 24
REMARK SMILES IDX 69 25 49 26 68 27 50 28 53 29 67 30 86 31 51 32 52 33 66 35
REMARK SMILES IDX 87 36 54 37 38 38 39 39 47 40 40 41 42 42 48 43 41 44 43 45
REMARK SMILES IDX 44 46 45 47 46 48 70 49 71 50 79 51 72 52 74 53 80 54 73 55
REMARK SMILES IDX 75 56 76 57 77 58 78 59 55 60 56 61 64 62 57 63 59 64 65 65
REMARK SMILES IDX 58 66 60 67 61 68 62 69 63 70 5 71 6 72 7 73 8 74 9 76 10 77
REMARK SMILES IDX 11 78 15 79 12 80 14 81 16 82 17 83 18 84 19 85 20 86 24 87
REMARK SMILES IDX 21 88 23 89 22 90 25 91 28 92 26 93 27 94 13 95
REMARK H PARENT 3 5 85 23 53 34 7 75 13 96
REMARK Flexibility Score: inf
ROOT
ATOM      1  C   UNL A   1      33.172  29.182  25.498  1.00  0.00     0.118 C 
ENDROOT
BRANCH   1   2
ATOM      2  N   UNL A   1      32.611  30.437  26.005  1.00  0.00    -0.352 N 
ATOM      3  O   UNL A   1      32.388  32.214  27.383  1.00  0.00    -0.269 OA
ATOM      4  C   UNL A   1      33.084  31.288  26.979  1.00  0.00     0.251 C 
ATOM      5  H   UNL A   1      31.765  30.715  25.586  1.00  0.00     0.163 HD
BRANCH   4   6
ATOM      6  C   UNL A   1      34.422  31.048  27.553  1.00  0.00     0.039 A 
ATOM      7  C   UNL A   1      34.757  29.770  27.995  1.00  0.00     0.014 A 
ATOM      8  C   UNL A   1      35.325  32.104  27.701  1.00  0.00     0.014 A 
ATOM      9  C   UNL A   1      35.874  29.599  28.789  1.00  0.00     0.010 A 
ATOM     10  C   UNL A   1      36.533  31.889  28.373  1.00  0.00     0.010 A 
ATOM     11  C   UNL A   1      36.796  30.645  28.961  1.00  0.00    -0.014 A 
BRANCH  11  12
ATOM     12  C   UNL A   1      38.054  30.340  29.688  1.00  0.00     0.031 A 
ATOM     13  C   UNL A   1      38.282  30.777  31.106  1.00  0.00     0.074 A 
ATOM     14  C   UNL A   1      38.962  29.571  29.053  1.00  0.00     0.049 A 
ATOM     15  N   UNL A   1      39.284  30.487  31.896  1.00  0.00    -0.248 NA
ATOM     16  C   UNL A   1      37.277  31.660  31.720  1.00  0.00     0.031 C 
ATOM     17  C   UNL A   1      38.860  29.140  27.654  1.00  0.00     0.029 A 
ATOM     18  N   UNL A   1      40.113  28.976  29.495  1.00  0.00    -0.354 N 
ATOM     19  C   UNL A   1      39.060  31.186  33.075  1.00  0.00     0.074 A 
ATOM     20  C   UNL A   1      37.822  31.915  32.904  1.00  0.00     0.031 C 
ATOM     21  C   UNL A   1      39.846  28.280  27.382  1.00  0.00     0.029 A 
ATOM     22  C   UNL A   1      40.699  28.158  28.555  1.00  0.00     0.049 A 
ATOM     23  H   UNL A   1      40.484  29.117  30.395  1.00  0.00     0.167 HD
ATOM     24  C   UNL A   1      39.815  31.205  34.200  1.00  0.00     0.034 A 
ATOM     25  C   UNL A   1      41.804  27.394  28.626  1.00  0.00     0.034 A 
ATOM     26  C   UNL A   1      41.020  30.435  34.372  1.00  0.00     0.049 A 
ATOM     27  C   UNL A   1      42.567  27.368  29.916  1.00  0.00     0.074 A 
ATOM     28  C   UNL A   1      41.850  30.369  35.477  1.00  0.00     0.029 A 
ATOM     29  N   UNL A   1      41.563  29.588  33.416  1.00  0.00    -0.354 N 
ATOM     30  N   UNL A   1      42.290  27.974  31.045  1.00  0.00    -0.248 NA
ATOM     31  C   UNL A   1      43.782  26.546  29.949  1.00  0.00     0.031 C 
ATOM     32  C   UNL A   1      42.892  29.480  35.190  1.00  0.00     0.029 A 
ATOM     33  C   UNL A   1      42.709  28.989  33.908  1.00  0.00     0.049 A 
ATOM     34  H   UNL A   1      41.186  29.436  32.518  1.00  0.00     0.167 HD
ATOM     35  C   UNL A   1      43.304  27.619  31.921  1.00  0.00     0.074 A 
ATOM     36  C   UNL A   1      44.167  26.696  31.209  1.00  0.00     0.031 C 
ATOM     37  C   UNL A   1      43.529  28.048  33.188  1.00  0.00     0.034 A 
BRANCH  24  38
ATOM     38  C   UNL A   1      39.340  32.046  35.356  1.00  0.00     0.023 A 
ATOM     39  C   UNL A   1      38.480  31.478  36.315  1.00  0.00     0.012 A 
ATOM     40  C   UNL A   1      39.806  33.364  35.539  1.00  0.00     0.148 A 
ATOM     41  C   UNL A   1      38.075  32.211  37.431  1.00  0.00     0.002 A 
ATOM     42  C   UNL A   1      39.424  34.078  36.671  1.00  0.00     0.091 A 
ATOM     43  F   UNL A   1      40.607  33.895  34.605  1.00  0.00    -0.205 F 
ATOM     44  C   UNL A   1      38.555  33.506  37.614  1.00  0.00     0.022 A 
BRANCH  42  45
ATOM     45  S   UNL A   1      40.039  35.728  37.032  1.00  0.00     0.127 S 
ATOM     46  O   UNL A   1      41.479  35.493  37.121  1.00  0.00    -0.237 OA
ATOM     47  O   UNL A   1      39.616  36.482  35.851  1.00  0.00    -0.237 OA
ATOM     48  O   UNL A   1      39.393  36.133  38.273  1.00  0.00    -0.744 OA
ENDBRANCH  42  45
ENDBRANCH  24  38
BRANCH  25  49
ATOM     49  C   UNL A   1      42.209  26.575  27.449  1.00  0.00     0.023 A 
ATOM     50  C   UNL A   1      43.053  27.131  26.469  1.00  0.00     0.012 A 
ATOM     51  C   UNL A   1      41.835  25.222  27.342  1.00  0.00     0.148 A 
ATOM     52  C   UNL A   1      43.506  26.355  25.400  1.00  0.00     0.002 A 
ATOM     53  C   UNL A   1      42.348  24.438  26.316  1.00  0.00     0.091 A 
ATOM     54  F   UNL A   1      41.010  24.709  28.267  1.00  0.00    -0.205 F 
ATOM     55  C   UNL A   1      43.170  25.005  25.333  1.00  0.00     0.022 A 
BRANCH  53  56
ATOM     56  S   UNL A   1      42.094  22.659  26.304  1.00  0.00     0.127 S 
ATOM     57  O   UNL A   1      42.747  22.249  27.543  1.00  0.00    -0.237 OA
ATOM     58  O   UNL A   1      40.634  22.546  26.310  1.00  0.00    -0.237 OA
ATOM     59  O   UNL A   1      42.713  22.211  25.062  1.00  0.00    -0.744 OA
ENDBRANCH  53  56
ENDBRANCH  25  49
BRANCH  37  60
ATOM     60  C   UNL A   1      44.771  27.537  33.861  1.00  0.00     0.023 A 
ATOM     61  C   UNL A   1      45.961  28.284  33.762  1.00  0.00     0.012 A 
ATOM     62  C   UNL A   1      44.757  26.348  34.611  1.00  0.00     0.148 A 
ATOM     63  C   UNL A   1      47.130  27.837  34.371  1.00  0.00     0.002 A 
ATOM     64  C   UNL A   1      45.918  25.928  35.250  1.00  0.00     0.091 A 
ATOM     65  F   UNL A   1      43.621  25.637  34.672  1.00  0.00    -0.205 F 
ATOM     66  C   UNL A   1      47.107  26.665  35.124  1.00  0.00     0.022 A 
BRANCH  64  67
ATOM     67  S   UNL A   1      45.943  24.469  36.296  1.00  0.00     0.127 S 
ATOM     68  O   UNL A   1      45.965  23.393  35.308  1.00  0.00    -0.237 OA
ATOM     69  O   UNL A   1      47.191  24.636  37.045  1.00  0.00    -0.237 OA
ATOM     70  O   UNL A   1      44.740  24.557  37.114  1.00  0.00    -0.744 OA
ENDBRANCH  64  67
ENDBRANCH  37  60
ENDBRANCH  11  12
ENDBRANCH   4   6
ENDBRANCH   1   2
BRANCH   1  71
ATOM     71  C   UNL A   1      32.110  28.146  25.181  1.00  0.00     0.042 C 
BRANCH  71  72
ATOM     72  C   UNL A   1      32.334  26.869  25.956  1.00  0.00     0.117 C 
BRANCH  72  73
ATOM     73  N   UNL A   1      31.124  26.283  26.486  1.00  0.00    -0.355 N 
ATOM     74  C   UNL A   1      30.475  25.145  26.115  1.00  0.00     0.238 C 
ATOM     75  H   UNL A   1      30.708  26.780  27.227  1.00  0.00     0.163 HD
ATOM     76  O   UNL A   1      29.532  24.785  26.829  1.00  0.00    -0.273 OA
BRANCH  74  77
ATOM     77  C   UNL A   1      30.785  24.401  24.820  1.00  0.00     0.165 C 
ATOM     78  C   UNL A   1      30.609  25.314  23.597  1.00  0.00     0.063 C 
ATOM     79  N   UNL A   1      32.039  23.620  24.598  1.00  0.00    -0.183 NA
ATOM     80  C   UNL A   1      31.924  25.280  22.848  1.00  0.00     0.131 C 
ATOM     81  C   UNL A   1      32.596  23.983  23.282  1.00  0.00     0.135 C 
BRANCH  79  82
ATOM     82  S   UNL A   1      33.001  23.227  25.921  1.00  0.00     0.244 S 
ATOM     83  O   UNL A   1      34.208  24.025  25.886  1.00  0.00    -0.207 OA
ATOM     84  O   UNL A   1      32.151  23.224  27.088  1.00  0.00    -0.207 OA
BRANCH  82  85
ATOM     85  C   UNL A   1      33.598  21.573  25.675  1.00  0.00     0.086 A 
ATOM     86  C   UNL A   1      34.944  21.347  25.375  1.00  0.00     0.026 A 
ATOM     87  C   UNL A   1      32.655  20.553  25.497  1.00  0.00     0.072 A 
ATOM     88  C   UNL A   1      35.340  20.091  24.901  1.00  0.00     0.052 A 
ATOM     89  C   UNL A   1      33.062  19.295  25.085  1.00  0.00     0.162 A 
ATOM     90  C   UNL A   1      34.398  19.072  24.744  1.00  0.00     0.161 A 
ATOM     91  O   UNL A   1      32.083  18.342  24.997  1.00  0.00    -0.486 OA
ATOM     92  O   UNL A   1      34.838  17.881  24.222  1.00  0.00    -0.486 OA
ATOM     93  C   UNL A   1      32.650  17.037  24.847  1.00  0.00     0.271 C 
ATOM     94  C   UNL A   1      33.737  17.067  23.786  1.00  0.00     0.271 C 
ENDBRANCH  82  85
ENDBRANCH  79  82
BRANCH  80  95
ATOM     95  O   UNL A   1      31.699  25.296  21.443  1.00  0.00    -0.392 OA
ATOM     96  H   UNL A   1      31.107  26.031  21.219  1.00  0.00     0.211 HD
ENDBRANCH  80  95
ENDBRANCH  74  77
ENDBRANCH  72  73
ENDBRANCH  71  72
ENDBRANCH   1  71
TORSDOF 16
ENDMDL
