MODEL 1
REMARK VINA RESULT:     -12.4      0.000      0.000
REMARK SMILES Cc1cc(CNS(=O)(=O)c2ccc(C(=O)NCCCNC(=O)c3ccc(-c4c5nc(c(-c6cccc(S(=O)(=O)[O-])c6F)c6ccc([nH]6)c(-c6cccc(S(=O)(=O)[O-])c6F)c6nc(c(-c7cccc(S(=O)(=O)[O-])c7F)c7ccc4[nH]7)C=C6)C=C5)cc3)cc2F)no1
REMARK SMILES IDX 17 1 16 2 14 3 15 4 13 6 10 7 11 8 87 9 12 10 86 11 88 12
REMARK SMILES IDX 7 13 8 14 9 15 6 16 5 18 4 19 1 20 2 21 3 22 90 23 89 24
REMARK SMILES IDX 18 25 19 26 20 27 21 28 22 30 23 31 24 32 85 33 25 34 84 35
REMARK SMILES IDX 26 36 27 37 28 38 78 39 29 40 83 41 77 42 79 43 30 44 82 45
REMARK SMILES IDX 76 46 75 47 31 49 63 50 43 51 62 52 44 53 47 54 61 55 80 56
REMARK SMILES IDX 45 57 46 58 60 60 81 61 48 62 32 63 33 64 41 65 34 66 36 67
REMARK SMILES IDX 42 68 35 69 37 70 38 71 39 72 40 73 64 74 65 75 73 76 66 77
REMARK SMILES IDX 68 78 74 79 67 80 69 81 70 82 71 83 72 84 49 85 50 86 58 87
REMARK SMILES IDX 51 88 53 89 59 90 52 91 54 92 55 93 56 94 57 95
REMARK H PARENT 16 5 6 17 20 29 79 48 47 59
REMARK Flexibility Score: inf
ROOT
ATOM      1  C   UNL A   1      31.593  30.574  26.255  1.00  0.00     0.118 C 
ENDROOT
BRANCH   1   2
ATOM      2  N   UNL A   1      31.275  30.301  24.865  1.00  0.00    -0.352 N 
ATOM      3  C   UNL A   1      31.087  29.144  24.157  1.00  0.00     0.251 C 
ATOM      4  O   UNL A   1      30.739  29.256  22.981  1.00  0.00    -0.269 OA
ATOM      5  H   UNL A   1      31.176  31.113  24.319  1.00  0.00     0.163 HD
BRANCH   3   6
ATOM      6  C   UNL A   1      31.238  27.774  24.727  1.00  0.00     0.042 A 
ATOM      7  C   UNL A   1      31.331  25.137  25.694  1.00  0.00     0.118 A 
ATOM      8  C   UNL A   1      30.159  25.612  25.106  1.00  0.00     0.026 A 
ATOM      9  C   UNL A   1      32.440  25.963  25.793  1.00  0.00     0.144 A 
ATOM     10  C   UNL A   1      30.115  26.927  24.638  1.00  0.00     0.015 A 
ATOM     11  C   UNL A   1      32.411  27.261  25.283  1.00  0.00     0.054 A 
ATOM     12  F   UNL A   1      33.575  25.527  26.354  1.00  0.00    -0.205 F 
BRANCH   7  13
ATOM     13  S   UNL A   1      31.422  23.473  26.261  1.00  0.00     0.243 S 
ATOM     14  O   UNL A   1      30.245  22.790  25.760  1.00  0.00    -0.207 OA
ATOM     15  O   UNL A   1      31.718  23.524  27.672  1.00  0.00    -0.207 OA
BRANCH  13  16
ATOM     16  N   UNL A   1      32.736  22.803  25.481  1.00  0.00    -0.205 NA
ATOM     17  H   UNL A   1      32.399  22.417  24.600  1.00  0.00     0.141 HD
BRANCH  16  18
ATOM     18  C   UNL A   1      33.487  21.740  26.161  1.00  0.00     0.158 C 
BRANCH  18  19
ATOM     19  C   UNL A   1      33.283  20.464  25.414  1.00  0.00     0.099 A 
ATOM     20  C   UNL A   1      33.876  17.383  23.519  1.00  0.00     0.091 C 
ATOM     21  C   UNL A   1      33.528  18.601  24.273  1.00  0.00     0.133 A 
ATOM     22  C   UNL A   1      34.247  19.660  24.768  1.00  0.00     0.073 A 
ATOM     23  O   UNL A   1      32.216  18.761  24.590  1.00  0.00    -0.361 OA
ATOM     24  N   UNL A   1      32.055  19.936  25.306  1.00  0.00    -0.083 NA
ENDBRANCH  18  19
ENDBRANCH  16  18
ENDBRANCH  13  16
ENDBRANCH   7  13
ENDBRANCH   3   6
ENDBRANCH   1   2
BRANCH   1  25
ATOM     25  C   UNL A   1      31.560  32.073  26.554  1.00  0.00     0.042 C 
BRANCH  25  26
ATOM     26  C   UNL A   1      32.637  32.523  27.542  1.00  0.00     0.118 C 
BRANCH  26  27
ATOM     27  N   UNL A   1      32.602  33.962  27.764  1.00  0.00    -0.352 N 
ATOM     28  C   UNL A   1      33.324  34.734  28.641  1.00  0.00     0.251 C 
ATOM     29  H   UNL A   1      31.965  34.457  27.200  1.00  0.00     0.163 HD
ATOM     30  O   UNL A   1      32.992  35.903  28.824  1.00  0.00    -0.269 OA
BRANCH  28  31
ATOM     31  C   UNL A   1      34.488  34.175  29.364  1.00  0.00     0.039 A 
ATOM     32  C   UNL A   1      34.261  33.378  30.491  1.00  0.00     0.014 A 
ATOM     33  C   UNL A   1      35.796  34.476  28.975  1.00  0.00     0.014 A 
ATOM     34  C   UNL A   1      35.342  32.843  31.197  1.00  0.00     0.010 A 
ATOM     35  C   UNL A   1      36.873  33.899  29.647  1.00  0.00     0.010 A 
ATOM     36  C   UNL A   1      36.657  33.083  30.768  1.00  0.00    -0.014 A 
BRANCH  36  37
ATOM     37  C   UNL A   1      37.822  32.480  31.464  1.00  0.00     0.031 A 
ATOM     38  C   UNL A   1      38.562  31.326  30.845  1.00  0.00     0.074 A 
ATOM     39  C   UNL A   1      38.155  32.912  32.696  1.00  0.00     0.049 A 
ATOM     40  N   UNL A   1      39.537  30.610  31.344  1.00  0.00    -0.248 NA
ATOM     41  C   UNL A   1      38.136  30.904  29.501  1.00  0.00     0.031 C 
ATOM     42  C   UNL A   1      37.472  33.982  33.426  1.00  0.00     0.029 A 
ATOM     43  N   UNL A   1      39.130  32.487  33.563  1.00  0.00    -0.354 N 
ATOM     44  C   UNL A   1      39.814  29.632  30.397  1.00  0.00     0.074 A 
ATOM     45  C   UNL A   1      38.893  29.833  29.300  1.00  0.00     0.031 C 
ATOM     46  C   UNL A   1      38.048  34.127  34.631  1.00  0.00     0.029 A 
ATOM     47  C   UNL A   1      39.120  33.147  34.770  1.00  0.00     0.049 A 
ATOM     48  H   UNL A   1      39.775  31.777  33.342  1.00  0.00     0.167 HD
ATOM     49  C   UNL A   1      40.770  28.673  30.425  1.00  0.00     0.034 A 
ATOM     50  C   UNL A   1      39.883  32.978  35.868  1.00  0.00     0.034 A 
ATOM     51  C   UNL A   1      41.724  28.516  31.490  1.00  0.00     0.049 A 
ATOM     52  C   UNL A   1      40.973  31.941  35.852  1.00  0.00     0.074 A 
ATOM     53  C   UNL A   1      42.781  27.627  31.569  1.00  0.00     0.029 A 
ATOM     54  N   UNL A   1      41.742  29.265  32.656  1.00  0.00    -0.354 N 
ATOM     55  N   UNL A   1      41.308  31.116  34.890  1.00  0.00    -0.248 NA
ATOM     56  C   UNL A   1      41.811  31.832  37.056  1.00  0.00     0.031 C 
ATOM     57  C   UNL A   1      43.436  27.836  32.788  1.00  0.00     0.029 A 
ATOM     58  C   UNL A   1      42.791  28.860  33.461  1.00  0.00     0.049 A 
ATOM     59  H   UNL A   1      41.102  29.980  32.878  1.00  0.00     0.167 HD
ATOM     60  C   UNL A   1      42.409  30.409  35.360  1.00  0.00     0.074 A 
ATOM     61  C   UNL A   1      42.698  30.917  36.684  1.00  0.00     0.031 C 
ATOM     62  C   UNL A   1      43.103  29.414  34.754  1.00  0.00     0.034 A 
BRANCH  49  63
ATOM     63  C   UNL A   1      40.885  27.758  29.235  1.00  0.00     0.023 A 
ATOM     64  C   UNL A   1      40.080  26.603  29.177  1.00  0.00     0.012 A 
ATOM     65  C   UNL A   1      41.715  28.079  28.144  1.00  0.00     0.148 A 
ATOM     66  C   UNL A   1      40.115  25.768  28.061  1.00  0.00     0.002 A 
ATOM     67  C   UNL A   1      41.717  27.262  27.018  1.00  0.00     0.091 A 
ATOM     68  F   UNL A   1      42.490  29.170  28.228  1.00  0.00    -0.205 F 
ATOM     69  C   UNL A   1      40.923  26.104  26.978  1.00  0.00     0.022 A 
BRANCH  67  70
ATOM     70  S   UNL A   1      42.667  27.648  25.542  1.00  0.00     0.127 S 
ATOM     71  O   UNL A   1      44.016  27.790  26.089  1.00  0.00    -0.237 OA
ATOM     72  O   UNL A   1      42.465  26.451  24.723  1.00  0.00    -0.237 OA
ATOM     73  O   UNL A   1      42.081  28.863  24.995  1.00  0.00    -0.744 OA
ENDBRANCH  67  70
ENDBRANCH  49  63
BRANCH  50  74
ATOM     74  C   UNL A   1      39.692  33.881  37.039  1.00  0.00     0.023 A 
ATOM     75  C   UNL A   1      40.054  35.236  36.922  1.00  0.00     0.012 A 
ATOM     76  C   UNL A   1      39.090  33.430  38.230  1.00  0.00     0.148 A 
ATOM     77  C   UNL A   1      39.836  36.124  37.975  1.00  0.00     0.002 A 
ATOM     78  C   UNL A   1      38.827  34.331  39.256  1.00  0.00     0.091 A 
ATOM     79  F   UNL A   1      38.764  32.133  38.326  1.00  0.00    -0.205 F 
ATOM     80  C   UNL A   1      39.211  35.675  39.136  1.00  0.00     0.022 A 
BRANCH  78  81
ATOM     81  S   UNL A   1      37.906  33.869  40.729  1.00  0.00     0.127 S 
ATOM     82  O   UNL A   1      38.865  33.019  41.431  1.00  0.00    -0.237 OA
ATOM     83  O   UNL A   1      37.662  35.168  41.357  1.00  0.00    -0.237 OA
ATOM     84  O   UNL A   1      36.703  33.204  40.248  1.00  0.00    -0.744 OA
ENDBRANCH  78  81
ENDBRANCH  50  74
BRANCH  62  85
ATOM     85  C   UNL A   1      44.257  28.802  35.502  1.00  0.00     0.023 A 
ATOM     86  C   UNL A   1      45.542  29.362  35.368  1.00  0.00     0.012 A 
ATOM     87  C   UNL A   1      44.050  27.754  36.422  1.00  0.00     0.148 A 
ATOM     88  C   UNL A   1      46.607  28.880  36.127  1.00  0.00     0.002 A 
ATOM     89  C   UNL A   1      45.107  27.307  37.206  1.00  0.00     0.091 A 
ATOM     90  F   UNL A   1      42.823  27.221  36.521  1.00  0.00    -0.205 F 
ATOM     91  C   UNL A   1      46.388  27.864  37.055  1.00  0.00     0.022 A 
BRANCH  89  92
ATOM     92  S   UNL A   1      44.892  26.071  38.492  1.00  0.00     0.127 S 
ATOM     93  O   UNL A   1      44.013  26.766  39.431  1.00  0.00    -0.237 OA
ATOM     94  O   UNL A   1      44.261  24.969  37.767  1.00  0.00    -0.237 OA
ATOM     95  O   UNL A   1      46.232  25.776  38.987  1.00  0.00    -0.744 OA
ENDBRANCH  89  92
ENDBRANCH  62  85
ENDBRANCH  36  37
ENDBRANCH  28  31
ENDBRANCH  26  27
ENDBRANCH  25  26
ENDBRANCH   1  25
TORSDOF 17
ENDMDL
MODEL 2
REMARK VINA RESULT:     -12.4      2.361      3.090
REMARK SMILES Cc1cc(CNS(=O)(=O)c2ccc(C(=O)NCCCNC(=O)c3ccc(-c4c5nc(c(-c6cccc(S(=O)(=O)[O-])c6F)c6ccc([nH]6)c(-c6cccc(S(=O)(=O)[O-])c6F)c6nc(c(-c7cccc(S(=O)(=O)[O-])c7F)c7ccc4[nH]7)C=C6)C=C5)cc3)cc2F)no1
REMARK SMILES IDX 17 1 16 2 14 3 15 4 13 6 10 7 11 8 87 9 12 10 86 11 88 12
REMARK SMILES IDX 7 13 8 14 9 15 6 16 5 18 4 19 1 20 2 21 3 22 90 23 89 24
REMARK SMILES IDX 18 25 19 26 20 27 21 28 22 30 23 31 24 32 85 33 25 34 84 35
REMARK SMILES IDX 26 36 27 37 28 38 78 39 29 40 83 41 77 42 79 43 30 44 82 45
REMARK SMILES IDX 76 46 75 47 31 49 63 50 43 51 62 52 44 53 47 54 61 55 80 56
REMARK SMILES IDX 45 57 46 58 60 60 81 61 48 62 32 63 33 64 41 65 34 66 36 67
REMARK SMILES IDX 42 68 35 69 37 70 38 71 39 72 40 73 64 74 65 75 73 76 66 77
REMARK SMILES IDX 68 78 74 79 67 80 69 81 70 82 71 83 72 84 49 85 50 86 58 87
REMARK SMILES IDX 51 88 53 89 59 90 52 91 54 92 55 93 56 94 57 95
REMARK H PARENT 16 5 6 17 20 29 79 48 47 59
REMARK Flexibility Score: inf
ROOT
ATOM      1  C   UNL A   1      32.484  28.727  23.040  1.00  0.00     0.118 C 
ENDROOT
BRANCH   1   2
ATOM      2  N   UNL A   1      32.890  27.804  21.995  1.00  0.00    -0.352 N 
ATOM      3  C   UNL A   1      32.963  26.438  21.928  1.00  0.00     0.251 C 
ATOM      4  O   UNL A   1      33.277  25.946  20.844  1.00  0.00    -0.269 OA
ATOM      5  H   UNL A   1      33.172  28.252  21.165  1.00  0.00     0.163 HD
BRANCH   3   6
ATOM      6  C   UNL A   1      32.651  25.522  23.062  1.00  0.00     0.042 A 
ATOM      7  C   UNL A   1      31.877  23.734  25.087  1.00  0.00     0.118 A 
ATOM      8  C   UNL A   1      30.962  24.086  24.096  1.00  0.00     0.026 A 
ATOM      9  C   UNL A   1      33.159  24.261  25.066  1.00  0.00     0.144 A 
ATOM     10  C   UNL A   1      31.349  24.984  23.098  1.00  0.00     0.015 A 
ATOM     11  C   UNL A   1      33.560  25.121  24.043  1.00  0.00     0.054 A 
ATOM     12  F   UNL A   1      34.053  23.936  26.008  1.00  0.00    -0.205 F 
BRANCH   7  13
ATOM     13  S   UNL A   1      31.424  22.577  26.335  1.00  0.00     0.243 S 
ATOM     14  O   UNL A   1      30.021  22.269  26.137  1.00  0.00    -0.207 OA
ATOM     15  O   UNL A   1      31.910  23.099  27.589  1.00  0.00    -0.207 OA
BRANCH  13  16
ATOM     16  N   UNL A   1      32.277  21.185  25.990  1.00  0.00    -0.205 NA
ATOM     17  H   UNL A   1      33.243  21.347  26.274  1.00  0.00     0.141 HD
BRANCH  16  18
ATOM     18  C   UNL A   1      32.307  20.710  24.601  1.00  0.00     0.158 C 
BRANCH  18  19
ATOM     19  C   UNL A   1      32.531  19.235  24.611  1.00  0.00     0.099 A 
ATOM     20  C   UNL A   1      32.860  15.749  25.698  1.00  0.00     0.091 C 
ATOM     21  C   UNL A   1      32.756  17.117  25.158  1.00  0.00     0.133 A 
ATOM     22  C   UNL A   1      32.532  18.352  25.713  1.00  0.00     0.073 A 
ATOM     23  O   UNL A   1      32.893  17.247  23.812  1.00  0.00    -0.361 OA
ATOM     24  N   UNL A   1      32.756  18.579  23.461  1.00  0.00    -0.083 NA
ENDBRANCH  18  19
ENDBRANCH  16  18
ENDBRANCH  13  16
ENDBRANCH   7  13
ENDBRANCH   3   6
ENDBRANCH   1   2
BRANCH   1  25
ATOM     25  C   UNL A   1      33.590  28.925  24.076  1.00  0.00     0.042 C 
BRANCH  25  26
ATOM     26  C   UNL A   1      33.077  28.987  25.514  1.00  0.00     0.118 C 
BRANCH  26  27
ATOM     27  N   UNL A   1      32.647  30.330  25.880  1.00  0.00    -0.352 N 
ATOM     28  C   UNL A   1      33.116  31.167  26.862  1.00  0.00     0.251 C 
ATOM     29  H   UNL A   1      31.908  30.694  25.340  1.00  0.00     0.163 HD
ATOM     30  O   UNL A   1      32.474  32.176  27.148  1.00  0.00    -0.269 OA
BRANCH  28  31
ATOM     31  C   UNL A   1      34.376  30.867  27.577  1.00  0.00     0.039 A 
ATOM     32  C   UNL A   1      35.367  31.852  27.642  1.00  0.00     0.014 A 
ATOM     33  C   UNL A   1      34.609  29.606  28.134  1.00  0.00     0.014 A 
ATOM     34  C   UNL A   1      36.569  31.592  28.305  1.00  0.00     0.010 A 
ATOM     35  C   UNL A   1      35.786  29.365  28.842  1.00  0.00     0.010 A 
ATOM     36  C   UNL A   1      36.780  30.352  28.929  1.00  0.00    -0.014 A 
BRANCH  36  37
ATOM     37  C   UNL A   1      38.023  30.068  29.690  1.00  0.00     0.031 A 
ATOM     38  C   UNL A   1      39.054  29.124  29.135  1.00  0.00     0.074 A 
ATOM     39  C   UNL A   1      38.179  30.589  30.923  1.00  0.00     0.049 A 
ATOM     40  N   UNL A   1      40.150  28.680  29.694  1.00  0.00    -0.248 NA
ATOM     41  C   UNL A   1      38.810  28.589  27.785  1.00  0.00     0.031 C 
ATOM     42  C   UNL A   1      37.219  31.467  31.594  1.00  0.00     0.029 A 
ATOM     43  N   UNL A   1      39.186  30.431  31.842  1.00  0.00    -0.354 N 
ATOM     44  C   UNL A   1      40.705  27.787  28.786  1.00  0.00     0.074 A 
ATOM     45  C   UNL A   1      39.817  27.736  27.646  1.00  0.00     0.031 C 
ATOM     46  C   UNL A   1      37.682  31.768  32.818  1.00  0.00     0.029 A 
ATOM     47  C   UNL A   1      38.955  31.087  33.030  1.00  0.00     0.049 A 
ATOM     48  H   UNL A   1      39.996  29.900  31.669  1.00  0.00     0.167 HD
ATOM     49  C   UNL A   1      41.865  27.095  28.881  1.00  0.00     0.034 A 
ATOM     50  C   UNL A   1      39.683  31.129  34.163  1.00  0.00     0.034 A 
ATOM     51  C   UNL A   1      42.776  27.195  29.989  1.00  0.00     0.049 A 
ATOM     52  C   UNL A   1      40.994  30.394  34.222  1.00  0.00     0.074 A 
ATOM     53  C   UNL A   1      44.015  26.597  30.138  1.00  0.00     0.029 A 
ATOM     54  N   UNL A   1      42.553  27.944  31.134  1.00  0.00    -0.354 N 
ATOM     55  N   UNL A   1      41.569  29.663  33.298  1.00  0.00    -0.248 NA
ATOM     56  C   UNL A   1      41.774  30.515  35.463  1.00  0.00     0.031 C 
ATOM     57  C   UNL A   1      44.539  26.981  31.377  1.00  0.00     0.029 A 
ATOM     58  C   UNL A   1      43.629  27.824  31.995  1.00  0.00     0.049 A 
ATOM     59  H   UNL A   1      41.746  28.481  31.309  1.00  0.00     0.167 HD
ATOM     60  C   UNL A   1      42.786  29.258  33.833  1.00  0.00     0.074 A 
ATOM     61  C   UNL A   1      42.877  29.843  35.154  1.00  0.00     0.031 C 
ATOM     62  C   UNL A   1      43.732  28.457  33.285  1.00  0.00     0.034 A 
BRANCH  49  63
ATOM     63  C   UNL A   1      42.260  26.218  27.722  1.00  0.00     0.023 A 
ATOM     64  C   UNL A   1      43.143  26.724  26.748  1.00  0.00     0.012 A 
ATOM     65  C   UNL A   1      41.832  24.878  27.641  1.00  0.00     0.148 A 
ATOM     66  C   UNL A   1      43.579  25.918  25.697  1.00  0.00     0.002 A 
ATOM     67  C   UNL A   1      42.301  24.069  26.611  1.00  0.00     0.091 A 
ATOM     68  F   UNL A   1      40.975  24.422  28.565  1.00  0.00    -0.205 F 
ATOM     69  C   UNL A   1      43.168  24.589  25.636  1.00  0.00     0.022 A 
BRANCH  67  70
ATOM     70  S   UNL A   1      41.889  22.325  26.485  1.00  0.00     0.127 S 
ATOM     71  O   UNL A   1      40.455  22.380  26.204  1.00  0.00    -0.237 OA
ATOM     72  O   UNL A   1      42.714  21.892  25.356  1.00  0.00    -0.237 OA
ATOM     73  O   UNL A   1      42.254  21.733  27.765  1.00  0.00    -0.744 OA
ENDBRANCH  67  70
ENDBRANCH  49  63
BRANCH  50  74
ATOM     74  C   UNL A   1      39.218  31.974  35.300  1.00  0.00     0.023 A 
ATOM     75  C   UNL A   1      39.339  33.374  35.205  1.00  0.00     0.012 A 
ATOM     76  C   UNL A   1      38.595  31.414  36.432  1.00  0.00     0.148 A 
ATOM     77  C   UNL A   1      38.863  34.200  36.222  1.00  0.00     0.002 A 
ATOM     78  C   UNL A   1      38.075  32.245  37.418  1.00  0.00     0.091 A 
ATOM     79  F   UNL A   1      38.501  30.079  36.511  1.00  0.00    -0.205 F 
ATOM     80  C   UNL A   1      38.219  33.637  37.321  1.00  0.00     0.022 A 
BRANCH  78  81
ATOM     81  S   UNL A   1      37.114  31.614  38.800  1.00  0.00     0.127 S 
ATOM     82  O   UNL A   1      36.898  30.223  38.408  1.00  0.00    -0.237 OA
ATOM     83  O   UNL A   1      38.035  31.801  39.923  1.00  0.00    -0.237 OA
ATOM     84  O   UNL A   1      35.922  32.448  38.862  1.00  0.00    -0.744 OA
ENDBRANCH  78  81
ENDBRANCH  50  74
BRANCH  62  85
ATOM     85  C   UNL A   1      44.964  28.162  34.098  1.00  0.00     0.023 A 
ATOM     86  C   UNL A   1      46.072  29.027  34.012  1.00  0.00     0.012 A 
ATOM     87  C   UNL A   1      44.982  27.103  35.027  1.00  0.00     0.148 A 
ATOM     88  C   UNL A   1      47.185  28.835  34.830  1.00  0.00     0.002 A 
ATOM     89  C   UNL A   1      46.077  26.943  35.868  1.00  0.00     0.091 A 
ATOM     90  F   UNL A   1      43.925  26.278  35.079  1.00  0.00    -0.205 F 
ATOM     91  C   UNL A   1      47.182  27.804  35.766  1.00  0.00     0.022 A 
BRANCH  89  92
ATOM     92  S   UNL A   1      46.116  25.701  37.167  1.00  0.00     0.127 S 
ATOM     93  O   UNL A   1      44.990  26.110  38.005  1.00  0.00    -0.237 OA
ATOM     94  O   UNL A   1      45.904  24.460  36.422  1.00  0.00    -0.237 OA
ATOM     95  O   UNL A   1      47.432  25.815  37.784  1.00  0.00    -0.744 OA
ENDBRANCH  89  92
ENDBRANCH  62  85
ENDBRANCH  36  37
ENDBRANCH  28  31
ENDBRANCH  26  27
ENDBRANCH  25  26
ENDBRANCH   1  25
TORSDOF 17
ENDMDL
MODEL 3
REMARK VINA RESULT:     -12.2      5.903     12.167
REMARK SMILES Cc1cc(CNS(=O)(=O)c2ccc(C(=O)NCCCNC(=O)c3ccc(-c4c5nc(c(-c6cccc(S(=O)(=O)[O-])c6F)c6ccc([nH]6)c(-c6cccc(S(=O)(=O)[O-])c6F)c6nc(c(-c7cccc(S(=O)(=O)[O-])c7F)c7ccc4[nH]7)C=C6)C=C5)cc3)cc2F)no1
REMARK SMILES IDX 17 1 16 2 14 3 15 4 13 6 10 7 11 8 87 9 12 10 86 11 88 12
REMARK SMILES IDX 7 13 8 14 9 15 6 16 5 18 4 19 1 20 2 21 3 22 90 23 89 24
REMARK SMILES IDX 18 25 19 26 20 27 21 28 22 30 23 31 24 32 85 33 25 34 84 35
REMARK SMILES IDX 26 36 27 37 28 38 78 39 29 40 83 41 77 42 79 43 30 44 82 45
REMARK SMILES IDX 76 46 75 47 31 49 63 50 43 51 62 52 44 53 47 54 61 55 80 56
REMARK SMILES IDX 45 57 46 58 60 60 81 61 48 62 32 63 33 64 41 65 34 66 36 67
REMARK SMILES IDX 42 68 35 69 37 70 38 71 39 72 40 73 64 74 65 75 73 76 66 77
REMARK SMILES IDX 68 78 74 79 67 80 69 81 70 82 71 83 72 84 49 85 50 86 58 87
REMARK SMILES IDX 51 88 53 89 59 90 52 91 54 92 55 93 56 94 57 95
REMARK H PARENT 16 5 6 17 20 29 79 48 47 59
REMARK Flexibility Score: inf
ROOT
ATOM      1  C   UNL A   1      37.125  20.881  24.785  1.00  0.00     0.118 C 
ENDROOT
BRANCH   1   2
ATOM      2  N   UNL A   1      37.493  22.126  25.437  1.00  0.00    -0.352 N 
ATOM      3  C   UNL A   1      36.898  23.357  25.509  1.00  0.00     0.251 C 
ATOM      4  O   UNL A   1      37.436  24.199  26.228  1.00  0.00    -0.269 OA
ATOM      5  H   UNL A   1      38.345  22.074  25.927  1.00  0.00     0.163 HD
BRANCH   3   6
ATOM      6  C   UNL A   1      35.633  23.722  24.809  1.00  0.00     0.042 A 
ATOM      7  C   UNL A   1      33.234  24.589  23.630  1.00  0.00     0.118 A 
ATOM      8  C   UNL A   1      33.639  25.140  24.845  1.00  0.00     0.026 A 
ATOM      9  C   UNL A   1      34.014  23.626  23.010  1.00  0.00     0.144 A 
ATOM     10  C   UNL A   1      34.827  24.696  25.433  1.00  0.00     0.015 A 
ATOM     11  C   UNL A   1      35.224  23.218  23.574  1.00  0.00     0.054 A 
ATOM     12  F   UNL A   1      33.644  23.085  21.844  1.00  0.00    -0.205 F 
BRANCH   7  13
ATOM     13  S   UNL A   1      31.759  25.157  22.853  1.00  0.00     0.243 S 
ATOM     14  O   UNL A   1      30.732  24.169  23.122  1.00  0.00    -0.207 OA
ATOM     15  O   UNL A   1      32.110  25.530  21.504  1.00  0.00    -0.207 OA
BRANCH  13  16
ATOM     16  N   UNL A   1      31.323  26.542  23.675  1.00  0.00    -0.205 NA
ATOM     17  H   UNL A   1      31.705  26.466  24.617  1.00  0.00     0.141 HD
BRANCH  16  18
ATOM     18  C   UNL A   1      29.894  26.854  23.810  1.00  0.00     0.158 C 
BRANCH  18  19
ATOM     19  C   UNL A   1      29.598  28.073  23.002  1.00  0.00     0.099 A 
ATOM     20  C   UNL A   1      28.040  31.138  21.728  1.00  0.00     0.091 C 
ATOM     21  C   UNL A   1      28.741  29.914  22.157  1.00  0.00     0.133 A 
ATOM     22  C   UNL A   1      28.505  28.960  23.117  1.00  0.00     0.073 A 
ATOM     23  O   UNL A   1      29.892  29.614  21.499  1.00  0.00    -0.361 OA
ATOM     24  N   UNL A   1      30.435  28.453  22.025  1.00  0.00    -0.083 NA
ENDBRANCH  18  19
ENDBRANCH  16  18
ENDBRANCH  13  16
ENDBRANCH   7  13
ENDBRANCH   3   6
ENDBRANCH   1   2
BRANCH   1  25
ATOM     25  C   UNL A   1      38.186  19.801  24.999  1.00  0.00     0.042 C 
BRANCH  25  26
ATOM     26  C   UNL A   1      39.290  20.213  25.974  1.00  0.00     0.118 C 
BRANCH  26  27
ATOM     27  N   UNL A   1      40.380  19.246  26.000  1.00  0.00    -0.352 N 
ATOM     28  C   UNL A   1      41.736  19.451  26.059  1.00  0.00     0.251 C 
ATOM     29  H   UNL A   1      40.101  18.302  25.972  1.00  0.00     0.163 HD
ATOM     30  O   UNL A   1      42.495  18.506  25.853  1.00  0.00    -0.269 OA
BRANCH  28  31
ATOM     31  C   UNL A   1      42.289  20.790  26.360  1.00  0.00     0.039 A 
ATOM     32  C   UNL A   1      42.658  21.622  25.298  1.00  0.00     0.014 A 
ATOM     33  C   UNL A   1      42.498  21.207  27.678  1.00  0.00     0.014 A 
ATOM     34  C   UNL A   1      43.190  22.888  25.555  1.00  0.00     0.010 A 
ATOM     35  C   UNL A   1      42.978  22.491  27.933  1.00  0.00     0.010 A 
ATOM     36  C   UNL A   1      43.334  23.341  26.875  1.00  0.00    -0.014 A 
BRANCH  36  37
ATOM     37  C   UNL A   1      43.842  24.704  27.176  1.00  0.00     0.031 A 
ATOM     38  C   UNL A   1      42.912  25.760  27.708  1.00  0.00     0.074 A 
ATOM     39  C   UNL A   1      45.119  25.016  26.882  1.00  0.00     0.049 A 
ATOM     40  N   UNL A   1      43.149  27.026  27.937  1.00  0.00    -0.248 NA
ATOM     41  C   UNL A   1      41.529  25.346  27.997  1.00  0.00     0.031 C 
ATOM     42  C   UNL A   1      46.099  24.095  26.304  1.00  0.00     0.029 A 
ATOM     43  N   UNL A   1      45.804  26.200  27.001  1.00  0.00    -0.354 N 
ATOM     44  C   UNL A   1      41.941  27.568  28.359  1.00  0.00     0.074 A 
ATOM     45  C   UNL A   1      40.966  26.500  28.335  1.00  0.00     0.031 C 
ATOM     46  C   UNL A   1      47.257  24.749  26.116  1.00  0.00     0.029 A 
ATOM     47  C   UNL A   1      47.097  26.138  26.534  1.00  0.00     0.049 A 
ATOM     48  H   UNL A   1      45.408  27.016  27.383  1.00  0.00     0.167 HD
ATOM     49  C   UNL A   1      41.675  28.835  28.757  1.00  0.00     0.034 A 
ATOM     50  C   UNL A   1      48.044  27.092  26.446  1.00  0.00     0.034 A 
ATOM     51  C   UNL A   1      42.660  29.880  28.836  1.00  0.00     0.049 A 
ATOM     52  C   UNL A   1      47.738  28.478  26.946  1.00  0.00     0.074 A 
ATOM     53  C   UNL A   1      42.504  31.171  29.306  1.00  0.00     0.029 A 
ATOM     54  N   UNL A   1      43.983  29.753  28.443  1.00  0.00    -0.354 N 
ATOM     55  N   UNL A   1      46.627  28.936  27.469  1.00  0.00    -0.248 NA
ATOM     56  C   UNL A   1      48.822  29.469  26.875  1.00  0.00     0.031 C 
ATOM     57  C   UNL A   1      43.733  31.829  29.192  1.00  0.00     0.029 A 
ATOM     58  C   UNL A   1      44.656  30.943  28.660  1.00  0.00     0.049 A 
ATOM     59  H   UNL A   1      44.385  28.937  28.066  1.00  0.00     0.167 HD
ATOM     60  C   UNL A   1      46.883  30.258  27.814  1.00  0.00     0.074 A 
ATOM     61  C   UNL A   1      48.263  30.522  27.460  1.00  0.00     0.031 C 
ATOM     62  C   UNL A   1      46.045  31.175  28.355  1.00  0.00     0.034 A 
BRANCH  49  63
ATOM     63  C   UNL A   1      40.274  29.152  29.210  1.00  0.00     0.023 A 
ATOM     64  C   UNL A   1      39.301  29.491  28.249  1.00  0.00     0.012 A 
ATOM     65  C   UNL A   1      39.899  29.030  30.563  1.00  0.00     0.148 A 
ATOM     66  C   UNL A   1      37.981  29.728  28.628  1.00  0.00     0.002 A 
ATOM     67  C   UNL A   1      38.572  29.230  30.928  1.00  0.00     0.091 A 
ATOM     68  F   UNL A   1      40.844  28.728  31.464  1.00  0.00    -0.205 F 
ATOM     69  C   UNL A   1      37.614  29.586  29.963  1.00  0.00     0.022 A 
BRANCH  67  70
ATOM     70  S   UNL A   1      37.984  29.000  32.610  1.00  0.00     0.127 S 
ATOM     71  O   UNL A   1      38.907  29.849  33.363  1.00  0.00    -0.237 OA
ATOM     72  O   UNL A   1      36.614  29.509  32.532  1.00  0.00    -0.237 OA
ATOM     73  O   UNL A   1      38.086  27.572  32.878  1.00  0.00    -0.744 OA
ENDBRANCH  67  70
ENDBRANCH  49  63
BRANCH  50  74
ATOM     74  C   UNL A   1      49.400  26.734  25.941  1.00  0.00     0.023 A 
ATOM     75  C   UNL A   1      50.217  25.891  26.718  1.00  0.00     0.012 A 
ATOM     76  C   UNL A   1      49.853  27.156  24.676  1.00  0.00     0.148 A 
ATOM     77  C   UNL A   1      51.468  25.487  26.252  1.00  0.00     0.002 A 
ATOM     78  C   UNL A   1      51.078  26.707  24.195  1.00  0.00     0.091 A 
ATOM     79  F   UNL A   1      49.066  27.969  23.957  1.00  0.00    -0.205 F 
ATOM     80  C   UNL A   1      51.893  25.883  24.987  1.00  0.00     0.022 A 
BRANCH  78  81
ATOM     81  S   UNL A   1      51.643  27.058  22.525  1.00  0.00     0.127 S 
ATOM     82  O   UNL A   1      50.468  26.711  21.730  1.00  0.00    -0.237 OA
ATOM     83  O   UNL A   1      51.936  28.490  22.596  1.00  0.00    -0.237 OA
ATOM     84  O   UNL A   1      52.816  26.218  22.323  1.00  0.00    -0.744 OA
ENDBRANCH  78  81
ENDBRANCH  50  74
BRANCH  62  85
ATOM     85  C   UNL A   1      46.582  32.557  28.616  1.00  0.00     0.023 A 
ATOM     86  C   UNL A   1      47.146  32.853  29.872  1.00  0.00     0.012 A 
ATOM     87  C   UNL A   1      46.635  33.519  27.587  1.00  0.00     0.148 A 
ATOM     88  C   UNL A   1      47.743  34.091  30.105  1.00  0.00     0.002 A 
ATOM     89  C   UNL A   1      47.269  34.735  27.814  1.00  0.00     0.091 A 
ATOM     90  F   UNL A   1      46.075  33.224  26.405  1.00  0.00    -0.205 F 
ATOM     91  C   UNL A   1      47.818  35.025  29.074  1.00  0.00     0.022 A 
BRANCH  89  92
ATOM     92  S   UNL A   1      47.496  35.957  26.516  1.00  0.00     0.127 S 
ATOM     93  O   UNL A   1      47.834  35.115  25.369  1.00  0.00    -0.237 OA
ATOM     94  O   UNL A   1      46.177  36.585  26.443  1.00  0.00    -0.237 OA
ATOM     95  O   UNL A   1      48.558  36.839  26.982  1.00  0.00    -0.744 OA
ENDBRANCH  89  92
ENDBRANCH  62  85
ENDBRANCH  36  37
ENDBRANCH  28  31
ENDBRANCH  26  27
ENDBRANCH  25  26
ENDBRANCH   1  25
TORSDOF 17
ENDMDL
