MODEL 1
REMARK VINA RESULT:     -13.0      0.000      0.000
REMARK SMILES Cc1cc([C@H](C)NC(=O)N2CC[C@H](C(=O)NCCCNC(=O)c3ccc(-c4c5nc(c(-c6cccc(S(=O)(=O)[O-])c6F)c6ccc([nH]6)c(-c6cccc(S(=O)(=O)[O-])c6F)c6nc(c(-c7cccc(S(=O)(=O)[O-])c7F)c7ccc4[nH]7)C=C6)C=C5)cc3)[C@@H]2C)c(C)s1
REMARK SMILES IDX 18 1 17 2 16 3 14 4 15 5 13 7 10 8 11 9 86 10 12 11 87 12
REMARK SMILES IDX 8 13 7 14 9 16 5 17 6 18 4 19 1 20 2 21 3 22 90 23 88 24
REMARK SMILES IDX 89 25 19 26 20 27 21 28 22 30 23 31 24 32 85 33 25 34 84 35
REMARK SMILES IDX 26 36 27 37 28 38 78 39 29 40 83 41 77 42 79 43 30 44 82 45
REMARK SMILES IDX 76 46 75 47 31 49 63 50 43 51 62 52 44 53 47 54 61 55 80 56
REMARK SMILES IDX 45 57 46 58 60 60 81 61 48 62 32 63 33 64 41 65 34 66 36 67
REMARK SMILES IDX 42 68 35 69 37 70 38 71 39 72 40 73 64 74 65 75 73 76 66 77
REMARK SMILES IDX 68 78 74 79 67 80 69 81 70 82 71 83 72 84 49 85 50 86 58 87
REMARK SMILES IDX 51 88 53 89 59 90 52 91 54 92 55 93 56 94 57 95
REMARK H PARENT 16 6 7 15 20 29 79 48 47 59
REMARK Flexibility Score: inf
ROOT
ATOM      1  C   UNL A   1      35.748  21.447  24.594  1.00  0.00     0.042 C 
ENDROOT
BRANCH   1   2
ATOM      2  C   UNL A   1      34.511  21.150  25.433  1.00  0.00     0.117 C 
BRANCH   2   3
ATOM      3  N   UNL A   1      33.823  22.334  25.921  1.00  0.00    -0.356 N 
ATOM      4  C   UNL A   1      32.802  23.049  25.370  1.00  0.00     0.225 C 
ATOM      5  O   UNL A   1      32.141  23.774  26.115  1.00  0.00    -0.275 OA
ATOM      6  H   UNL A   1      34.145  22.673  26.788  1.00  0.00     0.163 HD
BRANCH   4   7
ATOM      7  C   UNL A   1      32.520  22.965  23.879  1.00  0.00     0.102 C 
ATOM      8  N   UNL A   1      32.194  24.751  22.312  1.00  0.00    -0.321 N 
ATOM      9  C   UNL A   1      30.945  24.591  23.024  1.00  0.00     0.122 C 
ATOM     10  C   UNL A   1      33.253  24.029  23.023  1.00  0.00     0.096 C 
ATOM     11  C   UNL A   1      31.027  23.184  23.585  1.00  0.00     0.037 C 
ATOM     12  C   UNL A   1      34.152  25.002  23.789  1.00  0.00     0.032 C 
BRANCH   8  13
ATOM     13  C   UNL A   1      32.336  25.746  21.387  1.00  0.00     0.318 C 
ATOM     14  N   UNL A   1      31.605  26.885  21.505  1.00  0.00    -0.331 N 
ATOM     15  H   UNL A   1      31.113  27.184  20.708  1.00  0.00     0.165 HD
ATOM     16  O   UNL A   1      33.104  25.649  20.428  1.00  0.00    -0.249 OA
BRANCH  14  17
ATOM     17  C   UNL A   1      31.480  27.706  22.704  1.00  0.00     0.112 C 
ATOM     18  C   UNL A   1      32.768  28.513  22.916  1.00  0.00     0.036 C 
BRANCH  17  19
ATOM     19  C   UNL A   1      30.235  28.568  22.564  1.00  0.00    -0.012 A 
ATOM     20  C   UNL A   1      28.569  31.856  21.596  1.00  0.00     0.056 C 
ATOM     21  C   UNL A   1      28.967  30.488  22.024  1.00  0.00     0.002 A 
ATOM     22  C   UNL A   1      30.204  29.883  21.964  1.00  0.00     0.021 A 
ATOM     23  S   UNL A   1      27.804  29.456  22.707  1.00  0.00    -0.146 S 
ATOM     24  C   UNL A   1      28.962  28.236  23.024  1.00  0.00     0.007 A 
ATOM     25  C   UNL A   1      28.478  27.013  23.728  1.00  0.00     0.057 C 
ENDBRANCH  17  19
ENDBRANCH  14  17
ENDBRANCH   8  13
ENDBRANCH   4   7
ENDBRANCH   2   3
ENDBRANCH   1   2
BRANCH   1  26
ATOM     26  C   UNL A   1      36.981  21.911  25.368  1.00  0.00     0.118 C 
BRANCH  26  27
ATOM     27  N   UNL A   1      37.985  20.873  25.564  1.00  0.00    -0.352 N 
ATOM     28  C   UNL A   1      39.253  20.947  26.092  1.00  0.00     0.251 C 
ATOM     29  H   UNL A   1      37.712  19.973  25.272  1.00  0.00     0.163 HD
ATOM     30  O   UNL A   1      39.963  19.943  26.092  1.00  0.00    -0.269 OA
BRANCH  28  31
ATOM     31  C   UNL A   1      39.787  22.222  26.624  1.00  0.00     0.039 A 
ATOM     32  C   UNL A   1      40.747  22.177  27.642  1.00  0.00     0.014 A 
ATOM     33  C   UNL A   1      39.350  23.456  26.137  1.00  0.00     0.014 A 
ATOM     34  C   UNL A   1      41.334  23.361  28.105  1.00  0.00     0.010 A 
ATOM     35  C   UNL A   1      39.983  24.627  26.551  1.00  0.00     0.010 A 
ATOM     36  C   UNL A   1      40.989  24.593  27.530  1.00  0.00    -0.014 A 
BRANCH  36  37
ATOM     37  C   UNL A   1      41.680  25.857  27.901  1.00  0.00     0.031 A 
ATOM     38  C   UNL A   1      40.940  26.930  28.652  1.00  0.00     0.074 A 
ATOM     39  C   UNL A   1      42.927  26.094  27.448  1.00  0.00     0.049 A 
ATOM     40  N   UNL A   1      41.310  28.155  28.922  1.00  0.00    -0.248 NA
ATOM     41  C   UNL A   1      39.592  26.591  29.138  1.00  0.00     0.031 C 
ATOM     42  C   UNL A   1      43.732  25.161  26.656  1.00  0.00     0.029 A 
ATOM     43  N   UNL A   1      43.723  27.210  27.552  1.00  0.00    -0.354 N 
ATOM     44  C   UNL A   1      40.229  28.748  29.562  1.00  0.00     0.074 A 
ATOM     45  C   UNL A   1      39.180  27.753  29.626  1.00  0.00     0.031 C 
ATOM     46  C   UNL A   1      44.897  25.747  26.336  1.00  0.00     0.029 A 
ATOM     47  C   UNL A   1      44.911  27.106  26.865  1.00  0.00     0.049 A 
ATOM     48  H   UNL A   1      43.467  28.007  28.070  1.00  0.00     0.167 HD
ATOM     49  C   UNL A   1      40.125  29.998  30.071  1.00  0.00     0.034 A 
ATOM     50  C   UNL A   1      45.892  28.009  26.666  1.00  0.00     0.034 A 
ATOM     51  C   UNL A   1      41.188  30.966  30.059  1.00  0.00     0.049 A 
ATOM     52  C   UNL A   1      45.769  29.378  27.280  1.00  0.00     0.074 A 
ATOM     53  C   UNL A   1      41.207  32.227  30.629  1.00  0.00     0.029 A 
ATOM     54  N   UNL A   1      42.419  30.783  29.449  1.00  0.00    -0.354 N 
ATOM     55  N   UNL A   1      44.795  29.869  28.007  1.00  0.00    -0.248 NA
ATOM     56  C   UNL A   1      46.891  30.305  27.075  1.00  0.00     0.031 C 
ATOM     57  C   UNL A   1      42.448  32.811  30.354  1.00  0.00     0.029 A 
ATOM     58  C   UNL A   1      43.206  31.908  29.627  1.00  0.00     0.049 A 
ATOM     59  H   UNL A   1      42.693  29.974  28.962  1.00  0.00     0.167 HD
ATOM     60  C   UNL A   1      45.205  31.145  28.380  1.00  0.00     0.074 A 
ATOM     61  C   UNL A   1      46.519  31.347  27.809  1.00  0.00     0.031 C 
ATOM     62  C   UNL A   1      44.542  32.070  29.116  1.00  0.00     0.034 A 
BRANCH  49  63
ATOM     63  C   UNL A   1      38.831  30.377  30.741  1.00  0.00     0.023 A 
ATOM     64  C   UNL A   1      38.620  30.024  32.090  1.00  0.00     0.012 A 
ATOM     65  C   UNL A   1      37.854  31.133  30.064  1.00  0.00     0.148 A 
ATOM     66  C   UNL A   1      37.446  30.388  32.744  1.00  0.00     0.002 A 
ATOM     67  C   UNL A   1      36.703  31.529  30.737  1.00  0.00     0.091 A 
ATOM     68  F   UNL A   1      38.062  31.441  28.776  1.00  0.00    -0.205 F 
ATOM     69  C   UNL A   1      36.493  31.149  32.072  1.00  0.00     0.022 A 
BRANCH  67  70
ATOM     70  S   UNL A   1      35.454  32.576  29.979  1.00  0.00     0.127 S 
ATOM     71  O   UNL A   1      35.115  31.809  28.781  1.00  0.00    -0.237 OA
ATOM     72  O   UNL A   1      34.408  32.601  31.003  1.00  0.00    -0.237 OA
ATOM     73  O   UNL A   1      36.100  33.860  29.744  1.00  0.00    -0.744 OA
ENDBRANCH  67  70
ENDBRANCH  49  63
BRANCH  50  74
ATOM     74  C   UNL A   1      47.111  27.623  25.900  1.00  0.00     0.023 A 
ATOM     75  C   UNL A   1      48.152  26.943  26.563  1.00  0.00     0.012 A 
ATOM     76  C   UNL A   1      47.235  27.890  24.523  1.00  0.00     0.148 A 
ATOM     77  C   UNL A   1      49.305  26.564  25.877  1.00  0.00     0.002 A 
ATOM     78  C   UNL A   1      48.363  27.460  23.833  1.00  0.00     0.091 A 
ATOM     79  F   UNL A   1      46.241  28.551  23.911  1.00  0.00    -0.205 F 
ATOM     80  C   UNL A   1      49.407  26.811  24.510  1.00  0.00     0.022 A 
BRANCH  78  81
ATOM     81  S   UNL A   1      48.515  27.617  22.049  1.00  0.00     0.127 S 
ATOM     82  O   UNL A   1      47.194  28.120  21.678  1.00  0.00    -0.237 OA
ATOM     83  O   UNL A   1      49.603  28.588  21.919  1.00  0.00    -0.237 OA
ATOM     84  O   UNL A   1      48.847  26.283  21.568  1.00  0.00    -0.744 OA
ENDBRANCH  78  81
ENDBRANCH  50  74
BRANCH  62  85
ATOM     85  C   UNL A   1      45.235  33.376  29.400  1.00  0.00     0.023 A 
ATOM     86  C   UNL A   1      46.037  33.506  30.551  1.00  0.00     0.012 A 
ATOM     87  C   UNL A   1      45.175  34.435  28.473  1.00  0.00     0.148 A 
ATOM     88  C   UNL A   1      46.756  34.679  30.783  1.00  0.00     0.002 A 
ATOM     89  C   UNL A   1      45.928  35.583  28.688  1.00  0.00     0.091 A 
ATOM     90  F   UNL A   1      44.390  34.296  27.394  1.00  0.00    -0.205 F 
ATOM     91  C   UNL A   1      46.712  35.710  29.846  1.00  0.00     0.022 A 
BRANCH  89  92
ATOM     92  S   UNL A   1      46.007  36.922  27.493  1.00  0.00     0.127 S 
ATOM     93  O   UNL A   1      46.498  36.231  26.302  1.00  0.00    -0.237 OA
ATOM     94  O   UNL A   1      44.610  37.353  27.417  1.00  0.00    -0.237 OA
ATOM     95  O   UNL A   1      46.913  37.913  28.059  1.00  0.00    -0.744 OA
ENDBRANCH  89  92
ENDBRANCH  62  85
ENDBRANCH  36  37
ENDBRANCH  28  31
ENDBRANCH  26  27
ENDBRANCH   1  26
TORSDOF 16
ENDMDL
MODEL 2
REMARK VINA RESULT:     -12.9      5.898     11.120
REMARK SMILES Cc1cc([C@H](C)NC(=O)N2CC[C@H](C(=O)NCCCNC(=O)c3ccc(-c4c5nc(c(-c6cccc(S(=O)(=O)[O-])c6F)c6ccc([nH]6)c(-c6cccc(S(=O)(=O)[O-])c6F)c6nc(c(-c7cccc(S(=O)(=O)[O-])c7F)c7ccc4[nH]7)C=C6)C=C5)cc3)[C@@H]2C)c(C)s1
REMARK SMILES IDX 18 1 17 2 16 3 14 4 15 5 13 7 10 8 11 9 86 10 12 11 87 12
REMARK SMILES IDX 8 13 7 14 9 16 5 17 6 18 4 19 1 20 2 21 3 22 90 23 88 24
REMARK SMILES IDX 89 25 19 26 20 27 21 28 22 30 23 31 24 32 85 33 25 34 84 35
REMARK SMILES IDX 26 36 27 37 28 38 78 39 29 40 83 41 77 42 79 43 30 44 82 45
REMARK SMILES IDX 76 46 75 47 31 49 63 50 43 51 62 52 44 53 47 54 61 55 80 56
REMARK SMILES IDX 45 57 46 58 60 60 81 61 48 62 32 63 33 64 41 65 34 66 36 67
REMARK SMILES IDX 42 68 35 69 37 70 38 71 39 72 40 73 64 74 65 75 73 76 66 77
REMARK SMILES IDX 68 78 74 79 67 80 69 81 70 82 71 83 72 84 49 85 50 86 58 87
REMARK SMILES IDX 51 88 53 89 59 90 52 91 54 92 55 93 56 94 57 95
REMARK H PARENT 16 6 7 15 20 29 79 48 47 59
REMARK Flexibility Score: inf
ROOT
ATOM      1  C   UNL A   1      31.713  31.584  26.893  1.00  0.00     0.042 C 
ENDROOT
BRANCH   1   2
ATOM      2  C   UNL A   1      32.033  30.377  26.020  1.00  0.00     0.117 C 
BRANCH   2   3
ATOM      3  N   UNL A   1      31.292  30.331  24.770  1.00  0.00    -0.356 N 
ATOM      4  C   UNL A   1      30.754  29.270  24.104  1.00  0.00     0.225 C 
ATOM      5  O   UNL A   1      29.869  29.500  23.279  1.00  0.00    -0.275 OA
ATOM      6  H   UNL A   1      31.158  31.205  24.336  1.00  0.00     0.163 HD
BRANCH   4   7
ATOM      7  C   UNL A   1      31.260  27.861  24.364  1.00  0.00     0.102 C 
ATOM      8  N   UNL A   1      32.273  26.326  22.826  1.00  0.00    -0.321 N 
ATOM      9  C   UNL A   1      30.847  26.265  22.592  1.00  0.00     0.122 C 
ATOM     10  C   UNL A   1      32.582  27.506  23.637  1.00  0.00     0.096 C 
ATOM     11  C   UNL A   1      30.248  26.811  23.874  1.00  0.00     0.037 C 
ATOM     12  C   UNL A   1      33.190  28.614  22.774  1.00  0.00     0.032 C 
BRANCH   8  13
ATOM     13  C   UNL A   1      33.130  25.599  22.047  1.00  0.00     0.318 C 
ATOM     14  N   UNL A   1      33.765  24.520  22.573  1.00  0.00    -0.331 N 
ATOM     15  H   UNL A   1      34.740  24.472  22.450  1.00  0.00     0.165 HD
ATOM     16  O   UNL A   1      33.362  25.892  20.874  1.00  0.00    -0.249 OA
BRANCH  14  17
ATOM     17  C   UNL A   1      33.140  23.425  23.305  1.00  0.00     0.112 C 
ATOM     18  C   UNL A   1      32.560  22.405  22.315  1.00  0.00     0.036 C 
BRANCH  17  19
ATOM     19  C   UNL A   1      34.170  22.836  24.257  1.00  0.00    -0.012 A 
ATOM     20  C   UNL A   1      37.647  21.427  24.922  1.00  0.00     0.056 C 
ATOM     21  C   UNL A   1      36.253  21.946  24.929  1.00  0.00     0.002 A 
ATOM     22  C   UNL A   1      35.542  22.543  23.910  1.00  0.00     0.021 A 
ATOM     23  S   UNL A   1      35.323  21.818  26.343  1.00  0.00    -0.146 S 
ATOM     24  C   UNL A   1      33.932  22.461  25.578  1.00  0.00     0.007 A 
ATOM     25  C   UNL A   1      32.686  22.535  26.394  1.00  0.00     0.057 C 
ENDBRANCH  17  19
ENDBRANCH  14  17
ENDBRANCH   8  13
ENDBRANCH   4   7
ENDBRANCH   2   3
ENDBRANCH   1   2
BRANCH   1  26
ATOM     26  C   UNL A   1      32.903  32.464  27.274  1.00  0.00     0.118 C 
BRANCH  26  27
ATOM     27  N   UNL A   1      32.541  33.824  27.651  1.00  0.00    -0.352 N 
ATOM     28  C   UNL A   1      33.099  34.671  28.581  1.00  0.00     0.251 C 
ATOM     29  H   UNL A   1      31.773  34.198  27.161  1.00  0.00     0.163 HD
ATOM     30  O   UNL A   1      32.574  35.764  28.787  1.00  0.00    -0.269 OA
BRANCH  28  31
ATOM     31  C   UNL A   1      34.293  34.271  29.360  1.00  0.00     0.039 A 
ATOM     32  C   UNL A   1      34.111  33.554  30.549  1.00  0.00     0.014 A 
ATOM     33  C   UNL A   1      35.583  34.599  28.938  1.00  0.00     0.014 A 
ATOM     34  C   UNL A   1      35.222  33.088  31.262  1.00  0.00     0.010 A 
ATOM     35  C   UNL A   1      36.686  34.077  29.613  1.00  0.00     0.010 A 
ATOM     36  C   UNL A   1      36.519  33.306  30.774  1.00  0.00    -0.014 A 
BRANCH  36  37
ATOM     37  C   UNL A   1      37.717  32.719  31.430  1.00  0.00     0.031 A 
ATOM     38  C   UNL A   1      38.437  31.561  30.794  1.00  0.00     0.074 A 
ATOM     39  C   UNL A   1      38.078  33.139  32.660  1.00  0.00     0.049 A 
ATOM     40  N   UNL A   1      39.390  30.812  31.283  1.00  0.00    -0.248 NA
ATOM     41  C   UNL A   1      38.005  31.175  29.440  1.00  0.00     0.031 C 
ATOM     42  C   UNL A   1      37.426  34.211  33.414  1.00  0.00     0.029 A 
ATOM     43  N   UNL A   1      39.057  32.685  33.511  1.00  0.00    -0.354 N 
ATOM     44  C   UNL A   1      39.639  29.838  30.323  1.00  0.00     0.074 A 
ATOM     45  C   UNL A   1      38.724  30.081  29.229  1.00  0.00     0.031 C 
ATOM     46  C   UNL A   1      38.012  34.323  34.617  1.00  0.00     0.029 A 
ATOM     47  C   UNL A   1      39.055  33.311  34.737  1.00  0.00     0.049 A 
ATOM     48  H   UNL A   1      39.699  31.980  33.267  1.00  0.00     0.167 HD
ATOM     49  C   UNL A   1      40.561  28.846  30.339  1.00  0.00     0.034 A 
ATOM     50  C   UNL A   1      39.794  33.082  35.841  1.00  0.00     0.034 A 
ATOM     51  C   UNL A   1      41.509  28.642  31.400  1.00  0.00     0.049 A 
ATOM     52  C   UNL A   1      40.841  32.001  35.816  1.00  0.00     0.074 A 
ATOM     53  C   UNL A   1      42.539  27.719  31.465  1.00  0.00     0.029 A 
ATOM     54  N   UNL A   1      41.547  29.368  32.579  1.00  0.00    -0.354 N 
ATOM     55  N   UNL A   1      41.157  31.184  34.841  1.00  0.00    -0.248 NA
ATOM     56  C   UNL A   1      41.654  31.829  37.029  1.00  0.00     0.031 C 
ATOM     57  C   UNL A   1      43.194  27.882  32.691  1.00  0.00     0.029 A 
ATOM     58  C   UNL A   1      42.581  28.915  33.381  1.00  0.00     0.049 A 
ATOM     59  H   UNL A   1      40.930  30.098  32.813  1.00  0.00     0.167 HD
ATOM     60  C   UNL A   1      42.230  30.432  35.307  1.00  0.00     0.074 A 
ATOM     61  C   UNL A   1      42.518  30.898  36.647  1.00  0.00     0.031 C 
ATOM     62  C   UNL A   1      42.904  29.436  34.683  1.00  0.00     0.034 A 
BRANCH  49  63
ATOM     63  C   UNL A   1      40.631  27.935  29.142  1.00  0.00     0.023 A 
ATOM     64  C   UNL A   1      39.735  26.851  29.044  1.00  0.00     0.012 A 
ATOM     65  C   UNL A   1      41.532  28.184  28.089  1.00  0.00     0.148 A 
ATOM     66  C   UNL A   1      39.756  26.011  27.933  1.00  0.00     0.002 A 
ATOM     67  C   UNL A   1      41.519  27.365  26.965  1.00  0.00     0.091 A 
ATOM     68  F   UNL A   1      42.392  29.206  28.209  1.00  0.00    -0.205 F 
ATOM     69  C   UNL A   1      40.640  26.273  26.890  1.00  0.00     0.022 A 
BRANCH  67  70
ATOM     70  S   UNL A   1      42.566  27.670  25.537  1.00  0.00     0.127 S 
ATOM     71  O   UNL A   1      42.300  26.488  24.719  1.00  0.00    -0.237 OA
ATOM     72  O   UNL A   1      42.011  28.916  25.005  1.00  0.00    -0.237 OA
ATOM     73  O   UNL A   1      43.923  27.785  26.054  1.00  0.00    -0.744 OA
ENDBRANCH  67  70
ENDBRANCH  49  63
BRANCH  50  74
ATOM     74  C   UNL A   1      39.614  33.942  37.046  1.00  0.00     0.023 A 
ATOM     75  C   UNL A   1      40.058  35.279  37.008  1.00  0.00     0.012 A 
ATOM     76  C   UNL A   1      38.981  33.462  38.208  1.00  0.00     0.148 A 
ATOM     77  C   UNL A   1      39.903  36.112  38.115  1.00  0.00     0.002 A 
ATOM     78  C   UNL A   1      38.779  34.315  39.288  1.00  0.00     0.091 A 
ATOM     79  F   UNL A   1      38.577  32.184  38.232  1.00  0.00    -0.205 F 
ATOM     80  C   UNL A   1      39.253  35.635  39.251  1.00  0.00     0.022 A 
BRANCH  78  81
ATOM     81  S   UNL A   1      37.834  33.823  40.736  1.00  0.00     0.127 S 
ATOM     82  O   UNL A   1      38.802  33.006  41.463  1.00  0.00    -0.237 OA
ATOM     83  O   UNL A   1      37.528  35.114  41.354  1.00  0.00    -0.237 OA
ATOM     84  O   UNL A   1      36.668  33.120  40.219  1.00  0.00    -0.744 OA
ENDBRANCH  78  81
ENDBRANCH  50  74
BRANCH  62  85
ATOM     85  C   UNL A   1      44.059  28.800  35.412  1.00  0.00     0.023 A 
ATOM     86  C   UNL A   1      45.353  29.340  35.277  1.00  0.00     0.012 A 
ATOM     87  C   UNL A   1      43.841  27.736  36.309  1.00  0.00     0.148 A 
ATOM     88  C   UNL A   1      46.417  28.819  36.013  1.00  0.00     0.002 A 
ATOM     89  C   UNL A   1      44.898  27.251  37.072  1.00  0.00     0.091 A 
ATOM     90  F   UNL A   1      42.606  27.225  36.407  1.00  0.00    -0.205 F 
ATOM     91  C   UNL A   1      46.187  27.785  36.918  1.00  0.00     0.022 A 
BRANCH  89  92
ATOM     92  S   UNL A   1      44.677  25.986  38.329  1.00  0.00     0.127 S 
ATOM     93  O   UNL A   1      46.055  25.741  38.750  1.00  0.00    -0.237 OA
ATOM     94  O   UNL A   1      43.850  26.675  39.320  1.00  0.00    -0.237 OA
ATOM     95  O   UNL A   1      44.018  24.870  37.664  1.00  0.00    -0.744 OA
ENDBRANCH  89  92
ENDBRANCH  62  85
ENDBRANCH  36  37
ENDBRANCH  28  31
ENDBRANCH  26  27
ENDBRANCH   1  26
TORSDOF 16
ENDMDL
MODEL 3
REMARK VINA RESULT:     -12.9      5.548     10.646
REMARK SMILES Cc1cc([C@H](C)NC(=O)N2CC[C@H](C(=O)NCCCNC(=O)c3ccc(-c4c5nc(c(-c6cccc(S(=O)(=O)[O-])c6F)c6ccc([nH]6)c(-c6cccc(S(=O)(=O)[O-])c6F)c6nc(c(-c7cccc(S(=O)(=O)[O-])c7F)c7ccc4[nH]7)C=C6)C=C5)cc3)[C@@H]2C)c(C)s1
REMARK SMILES IDX 18 1 17 2 16 3 14 4 15 5 13 7 10 8 11 9 86 10 12 11 87 12
REMARK SMILES IDX 8 13 7 14 9 16 5 17 6 18 4 19 1 20 2 21 3 22 90 23 88 24
REMARK SMILES IDX 89 25 19 26 20 27 21 28 22 30 23 31 24 32 85 33 25 34 84 35
REMARK SMILES IDX 26 36 27 37 28 38 78 39 29 40 83 41 77 42 79 43 30 44 82 45
REMARK SMILES IDX 76 46 75 47 31 49 63 50 43 51 62 52 44 53 47 54 61 55 80 56
REMARK SMILES IDX 45 57 46 58 60 60 81 61 48 62 32 63 33 64 41 65 34 66 36 67
REMARK SMILES IDX 42 68 35 69 37 70 38 71 39 72 40 73 64 74 65 75 73 76 66 77
REMARK SMILES IDX 68 78 74 79 67 80 69 81 70 82 71 83 72 84 49 85 50 86 58 87
REMARK SMILES IDX 51 88 53 89 59 90 52 91 54 92 55 93 56 94 57 95
REMARK H PARENT 16 6 7 15 20 29 79 48 47 59
REMARK Flexibility Score: inf
ROOT
ATOM      1  C   UNL A   1      31.674  29.105  24.993  1.00  0.00     0.042 C 
ENDROOT
BRANCH   1   2
ATOM      2  C   UNL A   1      32.227  28.955  23.582  1.00  0.00     0.117 C 
BRANCH   2   3
ATOM      3  N   UNL A   1      33.027  27.758  23.378  1.00  0.00    -0.356 N 
ATOM      4  C   UNL A   1      32.656  26.447  23.342  1.00  0.00     0.225 C 
ATOM      5  O   UNL A   1      33.420  25.649  22.797  1.00  0.00    -0.275 OA
ATOM      6  H   UNL A   1      33.989  27.921  23.245  1.00  0.00     0.163 HD
BRANCH   4   7
ATOM      7  C   UNL A   1      31.353  25.997  23.982  1.00  0.00     0.102 C 
ATOM      8  N   UNL A   1      30.916  24.012  25.255  1.00  0.00    -0.321 N 
ATOM      9  C   UNL A   1      30.901  23.622  23.862  1.00  0.00     0.122 C 
ATOM     10  C   UNL A   1      31.512  25.345  25.379  1.00  0.00     0.096 C 
ATOM     11  C   UNL A   1      30.657  24.925  23.125  1.00  0.00     0.037 C 
ATOM     12  C   UNL A   1      32.942  25.252  25.916  1.00  0.00     0.032 C 
BRANCH   8  13
ATOM     13  C   UNL A   1      30.758  23.072  26.235  1.00  0.00     0.318 C 
ATOM     14  N   UNL A   1      31.274  21.828  26.063  1.00  0.00    -0.331 N 
ATOM     15  H   UNL A   1      30.669  21.068  26.223  1.00  0.00     0.165 HD
ATOM     16  O   UNL A   1      30.148  23.307  27.279  1.00  0.00    -0.249 OA
BRANCH  14  17
ATOM     17  C   UNL A   1      32.639  21.510  25.662  1.00  0.00     0.112 C 
ATOM     18  C   UNL A   1      33.578  21.644  26.869  1.00  0.00     0.036 C 
BRANCH  17  19
ATOM     19  C   UNL A   1      32.643  20.123  25.036  1.00  0.00    -0.012 A 
ATOM     20  C   UNL A   1      33.236  16.368  25.297  1.00  0.00     0.056 C 
ATOM     21  C   UNL A   1      32.921  17.779  24.944  1.00  0.00     0.002 A 
ATOM     22  C   UNL A   1      32.904  18.895  25.752  1.00  0.00     0.021 A 
ATOM     23  S   UNL A   1      32.528  18.168  23.339  1.00  0.00    -0.146 S 
ATOM     24  C   UNL A   1      32.435  19.842  23.687  1.00  0.00     0.007 A 
ATOM     25  C   UNL A   1      32.153  20.755  22.542  1.00  0.00     0.057 C 
ENDBRANCH  17  19
ENDBRANCH  14  17
ENDBRANCH   8  13
ENDBRANCH   4   7
ENDBRANCH   2   3
ENDBRANCH   1   2
BRANCH   1  26
ATOM     26  C   UNL A   1      32.648  29.657  26.034  1.00  0.00     0.118 C 
BRANCH  26  27
ATOM     27  N   UNL A   1      32.362  31.025  26.449  1.00  0.00    -0.352 N 
ATOM     28  C   UNL A   1      33.081  31.882  27.249  1.00  0.00     0.251 C 
ATOM     29  H   UNL A   1      31.519  31.395  26.100  1.00  0.00     0.163 HD
ATOM     30  O   UNL A   1      32.605  32.981  27.530  1.00  0.00    -0.269 OA
BRANCH  28  31
ATOM     31  C   UNL A   1      34.396  31.488  27.806  1.00  0.00     0.039 A 
ATOM     32  C   UNL A   1      35.371  32.476  27.993  1.00  0.00     0.014 A 
ATOM     33  C   UNL A   1      34.680  30.162  28.139  1.00  0.00     0.014 A 
ATOM     34  C   UNL A   1      36.591  32.151  28.596  1.00  0.00     0.010 A 
ATOM     35  C   UNL A   1      35.867  29.853  28.800  1.00  0.00     0.010 A 
ATOM     36  C   UNL A   1      36.831  30.844  29.047  1.00  0.00    -0.014 A 
BRANCH  36  37
ATOM     37  C   UNL A   1      38.058  30.486  29.807  1.00  0.00     0.031 A 
ATOM     38  C   UNL A   1      39.034  29.491  29.241  1.00  0.00     0.074 A 
ATOM     39  C   UNL A   1      38.227  30.952  31.061  1.00  0.00     0.049 A 
ATOM     40  N   UNL A   1      40.067  28.929  29.814  1.00  0.00    -0.248 NA
ATOM     41  C   UNL A   1      38.801  29.047  27.857  1.00  0.00     0.031 C 
ATOM     42  C   UNL A   1      37.321  31.873  31.751  1.00  0.00     0.029 A 
ATOM     43  N   UNL A   1      39.197  30.681  31.996  1.00  0.00    -0.354 N 
ATOM     44  C   UNL A   1      40.576  28.031  28.884  1.00  0.00     0.074 A 
ATOM     45  C   UNL A   1      39.728  28.110  27.714  1.00  0.00     0.031 C 
ATOM     46  C   UNL A   1      37.770  32.080  33.000  1.00  0.00     0.029 A 
ATOM     47  C   UNL A   1      38.972  31.280  33.215  1.00  0.00     0.049 A 
ATOM     48  H   UNL A   1      39.979  30.112  31.811  1.00  0.00     0.167 HD
ATOM     49  C   UNL A   1      41.663  27.230  28.984  1.00  0.00     0.034 A 
ATOM     50  C   UNL A   1      39.643  31.183  34.379  1.00  0.00     0.034 A 
ATOM     51  C   UNL A   1      42.539  27.196  30.124  1.00  0.00     0.049 A 
ATOM     52  C   UNL A   1      40.873  30.318  34.449  1.00  0.00     0.074 A 
ATOM     53  C   UNL A   1      43.715  26.483  30.282  1.00  0.00     0.029 A 
ATOM     54  N   UNL A   1      42.338  27.903  31.299  1.00  0.00    -0.354 N 
ATOM     55  N   UNL A   1      41.420  29.587  33.510  1.00  0.00    -0.248 NA
ATOM     56  C   UNL A   1      41.597  30.289  35.729  1.00  0.00     0.031 C 
ATOM     57  C   UNL A   1      44.220  26.752  31.559  1.00  0.00     0.029 A 
ATOM     58  C   UNL A   1      43.367  27.644  32.189  1.00  0.00     0.049 A 
ATOM     59  H   UNL A   1      41.577  28.500  31.475  1.00  0.00     0.167 HD
ATOM     60  C   UNL A   1      42.572  29.045  34.070  1.00  0.00     0.074 A 
ATOM     61  C   UNL A   1      42.651  29.541  35.427  1.00  0.00     0.031 C 
ATOM     62  C   UNL A   1      43.473  28.200  33.512  1.00  0.00     0.034 A 
BRANCH  49  63
ATOM     63  C   UNL A   1      42.006  26.362  27.803  1.00  0.00     0.023 A 
ATOM     64  C   UNL A   1      42.784  26.895  26.755  1.00  0.00     0.012 A 
ATOM     65  C   UNL A   1      41.618  25.009  27.756  1.00  0.00     0.148 A 
ATOM     66  C   UNL A   1      43.143  26.106  25.664  1.00  0.00     0.002 A 
ATOM     67  C   UNL A   1      42.015  24.216  26.684  1.00  0.00     0.091 A 
ATOM     68  F   UNL A   1      40.860  24.525  28.750  1.00  0.00    -0.205 F 
ATOM     69  C   UNL A   1      42.768  24.766  25.633  1.00  0.00     0.022 A 
BRANCH  67  70
ATOM     70  S   UNL A   1      41.647  22.460  26.594  1.00  0.00     0.127 S 
ATOM     71  O   UNL A   1      42.234  21.972  27.841  1.00  0.00    -0.237 OA
ATOM     72  O   UNL A   1      40.183  22.451  26.565  1.00  0.00    -0.237 OA
ATOM     73  O   UNL A   1      42.278  21.983  25.371  1.00  0.00    -0.744 OA
ENDBRANCH  67  70
ENDBRANCH  49  63
BRANCH  50  74
ATOM     74  C   UNL A   1      39.202  31.979  35.560  1.00  0.00     0.023 A 
ATOM     75  C   UNL A   1      39.487  33.358  35.603  1.00  0.00     0.012 A 
ATOM     76  C   UNL A   1      38.477  31.395  36.616  1.00  0.00     0.148 A 
ATOM     77  C   UNL A   1      39.086  34.135  36.690  1.00  0.00     0.002 A 
ATOM     78  C   UNL A   1      38.032  32.186  37.670  1.00  0.00     0.091 A 
ATOM     79  F   UNL A   1      38.227  30.079  36.566  1.00  0.00    -0.205 F 
ATOM     80  C   UNL A   1      38.349  33.552  37.718  1.00  0.00     0.022 A 
BRANCH  78  81
ATOM     81  S   UNL A   1      36.964  31.546  38.966  1.00  0.00     0.127 S 
ATOM     82  O   UNL A   1      35.831  32.466  38.903  1.00  0.00    -0.237 OA
ATOM     83  O   UNL A   1      36.684  30.190  38.490  1.00  0.00    -0.237 OA
ATOM     84  O   UNL A   1      37.758  31.597  40.186  1.00  0.00    -0.744 OA
ENDBRANCH  78  81
ENDBRANCH  50  74
BRANCH  62  85
ATOM     85  C   UNL A   1      44.660  27.786  34.340  1.00  0.00     0.023 A 
ATOM     86  C   UNL A   1      45.808  28.601  34.374  1.00  0.00     0.012 A 
ATOM     87  C   UNL A   1      44.595  26.645  35.164  1.00  0.00     0.148 A 
ATOM     88  C   UNL A   1      46.881  28.277  35.204  1.00  0.00     0.002 A 
ATOM     89  C   UNL A   1      45.650  26.352  36.021  1.00  0.00     0.091 A 
ATOM     90  F   UNL A   1      43.500  25.873  35.101  1.00  0.00    -0.205 F 
ATOM     91  C   UNL A   1      46.796  27.162  36.036  1.00  0.00     0.022 A 
BRANCH  89  92
ATOM     92  S   UNL A   1      45.590  24.993  37.194  1.00  0.00     0.127 S 
ATOM     93  O   UNL A   1      46.817  25.203  37.958  1.00  0.00    -0.237 OA
ATOM     94  O   UNL A   1      44.356  25.272  37.931  1.00  0.00    -0.237 OA
ATOM     95  O   UNL A   1      45.551  23.775  36.395  1.00  0.00    -0.744 OA
ENDBRANCH  89  92
ENDBRANCH  62  85
ENDBRANCH  36  37
ENDBRANCH  28  31
ENDBRANCH  26  27
ENDBRANCH   1  26
TORSDOF 16
ENDMDL
