MODEL 1
REMARK VINA RESULT:     -13.2      0.000      0.000
REMARK SMILES [NH3+][C@@H](Cc1cn(-c2nc(Cl)nc(N3CCOCC3)n2)c2ccccc12)C(=O)NCCCNC(=O)c1ccc(-c2c3nc(c(-c4cccc(S(=O)(=O)[O-])c4F)c4ccc([nH]4)c(-c4cccc(S(=O)(=O)[O-])c4F)c4nc(c(-c5cccc(S(=O)(=O)[O-])c5F)c5ccc2[nH]5)C=C4)C=C3)cc1
REMARK SMILES IDX 29 1 28 2 26 3 27 4 2 6 1 7 3 11 4 12 5 13 25 14 6 15 20 16
REMARK SMILES IDX 24 17 21 18 23 19 22 20 7 21 8 22 19 23 9 24 12 25 10 26
REMARK SMILES IDX 11 27 13 28 14 29 18 30 15 31 17 32 16 33 30 34 31 35 32 36
REMARK SMILES IDX 33 37 34 39 35 40 36 41 97 42 37 43 96 44 38 45 39 46 40 47
REMARK SMILES IDX 90 48 41 49 95 50 89 51 91 52 42 53 94 54 88 55 87 56 43 58
REMARK SMILES IDX 75 59 55 60 74 61 56 62 59 63 73 64 92 65 57 66 58 67 72 69
REMARK SMILES IDX 93 70 60 71 44 72 45 73 53 74 46 75 48 76 54 77 47 78 49 79
REMARK SMILES IDX 50 80 51 81 52 82 76 83 77 84 85 85 78 86 80 87 86 88 79 89
REMARK SMILES IDX 81 90 82 91 83 92 84 93 61 94 62 95 70 96 63 97 65 98 71 99
REMARK SMILES IDX 64 100 66 101 67 102 68 103 69 104
REMARK H PARENT 28 5 1 8 1 9 1 10 32 38 91 57 59 68
REMARK Flexibility Score: inf
ROOT
ATOM      1  C   UNL A   1      34.375  28.808  26.107  1.00  0.00     0.118 C 
ENDROOT
BRANCH   1   2
ATOM      2  N   UNL A   1      33.122  28.889  25.385  1.00  0.00    -0.351 N 
ATOM      3  C   UNL A   1      31.891  28.375  25.644  1.00  0.00     0.278 C 
ATOM      4  O   UNL A   1      30.978  28.826  24.929  1.00  0.00    -0.268 OA
ATOM      5  H   UNL A   1      33.172  29.413  24.554  1.00  0.00     0.163 HD
BRANCH   3   6
ATOM      6  C   UNL A   1      31.544  27.233  26.650  1.00  0.00     0.275 C 
BRANCH   6   7
ATOM      7  N   UNL A   1      31.054  27.795  27.926  1.00  0.00    -0.347 N 
ATOM      8  H   UNL A   1      31.058  27.068  28.642  1.00  0.00     0.345 HD
ATOM      9  H   UNL A   1      30.103  28.144  27.800  1.00  0.00     0.345 HD
ATOM     10  H   UNL A   1      31.661  28.561  28.216  1.00  0.00     0.345 HD
ENDBRANCH   6   7
BRANCH   6  11
ATOM     11  C   UNL A   1      30.928  25.885  26.241  1.00  0.00     0.113 C 
BRANCH  11  12
ATOM     12  C   UNL A   1      31.525  24.983  25.197  1.00  0.00    -0.015 A 
ATOM     13  C   UNL A   1      32.035  23.737  25.528  1.00  0.00     0.099 A 
ATOM     14  C   UNL A   1      31.741  25.126  23.777  1.00  0.00     0.004 A 
ATOM     15  N   UNL A   1      32.766  23.256  24.471  1.00  0.00    -0.285 N 
ATOM     16  C   UNL A   1      32.617  24.099  23.389  1.00  0.00     0.056 A 
ATOM     17  C   UNL A   1      31.386  26.073  22.789  1.00  0.00     0.010 A 
ATOM     18  C   UNL A   1      33.159  24.012  22.095  1.00  0.00     0.027 A 
ATOM     19  C   UNL A   1      31.905  25.986  21.492  1.00  0.00     0.001 A 
ATOM     20  C   UNL A   1      32.783  24.969  21.155  1.00  0.00     0.002 A 
BRANCH  15  21
ATOM     21  C   UNL A   1      33.546  22.079  24.516  1.00  0.00     0.240 A 
ATOM     22  N   UNL A   1      34.864  22.215  24.598  1.00  0.00    -0.181 NA
ATOM     23  N   UNL A   1      32.878  20.927  24.557  1.00  0.00    -0.176 NA
ATOM     24  C   UNL A   1      35.473  21.056  24.800  1.00  0.00     0.228 A 
ATOM     25  C   UNL A   1      33.620  19.833  24.655  1.00  0.00     0.231 A 
ATOM     26  Cl  UNL A   1      37.162  21.129  25.035  1.00  0.00    -0.041 Cl
ATOM     27  N   UNL A   1      34.923  19.851  24.881  1.00  0.00    -0.182 NA
BRANCH  25  28
ATOM     28  N   UNL A   1      33.014  18.633  24.442  1.00  0.00    -0.336 N 
ATOM     29  C   UNL A   1      32.592  17.818  25.576  1.00  0.00     0.148 C 
ATOM     30  C   UNL A   1      33.062  17.984  23.146  1.00  0.00     0.148 C 
ATOM     31  C   UNL A   1      33.382  16.504  25.599  1.00  0.00     0.181 C 
ATOM     32  C   UNL A   1      33.842  16.661  23.281  1.00  0.00     0.181 C 
ATOM     33  O   UNL A   1      33.319  15.825  24.330  1.00  0.00    -0.378 OA
ENDBRANCH  25  28
ENDBRANCH  15  21
ENDBRANCH  11  12
ENDBRANCH   6  11
ENDBRANCH   3   6
ENDBRANCH   1   2
BRANCH   1  34
ATOM     34  C   UNL A   1      34.391  29.495  27.477  1.00  0.00     0.042 C 
BRANCH  34  35
ATOM     35  C   UNL A   1      34.198  31.014  27.466  1.00  0.00     0.118 C 
BRANCH  35  36
ATOM     36  N   UNL A   1      34.145  31.618  28.783  1.00  0.00    -0.352 N 
ATOM     37  C   UNL A   1      35.003  31.922  29.796  1.00  0.00     0.251 C 
ATOM     38  H   UNL A   1      33.225  31.885  29.010  1.00  0.00     0.163 HD
ATOM     39  O   UNL A   1      34.503  32.636  30.672  1.00  0.00    -0.269 OA
BRANCH  37  40
ATOM     40  C   UNL A   1      36.405  31.458  29.979  1.00  0.00     0.039 A 
ATOM     41  C   UNL A   1      37.564  32.227  29.893  1.00  0.00     0.014 A 
ATOM     42  C   UNL A   1      36.542  30.065  30.159  1.00  0.00     0.014 A 
ATOM     43  C   UNL A   1      38.819  31.595  29.863  1.00  0.00     0.010 A 
ATOM     44  C   UNL A   1      37.780  29.438  30.120  1.00  0.00     0.010 A 
ATOM     45  C   UNL A   1      38.920  30.196  29.894  1.00  0.00    -0.014 A 
BRANCH  45  46
ATOM     46  C   UNL A   1      40.232  29.537  29.818  1.00  0.00     0.031 A 
ATOM     47  C   UNL A   1      40.867  29.309  31.148  1.00  0.00     0.074 A 
ATOM     48  C   UNL A   1      40.744  29.014  28.676  1.00  0.00     0.049 A 
ATOM     49  N   UNL A   1      41.975  29.800  31.603  1.00  0.00    -0.248 NA
ATOM     50  C   UNL A   1      40.102  28.544  32.148  1.00  0.00     0.031 C 
ATOM     51  C   UNL A   1      40.089  28.926  27.363  1.00  0.00     0.029 A 
ATOM     52  N   UNL A   1      41.912  28.329  28.464  1.00  0.00    -0.354 N 
ATOM     53  C   UNL A   1      42.155  29.215  32.858  1.00  0.00     0.074 A 
ATOM     54  C   UNL A   1      40.902  28.605  33.213  1.00  0.00     0.031 C 
ATOM     55  C   UNL A   1      40.740  28.028  26.586  1.00  0.00     0.029 A 
ATOM     56  C   UNL A   1      41.938  27.588  27.275  1.00  0.00     0.049 A 
ATOM     57  H   UNL A   1      42.668  28.354  29.094  1.00  0.00     0.167 HD
ATOM     58  C   UNL A   1      43.391  29.034  33.397  1.00  0.00     0.034 A 
ATOM     59  C   UNL A   1      42.860  26.655  26.916  1.00  0.00     0.034 A 
ATOM     60  C   UNL A   1      44.394  29.772  32.685  1.00  0.00     0.049 A 
ATOM     61  C   UNL A   1      44.066  26.932  27.721  1.00  0.00     0.074 A 
ATOM     62  C   UNL A   1      44.771  31.088  32.556  1.00  0.00     0.029 A 
ATOM     63  N   UNL A   1      44.941  29.075  31.643  1.00  0.00    -0.354 N 
ATOM     64  N   UNL A   1      44.801  27.994  27.573  1.00  0.00    -0.248 NA
ATOM     65  C   UNL A   1      44.330  26.136  28.912  1.00  0.00     0.031 C 
ATOM     66  C   UNL A   1      45.345  31.197  31.255  1.00  0.00     0.029 A 
ATOM     67  C   UNL A   1      45.335  29.936  30.658  1.00  0.00     0.049 A 
ATOM     68  H   UNL A   1      45.038  28.096  31.606  1.00  0.00     0.167 HD
ATOM     69  C   UNL A   1      45.279  28.238  28.845  1.00  0.00     0.074 A 
ATOM     70  C   UNL A   1      45.127  26.982  29.565  1.00  0.00     0.031 C 
ATOM     71  C   UNL A   1      45.442  29.516  29.281  1.00  0.00     0.034 A 
BRANCH  58  72
ATOM     72  C   UNL A   1      43.783  27.852  34.257  1.00  0.00     0.023 A 
ATOM     73  C   UNL A   1      44.408  28.104  35.497  1.00  0.00     0.012 A 
ATOM     74  C   UNL A   1      43.831  26.525  33.771  1.00  0.00     0.148 A 
ATOM     75  C   UNL A   1      45.041  27.083  36.219  1.00  0.00     0.002 A 
ATOM     76  C   UNL A   1      44.396  25.501  34.524  1.00  0.00     0.091 A 
ATOM     77  F   UNL A   1      43.457  26.270  32.512  1.00  0.00    -0.205 F 
ATOM     78  C   UNL A   1      45.020  25.778  35.742  1.00  0.00     0.022 A 
BRANCH  76  79
ATOM     79  S   UNL A   1      44.377  23.796  33.959  1.00  0.00     0.127 S 
ATOM     80  O   UNL A   1      45.452  23.212  34.758  1.00  0.00    -0.237 OA
ATOM     81  O   UNL A   1      43.027  23.375  34.332  1.00  0.00    -0.237 OA
ATOM     82  O   UNL A   1      44.608  23.862  32.521  1.00  0.00    -0.744 OA
ENDBRANCH  76  79
ENDBRANCH  58  72
BRANCH  59  83
ATOM     83  C   UNL A   1      42.823  25.426  26.077  1.00  0.00     0.023 A 
ATOM     84  C   UNL A   1      43.819  25.255  25.082  1.00  0.00     0.012 A 
ATOM     85  C   UNL A   1      42.090  24.289  26.471  1.00  0.00     0.148 A 
ATOM     86  C   UNL A   1      44.151  23.989  24.587  1.00  0.00     0.002 A 
ATOM     87  C   UNL A   1      42.422  23.028  25.969  1.00  0.00     0.091 A 
ATOM     88  F   UNL A   1      41.146  24.427  27.411  1.00  0.00    -0.205 F 
ATOM     89  C   UNL A   1      43.468  22.872  25.049  1.00  0.00     0.022 A 
BRANCH  87  90
ATOM     90  S   UNL A   1      41.602  21.528  26.525  1.00  0.00     0.127 S 
ATOM     91  O   UNL A   1      40.208  21.785  26.164  1.00  0.00    -0.237 OA
ATOM     92  O   UNL A   1      42.263  20.506  25.724  1.00  0.00    -0.237 OA
ATOM     93  O   UNL A   1      41.842  21.466  27.965  1.00  0.00    -0.744 OA
ENDBRANCH  87  90
ENDBRANCH  59  83
BRANCH  71  94
ATOM     94  C   UNL A   1      45.546  30.590  28.243  1.00  0.00     0.023 A 
ATOM     95  C   UNL A   1      44.422  31.236  27.691  1.00  0.00     0.012 A 
ATOM     96  C   UNL A   1      46.833  31.048  27.928  1.00  0.00     0.148 A 
ATOM     97  C   UNL A   1      44.587  32.331  26.837  1.00  0.00     0.002 A 
ATOM     98  C   UNL A   1      46.992  32.157  27.113  1.00  0.00     0.091 A 
ATOM     99  F   UNL A   1      47.878  30.405  28.469  1.00  0.00    -0.205 F 
ATOM    100  C   UNL A   1      45.871  32.800  26.561  1.00  0.00     0.022 A 
BRANCH  98 101
ATOM    101  S   UNL A   1      48.606  32.872  26.808  1.00  0.00     0.127 S 
ATOM    102  O   UNL A   1      48.939  33.441  28.111  1.00  0.00    -0.237 OA
ATOM    103  O   UNL A   1      49.394  31.698  26.431  1.00  0.00    -0.237 OA
ATOM    104  O   UNL A   1      48.426  33.842  25.735  1.00  0.00    -0.744 OA
ENDBRANCH  98 101
ENDBRANCH  71  94
ENDBRANCH  45  46
ENDBRANCH  37  40
ENDBRANCH  35  36
ENDBRANCH  34  35
ENDBRANCH   1  34
TORSDOF 18
ENDMDL
MODEL 2
REMARK VINA RESULT:     -12.3      1.478      1.925
REMARK SMILES [NH3+][C@@H](Cc1cn(-c2nc(Cl)nc(N3CCOCC3)n2)c2ccccc12)C(=O)NCCCNC(=O)c1ccc(-c2c3nc(c(-c4cccc(S(=O)(=O)[O-])c4F)c4ccc([nH]4)c(-c4cccc(S(=O)(=O)[O-])c4F)c4nc(c(-c5cccc(S(=O)(=O)[O-])c5F)c5ccc2[nH]5)C=C4)C=C3)cc1
REMARK SMILES IDX 29 1 28 2 26 3 27 4 2 6 1 7 3 11 4 12 5 13 25 14 6 15 20 16
REMARK SMILES IDX 24 17 21 18 23 19 22 20 7 21 8 22 19 23 9 24 12 25 10 26
REMARK SMILES IDX 11 27 13 28 14 29 18 30 15 31 17 32 16 33 30 34 31 35 32 36
REMARK SMILES IDX 33 37 34 39 35 40 36 41 97 42 37 43 96 44 38 45 39 46 40 47
REMARK SMILES IDX 90 48 41 49 95 50 89 51 91 52 42 53 94 54 88 55 87 56 43 58
REMARK SMILES IDX 75 59 55 60 74 61 56 62 59 63 73 64 92 65 57 66 58 67 72 69
REMARK SMILES IDX 93 70 60 71 44 72 45 73 53 74 46 75 48 76 54 77 47 78 49 79
REMARK SMILES IDX 50 80 51 81 52 82 76 83 77 84 85 85 78 86 80 87 86 88 79 89
REMARK SMILES IDX 81 90 82 91 83 92 84 93 61 94 62 95 70 96 63 97 65 98 71 99
REMARK SMILES IDX 64 100 66 101 67 102 68 103 69 104
REMARK H PARENT 28 5 1 8 1 9 1 10 32 38 91 57 59 68
REMARK Flexibility Score: inf
ROOT
ATOM      1  C   UNL A   1      31.969  30.989  26.816  1.00  0.00     0.118 C 
ENDROOT
BRANCH   1   2
ATOM      2  N   UNL A   1      32.341  30.303  25.596  1.00  0.00    -0.351 N 
ATOM      3  C   UNL A   1      32.661  29.007  25.345  1.00  0.00     0.278 C 
ATOM      4  O   UNL A   1      32.711  28.707  24.138  1.00  0.00    -0.268 OA
ATOM      5  H   UNL A   1      32.366  30.884  24.802  1.00  0.00     0.163 HD
BRANCH   3   6
ATOM      6  C   UNL A   1      33.061  27.920  26.392  1.00  0.00     0.275 C 
BRANCH   6   7
ATOM      7  N   UNL A   1      31.932  27.634  27.302  1.00  0.00    -0.347 N 
ATOM      8  H   UNL A   1      31.791  28.427  27.929  1.00  0.00     0.345 HD
ATOM      9  H   UNL A   1      32.142  26.799  27.851  1.00  0.00     0.345 HD
ATOM     10  H   UNL A   1      31.086  27.477  26.755  1.00  0.00     0.345 HD
ENDBRANCH   6   7
BRANCH   6  11
ATOM     11  C   UNL A   1      33.982  26.728  26.084  1.00  0.00     0.113 C 
BRANCH  11  12
ATOM     12  C   UNL A   1      33.482  25.396  25.599  1.00  0.00    -0.015 A 
ATOM     13  C   UNL A   1      34.207  24.234  25.811  1.00  0.00     0.099 A 
ATOM     14  C   UNL A   1      32.307  24.992  24.864  1.00  0.00     0.004 A 
ATOM     15  N   UNL A   1      33.685  23.231  25.033  1.00  0.00    -0.285 N 
ATOM     16  C   UNL A   1      32.528  23.676  24.427  1.00  0.00     0.056 A 
ATOM     17  C   UNL A   1      31.124  25.625  24.420  1.00  0.00     0.010 A 
ATOM     18  C   UNL A   1      31.649  23.006  23.559  1.00  0.00     0.027 A 
ATOM     19  C   UNL A   1      30.231  24.961  23.569  1.00  0.00     0.001 A 
ATOM     20  C   UNL A   1      30.496  23.670  23.144  1.00  0.00     0.002 A 
BRANCH  15  21
ATOM     21  C   UNL A   1      34.269  21.952  24.890  1.00  0.00     0.240 A 
ATOM     22  N   UNL A   1      35.592  21.883  24.812  1.00  0.00    -0.181 NA
ATOM     23  N   UNL A   1      33.435  20.913  24.932  1.00  0.00    -0.176 NA
ATOM     24  C   UNL A   1      36.028  20.633  24.849  1.00  0.00     0.228 A 
ATOM     25  C   UNL A   1      34.001  19.717  24.852  1.00  0.00     0.231 A 
ATOM     26  Cl  UNL A   1      37.723  20.433  24.869  1.00  0.00    -0.041 Cl
ATOM     27  N   UNL A   1      35.307  19.521  24.909  1.00  0.00    -0.182 NA
BRANCH  25  28
ATOM     28  N   UNL A   1      33.192  18.645  24.630  1.00  0.00    -0.336 N 
ATOM     29  C   UNL A   1      32.680  17.872  25.756  1.00  0.00     0.148 C 
ATOM     30  C   UNL A   1      33.079  18.045  23.315  1.00  0.00     0.148 C 
ATOM     31  C   UNL A   1      33.235  16.444  25.707  1.00  0.00     0.181 C 
ATOM     32  C   UNL A   1      33.627  16.605  23.376  1.00  0.00     0.181 C 
ATOM     33  O   UNL A   1      33.010  15.832  24.422  1.00  0.00    -0.378 OA
ENDBRANCH  25  28
ENDBRANCH  15  21
ENDBRANCH  11  12
ENDBRANCH   6  11
ENDBRANCH   3   6
ENDBRANCH   1   2
BRANCH   1  34
ATOM     34  C   UNL A   1      33.010  31.971  27.363  1.00  0.00     0.042 C 
BRANCH  34  35
ATOM     35  C   UNL A   1      34.310  31.349  27.880  1.00  0.00     0.118 C 
BRANCH  35  36
ATOM     36  N   UNL A   1      34.876  32.020  29.034  1.00  0.00    -0.352 N 
ATOM     37  C   UNL A   1      36.084  32.128  29.655  1.00  0.00     0.251 C 
ATOM     38  H   UNL A   1      34.191  32.550  29.502  1.00  0.00     0.163 HD
ATOM     39  O   UNL A   1      36.117  33.006  30.525  1.00  0.00    -0.269 OA
BRANCH  37  40
ATOM     40  C   UNL A   1      37.300  31.299  29.443  1.00  0.00     0.039 A 
ATOM     41  C   UNL A   1      37.348  29.957  29.070  1.00  0.00     0.014 A 
ATOM     42  C   UNL A   1      38.514  31.945  29.762  1.00  0.00     0.014 A 
ATOM     43  C   UNL A   1      38.567  29.258  29.137  1.00  0.00     0.010 A 
ATOM     44  C   UNL A   1      39.715  31.254  29.838  1.00  0.00     0.010 A 
ATOM     45  C   UNL A   1      39.732  29.887  29.599  1.00  0.00    -0.014 A 
BRANCH  45  46
ATOM     46  C   UNL A   1      40.993  29.141  29.711  1.00  0.00     0.031 A 
ATOM     47  C   UNL A   1      41.413  28.880  31.118  1.00  0.00     0.074 A 
ATOM     48  C   UNL A   1      41.628  28.577  28.654  1.00  0.00     0.049 A 
ATOM     49  N   UNL A   1      42.475  29.300  31.729  1.00  0.00    -0.248 NA
ATOM     50  C   UNL A   1      40.462  28.176  31.996  1.00  0.00     0.031 C 
ATOM     51  C   UNL A   1      41.164  28.524  27.260  1.00  0.00     0.029 A 
ATOM     52  N   UNL A   1      42.765  27.813  28.611  1.00  0.00    -0.354 N 
ATOM     53  C   UNL A   1      42.432  28.713  32.996  1.00  0.00     0.074 A 
ATOM     54  C   UNL A   1      41.103  28.191  33.165  1.00  0.00     0.031 C 
ATOM     55  C   UNL A   1      41.858  27.579  26.582  1.00  0.00     0.029 A 
ATOM     56  C   UNL A   1      42.912  27.064  27.435  1.00  0.00     0.049 A 
ATOM     57  H   UNL A   1      43.422  27.792  29.343  1.00  0.00     0.167 HD
ATOM     58  C   UNL A   1      43.563  28.452  33.707  1.00  0.00     0.034 A 
ATOM     59  C   UNL A   1      43.810  26.068  27.211  1.00  0.00     0.034 A 
ATOM     60  C   UNL A   1      44.705  29.116  33.148  1.00  0.00     0.049 A 
ATOM     61  C   UNL A   1      44.904  26.269  28.182  1.00  0.00     0.074 A 
ATOM     62  C   UNL A   1      45.185  30.403  33.078  1.00  0.00     0.029 A 
ATOM     63  N   UNL A   1      45.349  28.377  32.194  1.00  0.00    -0.354 N 
ATOM     64  N   UNL A   1      45.723  27.279  28.144  1.00  0.00    -0.248 NA
ATOM     65  C   UNL A   1      44.939  25.465  29.396  1.00  0.00     0.031 C 
ATOM     66  C   UNL A   1      45.946  30.464  31.874  1.00  0.00     0.029 A 
ATOM     67  C   UNL A   1      45.937  29.203  31.278  1.00  0.00     0.049 A 
ATOM     68  H   UNL A   1      45.384  27.393  32.169  1.00  0.00     0.167 HD
ATOM     69  C   UNL A   1      46.028  27.499  29.472  1.00  0.00     0.074 A 
ATOM     70  C   UNL A   1      45.690  26.261  30.160  1.00  0.00     0.031 C 
ATOM     71  C   UNL A   1      46.212  28.766  29.931  1.00  0.00     0.034 A 
BRANCH  58  72
ATOM     72  C   UNL A   1      43.746  27.253  34.611  1.00  0.00     0.023 A 
ATOM     73  C   UNL A   1      44.052  27.480  35.970  1.00  0.00     0.012 A 
ATOM     74  C   UNL A   1      43.920  25.937  34.124  1.00  0.00     0.148 A 
ATOM     75  C   UNL A   1      44.501  26.445  36.802  1.00  0.00     0.002 A 
ATOM     76  C   UNL A   1      44.296  24.899  34.969  1.00  0.00     0.091 A 
ATOM     77  F   UNL A   1      43.862  25.709  32.807  1.00  0.00    -0.205 F 
ATOM     78  C   UNL A   1      44.606  25.151  36.307  1.00  0.00     0.022 A 
BRANCH  76  79
ATOM     79  S   UNL A   1      44.427  23.207  34.382  1.00  0.00     0.127 S 
ATOM     80  O   UNL A   1      43.132  23.020  33.734  1.00  0.00    -0.237 OA
ATOM     81  O   UNL A   1      45.570  23.296  33.473  1.00  0.00    -0.237 OA
ATOM     82  O   UNL A   1      44.672  22.402  35.572  1.00  0.00    -0.744 OA
ENDBRANCH  76  79
ENDBRANCH  58  72
BRANCH  59  83
ATOM     83  C   UNL A   1      43.811  24.838  26.372  1.00  0.00     0.023 A 
ATOM     84  C   UNL A   1      45.002  24.488  25.686  1.00  0.00     0.012 A 
ATOM     85  C   UNL A   1      42.829  23.841  26.530  1.00  0.00     0.148 A 
ATOM     86  C   UNL A   1      45.253  23.173  25.278  1.00  0.00     0.002 A 
ATOM     87  C   UNL A   1      43.083  22.531  26.116  1.00  0.00     0.091 A 
ATOM     88  F   UNL A   1      41.698  24.148  27.177  1.00  0.00    -0.205 F 
ATOM     89  C   UNL A   1      44.304  22.189  25.515  1.00  0.00     0.022 A 
BRANCH  87  90
ATOM     90  S   UNL A   1      41.917  21.192  26.399  1.00  0.00     0.127 S 
ATOM     91  O   UNL A   1      42.492  20.107  25.602  1.00  0.00    -0.237 OA
ATOM     92  O   UNL A   1      42.010  21.007  27.841  1.00  0.00    -0.237 OA
ATOM     93  O   UNL A   1      40.636  21.682  25.898  1.00  0.00    -0.744 OA
ENDBRANCH  87  90
ENDBRANCH  59  83
BRANCH  71  94
ATOM     94  C   UNL A   1      46.537  29.823  28.921  1.00  0.00     0.023 A 
ATOM     95  C   UNL A   1      47.838  30.036  28.422  1.00  0.00     0.012 A 
ATOM     96  C   UNL A   1      45.457  30.522  28.363  1.00  0.00     0.148 A 
ATOM     97  C   UNL A   1      48.052  30.937  27.375  1.00  0.00     0.002 A 
ATOM     98  C   UNL A   1      45.668  31.383  27.298  1.00  0.00     0.091 A 
ATOM     99  F   UNL A   1      44.234  30.296  28.865  1.00  0.00    -0.205 F 
ATOM    100  C   UNL A   1      46.966  31.598  26.803  1.00  0.00     0.022 A 
BRANCH  98 101
ATOM    101  S   UNL A   1      44.304  32.179  26.452  1.00  0.00     0.127 S 
ATOM    102  O   UNL A   1      43.434  31.047  26.143  1.00  0.00    -0.237 OA
ATOM    103  O   UNL A   1      43.791  33.084  27.482  1.00  0.00    -0.237 OA
ATOM    104  O   UNL A   1      44.879  32.854  25.295  1.00  0.00    -0.744 OA
ENDBRANCH  98 101
ENDBRANCH  71  94
ENDBRANCH  45  46
ENDBRANCH  37  40
ENDBRANCH  35  36
ENDBRANCH  34  35
ENDBRANCH   1  34
TORSDOF 18
ENDMDL
MODEL 3
REMARK VINA RESULT:     -12.2      5.296      9.024
REMARK SMILES [NH3+][C@@H](Cc1cn(-c2nc(Cl)nc(N3CCOCC3)n2)c2ccccc12)C(=O)NCCCNC(=O)c1ccc(-c2c3nc(c(-c4cccc(S(=O)(=O)[O-])c4F)c4ccc([nH]4)c(-c4cccc(S(=O)(=O)[O-])c4F)c4nc(c(-c5cccc(S(=O)(=O)[O-])c5F)c5ccc2[nH]5)C=C4)C=C3)cc1
REMARK SMILES IDX 29 1 28 2 26 3 27 4 2 6 1 7 3 11 4 12 5 13 25 14 6 15 20 16
REMARK SMILES IDX 24 17 21 18 23 19 22 20 7 21 8 22 19 23 9 24 12 25 10 26
REMARK SMILES IDX 11 27 13 28 14 29 18 30 15 31 17 32 16 33 30 34 31 35 32 36
REMARK SMILES IDX 33 37 34 39 35 40 36 41 97 42 37 43 96 44 38 45 39 46 40 47
REMARK SMILES IDX 90 48 41 49 95 50 89 51 91 52 42 53 94 54 88 55 87 56 43 58
REMARK SMILES IDX 75 59 55 60 74 61 56 62 59 63 73 64 92 65 57 66 58 67 72 69
REMARK SMILES IDX 93 70 60 71 44 72 45 73 53 74 46 75 48 76 54 77 47 78 49 79
REMARK SMILES IDX 50 80 51 81 52 82 76 83 77 84 85 85 78 86 80 87 86 88 79 89
REMARK SMILES IDX 81 90 82 91 83 92 84 93 61 94 62 95 70 96 63 97 65 98 71 99
REMARK SMILES IDX 64 100 66 101 67 102 68 103 69 104
REMARK H PARENT 28 5 1 8 1 9 1 10 32 38 91 57 59 68
REMARK Flexibility Score: inf
ROOT
ATOM      1  C   UNL A   1      33.395  36.114  29.645  1.00  0.00     0.118 C 
ENDROOT
BRANCH   1   2
ATOM      2  N   UNL A   1      32.817  35.339  30.723  1.00  0.00    -0.351 N 
ATOM      3  C   UNL A   1      33.069  35.314  32.058  1.00  0.00     0.278 C 
ATOM      4  O   UNL A   1      32.230  34.691  32.734  1.00  0.00    -0.268 OA
ATOM      5  H   UNL A   1      32.112  34.717  30.436  1.00  0.00     0.163 HD
BRANCH   3   6
ATOM      6  C   UNL A   1      34.325  35.886  32.787  1.00  0.00     0.275 C 
BRANCH   6   7
ATOM      7  N   UNL A   1      33.959  36.415  34.117  1.00  0.00    -0.347 N 
ATOM      8  H   UNL A   1      34.789  36.799  34.570  1.00  0.00     0.345 HD
ATOM      9  H   UNL A   1      33.578  35.660  34.689  1.00  0.00     0.345 HD
ATOM     10  H   UNL A   1      33.258  37.148  34.011  1.00  0.00     0.345 HD
ENDBRANCH   6   7
BRANCH   6  11
ATOM     11  C   UNL A   1      35.732  35.275  32.681  1.00  0.00     0.113 C 
BRANCH  11  12
ATOM     12  C   UNL A   1      36.174  34.068  33.459  1.00  0.00    -0.015 A 
ATOM     13  C   UNL A   1      36.581  34.172  34.779  1.00  0.00     0.099 A 
ATOM     14  C   UNL A   1      36.313  32.672  33.119  1.00  0.00     0.004 A 
ATOM     15  N   UNL A   1      37.195  33.003  35.153  1.00  0.00    -0.285 N 
ATOM     16  C   UNL A   1      37.061  32.071  34.144  1.00  0.00     0.056 A 
ATOM     17  C   UNL A   1      35.989  31.864  32.004  1.00  0.00     0.010 A 
ATOM     18  C   UNL A   1      37.511  30.741  34.078  1.00  0.00     0.027 A 
ATOM     19  C   UNL A   1      36.417  30.532  31.935  1.00  0.00     0.001 A 
ATOM     20  C   UNL A   1      37.170  29.983  32.959  1.00  0.00     0.002 A 
BRANCH  15  21
ATOM     21  C   UNL A   1      37.861  32.814  36.386  1.00  0.00     0.240 A 
ATOM     22  N   UNL A   1      39.181  32.952  36.402  1.00  0.00    -0.181 NA
ATOM     23  N   UNL A   1      37.087  32.596  37.448  1.00  0.00    -0.176 NA
ATOM     24  C   UNL A   1      39.670  32.918  37.632  1.00  0.00     0.228 A 
ATOM     25  C   UNL A   1      37.719  32.475  38.607  1.00  0.00     0.231 A 
ATOM     26  Cl  UNL A   1      41.347  33.200  37.778  1.00  0.00    -0.041 Cl
ATOM     27  N   UNL A   1      39.008  32.729  38.766  1.00  0.00    -0.182 NA
BRANCH  25  28
ATOM     28  N   UNL A   1      37.015  32.000  39.670  1.00  0.00    -0.336 N 
ATOM     29  C   UNL A   1      35.600  32.324  39.812  1.00  0.00     0.148 C 
ATOM     30  C   UNL A   1      37.684  31.453  40.834  1.00  0.00     0.148 C 
ATOM     31  C   UNL A   1      35.380  33.169  41.072  1.00  0.00     0.181 C 
ATOM     32  C   UNL A   1      37.374  32.347  42.051  1.00  0.00     0.181 C 
ATOM     33  O   UNL A   1      35.961  32.546  42.235  1.00  0.00    -0.378 OA
ENDBRANCH  25  28
ENDBRANCH  15  21
ENDBRANCH  11  12
ENDBRANCH   6  11
ENDBRANCH   3   6
ENDBRANCH   1   2
BRANCH   1  34
ATOM     34  C   UNL A   1      34.204  35.313  28.619  1.00  0.00     0.042 C 
BRANCH  34  35
ATOM     35  C   UNL A   1      34.797  33.992  29.118  1.00  0.00     0.118 C 
BRANCH  35  36
ATOM     36  N   UNL A   1      34.599  32.872  28.219  1.00  0.00    -0.352 N 
ATOM     37  C   UNL A   1      35.167  31.660  27.967  1.00  0.00     0.251 C 
ATOM     38  H   UNL A   1      33.835  33.033  27.620  1.00  0.00     0.163 HD
ATOM     39  O   UNL A   1      34.500  30.948  27.207  1.00  0.00    -0.269 OA
BRANCH  37  40
ATOM     40  C   UNL A   1      36.478  31.145  28.445  1.00  0.00     0.039 A 
ATOM     41  C   UNL A   1      37.573  31.897  28.868  1.00  0.00     0.014 A 
ATOM     42  C   UNL A   1      36.628  29.745  28.352  1.00  0.00     0.014 A 
ATOM     43  C   UNL A   1      38.815  31.268  29.069  1.00  0.00     0.010 A 
ATOM     44  C   UNL A   1      37.855  29.124  28.540  1.00  0.00     0.010 A 
ATOM     45  C   UNL A   1      38.973  29.896  28.825  1.00  0.00    -0.014 A 
BRANCH  45  46
ATOM     46  C   UNL A   1      40.283  29.250  28.993  1.00  0.00     0.031 A 
ATOM     47  C   UNL A   1      40.687  29.077  30.419  1.00  0.00     0.074 A 
ATOM     48  C   UNL A   1      40.982  28.693  27.973  1.00  0.00     0.049 A 
ATOM     49  N   UNL A   1      41.701  29.598  31.033  1.00  0.00    -0.248 NA
ATOM     50  C   UNL A   1      39.771  28.339  31.304  1.00  0.00     0.031 C 
ATOM     51  C   UNL A   1      40.555  28.551  26.573  1.00  0.00     0.029 A 
ATOM     52  N   UNL A   1      42.172  28.014  27.985  1.00  0.00    -0.354 N 
ATOM     53  C   UNL A   1      41.672  29.060  32.322  1.00  0.00     0.074 A 
ATOM     54  C   UNL A   1      40.381  28.448  32.485  1.00  0.00     0.031 C 
ATOM     55  C   UNL A   1      41.332  27.633  25.950  1.00  0.00     0.029 A 
ATOM     56  C   UNL A   1      42.401  27.233  26.845  1.00  0.00     0.049 A 
ATOM     57  H   UNL A   1      42.812  28.072  28.731  1.00  0.00     0.167 HD
ATOM     58  C   UNL A   1      42.802  28.912  33.066  1.00  0.00     0.034 A 
ATOM     59  C   UNL A   1      43.375  26.298  26.680  1.00  0.00     0.034 A 
ATOM     60  C   UNL A   1      43.905  29.636  32.504  1.00  0.00     0.049 A 
ATOM     61  C   UNL A   1      44.428  26.618  27.664  1.00  0.00     0.074 A 
ATOM     62  C   UNL A   1      44.291  30.952  32.391  1.00  0.00     0.029 A 
ATOM     63  N   UNL A   1      44.623  28.910  31.594  1.00  0.00    -0.354 N 
ATOM     64  N   UNL A   1      45.171  27.683  27.601  1.00  0.00    -0.248 NA
ATOM     65  C   UNL A   1      44.494  25.868  28.910  1.00  0.00     0.031 C 
ATOM     66  C   UNL A   1      45.073  31.021  31.200  1.00  0.00     0.029 A 
ATOM     67  C   UNL A   1      45.171  29.740  30.657  1.00  0.00     0.049 A 
ATOM     68  H   UNL A   1      44.731  27.931  31.610  1.00  0.00     0.167 HD
ATOM     69  C   UNL A   1      45.429  27.978  28.925  1.00  0.00     0.074 A 
ATOM     70  C   UNL A   1      45.166  26.746  29.656  1.00  0.00     0.031 C 
ATOM     71  C   UNL A   1      45.509  29.272  29.334  1.00  0.00     0.034 A 
BRANCH  58  72
ATOM     72  C   UNL A   1      43.051  27.767  34.022  1.00  0.00     0.023 A 
ATOM     73  C   UNL A   1      43.096  28.046  35.405  1.00  0.00     0.012 A 
ATOM     74  C   UNL A   1      43.530  26.503  33.606  1.00  0.00     0.148 A 
ATOM     75  C   UNL A   1      43.586  27.111  36.326  1.00  0.00     0.002 A 
ATOM     76  C   UNL A   1      43.947  25.550  34.529  1.00  0.00     0.091 A 
ATOM     77  F   UNL A   1      43.720  26.267  32.303  1.00  0.00    -0.205 F 
ATOM     78  C   UNL A   1      43.995  25.856  35.891  1.00  0.00     0.022 A 
BRANCH  76  79
ATOM     79  S   UNL A   1      44.467  23.908  34.019  1.00  0.00     0.127 S 
ATOM     80  O   UNL A   1      43.291  23.443  33.289  1.00  0.00    -0.237 OA
ATOM     81  O   UNL A   1      45.634  24.211  33.190  1.00  0.00    -0.237 OA
ATOM     82  O   UNL A   1      44.779  23.200  35.254  1.00  0.00    -0.744 OA
ENDBRANCH  76  79
ENDBRANCH  58  72
BRANCH  59  83
ATOM     83  C   UNL A   1      43.486  25.039  25.892  1.00  0.00     0.023 A 
ATOM     84  C   UNL A   1      44.657  24.824  25.122  1.00  0.00     0.012 A 
ATOM     85  C   UNL A   1      42.672  23.924  26.171  1.00  0.00     0.148 A 
ATOM     86  C   UNL A   1      45.061  23.538  24.746  1.00  0.00     0.002 A 
ATOM     87  C   UNL A   1      43.076  22.643  25.789  1.00  0.00     0.091 A 
ATOM     88  F   UNL A   1      41.562  24.104  26.899  1.00  0.00    -0.205 F 
ATOM     89  C   UNL A   1      44.283  22.444  25.101  1.00  0.00     0.022 A 
BRANCH  87  90
ATOM     90  S   UNL A   1      42.139  21.171  26.221  1.00  0.00     0.127 S 
ATOM     91  O   UNL A   1      40.780  21.543  25.827  1.00  0.00    -0.237 OA
ATOM     92  O   UNL A   1      42.763  20.156  25.383  1.00  0.00    -0.237 OA
ATOM     93  O   UNL A   1      42.317  21.009  27.662  1.00  0.00    -0.744 OA
ENDBRANCH  87  90
ENDBRANCH  59  83
BRANCH  71  94
ATOM     94  C   UNL A   1      45.778  30.310  28.289  1.00  0.00     0.023 A 
ATOM     95  C   UNL A   1      44.755  30.977  27.587  1.00  0.00     0.012 A 
ATOM     96  C   UNL A   1      47.111  30.713  28.122  1.00  0.00     0.148 A 
ATOM     97  C   UNL A   1      45.064  32.039  26.731  1.00  0.00     0.002 A 
ATOM     98  C   UNL A   1      47.409  31.790  27.304  1.00  0.00     0.091 A 
ATOM     99  F   UNL A   1      48.058  30.051  28.803  1.00  0.00    -0.205 F 
ATOM    100  C   UNL A   1      46.389  32.455  26.602  1.00  0.00     0.022 A 
BRANCH  98 101
ATOM    101  S   UNL A   1      49.074  32.439  27.179  1.00  0.00     0.127 S 
ATOM    102  O   UNL A   1      49.719  31.463  26.305  1.00  0.00    -0.237 OA
ATOM    103  O   UNL A   1      48.846  33.752  26.572  1.00  0.00    -0.237 OA
ATOM    104  O   UNL A   1      49.594  32.493  28.540  1.00  0.00    -0.744 OA
ENDBRANCH  98 101
ENDBRANCH  71  94
ENDBRANCH  45  46
ENDBRANCH  37  40
ENDBRANCH  35  36
ENDBRANCH  34  35
ENDBRANCH   1  34
TORSDOF 18
ENDMDL
