MODEL 1
REMARK VINA RESULT:     -12.2      0.000      0.000
REMARK SMILES Cc1cc2c(c(C)c1Cl)C=C(C(=O)NCCCNC(=O)c1ccc(-c3c4nc(c(-c5cccc(S(=O)(=O)[O-])c5F)c5ccc([nH]5)c(-c5cccc(S(=O)(=O)[O-])c5F)c5nc(c(-c6cccc(S(=O)(=O)[O-])c6F)c6ccc3[nH]6)C=C5)C=C4)cc1)[C@@H](C(F)(F)F)O2
REMARK SMILES IDX 17 1 16 2 15 3 14 4 12 5 13 6 11 8 1 9 2 10 3 11 8 12 4 13
REMARK SMILES IDX 6 14 9 15 5 16 89 17 7 18 10 19 84 20 85 21 86 22 87 23
REMARK SMILES IDX 88 24 18 25 19 26 20 28 21 29 22 30 83 31 23 32 82 33 24 34
REMARK SMILES IDX 25 35 26 36 76 37 27 38 81 39 75 40 77 41 28 42 80 43 74 44
REMARK SMILES IDX 73 45 29 47 61 48 41 49 60 50 42 51 45 52 59 53 78 54 43 55
REMARK SMILES IDX 44 56 58 58 79 59 46 60 30 61 31 62 39 63 32 64 34 65 40 66
REMARK SMILES IDX 33 67 35 68 36 69 37 70 38 71 62 72 63 73 71 74 64 75 66 76
REMARK SMILES IDX 72 77 65 78 67 79 68 80 69 81 70 82 47 83 48 84 56 85 49 86
REMARK SMILES IDX 51 87 57 88 50 89 52 90 53 91 54 92 55 93
REMARK H PARENT 14 7 18 27 77 46 45 57
REMARK Flexibility Score: inf
ROOT
ATOM      1  C   UNL A   1      34.245  28.639  26.048  1.00  0.00     0.118 C 
ENDROOT
BRANCH   1   2
ATOM      2  C   UNL A   1      33.985  28.532  24.551  1.00  0.00     0.042 C 
BRANCH   2   3
ATOM      3  C   UNL A   1      32.560  28.099  24.247  1.00  0.00     0.118 C 
BRANCH   3   4
ATOM      4  N   UNL A   1      31.808  27.801  25.458  1.00  0.00    -0.352 N 
ATOM      5  C   UNL A   1      31.437  26.700  26.151  1.00  0.00     0.251 C 
ATOM      6  O   UNL A   1      30.799  26.919  27.186  1.00  0.00    -0.270 OA
ATOM      7  H   UNL A   1      31.483  28.624  25.890  1.00  0.00     0.163 HD
BRANCH   5   8
ATOM      8  C   UNL A   1      31.752  25.295  25.760  1.00  0.00     0.067 C 
ATOM      9  C   UNL A   1      34.228  19.404  24.567  1.00  0.00     0.046 C 
ATOM     10  C   UNL A   1      34.014  20.854  24.906  1.00  0.00    -0.028 A 
ATOM     11  C   UNL A   1      32.696  21.317  24.918  1.00  0.00     0.052 A 
ATOM     12  C   UNL A   1      35.047  21.740  25.277  1.00  0.00     0.047 A 
ATOM     13  C   UNL A   1      32.411  22.636  25.247  1.00  0.00     0.128 A 
ATOM     14  C   UNL A   1      34.769  23.091  25.614  1.00  0.00    -0.021 A 
ATOM     15  Cl  UNL A   1      36.677  21.140  25.329  1.00  0.00    -0.084 Cl
ATOM     16  C   UNL A   1      33.424  23.532  25.600  1.00  0.00     0.022 A 
ATOM     17  O   UNL A   1      31.086  22.959  25.244  1.00  0.00    -0.475 OA
ATOM     18  C   UNL A   1      35.863  24.059  25.999  1.00  0.00     0.047 C 
ATOM     19  C   UNL A   1      33.016  24.889  25.983  1.00  0.00     0.026 C 
ATOM     20  C   UNL A   1      30.764  24.365  25.126  1.00  0.00     0.314 C 
BRANCH  20  21
ATOM     21  C   UNL A   1      30.499  24.703  23.646  1.00  0.00     0.429 C 
ATOM     22  F   UNL A   1      31.647  25.076  23.028  1.00  0.00    -0.167 F 
ATOM     23  F   UNL A   1      30.013  23.649  22.947  1.00  0.00    -0.167 F 
ATOM     24  F   UNL A   1      29.612  25.711  23.493  1.00  0.00    -0.167 F 
ENDBRANCH  20  21
ENDBRANCH   5   8
ENDBRANCH   3   4
ENDBRANCH   2   3
ENDBRANCH   1   2
BRANCH   1  25
ATOM     25  N   UNL A   1      33.983  29.986  26.549  1.00  0.00    -0.352 N 
ATOM     26  C   UNL A   1      34.590  30.686  27.561  1.00  0.00     0.251 C 
ATOM     27  H   UNL A   1      33.257  30.467  26.089  1.00  0.00     0.163 HD
ATOM     28  O   UNL A   1      34.043  31.685  28.024  1.00  0.00    -0.269 OA
BRANCH  26  29
ATOM     29  C   UNL A   1      35.894  30.239  28.085  1.00  0.00     0.039 A 
ATOM     30  C   UNL A   1      35.958  29.605  29.327  1.00  0.00     0.014 A 
ATOM     31  C   UNL A   1      37.059  30.472  27.351  1.00  0.00     0.014 A 
ATOM     32  C   UNL A   1      37.189  29.149  29.803  1.00  0.00     0.010 A 
ATOM     33  C   UNL A   1      38.262  29.925  27.774  1.00  0.00     0.010 A 
ATOM     34  C   UNL A   1      38.344  29.280  29.014  1.00  0.00    -0.014 A 
BRANCH  34  35
ATOM     35  C   UNL A   1      39.660  28.775  29.472  1.00  0.00     0.031 A 
ATOM     36  C   UNL A   1      40.388  29.483  30.581  1.00  0.00     0.074 A 
ATOM     37  C   UNL A   1      40.231  27.736  28.832  1.00  0.00     0.049 A 
ATOM     38  N   UNL A   1      41.571  29.234  31.079  1.00  0.00    -0.248 NA
ATOM     39  C   UNL A   1      39.715  30.644  31.192  1.00  0.00     0.031 C 
ATOM     40  C   UNL A   1      39.652  27.024  27.691  1.00  0.00     0.029 A 
ATOM     41  N   UNL A   1      41.437  27.113  29.035  1.00  0.00    -0.354 N 
ATOM     42  C   UNL A   1      41.795  30.221  32.031  1.00  0.00     0.074 A 
ATOM     43  C   UNL A   1      40.652  31.103  32.008  1.00  0.00     0.031 C 
ATOM     44  C   UNL A   1      40.492  26.049  27.309  1.00  0.00     0.029 A 
ATOM     45  C   UNL A   1      41.683  26.088  28.152  1.00  0.00     0.049 A 
ATOM     46  H   UNL A   1      42.065  27.375  29.746  1.00  0.00     0.167 HD
ATOM     47  C   UNL A   1      42.841  30.356  32.877  1.00  0.00     0.034 A 
ATOM     48  C   UNL A   1      42.749  25.272  28.035  1.00  0.00     0.034 A 
ATOM     49  C   UNL A   1      43.948  29.442  32.927  1.00  0.00     0.049 A 
ATOM     50  C   UNL A   1      43.885  25.421  29.011  1.00  0.00     0.074 A 
ATOM     51  C   UNL A   1      45.016  29.436  33.806  1.00  0.00     0.029 A 
ATOM     52  N   UNL A   1      44.131  28.372  32.064  1.00  0.00    -0.354 N 
ATOM     53  N   UNL A   1      44.012  26.266  30.006  1.00  0.00    -0.248 NA
ATOM     54  C   UNL A   1      45.011  24.485  28.873  1.00  0.00     0.031 C 
ATOM     55  C   UNL A   1      45.861  28.379  33.455  1.00  0.00     0.029 A 
ATOM     56  C   UNL A   1      45.302  27.707  32.378  1.00  0.00     0.049 A 
ATOM     57  H   UNL A   1      43.518  28.122  31.336  1.00  0.00     0.167 HD
ATOM     58  C   UNL A   1      45.214  25.950  30.628  1.00  0.00     0.074 A 
ATOM     59  C   UNL A   1      45.767  24.817  29.911  1.00  0.00     0.031 C 
ATOM     60  C   UNL A   1      45.815  26.553  31.683  1.00  0.00     0.034 A 
BRANCH  47  61
ATOM     61  C   UNL A   1      42.809  31.493  33.865  1.00  0.00     0.023 A 
ATOM     62  C   UNL A   1      43.351  32.743  33.501  1.00  0.00     0.012 A 
ATOM     63  C   UNL A   1      42.177  31.352  35.116  1.00  0.00     0.148 A 
ATOM     64  C   UNL A   1      43.293  33.826  34.377  1.00  0.00     0.002 A 
ATOM     65  C   UNL A   1      42.079  32.450  35.963  1.00  0.00     0.091 A 
ATOM     66  F   UNL A   1      41.689  30.151  35.454  1.00  0.00    -0.205 F 
ATOM     67  C   UNL A   1      42.646  33.684  35.601  1.00  0.00     0.022 A 
BRANCH  65  68
ATOM     68  S   UNL A   1      41.189  32.397  37.523  1.00  0.00     0.127 S 
ATOM     69  O   UNL A   1      42.067  31.558  38.336  1.00  0.00    -0.237 OA
ATOM     70  O   UNL A   1      41.165  33.809  37.908  1.00  0.00    -0.237 OA
ATOM     71  O   UNL A   1      39.885  31.824  37.223  1.00  0.00    -0.744 OA
ENDBRANCH  65  68
ENDBRANCH  47  61
BRANCH  48  72
ATOM     72  C   UNL A   1      42.740  24.192  27.008  1.00  0.00     0.023 A 
ATOM     73  C   UNL A   1      43.483  24.363  25.823  1.00  0.00     0.012 A 
ATOM     74  C   UNL A   1      42.068  22.973  27.225  1.00  0.00     0.148 A 
ATOM     75  C   UNL A   1      43.541  23.349  24.866  1.00  0.00     0.002 A 
ATOM     76  C   UNL A   1      42.179  21.945  26.296  1.00  0.00     0.091 A 
ATOM     77  F   UNL A   1      41.360  22.832  28.355  1.00  0.00    -0.205 F 
ATOM     78  C   UNL A   1      42.901  22.137  25.108  1.00  0.00     0.022 A 
BRANCH  76  79
ATOM     79  S   UNL A   1      41.514  20.302  26.587  1.00  0.00     0.127 S 
ATOM     80  O   UNL A   1      40.076  20.554  26.583  1.00  0.00    -0.237 OA
ATOM     81  O   UNL A   1      42.016  19.566  25.425  1.00  0.00    -0.237 OA
ATOM     82  O   UNL A   1      42.074  19.868  27.860  1.00  0.00    -0.744 OA
ENDBRANCH  76  79
ENDBRANCH  48  72
BRANCH  60  83
ATOM     83  C   UNL A   1      47.140  26.008  32.149  1.00  0.00     0.023 A 
ATOM     84  C   UNL A   1      48.333  26.527  31.609  1.00  0.00     0.012 A 
ATOM     85  C   UNL A   1      47.205  25.079  33.206  1.00  0.00     0.148 A 
ATOM     86  C   UNL A   1      49.570  26.116  32.101  1.00  0.00     0.002 A 
ATOM     87  C   UNL A   1      48.441  24.715  33.728  1.00  0.00     0.091 A 
ATOM     88  F   UNL A   1      46.058  24.587  33.697  1.00  0.00    -0.205 F 
ATOM     89  C   UNL A   1      49.624  25.224  33.169  1.00  0.00     0.022 A 
BRANCH  87  90
ATOM     90  S   UNL A   1      48.607  23.661  35.174  1.00  0.00     0.127 S 
ATOM     91  O   UNL A   1      50.059  23.598  35.330  1.00  0.00    -0.237 OA
ATOM     92  O   UNL A   1      47.916  24.438  36.203  1.00  0.00    -0.237 OA
ATOM     93  O   UNL A   1      47.963  22.400  34.831  1.00  0.00    -0.744 OA
ENDBRANCH  87  90
ENDBRANCH  60  83
ENDBRANCH  34  35
ENDBRANCH  26  29
ENDBRANCH   1  25
TORSDOF 14
ENDMDL
MODEL 2
REMARK VINA RESULT:     -12.1      1.276      1.665
REMARK SMILES Cc1cc2c(c(C)c1Cl)C=C(C(=O)NCCCNC(=O)c1ccc(-c3c4nc(c(-c5cccc(S(=O)(=O)[O-])c5F)c5ccc([nH]5)c(-c5cccc(S(=O)(=O)[O-])c5F)c5nc(c(-c6cccc(S(=O)(=O)[O-])c6F)c6ccc3[nH]6)C=C5)C=C4)cc1)[C@@H](C(F)(F)F)O2
REMARK SMILES IDX 17 1 16 2 15 3 14 4 12 5 13 6 11 8 1 9 2 10 3 11 8 12 4 13
REMARK SMILES IDX 6 14 9 15 5 16 89 17 7 18 10 19 84 20 85 21 86 22 87 23
REMARK SMILES IDX 88 24 18 25 19 26 20 28 21 29 22 30 83 31 23 32 82 33 24 34
REMARK SMILES IDX 25 35 26 36 76 37 27 38 81 39 75 40 77 41 28 42 80 43 74 44
REMARK SMILES IDX 73 45 29 47 61 48 41 49 60 50 42 51 45 52 59 53 78 54 43 55
REMARK SMILES IDX 44 56 58 58 79 59 46 60 30 61 31 62 39 63 32 64 34 65 40 66
REMARK SMILES IDX 33 67 35 68 36 69 37 70 38 71 62 72 63 73 71 74 64 75 66 76
REMARK SMILES IDX 72 77 65 78 67 79 68 80 69 81 70 82 47 83 48 84 56 85 49 86
REMARK SMILES IDX 51 87 57 88 50 89 52 90 53 91 54 92 55 93
REMARK H PARENT 14 7 18 27 77 46 45 57
REMARK Flexibility Score: inf
ROOT
ATOM      1  C   UNL A   1      34.271  28.707  25.980  1.00  0.00     0.118 C 
ENDROOT
BRANCH   1   2
ATOM      2  C   UNL A   1      33.970  28.639  24.489  1.00  0.00     0.042 C 
BRANCH   2   3
ATOM      3  C   UNL A   1      32.671  27.905  24.199  1.00  0.00     0.118 C 
BRANCH   3   4
ATOM      4  N   UNL A   1      31.917  27.627  25.413  1.00  0.00    -0.352 N 
ATOM      5  C   UNL A   1      31.529  26.536  26.113  1.00  0.00     0.251 C 
ATOM      6  O   UNL A   1      30.897  26.771  27.148  1.00  0.00    -0.270 OA
ATOM      7  H   UNL A   1      31.607  28.457  25.841  1.00  0.00     0.163 HD
BRANCH   5   8
ATOM      8  C   UNL A   1      31.819  25.123  25.730  1.00  0.00     0.067 C 
ATOM      9  C   UNL A   1      34.196  19.189  24.553  1.00  0.00     0.046 C 
ATOM     10  C   UNL A   1      34.007  20.645  24.883  1.00  0.00    -0.028 A 
ATOM     11  C   UNL A   1      32.696  21.126  24.907  1.00  0.00     0.052 A 
ATOM     12  C   UNL A   1      35.057  21.519  25.234  1.00  0.00     0.047 A 
ATOM     13  C   UNL A   1      32.434  22.452  25.230  1.00  0.00     0.128 A 
ATOM     14  C   UNL A   1      34.802  22.875  25.564  1.00  0.00    -0.021 A 
ATOM     15  Cl  UNL A   1      36.679  20.896  25.271  1.00  0.00    -0.084 Cl
ATOM     16  C   UNL A   1      33.464  23.336  25.563  1.00  0.00     0.022 A 
ATOM     17  O   UNL A   1      31.113  22.793  25.240  1.00  0.00    -0.475 OA
ATOM     18  C   UNL A   1      35.915  23.831  25.928  1.00  0.00     0.047 C 
ATOM     19  C   UNL A   1      33.080  24.701  25.940  1.00  0.00     0.026 C 
ATOM     20  C   UNL A   1      30.810  24.203  25.115  1.00  0.00     0.314 C 
BRANCH  20  21
ATOM     21  C   UNL A   1      30.532  24.533  23.636  1.00  0.00     0.429 C 
ATOM     22  F   UNL A   1      29.618  25.530  23.532  1.00  0.00    -0.167 F 
ATOM     23  F   UNL A   1      31.637  24.956  22.976  1.00  0.00    -0.167 F 
ATOM     24  F   UNL A   1      30.052  23.473  22.947  1.00  0.00    -0.167 F 
ENDBRANCH  20  21
ENDBRANCH   5   8
ENDBRANCH   3   4
ENDBRANCH   2   3
ENDBRANCH   1   2
BRANCH   1  25
ATOM     25  N   UNL A   1      33.970  30.025  26.534  1.00  0.00    -0.352 N 
ATOM     26  C   UNL A   1      34.544  30.693  27.587  1.00  0.00     0.251 C 
ATOM     27  H   UNL A   1      33.241  30.509  26.083  1.00  0.00     0.163 HD
ATOM     28  O   UNL A   1      33.967  31.659  28.082  1.00  0.00    -0.269 OA
BRANCH  26  29
ATOM     29  C   UNL A   1      35.849  30.252  28.113  1.00  0.00     0.039 A 
ATOM     30  C   UNL A   1      35.909  29.584  29.338  1.00  0.00     0.014 A 
ATOM     31  C   UNL A   1      37.019  30.523  27.400  1.00  0.00     0.014 A 
ATOM     32  C   UNL A   1      37.141  29.135  29.816  1.00  0.00     0.010 A 
ATOM     33  C   UNL A   1      38.224  29.984  27.822  1.00  0.00     0.010 A 
ATOM     34  C   UNL A   1      38.303  29.306  29.045  1.00  0.00    -0.014 A 
BRANCH  34  35
ATOM     35  C   UNL A   1      39.621  28.809  29.504  1.00  0.00     0.031 A 
ATOM     36  C   UNL A   1      40.350  29.529  30.605  1.00  0.00     0.074 A 
ATOM     37  C   UNL A   1      40.195  27.767  28.872  1.00  0.00     0.049 A 
ATOM     38  N   UNL A   1      41.534  29.288  31.102  1.00  0.00    -0.248 NA
ATOM     39  C   UNL A   1      39.675  30.693  31.208  1.00  0.00     0.031 C 
ATOM     40  C   UNL A   1      39.616  27.043  27.739  1.00  0.00     0.029 A 
ATOM     41  N   UNL A   1      41.403  27.149  29.077  1.00  0.00    -0.354 N 
ATOM     42  C   UNL A   1      41.757  30.284  32.046  1.00  0.00     0.074 A 
ATOM     43  C   UNL A   1      40.611  31.163  32.018  1.00  0.00     0.031 C 
ATOM     44  C   UNL A   1      40.457  26.068  27.363  1.00  0.00     0.029 A 
ATOM     45  C   UNL A   1      41.650  26.118  28.203  1.00  0.00     0.049 A 
ATOM     46  H   UNL A   1      42.032  27.420  29.785  1.00  0.00     0.167 HD
ATOM     47  C   UNL A   1      42.805  30.430  32.889  1.00  0.00     0.034 A 
ATOM     48  C   UNL A   1      42.719  25.304  28.091  1.00  0.00     0.034 A 
ATOM     49  C   UNL A   1      43.915  29.520  32.944  1.00  0.00     0.049 A 
ATOM     50  C   UNL A   1      43.857  25.465  29.063  1.00  0.00     0.074 A 
ATOM     51  C   UNL A   1      44.984  29.526  33.820  1.00  0.00     0.029 A 
ATOM     52  N   UNL A   1      44.099  28.444  32.090  1.00  0.00    -0.354 N 
ATOM     53  N   UNL A   1      43.983  26.319  30.050  1.00  0.00    -0.248 NA
ATOM     54  C   UNL A   1      44.985  24.532  28.931  1.00  0.00     0.031 C 
ATOM     55  C   UNL A   1      45.832  28.468  33.477  1.00  0.00     0.029 A 
ATOM     56  C   UNL A   1      45.273  27.785  32.407  1.00  0.00     0.049 A 
ATOM     57  H   UNL A   1      43.485  28.186  31.365  1.00  0.00     0.167 HD
ATOM     58  C   UNL A   1      45.187  26.013  30.673  1.00  0.00     0.074 A 
ATOM     59  C   UNL A   1      45.742  24.876  29.965  1.00  0.00     0.031 C 
ATOM     60  C   UNL A   1      45.789  26.627  31.721  1.00  0.00     0.034 A 
BRANCH  47  61
ATOM     61  C   UNL A   1      42.771  31.576  33.866  1.00  0.00     0.023 A 
ATOM     62  C   UNL A   1      43.226  32.847  33.461  1.00  0.00     0.012 A 
ATOM     63  C   UNL A   1      42.221  31.418  35.154  1.00  0.00     0.148 A 
ATOM     64  C   UNL A   1      43.162  33.936  34.329  1.00  0.00     0.002 A 
ATOM     65  C   UNL A   1      42.114  32.519  35.995  1.00  0.00     0.091 A 
ATOM     66  F   UNL A   1      41.816  30.197  35.530  1.00  0.00    -0.205 F 
ATOM     67  C   UNL A   1      42.596  33.776  35.589  1.00  0.00     0.022 A 
BRANCH  65  68
ATOM     68  S   UNL A   1      41.320  32.439  37.605  1.00  0.00     0.127 S 
ATOM     69  O   UNL A   1      39.980  31.977  37.250  1.00  0.00    -0.237 OA
ATOM     70  O   UNL A   1      42.143  31.450  38.302  1.00  0.00    -0.237 OA
ATOM     71  O   UNL A   1      41.388  33.786  38.153  1.00  0.00    -0.744 OA
ENDBRANCH  65  68
ENDBRANCH  47  61
BRANCH  48  72
ATOM     72  C   UNL A   1      42.712  24.216  27.073  1.00  0.00     0.023 A 
ATOM     73  C   UNL A   1      43.437  24.386  25.878  1.00  0.00     0.012 A 
ATOM     74  C   UNL A   1      42.057  22.990  27.309  1.00  0.00     0.148 A 
ATOM     75  C   UNL A   1      43.497  23.364  24.929  1.00  0.00     0.002 A 
ATOM     76  C   UNL A   1      42.170  21.955  26.387  1.00  0.00     0.091 A 
ATOM     77  F   UNL A   1      41.365  22.850  28.449  1.00  0.00    -0.205 F 
ATOM     78  C   UNL A   1      42.875  22.147  25.189  1.00  0.00     0.022 A 
BRANCH  76  79
ATOM     79  S   UNL A   1      41.531  20.306  26.701  1.00  0.00     0.127 S 
ATOM     80  O   UNL A   1      42.274  19.918  27.897  1.00  0.00    -0.237 OA
ATOM     81  O   UNL A   1      40.108  20.574  26.918  1.00  0.00    -0.237 OA
ATOM     82  O   UNL A   1      41.821  19.534  25.501  1.00  0.00    -0.744 OA
ENDBRANCH  76  79
ENDBRANCH  48  72
BRANCH  60  83
ATOM     83  C   UNL A   1      47.116  26.090  32.189  1.00  0.00     0.023 A 
ATOM     84  C   UNL A   1      47.159  25.194  33.275  1.00  0.00     0.012 A 
ATOM     85  C   UNL A   1      48.298  26.373  31.476  1.00  0.00     0.148 A 
ATOM     86  C   UNL A   1      48.362  24.602  33.656  1.00  0.00     0.002 A 
ATOM     87  C   UNL A   1      49.483  25.736  31.828  1.00  0.00     0.091 A 
ATOM     88  F   UNL A   1      48.238  27.239  30.455  1.00  0.00    -0.205 F 
ATOM     89  C   UNL A   1      49.519  24.860  32.925  1.00  0.00     0.022 A 
BRANCH  87  90
ATOM     90  S   UNL A   1      50.997  25.919  30.878  1.00  0.00     0.127 S 
ATOM     91  O   UNL A   1      51.256  27.352  31.003  1.00  0.00    -0.237 OA
ATOM     92  O   UNL A   1      51.929  25.064  31.615  1.00  0.00    -0.237 OA
ATOM     93  O   UNL A   1      50.687  25.458  29.531  1.00  0.00    -0.744 OA
ENDBRANCH  87  90
ENDBRANCH  60  83
ENDBRANCH  34  35
ENDBRANCH  26  29
ENDBRANCH   1  25
TORSDOF 14
ENDMDL
MODEL 3
REMARK VINA RESULT:     -12.1      5.463      8.479
REMARK SMILES Cc1cc2c(c(C)c1Cl)C=C(C(=O)NCCCNC(=O)c1ccc(-c3c4nc(c(-c5cccc(S(=O)(=O)[O-])c5F)c5ccc([nH]5)c(-c5cccc(S(=O)(=O)[O-])c5F)c5nc(c(-c6cccc(S(=O)(=O)[O-])c6F)c6ccc3[nH]6)C=C5)C=C4)cc1)[C@@H](C(F)(F)F)O2
REMARK SMILES IDX 17 1 16 2 15 3 14 4 12 5 13 6 11 8 1 9 2 10 3 11 8 12 4 13
REMARK SMILES IDX 6 14 9 15 5 16 89 17 7 18 10 19 84 20 85 21 86 22 87 23
REMARK SMILES IDX 88 24 18 25 19 26 20 28 21 29 22 30 83 31 23 32 82 33 24 34
REMARK SMILES IDX 25 35 26 36 76 37 27 38 81 39 75 40 77 41 28 42 80 43 74 44
REMARK SMILES IDX 73 45 29 47 61 48 41 49 60 50 42 51 45 52 59 53 78 54 43 55
REMARK SMILES IDX 44 56 58 58 79 59 46 60 30 61 31 62 39 63 32 64 34 65 40 66
REMARK SMILES IDX 33 67 35 68 36 69 37 70 38 71 62 72 63 73 71 74 64 75 66 76
REMARK SMILES IDX 72 77 65 78 67 79 68 80 69 81 70 82 47 83 48 84 56 85 49 86
REMARK SMILES IDX 51 87 57 88 50 89 52 90 53 91 54 92 55 93
REMARK H PARENT 14 7 18 27 77 46 45 57
REMARK Flexibility Score: inf
ROOT
ATOM      1  C   UNL A   1      38.858  20.252  25.717  1.00  0.00     0.118 C 
ENDROOT
BRANCH   1   2
ATOM      2  C   UNL A   1      37.725  19.596  24.939  1.00  0.00     0.042 C 
BRANCH   2   3
ATOM      3  C   UNL A   1      36.422  20.367  25.064  1.00  0.00     0.118 C 
BRANCH   3   4
ATOM      4  N   UNL A   1      35.260  19.492  25.000  1.00  0.00    -0.352 N 
ATOM      5  C   UNL A   1      33.914  19.628  24.985  1.00  0.00     0.251 C 
ATOM      6  O   UNL A   1      33.278  18.572  24.892  1.00  0.00    -0.270 OA
ATOM      7  H   UNL A   1      35.526  18.545  24.955  1.00  0.00     0.163 HD
BRANCH   5   8
ATOM      8  C   UNL A   1      33.182  20.926  25.057  1.00  0.00     0.067 C 
ATOM      9  C   UNL A   1      30.178  26.618  24.152  1.00  0.00     0.046 C 
ATOM     10  C   UNL A   1      31.003  25.368  24.016  1.00  0.00    -0.028 A 
ATOM     11  C   UNL A   1      30.969  24.465  25.081  1.00  0.00     0.052 A 
ATOM     12  C   UNL A   1      31.739  25.027  22.862  1.00  0.00     0.047 A 
ATOM     13  C   UNL A   1      31.681  23.274  25.024  1.00  0.00     0.128 A 
ATOM     14  C   UNL A   1      32.471  23.813  22.791  1.00  0.00    -0.021 A 
ATOM     15  Cl  UNL A   1      31.720  26.121  21.512  1.00  0.00    -0.084 Cl
ATOM     16  C   UNL A   1      32.430  22.929  23.895  1.00  0.00     0.022 A 
ATOM     17  O   UNL A   1      31.549  22.469  26.117  1.00  0.00    -0.475 OA
ATOM     18  C   UNL A   1      33.278  23.438  21.570  1.00  0.00     0.047 C 
ATOM     19  C   UNL A   1      33.103  21.624  23.910  1.00  0.00     0.026 C 
ATOM     20  C   UNL A   1      32.584  21.475  26.316  1.00  0.00     0.314 C 
BRANCH  20  21
ATOM     21  C   UNL A   1      33.645  22.035  27.281  1.00  0.00     0.429 C 
ATOM     22  F   UNL A   1      33.055  22.619  28.354  1.00  0.00    -0.167 F 
ATOM     23  F   UNL A   1      34.467  21.076  27.771  1.00  0.00    -0.167 F 
ATOM     24  F   UNL A   1      34.438  22.964  26.701  1.00  0.00    -0.167 F 
ENDBRANCH  20  21
ENDBRANCH   5   8
ENDBRANCH   3   4
ENDBRANCH   2   3
ENDBRANCH   1   2
BRANCH   1  25
ATOM     25  N   UNL A   1      39.925  19.302  26.026  1.00  0.00    -0.352 N 
ATOM     26  C   UNL A   1      41.268  19.512  26.208  1.00  0.00     0.251 C 
ATOM     27  H   UNL A   1      39.635  18.366  26.118  1.00  0.00     0.163 HD
ATOM     28  O   UNL A   1      42.044  18.558  26.173  1.00  0.00    -0.269 OA
BRANCH  26  29
ATOM     29  C   UNL A   1      41.774  20.876  26.448  1.00  0.00     0.039 A 
ATOM     30  C   UNL A   1      41.915  21.759  25.376  1.00  0.00     0.014 A 
ATOM     31  C   UNL A   1      42.132  21.273  27.739  1.00  0.00     0.014 A 
ATOM     32  C   UNL A   1      42.358  23.061  25.612  1.00  0.00     0.010 A 
ATOM     33  C   UNL A   1      42.468  22.595  27.987  1.00  0.00     0.010 A 
ATOM     34  C   UNL A   1      42.607  23.496  26.924  1.00  0.00    -0.014 A 
BRANCH  34  35
ATOM     35  C   UNL A   1      43.043  24.882  27.215  1.00  0.00     0.031 A 
ATOM     36  C   UNL A   1      42.090  25.844  27.872  1.00  0.00     0.074 A 
ATOM     37  C   UNL A   1      44.260  25.295  26.810  1.00  0.00     0.049 A 
ATOM     38  N   UNL A   1      42.261  27.109  28.152  1.00  0.00    -0.248 NA
ATOM     39  C   UNL A   1      40.759  25.326  28.235  1.00  0.00     0.031 C 
ATOM     40  C   UNL A   1      45.236  24.472  26.092  1.00  0.00     0.029 A 
ATOM     41  N   UNL A   1      44.876  26.516  26.924  1.00  0.00    -0.354 N 
ATOM     42  C   UNL A   1      41.056  27.542  28.689  1.00  0.00     0.074 A 
ATOM     43  C   UNL A   1      40.144  26.423  28.650  1.00  0.00     0.031 C 
ATOM     44  C   UNL A   1      46.334  25.204  25.849  1.00  0.00     0.029 A 
ATOM     45  C   UNL A   1      46.129  26.555  26.361  1.00  0.00     0.049 A 
ATOM     46  H   UNL A   1      44.459  27.290  27.369  1.00  0.00     0.167 HD
ATOM     47  C   UNL A   1      40.748  28.754  29.206  1.00  0.00     0.034 A 
ATOM     48  C   UNL A   1      47.013  27.568  26.267  1.00  0.00     0.034 A 
ATOM     49  C   UNL A   1      41.679  29.845  29.287  1.00  0.00     0.049 A 
ATOM     50  C   UNL A   1      46.661  28.897  26.880  1.00  0.00     0.074 A 
ATOM     51  C   UNL A   1      41.498  31.084  29.872  1.00  0.00     0.029 A 
ATOM     52  N   UNL A   1      42.966  29.827  28.769  1.00  0.00    -0.354 N 
ATOM     53  N   UNL A   1      45.571  29.245  27.521  1.00  0.00    -0.248 NA
ATOM     54  C   UNL A   1      47.670  29.962  26.790  1.00  0.00     0.031 C 
ATOM     55  C   UNL A   1      42.666  31.829  29.682  1.00  0.00     0.029 A 
ATOM     56  C   UNL A   1      43.586  31.040  29.007  1.00  0.00     0.049 A 
ATOM     57  H   UNL A   1      43.377  29.065  28.302  1.00  0.00     0.167 HD
ATOM     58  C   UNL A   1      45.770  30.558  27.932  1.00  0.00     0.074 A 
ATOM     59  C   UNL A   1      47.099  30.934  27.489  1.00  0.00     0.031 C 
ATOM     60  C   UNL A   1      44.925  31.383  28.599  1.00  0.00     0.034 A 
BRANCH  47  61
ATOM     61  C   UNL A   1      39.371  28.946  29.786  1.00  0.00     0.023 A 
ATOM     62  C   UNL A   1      39.100  28.493  31.094  1.00  0.00     0.012 A 
ATOM     63  C   UNL A   1      38.371  29.638  29.074  1.00  0.00     0.148 A 
ATOM     64  C   UNL A   1      37.849  28.698  31.673  1.00  0.00     0.002 A 
ATOM     65  C   UNL A   1      37.144  29.883  29.678  1.00  0.00     0.091 A 
ATOM     66  F   UNL A   1      38.639  30.040  27.824  1.00  0.00    -0.205 F 
ATOM     67  C   UNL A   1      36.877  29.404  30.972  1.00  0.00     0.022 A 
BRANCH  65  68
ATOM     68  S   UNL A   1      35.854  30.859  28.896  1.00  0.00     0.127 S 
ATOM     69  O   UNL A   1      35.113  29.834  28.163  1.00  0.00    -0.237 OA
ATOM     70  O   UNL A   1      35.148  31.413  30.051  1.00  0.00    -0.237 OA
ATOM     71  O   UNL A   1      36.538  31.842  28.068  1.00  0.00    -0.744 OA
ENDBRANCH  65  68
ENDBRANCH  47  61
BRANCH  48  72
ATOM     72  C   UNL A   1      48.344  27.327  25.641  1.00  0.00     0.023 A 
ATOM     73  C   UNL A   1      49.395  26.820  26.431  1.00  0.00     0.012 A 
ATOM     74  C   UNL A   1      48.558  27.523  24.262  1.00  0.00     0.148 A 
ATOM     75  C   UNL A   1      50.637  26.530  25.865  1.00  0.00     0.002 A 
ATOM     76  C   UNL A   1      49.778  27.176  23.693  1.00  0.00     0.091 A 
ATOM     77  F   UNL A   1      47.549  28.014  23.528  1.00  0.00    -0.205 F 
ATOM     78  C   UNL A   1      50.824  26.696  24.496  1.00  0.00     0.022 A 
BRANCH  76  79
ATOM     79  S   UNL A   1      50.064  27.214  21.920  1.00  0.00     0.127 S 
ATOM     80  O   UNL A   1      49.896  28.633  21.618  1.00  0.00    -0.237 OA
ATOM     81  O   UNL A   1      51.440  26.722  21.829  1.00  0.00    -0.237 OA
ATOM     82  O   UNL A   1      49.069  26.324  21.339  1.00  0.00    -0.744 OA
ENDBRANCH  76  79
ENDBRANCH  48  72
BRANCH  60  83
ATOM     83  C   UNL A   1      45.397  32.780  28.907  1.00  0.00     0.023 A 
ATOM     84  C   UNL A   1      46.168  33.013  30.063  1.00  0.00     0.012 A 
ATOM     85  C   UNL A   1      45.187  33.830  27.991  1.00  0.00     0.148 A 
ATOM     86  C   UNL A   1      46.705  34.274  30.313  1.00  0.00     0.002 A 
ATOM     87  C   UNL A   1      45.772  35.070  28.219  1.00  0.00     0.091 A 
ATOM     88  F   UNL A   1      44.439  33.590  26.904  1.00  0.00    -0.205 F 
ATOM     89  C   UNL A   1      46.522  35.297  29.385  1.00  0.00     0.022 A 
BRANCH  87  90
ATOM     90  S   UNL A   1      45.685  36.413  27.029  1.00  0.00     0.127 S 
ATOM     91  O   UNL A   1      46.485  37.445  27.687  1.00  0.00    -0.237 OA
ATOM     92  O   UNL A   1      46.309  35.819  25.847  1.00  0.00    -0.237 OA
ATOM     93  O   UNL A   1      44.271  36.726  26.876  1.00  0.00    -0.744 OA
ENDBRANCH  87  90
ENDBRANCH  60  83
ENDBRANCH  34  35
ENDBRANCH  26  29
ENDBRANCH   1  25
TORSDOF 14
ENDMDL
