MODEL 1
REMARK VINA RESULT:     -12.5      0.000      0.000
REMARK SMILES Cc1cc2c(c(C)c1Br)C=C(C(=O)NCCCNC(=O)c1ccc(-c3c4nc(c(-c5cccc(S(=O)(=O)[O-])c5F)c5ccc([nH]5)c(-c5cccc(S(=O)(=O)[O-])c5F)c5nc(c(-c6cccc(S(=O)(=O)[O-])c6F)c6ccc3[nH]6)C=C5)C=C4)cc1)[C@@H](C(F)(F)F)O2
REMARK SMILES IDX 17 1 16 2 15 3 14 4 12 5 13 6 11 8 1 9 2 10 3 11 8 12 4 13
REMARK SMILES IDX 6 14 9 15 5 16 89 17 7 18 10 19 84 20 85 21 86 22 87 23
REMARK SMILES IDX 88 24 18 25 19 26 20 28 21 29 22 30 83 31 23 32 82 33 24 34
REMARK SMILES IDX 25 35 26 36 76 37 27 38 81 39 75 40 77 41 28 42 80 43 74 44
REMARK SMILES IDX 73 45 29 47 61 48 41 49 60 50 42 51 45 52 59 53 78 54 43 55
REMARK SMILES IDX 44 56 58 58 79 59 46 60 30 61 31 62 39 63 32 64 34 65 40 66
REMARK SMILES IDX 33 67 35 68 36 69 37 70 38 71 62 72 63 73 71 74 64 75 66 76
REMARK SMILES IDX 72 77 65 78 67 79 68 80 69 81 70 82 47 83 48 84 56 85 49 86
REMARK SMILES IDX 51 87 57 88 50 89 52 90 53 91 54 92 55 93
REMARK H PARENT 14 7 18 27 77 46 45 57
REMARK Flexibility Score: inf
ROOT
ATOM      1  C   UNL A   1      33.475  29.294  24.880  1.00  0.00     0.118 C 
ENDROOT
BRANCH   1   2
ATOM      2  C   UNL A   1      32.779  28.897  23.586  1.00  0.00     0.042 C 
BRANCH   2   3
ATOM      3  C   UNL A   1      31.842  27.716  23.778  1.00  0.00     0.118 C 
BRANCH   3   4
ATOM      4  N   UNL A   1      31.528  27.490  25.182  1.00  0.00    -0.352 N 
ATOM      5  C   UNL A   1      31.534  26.449  26.045  1.00  0.00     0.251 C 
ATOM      6  O   UNL A   1      31.198  26.723  27.202  1.00  0.00    -0.270 OA
ATOM      7  H   UNL A   1      31.231  28.320  25.621  1.00  0.00     0.163 HD
BRANCH   5   8
ATOM      8  C   UNL A   1      31.918  25.050  25.698  1.00  0.00     0.067 C 
ATOM      9  C   UNL A   1      34.701  19.272  24.625  1.00  0.00     0.046 C 
ATOM     10  C   UNL A   1      34.403  20.716  24.930  1.00  0.00    -0.033 A 
ATOM     11  C   UNL A   1      33.062  21.102  24.981  1.00  0.00     0.051 A 
ATOM     12  C   UNL A   1      35.399  21.678  25.207  1.00  0.00     0.024 A 
ATOM     13  C   UNL A   1      32.713  22.415  25.268  1.00  0.00     0.128 A 
ATOM     14  C   UNL A   1      35.056  23.023  25.503  1.00  0.00    -0.026 A 
ATOM     15  Br  UNL A   1      37.229  21.111  25.195  1.00  0.00    -0.050 Br
ATOM     16  C   UNL A   1      33.685  23.383  25.536  1.00  0.00     0.021 A 
ATOM     17  O   UNL A   1      31.372  22.660  25.311  1.00  0.00    -0.475 OA
ATOM     18  C   UNL A   1      36.095  24.081  25.797  1.00  0.00     0.046 C 
ATOM     19  C   UNL A   1      33.211  24.728  25.883  1.00  0.00     0.026 C 
ATOM     20  C   UNL A   1      30.963  24.037  25.145  1.00  0.00     0.314 C 
BRANCH  20  21
ATOM     21  C   UNL A   1      30.622  24.292  23.664  1.00  0.00     0.429 C 
ATOM     22  F   UNL A   1      30.205  23.149  23.066  1.00  0.00    -0.167 F 
ATOM     23  F   UNL A   1      29.623  25.194  23.503  1.00  0.00    -0.167 F 
ATOM     24  F   UNL A   1      31.678  24.756  22.958  1.00  0.00    -0.167 F 
ENDBRANCH  20  21
ENDBRANCH   5   8
ENDBRANCH   3   4
ENDBRANCH   2   3
ENDBRANCH   1   2
BRANCH   1  25
ATOM     25  N   UNL A   1      32.829  30.445  25.510  1.00  0.00    -0.352 N 
ATOM     26  C   UNL A   1      33.064  31.031  26.728  1.00  0.00     0.251 C 
ATOM     27  H   UNL A   1      32.115  30.865  24.978  1.00  0.00     0.163 HD
ATOM     28  O   UNL A   1      32.232  31.803  27.203  1.00  0.00    -0.269 OA
BRANCH  26  29
ATOM     29  C   UNL A   1      34.311  30.737  27.458  1.00  0.00     0.039 A 
ATOM     30  C   UNL A   1      35.266  31.742  27.627  1.00  0.00     0.014 A 
ATOM     31  C   UNL A   1      34.543  29.455  27.960  1.00  0.00     0.014 A 
ATOM     32  C   UNL A   1      36.427  31.471  28.351  1.00  0.00     0.010 A 
ATOM     33  C   UNL A   1      35.642  29.218  28.771  1.00  0.00     0.010 A 
ATOM     34  C   UNL A   1      36.608  30.214  28.955  1.00  0.00    -0.014 A 
BRANCH  34  35
ATOM     35  C   UNL A   1      37.818  29.906  29.753  1.00  0.00     0.031 A 
ATOM     36  C   UNL A   1      38.876  28.998  29.185  1.00  0.00     0.074 A 
ATOM     37  C   UNL A   1      37.929  30.386  31.006  1.00  0.00     0.049 A 
ATOM     38  N   UNL A   1      39.985  28.582  29.737  1.00  0.00    -0.248 NA
ATOM     39  C   UNL A   1      38.647  28.464  27.830  1.00  0.00     0.031 C 
ATOM     40  C   UNL A   1      36.930  31.216  31.684  1.00  0.00     0.029 A 
ATOM     41  N   UNL A   1      38.924  30.240  31.937  1.00  0.00    -0.354 N 
ATOM     42  C   UNL A   1      40.570  27.728  28.811  1.00  0.00     0.074 A 
ATOM     43  C   UNL A   1      39.666  27.631  27.689  1.00  0.00     0.031 C 
ATOM     44  C   UNL A   1      37.379  31.533  32.909  1.00  0.00     0.029 A 
ATOM     45  C   UNL A   1      38.679  30.904  33.116  1.00  0.00     0.049 A 
ATOM     46  H   UNL A   1      39.738  29.709  31.777  1.00  0.00     0.167 HD
ATOM     47  C   UNL A   1      41.777  27.118  28.867  1.00  0.00     0.034 A 
ATOM     48  C   UNL A   1      39.426  31.002  34.235  1.00  0.00     0.034 A 
ATOM     49  C   UNL A   1      42.688  27.260  29.966  1.00  0.00     0.049 A 
ATOM     50  C   UNL A   1      40.768  30.322  34.270  1.00  0.00     0.074 A 
ATOM     51  C   UNL A   1      43.962  26.739  30.097  1.00  0.00     0.029 A 
ATOM     52  N   UNL A   1      42.426  27.980  31.123  1.00  0.00    -0.354 N 
ATOM     53  N   UNL A   1      41.366  29.630  33.330  1.00  0.00    -0.248 NA
ATOM     54  C   UNL A   1      41.553  30.456  35.506  1.00  0.00     0.031 C 
ATOM     55  C   UNL A   1      44.461  27.124  31.344  1.00  0.00     0.029 A 
ATOM     56  C   UNL A   1      43.509  27.908  31.978  1.00  0.00     0.049 A 
ATOM     57  H   UNL A   1      41.591  28.468  31.307  1.00  0.00     0.167 HD
ATOM     58  C   UNL A   1      42.606  29.273  33.846  1.00  0.00     0.074 A 
ATOM     59  C   UNL A   1      42.683  29.842  35.175  1.00  0.00     0.031 C 
ATOM     60  C   UNL A   1      43.585  28.527  33.278  1.00  0.00     0.034 A 
BRANCH  47  61
ATOM     61  C   UNL A   1      42.212  26.312  27.671  1.00  0.00     0.023 A 
ATOM     62  C   UNL A   1      43.061  26.904  26.712  1.00  0.00     0.012 A 
ATOM     63  C   UNL A   1      41.848  24.959  27.528  1.00  0.00     0.148 A 
ATOM     64  C   UNL A   1      43.513  26.176  25.614  1.00  0.00     0.002 A 
ATOM     65  C   UNL A   1      42.343  24.224  26.456  1.00  0.00     0.091 A 
ATOM     66  F   UNL A   1      41.025  24.418  28.437  1.00  0.00    -0.205 F 
ATOM     67  C   UNL A   1      43.164  24.834  25.492  1.00  0.00     0.022 A 
BRANCH  65  68
ATOM     68  S   UNL A   1      42.026  22.469  26.250  1.00  0.00     0.127 S 
ATOM     69  O   UNL A   1      42.736  22.184  25.003  1.00  0.00    -0.237 OA
ATOM     70  O   UNL A   1      42.647  21.903  27.447  1.00  0.00    -0.237 OA
ATOM     71  O   UNL A   1      40.578  22.325  26.188  1.00  0.00    -0.744 OA
ENDBRANCH  65  68
ENDBRANCH  47  61
BRANCH  48  72
ATOM     72  C   UNL A   1      38.961  31.862  35.362  1.00  0.00     0.023 A 
ATOM     73  C   UNL A   1      39.090  33.260  35.254  1.00  0.00     0.012 A 
ATOM     74  C   UNL A   1      38.336  31.317  36.501  1.00  0.00     0.148 A 
ATOM     75  C   UNL A   1      38.625  34.099  36.267  1.00  0.00     0.002 A 
ATOM     76  C   UNL A   1      37.824  32.162  37.480  1.00  0.00     0.091 A 
ATOM     77  F   UNL A   1      38.229  29.984  36.590  1.00  0.00    -0.205 F 
ATOM     78  C   UNL A   1      37.983  33.552  37.373  1.00  0.00     0.022 A 
BRANCH  76  79
ATOM     79  S   UNL A   1      36.858  31.560  38.871  1.00  0.00     0.127 S 
ATOM     80  O   UNL A   1      37.808  31.688  39.974  1.00  0.00    -0.237 OA
ATOM     81  O   UNL A   1      35.747  32.511  38.899  1.00  0.00    -0.237 OA
ATOM     82  O   UNL A   1      36.476  30.197  38.526  1.00  0.00    -0.744 OA
ENDBRANCH  76  79
ENDBRANCH  48  72
BRANCH  60  83
ATOM     83  C   UNL A   1      44.841  28.279  34.072  1.00  0.00     0.023 A 
ATOM     84  C   UNL A   1      45.894  29.211  34.010  1.00  0.00     0.012 A 
ATOM     85  C   UNL A   1      44.912  27.209  34.987  1.00  0.00     0.148 A 
ATOM     86  C   UNL A   1      47.007  29.076  34.839  1.00  0.00     0.002 A 
ATOM     87  C   UNL A   1      45.999  27.111  35.846  1.00  0.00     0.091 A 
ATOM     88  F   UNL A   1      43.902  26.327  35.019  1.00  0.00    -0.205 F 
ATOM     89  C   UNL A   1      47.052  28.038  35.767  1.00  0.00     0.022 A 
BRANCH  87  90
ATOM     90  S   UNL A   1      46.097  25.879  37.150  1.00  0.00     0.127 S 
ATOM     91  O   UNL A   1      47.107  26.458  38.032  1.00  0.00    -0.237 OA
ATOM     92  O   UNL A   1      44.737  25.892  37.687  1.00  0.00    -0.237 OA
ATOM     93  O   UNL A   1      46.483  24.633  36.501  1.00  0.00    -0.744 OA
ENDBRANCH  87  90
ENDBRANCH  60  83
ENDBRANCH  34  35
ENDBRANCH  26  29
ENDBRANCH   1  25
TORSDOF 14
ENDMDL
MODEL 2
REMARK VINA RESULT:     -12.5      5.528      7.621
REMARK SMILES Cc1cc2c(c(C)c1Br)C=C(C(=O)NCCCNC(=O)c1ccc(-c3c4nc(c(-c5cccc(S(=O)(=O)[O-])c5F)c5ccc([nH]5)c(-c5cccc(S(=O)(=O)[O-])c5F)c5nc(c(-c6cccc(S(=O)(=O)[O-])c6F)c6ccc3[nH]6)C=C5)C=C4)cc1)[C@@H](C(F)(F)F)O2
REMARK SMILES IDX 17 1 16 2 15 3 14 4 12 5 13 6 11 8 1 9 2 10 3 11 8 12 4 13
REMARK SMILES IDX 6 14 9 15 5 16 89 17 7 18 10 19 84 20 85 21 86 22 87 23
REMARK SMILES IDX 88 24 18 25 19 26 20 28 21 29 22 30 83 31 23 32 82 33 24 34
REMARK SMILES IDX 25 35 26 36 76 37 27 38 81 39 75 40 77 41 28 42 80 43 74 44
REMARK SMILES IDX 73 45 29 47 61 48 41 49 60 50 42 51 45 52 59 53 78 54 43 55
REMARK SMILES IDX 44 56 58 58 79 59 46 60 30 61 31 62 39 63 32 64 34 65 40 66
REMARK SMILES IDX 33 67 35 68 36 69 37 70 38 71 62 72 63 73 71 74 64 75 66 76
REMARK SMILES IDX 72 77 65 78 67 79 68 80 69 81 70 82 47 83 48 84 56 85 49 86
REMARK SMILES IDX 51 87 57 88 50 89 52 90 53 91 54 92 55 93
REMARK H PARENT 14 7 18 27 77 46 45 57
REMARK Flexibility Score: inf
ROOT
ATOM      1  C   UNL A   1      37.405  22.395  24.971  1.00  0.00     0.118 C 
ENDROOT
BRANCH   1   2
ATOM      2  C   UNL A   1      36.185  21.816  24.269  1.00  0.00     0.042 C 
BRANCH   2   3
ATOM      3  C   UNL A   1      35.619  20.611  25.001  1.00  0.00     0.118 C 
BRANCH   3   4
ATOM      4  N   UNL A   1      34.265  20.295  24.570  1.00  0.00    -0.352 N 
ATOM      5  C   UNL A   1      33.055  20.900  24.576  1.00  0.00     0.251 C 
ATOM      6  O   UNL A   1      32.139  20.247  24.064  1.00  0.00    -0.270 OA
ATOM      7  H   UNL A   1      34.217  19.399  24.165  1.00  0.00     0.163 HD
BRANCH   5   8
ATOM      8  C   UNL A   1      32.778  22.256  25.129  1.00  0.00     0.067 C 
ATOM      9  C   UNL A   1      31.754  28.554  26.381  1.00  0.00     0.046 C 
ATOM     10  C   UNL A   1      32.117  27.226  25.773  1.00  0.00    -0.033 A 
ATOM     11  C   UNL A   1      31.806  26.076  26.500  1.00  0.00     0.051 A 
ATOM     12  C   UNL A   1      32.709  27.087  24.498  1.00  0.00     0.024 A 
ATOM     13  C   UNL A   1      32.101  24.817  25.994  1.00  0.00     0.128 A 
ATOM     14  C   UNL A   1      33.014  25.805  23.969  1.00  0.00    -0.026 A 
ATOM     15  Br  UNL A   1      33.067  28.675  23.490  1.00  0.00    -0.050 Br
ATOM     16  C   UNL A   1      32.694  24.658  24.739  1.00  0.00     0.021 A 
ATOM     17  O   UNL A   1      31.727  23.773  26.789  1.00  0.00    -0.475 OA
ATOM     18  C   UNL A   1      33.654  25.618  22.613  1.00  0.00     0.046 C 
ATOM     19  C   UNL A   1      32.915  23.285  24.272  1.00  0.00     0.026 C 
ATOM     20  C   UNL A   1      32.396  22.512  26.555  1.00  0.00     0.314 C 
BRANCH  20  21
ATOM     21  C   UNL A   1      33.590  22.382  27.519  1.00  0.00     0.429 C 
ATOM     22  F   UNL A   1      33.951  21.083  27.661  1.00  0.00    -0.167 F 
ATOM     23  F   UNL A   1      34.692  23.039  27.081  1.00  0.00    -0.167 F 
ATOM     24  F   UNL A   1      33.320  22.863  28.754  1.00  0.00    -0.167 F 
ENDBRANCH  20  21
ENDBRANCH   5   8
ENDBRANCH   3   4
ENDBRANCH   2   3
ENDBRANCH   1   2
BRANCH   1  25
ATOM     25  N   UNL A   1      38.195  21.355  25.628  1.00  0.00    -0.352 N 
ATOM     26  C   UNL A   1      39.384  21.446  26.307  1.00  0.00     0.251 C 
ATOM     27  H   UNL A   1      37.815  20.448  25.576  1.00  0.00     0.163 HD
ATOM     28  O   UNL A   1      40.033  20.428  26.537  1.00  0.00    -0.269 OA
BRANCH  26  29
ATOM     29  C   UNL A   1      39.874  22.761  26.760  1.00  0.00     0.039 A 
ATOM     30  C   UNL A   1      40.820  22.830  27.784  1.00  0.00     0.014 A 
ATOM     31  C   UNL A   1      39.377  23.931  26.180  1.00  0.00     0.014 A 
ATOM     32  C   UNL A   1      41.309  24.074  28.183  1.00  0.00     0.010 A 
ATOM     33  C   UNL A   1      39.943  25.155  26.500  1.00  0.00     0.010 A 
ATOM     34  C   UNL A   1      40.896  25.244  27.522  1.00  0.00    -0.014 A 
BRANCH  34  35
ATOM     35  C   UNL A   1      41.419  26.576  27.905  1.00  0.00     0.031 A 
ATOM     36  C   UNL A   1      42.842  26.942  27.580  1.00  0.00     0.074 A 
ATOM     37  C   UNL A   1      40.636  27.423  28.601  1.00  0.00     0.049 A 
ATOM     38  N   UNL A   1      43.493  28.040  27.859  1.00  0.00    -0.248 NA
ATOM     39  C   UNL A   1      43.651  25.933  26.872  1.00  0.00     0.031 C 
ATOM     40  C   UNL A   1      39.265  27.143  29.033  1.00  0.00     0.029 A 
ATOM     41  N   UNL A   1      40.882  28.686  29.075  1.00  0.00    -0.354 N 
ATOM     42  C   UNL A   1      44.783  27.845  27.382  1.00  0.00     0.074 A 
ATOM     43  C   UNL A   1      44.846  26.502  26.855  1.00  0.00     0.031 C 
ATOM     44  C   UNL A   1      38.779  28.216  29.678  1.00  0.00     0.029 A 
ATOM     45  C   UNL A   1      39.813  29.245  29.735  1.00  0.00     0.049 A 
ATOM     46  H   UNL A   1      41.742  29.149  28.953  1.00  0.00     0.167 HD
ATOM     47  C   UNL A   1      45.811  28.725  27.341  1.00  0.00     0.034 A 
ATOM     48  C   UNL A   1      39.679  30.457  30.311  1.00  0.00     0.034 A 
ATOM     49  C   UNL A   1      45.723  30.073  27.825  1.00  0.00     0.049 A 
ATOM     50  C   UNL A   1      40.834  31.420  30.245  1.00  0.00     0.074 A 
ATOM     51  C   UNL A   1      46.684  31.067  27.773  1.00  0.00     0.029 A 
ATOM     52  N   UNL A   1      44.610  30.620  28.444  1.00  0.00    -0.354 N 
ATOM     53  N   UNL A   1      42.002  31.268  29.669  1.00  0.00    -0.248 NA
ATOM     54  C   UNL A   1      40.647  32.732  30.883  1.00  0.00     0.031 C 
ATOM     55  C   UNL A   1      46.157  32.208  28.384  1.00  0.00     0.029 A 
ATOM     56  C   UNL A   1      44.860  31.934  28.791  1.00  0.00     0.049 A 
ATOM     57  H   UNL A   1      43.765  30.141  28.613  1.00  0.00     0.167 HD
ATOM     58  C   UNL A   1      42.677  32.470  29.845  1.00  0.00     0.074 A 
ATOM     59  C   UNL A   1      41.779  33.349  30.566  1.00  0.00     0.031 C 
ATOM     60  C   UNL A   1      43.933  32.809  29.462  1.00  0.00     0.034 A 
BRANCH  47  61
ATOM     61  C   UNL A   1      47.089  28.280  26.678  1.00  0.00     0.023 A 
ATOM     62  C   UNL A   1      48.174  27.868  27.481  1.00  0.00     0.012 A 
ATOM     63  C   UNL A   1      47.198  28.198  25.277  1.00  0.00     0.148 A 
ATOM     64  C   UNL A   1      49.358  27.416  26.901  1.00  0.00     0.002 A 
ATOM     65  C   UNL A   1      48.364  27.699  24.706  1.00  0.00     0.091 A 
ATOM     66  F   UNL A   1      46.165  28.612  24.530  1.00  0.00    -0.205 F 
ATOM     67  C   UNL A   1      49.448  27.320  25.516  1.00  0.00     0.022 A 
BRANCH  65  68
ATOM     68  S   UNL A   1      48.554  27.453  22.938  1.00  0.00     0.127 S 
ATOM     69  O   UNL A   1      48.394  26.004  22.822  1.00  0.00    -0.237 OA
ATOM     70  O   UNL A   1      47.440  28.234  22.399  1.00  0.00    -0.237 OA
ATOM     71  O   UNL A   1      49.876  27.962  22.599  1.00  0.00    -0.744 OA
ENDBRANCH  65  68
ENDBRANCH  47  61
BRANCH  48  72
ATOM     72  C   UNL A   1      38.369  30.855  30.902  1.00  0.00     0.023 A 
ATOM     73  C   UNL A   1      38.141  30.628  32.274  1.00  0.00     0.012 A 
ATOM     74  C   UNL A   1      37.379  31.508  30.142  1.00  0.00     0.148 A 
ATOM     75  C   UNL A   1      36.946  31.027  32.874  1.00  0.00     0.002 A 
ATOM     76  C   UNL A   1      36.214  31.954  30.759  1.00  0.00     0.091 A 
ATOM     77  F   UNL A   1      37.610  31.709  28.837  1.00  0.00    -0.205 F 
ATOM     78  C   UNL A   1      35.988  31.699  32.121  1.00  0.00     0.022 A 
BRANCH  76  79
ATOM     79  S   UNL A   1      34.986  32.951  29.905  1.00  0.00     0.127 S 
ATOM     80  O   UNL A   1      35.806  34.024  29.348  1.00  0.00    -0.237 OA
ATOM     81  O   UNL A   1      34.460  32.003  28.923  1.00  0.00    -0.237 OA
ATOM     82  O   UNL A   1      34.028  33.356  30.925  1.00  0.00    -0.744 OA
ENDBRANCH  76  79
ENDBRANCH  48  72
BRANCH  60  83
ATOM     83  C   UNL A   1      44.428  34.192  29.794  1.00  0.00     0.023 A 
ATOM     84  C   UNL A   1      45.148  34.402  30.986  1.00  0.00     0.012 A 
ATOM     85  C   UNL A   1      44.310  35.241  28.860  1.00  0.00     0.148 A 
ATOM     86  C   UNL A   1      45.734  35.639  31.250  1.00  0.00     0.002 A 
ATOM     87  C   UNL A   1      44.942  36.453  29.105  1.00  0.00     0.091 A 
ATOM     88  F   UNL A   1      43.610  35.021  27.737  1.00  0.00    -0.205 F 
ATOM     89  C   UNL A   1      45.645  36.658  30.303  1.00  0.00     0.022 A 
BRANCH  87  90
ATOM     90  S   UNL A   1      44.982  37.787  27.901  1.00  0.00     0.127 S 
ATOM     91  O   UNL A   1      45.710  38.824  28.629  1.00  0.00    -0.237 OA
ATOM     92  O   UNL A   1      45.725  37.180  26.796  1.00  0.00    -0.237 OA
ATOM     93  O   UNL A   1      43.592  38.101  27.599  1.00  0.00    -0.744 OA
ENDBRANCH  87  90
ENDBRANCH  60  83
ENDBRANCH  34  35
ENDBRANCH  26  29
ENDBRANCH   1  25
TORSDOF 14
ENDMDL
MODEL 3
REMARK VINA RESULT:     -12.5      1.343      1.642
REMARK SMILES Cc1cc2c(c(C)c1Br)C=C(C(=O)NCCCNC(=O)c1ccc(-c3c4nc(c(-c5cccc(S(=O)(=O)[O-])c5F)c5ccc([nH]5)c(-c5cccc(S(=O)(=O)[O-])c5F)c5nc(c(-c6cccc(S(=O)(=O)[O-])c6F)c6ccc3[nH]6)C=C5)C=C4)cc1)[C@@H](C(F)(F)F)O2
REMARK SMILES IDX 17 1 16 2 15 3 14 4 12 5 13 6 11 8 1 9 2 10 3 11 8 12 4 13
REMARK SMILES IDX 6 14 9 15 5 16 89 17 7 18 10 19 84 20 85 21 86 22 87 23
REMARK SMILES IDX 88 24 18 25 19 26 20 28 21 29 22 30 83 31 23 32 82 33 24 34
REMARK SMILES IDX 25 35 26 36 76 37 27 38 81 39 75 40 77 41 28 42 80 43 74 44
REMARK SMILES IDX 73 45 29 47 61 48 41 49 60 50 42 51 45 52 59 53 78 54 43 55
REMARK SMILES IDX 44 56 58 58 79 59 46 60 30 61 31 62 39 63 32 64 34 65 40 66
REMARK SMILES IDX 33 67 35 68 36 69 37 70 38 71 62 72 63 73 71 74 64 75 66 76
REMARK SMILES IDX 72 77 65 78 67 79 68 80 69 81 70 82 47 83 48 84 56 85 49 86
REMARK SMILES IDX 51 87 57 88 50 89 52 90 53 91 54 92 55 93
REMARK H PARENT 14 7 18 27 77 46 45 57
REMARK Flexibility Score: inf
ROOT
ATOM      1  C   UNL A   1      33.646  29.272  24.917  1.00  0.00     0.118 C 
ENDROOT
BRANCH   1   2
ATOM      2  C   UNL A   1      32.971  28.899  23.605  1.00  0.00     0.042 C 
BRANCH   2   3
ATOM      3  C   UNL A   1      31.941  27.796  23.783  1.00  0.00     0.118 C 
BRANCH   3   4
ATOM      4  N   UNL A   1      31.621  27.569  25.186  1.00  0.00    -0.352 N 
ATOM      5  C   UNL A   1      31.578  26.518  26.035  1.00  0.00     0.251 C 
ATOM      6  O   UNL A   1      31.261  26.793  27.198  1.00  0.00    -0.270 OA
ATOM      7  H   UNL A   1      31.368  28.407  25.636  1.00  0.00     0.163 HD
BRANCH   5   8
ATOM      8  C   UNL A   1      31.889  25.106  25.669  1.00  0.00     0.067 C 
ATOM      9  C   UNL A   1      34.372  19.208  24.514  1.00  0.00     0.046 C 
ATOM     10  C   UNL A   1      34.149  20.661  24.838  1.00  0.00    -0.033 A 
ATOM     11  C   UNL A   1      32.829  21.114  24.897  1.00  0.00     0.051 A 
ATOM     12  C   UNL A   1      35.193  21.567  25.126  1.00  0.00     0.024 A 
ATOM     13  C   UNL A   1      32.548  22.439  25.203  1.00  0.00     0.128 A 
ATOM     14  C   UNL A   1      34.920  22.924  25.441  1.00  0.00    -0.026 A 
ATOM     15  Br  UNL A   1      36.991  20.908  25.103  1.00  0.00    -0.050 Br
ATOM     16  C   UNL A   1      33.569  23.353  25.482  1.00  0.00     0.021 A 
ATOM     17  O   UNL A   1      31.222  22.752  25.252  1.00  0.00    -0.475 OA
ATOM     18  C   UNL A   1      36.012  23.923  25.747  1.00  0.00     0.046 C 
ATOM     19  C   UNL A   1      33.165  24.716  25.847  1.00  0.00     0.026 C 
ATOM     20  C   UNL A   1      30.883  24.150  25.105  1.00  0.00     0.314 C 
BRANCH  20  21
ATOM     21  C   UNL A   1      30.554  24.442  23.628  1.00  0.00     0.429 C 
ATOM     22  F   UNL A   1      30.094  23.325  23.011  1.00  0.00    -0.167 F 
ATOM     23  F   UNL A   1      29.590  25.384  23.482  1.00  0.00    -0.167 F 
ATOM     24  F   UNL A   1      31.627  24.876  22.930  1.00  0.00    -0.167 F 
ENDBRANCH  20  21
ENDBRANCH   5   8
ENDBRANCH   3   4
ENDBRANCH   2   3
ENDBRANCH   1   2
BRANCH   1  25
ATOM     25  N   UNL A   1      32.998  30.419  25.552  1.00  0.00    -0.352 N 
ATOM     26  C   UNL A   1      33.233  31.002  26.771  1.00  0.00     0.251 C 
ATOM     27  H   UNL A   1      32.282  30.838  25.022  1.00  0.00     0.163 HD
ATOM     28  O   UNL A   1      32.400  31.770  27.250  1.00  0.00    -0.269 OA
BRANCH  26  29
ATOM     29  C   UNL A   1      34.482  30.710  27.499  1.00  0.00     0.039 A 
ATOM     30  C   UNL A   1      35.440  31.713  27.656  1.00  0.00     0.014 A 
ATOM     31  C   UNL A   1      34.712  29.430  28.008  1.00  0.00     0.014 A 
ATOM     32  C   UNL A   1      36.603  31.444  28.378  1.00  0.00     0.010 A 
ATOM     33  C   UNL A   1      35.814  29.196  28.817  1.00  0.00     0.010 A 
ATOM     34  C   UNL A   1      36.784  30.191  28.989  1.00  0.00    -0.014 A 
BRANCH  34  35
ATOM     35  C   UNL A   1      37.995  29.884  29.785  1.00  0.00     0.031 A 
ATOM     36  C   UNL A   1      39.037  28.950  29.230  1.00  0.00     0.074 A 
ATOM     37  C   UNL A   1      38.123  30.391  31.026  1.00  0.00     0.049 A 
ATOM     38  N   UNL A   1      40.145  28.532  29.782  1.00  0.00    -0.248 NA
ATOM     39  C   UNL A   1      38.790  28.388  27.889  1.00  0.00     0.031 C 
ATOM     40  C   UNL A   1      37.141  31.250  31.692  1.00  0.00     0.029 A 
ATOM     41  N   UNL A   1      39.124  30.253  31.952  1.00  0.00    -0.354 N 
ATOM     42  C   UNL A   1      40.711  27.649  28.871  1.00  0.00     0.074 A 
ATOM     43  C   UNL A   1      39.797  27.538  27.759  1.00  0.00     0.031 C 
ATOM     44  C   UNL A   1      37.604  31.589  32.906  1.00  0.00     0.029 A 
ATOM     45  C   UNL A   1      38.898  30.947  33.117  1.00  0.00     0.049 A 
ATOM     46  H   UNL A   1      39.930  29.709  31.797  1.00  0.00     0.167 HD
ATOM     47  C   UNL A   1      41.910  27.025  28.932  1.00  0.00     0.034 A 
ATOM     48  C   UNL A   1      39.655  31.061  34.227  1.00  0.00     0.034 A 
ATOM     49  C   UNL A   1      42.832  27.180  30.020  1.00  0.00     0.049 A 
ATOM     50  C   UNL A   1      40.988  30.364  34.267  1.00  0.00     0.074 A 
ATOM     51  C   UNL A   1      44.100  26.644  30.153  1.00  0.00     0.029 A 
ATOM     52  N   UNL A   1      42.589  27.928  31.162  1.00  0.00    -0.354 N 
ATOM     53  N   UNL A   1      41.569  29.643  33.339  1.00  0.00    -0.248 NA
ATOM     54  C   UNL A   1      41.785  30.515  35.494  1.00  0.00     0.031 C 
ATOM     55  C   UNL A   1      44.614  27.051  31.387  1.00  0.00     0.029 A 
ATOM     56  C   UNL A   1      43.678  27.862  32.010  1.00  0.00     0.049 A 
ATOM     57  H   UNL A   1      41.762  28.432  31.341  1.00  0.00     0.167 HD
ATOM     58  C   UNL A   1      42.809  29.281  33.853  1.00  0.00     0.074 A 
ATOM     59  C   UNL A   1      42.904  29.880  35.169  1.00  0.00     0.031 C 
ATOM     60  C   UNL A   1      43.773  28.509  33.295  1.00  0.00     0.034 A 
BRANCH  47  61
ATOM     61  C   UNL A   1      42.325  26.185  27.751  1.00  0.00     0.023 A 
ATOM     62  C   UNL A   1      43.181  26.741  26.777  1.00  0.00     0.012 A 
ATOM     63  C   UNL A   1      41.935  24.837  27.638  1.00  0.00     0.148 A 
ATOM     64  C   UNL A   1      43.614  25.982  25.692  1.00  0.00     0.002 A 
ATOM     65  C   UNL A   1      42.411  24.071  26.579  1.00  0.00     0.091 A 
ATOM     66  F   UNL A   1      41.106  24.331  28.561  1.00  0.00    -0.205 F 
ATOM     67  C   UNL A   1      43.239  24.644  25.600  1.00  0.00     0.022 A 
BRANCH  65  68
ATOM     68  S   UNL A   1      42.060  22.318  26.412  1.00  0.00     0.127 S 
ATOM     69  O   UNL A   1      40.604  22.320  26.273  1.00  0.00    -0.237 OA
ATOM     70  O   UNL A   1      42.787  21.975  25.189  1.00  0.00    -0.237 OA
ATOM     71  O   UNL A   1      42.569  21.687  27.621  1.00  0.00    -0.744 OA
ENDBRANCH  65  68
ENDBRANCH  47  61
BRANCH  48  72
ATOM     72  C   UNL A   1      39.210  31.952  35.338  1.00  0.00     0.023 A 
ATOM     73  C   UNL A   1      38.358  31.432  36.332  1.00  0.00     0.012 A 
ATOM     74  C   UNL A   1      39.671  33.278  35.455  1.00  0.00     0.148 A 
ATOM     75  C   UNL A   1      37.956  32.220  37.410  1.00  0.00     0.002 A 
ATOM     76  C   UNL A   1      39.312  34.040  36.563  1.00  0.00     0.091 A 
ATOM     77  F   UNL A   1      40.475  33.759  34.497  1.00  0.00    -0.205 F 
ATOM     78  C   UNL A   1      38.442  33.519  37.533  1.00  0.00     0.022 A 
BRANCH  76  79
ATOM     79  S   UNL A   1      39.998  35.671  36.881  1.00  0.00     0.127 S 
ATOM     80  O   UNL A   1      39.362  36.021  38.149  1.00  0.00    -0.237 OA
ATOM     81  O   UNL A   1      41.429  35.383  36.966  1.00  0.00    -0.237 OA
ATOM     82  O   UNL A   1      39.614  36.490  35.738  1.00  0.00    -0.744 OA
ENDBRANCH  76  79
ENDBRANCH  48  72
BRANCH  60  83
ATOM     83  C   UNL A   1      45.032  28.263  34.084  1.00  0.00     0.023 A 
ATOM     84  C   UNL A   1      46.079  29.203  34.029  1.00  0.00     0.012 A 
ATOM     85  C   UNL A   1      45.112  27.185  34.990  1.00  0.00     0.148 A 
ATOM     86  C   UNL A   1      47.194  29.068  34.855  1.00  0.00     0.002 A 
ATOM     87  C   UNL A   1      46.201  27.087  35.846  1.00  0.00     0.091 A 
ATOM     88  F   UNL A   1      44.108  26.296  35.016  1.00  0.00    -0.205 F 
ATOM     89  C   UNL A   1      47.248  28.022  35.773  1.00  0.00     0.022 A 
BRANCH  87  90
ATOM     90  S   UNL A   1      46.310  25.844  37.138  1.00  0.00     0.127 S 
ATOM     91  O   UNL A   1      45.099  26.111  37.911  1.00  0.00    -0.237 OA
ATOM     92  O   UNL A   1      46.282  24.599  36.370  1.00  0.00    -0.237 OA
ATOM     93  O   UNL A   1      47.561  26.097  37.840  1.00  0.00    -0.744 OA
ENDBRANCH  87  90
ENDBRANCH  60  83
ENDBRANCH  34  35
ENDBRANCH  26  29
ENDBRANCH   1  25
TORSDOF 14
ENDMDL
