MODEL 1
REMARK VINA RESULT:     -11.1      0.000      0.000
REMARK SMILES CC[C@](C)(NS(=O)(=O)c1ccc(OC)c(F)c1)C(=O)NCCCNC(=O)c1ccc(-c2c3nc(c(-c4cccc(S(=O)(=O)[O-])c4F)c4ccc([nH]4)c(-c4cccc(S(=O)(=O)[O-])c4F)c4nc(c(-c5cccc(S(=O)(=O)[O-])c5F)c5ccc2[nH]5)C=C4)C=C3)cc1
REMARK SMILES IDX 21 1 20 2 18 3 19 4 3 6 4 7 2 8 1 9 5 10 6 12 7 13 8 14 9 15
REMARK SMILES IDX 10 16 17 17 11 18 15 19 12 20 16 21 13 22 14 23 22 24 23 25
REMARK SMILES IDX 24 26 25 27 26 29 27 30 28 31 89 32 29 33 88 34 30 35 31 36
REMARK SMILES IDX 32 37 82 38 33 39 87 40 81 41 83 42 34 43 86 44 80 45 79 46
REMARK SMILES IDX 35 48 67 49 47 50 66 51 48 52 51 53 65 54 84 55 49 56 50 57
REMARK SMILES IDX 64 59 85 60 52 61 36 62 37 63 45 64 38 65 40 66 46 67 39 68
REMARK SMILES IDX 41 69 42 70 43 71 44 72 68 73 69 74 77 75 70 76 72 77 78 78
REMARK SMILES IDX 71 79 73 80 74 81 75 82 76 83 53 84 54 85 62 86 55 87 57 88
REMARK SMILES IDX 63 89 56 90 58 91 59 92 60 93 61 94
REMARK H PARENT 20 5 5 11 24 28 83 47 51 58
REMARK Flexibility Score: inf
ROOT
ATOM      1  C   UNL A   1      33.083  26.713  26.046  1.00  0.00     0.117 C 
ENDROOT
BRANCH   1   2
ATOM      2  N   UNL A   1      32.398  25.447  26.286  1.00  0.00    -0.354 N 
ATOM      3  C   UNL A   1      32.808  24.165  26.499  1.00  0.00     0.241 C 
ATOM      4  O   UNL A   1      32.126  23.582  27.362  1.00  0.00    -0.273 OA
ATOM      5  H   UNL A   1      31.418  25.540  26.293  1.00  0.00     0.163 HD
BRANCH   3   6
ATOM      6  C   UNL A   1      33.876  23.355  25.694  1.00  0.00     0.108 C 
ATOM      7  C   UNL A   1      34.343  22.179  26.625  1.00  0.00     0.040 C 
BRANCH   6   8
ATOM      8  C   UNL A   1      35.124  24.171  25.290  1.00  0.00     0.030 C 
ATOM      9  C   UNL A   1      36.426  23.717  25.964  1.00  0.00     0.006 C 
ENDBRANCH   6   8
BRANCH   6  10
ATOM     10  N   UNL A   1      33.352  22.561  24.546  1.00  0.00    -0.196 NA
ATOM     11  H   UNL A   1      32.400  22.317  24.821  1.00  0.00     0.142 HD
BRANCH  10  12
ATOM     12  S   UNL A   1      33.222  22.988  22.953  1.00  0.00     0.241 S 
ATOM     13  O   UNL A   1      34.553  23.094  22.420  1.00  0.00    -0.207 OA
ATOM     14  O   UNL A   1      32.271  22.030  22.429  1.00  0.00    -0.207 OA
BRANCH  12  15
ATOM     15  C   UNL A   1      32.420  24.568  22.857  1.00  0.00     0.085 A 
ATOM     16  C   UNL A   1      33.057  25.708  22.375  1.00  0.00     0.026 A 
ATOM     17  C   UNL A   1      31.090  24.656  23.276  1.00  0.00     0.065 A 
ATOM     18  C   UNL A   1      32.327  26.877  22.143  1.00  0.00     0.051 A 
ATOM     19  C   UNL A   1      30.389  25.854  23.114  1.00  0.00     0.166 A 
ATOM     20  C   UNL A   1      30.981  26.960  22.499  1.00  0.00     0.154 A 
ATOM     21  F   UNL A   1      29.117  25.893  23.532  1.00  0.00    -0.203 F 
BRANCH  20  22
ATOM     22  O   UNL A   1      30.397  28.150  22.168  1.00  0.00    -0.494 OA
ATOM     23  C   UNL A   1      29.382  28.648  23.032  1.00  0.00     0.278 C 
ENDBRANCH  20  22
ENDBRANCH  12  15
ENDBRANCH  10  12
ENDBRANCH   6  10
ENDBRANCH   3   6
ENDBRANCH   1   2
BRANCH   1  24
ATOM     24  C   UNL A   1      32.230  27.984  25.885  1.00  0.00     0.042 C 
BRANCH  24  25
ATOM     25  C   UNL A   1      32.850  29.204  25.199  1.00  0.00     0.118 C 
BRANCH  25  26
ATOM     26  N   UNL A   1      32.348  30.462  25.732  1.00  0.00    -0.352 N 
ATOM     27  C   UNL A   1      32.809  31.232  26.775  1.00  0.00     0.251 C 
ATOM     28  H   UNL A   1      31.552  30.818  25.274  1.00  0.00     0.163 HD
ATOM     29  O   UNL A   1      32.123  32.182  27.151  1.00  0.00    -0.269 OA
BRANCH  27  30
ATOM     30  C   UNL A   1      34.096  30.954  27.469  1.00  0.00     0.039 A 
ATOM     31  C   UNL A   1      34.290  29.686  28.033  1.00  0.00     0.014 A 
ATOM     32  C   UNL A   1      35.065  31.940  27.672  1.00  0.00     0.014 A 
ATOM     33  C   UNL A   1      35.453  29.399  28.760  1.00  0.00     0.010 A 
ATOM     34  C   UNL A   1      36.245  31.642  28.376  1.00  0.00     0.010 A 
ATOM     35  C   UNL A   1      36.452  30.371  28.935  1.00  0.00    -0.014 A 
BRANCH  35  36
ATOM     36  C   UNL A   1      37.716  30.040  29.658  1.00  0.00     0.031 A 
ATOM     37  C   UNL A   1      38.019  30.597  31.025  1.00  0.00     0.074 A 
ATOM     38  C   UNL A   1      38.626  29.238  29.068  1.00  0.00     0.049 A 
ATOM     39  N   UNL A   1      39.040  30.346  31.809  1.00  0.00    -0.248 NA
ATOM     40  C   UNL A   1      37.062  31.563  31.584  1.00  0.00     0.031 C 
ATOM     41  C   UNL A   1      38.503  28.677  27.723  1.00  0.00     0.029 A 
ATOM     42  N   UNL A   1      39.839  28.767  29.516  1.00  0.00    -0.354 N 
ATOM     43  C   UNL A   1      38.857  31.125  32.945  1.00  0.00     0.074 A 
ATOM     44  C   UNL A   1      37.639  31.881  32.738  1.00  0.00     0.031 C 
ATOM     45  C   UNL A   1      39.590  27.935  27.456  1.00  0.00     0.029 A 
ATOM     46  C   UNL A   1      40.496  27.975  28.602  1.00  0.00     0.049 A 
ATOM     47  H   UNL A   1      40.202  28.977  30.406  1.00  0.00     0.167 HD
ATOM     48  C   UNL A   1      39.614  31.185  34.069  1.00  0.00     0.034 A 
ATOM     49  C   UNL A   1      41.687  27.343  28.673  1.00  0.00     0.034 A 
ATOM     50  C   UNL A   1      40.810  30.414  34.298  1.00  0.00     0.049 A 
ATOM     51  C   UNL A   1      42.497  27.409  29.940  1.00  0.00     0.074 A 
ATOM     52  C   UNL A   1      41.583  30.353  35.446  1.00  0.00     0.029 A 
ATOM     53  N   UNL A   1      41.413  29.582  33.369  1.00  0.00    -0.354 N 
ATOM     54  N   UNL A   1      42.215  28.013  31.068  1.00  0.00    -0.248 NA
ATOM     55  C   UNL A   1      43.773  26.675  29.958  1.00  0.00     0.031 C 
ATOM     56  C   UNL A   1      42.666  29.503  35.203  1.00  0.00     0.029 A 
ATOM     57  C   UNL A   1      42.556  29.015  33.912  1.00  0.00     0.049 A 
ATOM     58  H   UNL A   1      41.079  29.417  32.458  1.00  0.00     0.167 HD
ATOM     59  C   UNL A   1      43.257  27.707  31.938  1.00  0.00     0.074 A 
ATOM     60  C   UNL A   1      44.169  26.848  31.213  1.00  0.00     0.031 C 
ATOM     61  C   UNL A   1      43.442  28.118  33.216  1.00  0.00     0.034 A 
BRANCH  48  62
ATOM     62  C   UNL A   1      39.142  32.068  35.199  1.00  0.00     0.023 A 
ATOM     63  C   UNL A   1      38.271  31.530  36.168  1.00  0.00     0.012 A 
ATOM     64  C   UNL A   1      39.655  33.369  35.376  1.00  0.00     0.148 A 
ATOM     65  C   UNL A   1      37.903  32.277  37.285  1.00  0.00     0.002 A 
ATOM     66  C   UNL A   1      39.314  34.093  36.513  1.00  0.00     0.091 A 
ATOM     67  F   UNL A   1      40.474  33.867  34.439  1.00  0.00    -0.205 F 
ATOM     68  C   UNL A   1      38.433  33.552  37.464  1.00  0.00     0.022 A 
BRANCH  66  69
ATOM     69  S   UNL A   1      40.005  35.712  36.879  1.00  0.00     0.127 S 
ATOM     70  O   UNL A   1      39.324  36.047  38.128  1.00  0.00    -0.237 OA
ATOM     71  O   UNL A   1      41.431  35.414  37.024  1.00  0.00    -0.237 OA
ATOM     72  O   UNL A   1      39.674  36.556  35.740  1.00  0.00    -0.744 OA
ENDBRANCH  66  69
ENDBRANCH  48  62
BRANCH  49  73
ATOM     73  C   UNL A   1      42.139  26.513  27.521  1.00  0.00     0.023 A 
ATOM     74  C   UNL A   1      42.966  27.091  26.538  1.00  0.00     0.012 A 
ATOM     75  C   UNL A   1      41.807  25.148  27.426  1.00  0.00     0.148 A 
ATOM     76  C   UNL A   1      43.443  26.329  25.472  1.00  0.00     0.002 A 
ATOM     77  C   UNL A   1      42.330  24.381  26.391  1.00  0.00     0.091 A 
ATOM     78  F   UNL A   1      41.005  24.623  28.362  1.00  0.00    -0.205 F 
ATOM     79  C   UNL A   1      43.136  24.972  25.405  1.00  0.00     0.022 A 
BRANCH  77  80
ATOM     80  S   UNL A   1      42.104  22.601  26.299  1.00  0.00     0.127 S 
ATOM     81  O   UNL A   1      40.650  22.488  26.221  1.00  0.00    -0.237 OA
ATOM     82  O   UNL A   1      42.815  22.272  25.062  1.00  0.00    -0.237 OA
ATOM     83  O   UNL A   1      42.716  22.063  27.505  1.00  0.00    -0.744 OA
ENDBRANCH  77  80
ENDBRANCH  49  73
BRANCH  61  84
ATOM     84  C   UNL A   1      44.672  27.645  33.951  1.00  0.00     0.023 A 
ATOM     85  C   UNL A   1      45.849  28.415  33.902  1.00  0.00     0.012 A 
ATOM     86  C   UNL A   1      44.627  26.506  34.781  1.00  0.00     0.148 A 
ATOM     87  C   UNL A   1      46.968  28.052  34.652  1.00  0.00     0.002 A 
ATOM     88  C   UNL A   1      45.732  26.175  35.561  1.00  0.00     0.091 A 
ATOM     89  F   UNL A   1      43.504  25.773  34.803  1.00  0.00    -0.205 F 
ATOM     90  C   UNL A   1      46.905  26.942  35.490  1.00  0.00     0.022 A 
BRANCH  88  91
ATOM     91  S   UNL A   1      45.712  24.819  36.743  1.00  0.00     0.127 S 
ATOM     92  O   UNL A   1      45.760  23.655  35.860  1.00  0.00    -0.237 OA
ATOM     93  O   UNL A   1      46.937  25.056  37.507  1.00  0.00    -0.237 OA
ATOM     94  O   UNL A   1      44.482  24.972  37.508  1.00  0.00    -0.744 OA
ENDBRANCH  88  91
ENDBRANCH  61  84
ENDBRANCH  35  36
ENDBRANCH  27  30
ENDBRANCH  25  26
ENDBRANCH  24  25
ENDBRANCH   1  24
TORSDOF 18
ENDMDL
MODEL 2
REMARK VINA RESULT:     -10.9      4.540      9.224
REMARK SMILES CC[C@](C)(NS(=O)(=O)c1ccc(OC)c(F)c1)C(=O)NCCCNC(=O)c1ccc(-c2c3nc(c(-c4cccc(S(=O)(=O)[O-])c4F)c4ccc([nH]4)c(-c4cccc(S(=O)(=O)[O-])c4F)c4nc(c(-c5cccc(S(=O)(=O)[O-])c5F)c5ccc2[nH]5)C=C4)C=C3)cc1
REMARK SMILES IDX 21 1 20 2 18 3 19 4 3 6 4 7 2 8 1 9 5 10 6 12 7 13 8 14 9 15
REMARK SMILES IDX 10 16 17 17 11 18 15 19 12 20 16 21 13 22 14 23 22 24 23 25
REMARK SMILES IDX 24 26 25 27 26 29 27 30 28 31 89 32 29 33 88 34 30 35 31 36
REMARK SMILES IDX 32 37 82 38 33 39 87 40 81 41 83 42 34 43 86 44 80 45 79 46
REMARK SMILES IDX 35 48 67 49 47 50 66 51 48 52 51 53 65 54 84 55 49 56 50 57
REMARK SMILES IDX 64 59 85 60 52 61 36 62 37 63 45 64 38 65 40 66 46 67 39 68
REMARK SMILES IDX 41 69 42 70 43 71 44 72 68 73 69 74 77 75 70 76 72 77 78 78
REMARK SMILES IDX 71 79 73 80 74 81 75 82 76 83 53 84 54 85 62 86 55 87 57 88
REMARK SMILES IDX 63 89 56 90 58 91 59 92 60 93 61 94
REMARK H PARENT 20 5 5 11 24 28 83 47 51 58
REMARK Flexibility Score: inf
ROOT
ATOM      1  C   UNL A   1      34.275  23.423  25.803  1.00  0.00     0.117 C 
ENDROOT
BRANCH   1   2
ATOM      2  N   UNL A   1      33.201  23.917  26.659  1.00  0.00    -0.354 N 
ATOM      3  C   UNL A   1      32.194  24.822  26.501  1.00  0.00     0.241 C 
ATOM      4  O   UNL A   1      31.131  24.451  27.030  1.00  0.00    -0.273 OA
ATOM      5  H   UNL A   1      33.206  23.504  27.553  1.00  0.00     0.163 HD
BRANCH   3   6
ATOM      6  C   UNL A   1      32.289  26.264  25.905  1.00  0.00     0.108 C 
ATOM      7  C   UNL A   1      33.765  26.749  26.136  1.00  0.00     0.040 C 
BRANCH   6   8
ATOM      8  C   UNL A   1      31.339  27.290  26.561  1.00  0.00     0.030 C 
ATOM      9  C   UNL A   1      31.549  28.738  26.097  1.00  0.00     0.006 C 
ENDBRANCH   6   8
BRANCH   6  10
ATOM     10  N   UNL A   1      32.236  26.350  24.417  1.00  0.00    -0.196 NA
ATOM     11  H   UNL A   1      33.013  25.769  24.102  1.00  0.00     0.142 HD
BRANCH  10  12
ATOM     12  S   UNL A   1      30.995  25.968  23.392  1.00  0.00     0.241 S 
ATOM     13  O   UNL A   1      31.574  25.486  22.167  1.00  0.00    -0.207 OA
ATOM     14  O   UNL A   1      30.137  25.132  24.204  1.00  0.00    -0.207 OA
BRANCH  12  15
ATOM     15  C   UNL A   1      30.063  27.443  23.062  1.00  0.00     0.085 A 
ATOM     16  C   UNL A   1      30.621  28.569  22.464  1.00  0.00     0.026 A 
ATOM     17  C   UNL A   1      28.711  27.456  23.413  1.00  0.00     0.065 A 
ATOM     18  C   UNL A   1      29.804  29.626  22.056  1.00  0.00     0.051 A 
ATOM     19  C   UNL A   1      27.916  28.554  23.071  1.00  0.00     0.166 A 
ATOM     20  C   UNL A   1      28.439  29.626  22.344  1.00  0.00     0.154 A 
ATOM     21  F   UNL A   1      26.626  28.524  23.429  1.00  0.00    -0.203 F 
BRANCH  20  22
ATOM     22  O   UNL A   1      27.771  30.706  21.841  1.00  0.00    -0.494 OA
ATOM     23  C   UNL A   1      28.531  31.871  21.543  1.00  0.00     0.278 C 
ENDBRANCH  20  22
ENDBRANCH  12  15
ENDBRANCH  10  12
ENDBRANCH   6  10
ENDBRANCH   3   6
ENDBRANCH   1   2
BRANCH   1  24
ATOM     24  C   UNL A   1      35.702  23.378  26.379  1.00  0.00     0.042 C 
BRANCH  24  25
ATOM     25  C   UNL A   1      36.886  23.333  25.409  1.00  0.00     0.118 C 
BRANCH  25  26
ATOM     26  N   UNL A   1      37.900  22.368  25.807  1.00  0.00    -0.352 N 
ATOM     27  C   UNL A   1      39.147  22.564  26.354  1.00  0.00     0.251 C 
ATOM     28  H   UNL A   1      37.655  21.426  25.662  1.00  0.00     0.163 HD
ATOM     29  O   UNL A   1      39.900  21.596  26.460  1.00  0.00    -0.269 OA
BRANCH  27  30
ATOM     30  C   UNL A   1      39.622  23.899  26.810  1.00  0.00     0.039 A 
ATOM     31  C   UNL A   1      39.559  24.198  28.177  1.00  0.00     0.014 A 
ATOM     32  C   UNL A   1      40.021  24.896  25.917  1.00  0.00     0.014 A 
ATOM     33  C   UNL A   1      39.924  25.468  28.646  1.00  0.00     0.010 A 
ATOM     34  C   UNL A   1      40.415  26.159  26.392  1.00  0.00     0.010 A 
ATOM     35  C   UNL A   1      40.366  26.464  27.761  1.00  0.00    -0.014 A 
BRANCH  35  36
ATOM     36  C   UNL A   1      40.812  27.793  28.275  1.00  0.00     0.031 A 
ATOM     37  C   UNL A   1      42.267  28.184  28.313  1.00  0.00     0.074 A 
ATOM     38  C   UNL A   1      39.894  28.665  28.742  1.00  0.00     0.049 A 
ATOM     39  N   UNL A   1      42.804  29.327  28.666  1.00  0.00    -0.248 NA
ATOM     40  C   UNL A   1      43.247  27.164  27.912  1.00  0.00     0.031 C 
ATOM     41  C   UNL A   1      38.458  28.403  28.830  1.00  0.00     0.029 A 
ATOM     42  N   UNL A   1      40.032  29.939  29.242  1.00  0.00    -0.354 N 
ATOM     43  C   UNL A   1      44.178  29.166  28.540  1.00  0.00     0.074 A 
ATOM     44  C   UNL A   1      44.397  27.802  28.104  1.00  0.00     0.031 C 
ATOM     45  C   UNL A   1      37.847  29.481  29.347  1.00  0.00     0.029 A 
ATOM     46  C   UNL A   1      38.844  30.508  29.639  1.00  0.00     0.049 A 
ATOM     47  H   UNL A   1      40.899  30.400  29.309  1.00  0.00     0.167 HD
ATOM     48  C   UNL A   1      45.166  30.074  28.740  1.00  0.00     0.034 A 
ATOM     49  C   UNL A   1      38.577  31.720  30.172  1.00  0.00     0.034 A 
ATOM     50  C   UNL A   1      44.957  31.441  29.143  1.00  0.00     0.049 A 
ATOM     51  C   UNL A   1      39.689  32.717  30.363  1.00  0.00     0.074 A 
ATOM     52  C   UNL A   1      45.899  32.447  29.279  1.00  0.00     0.029 A 
ATOM     53  N   UNL A   1      43.734  31.995  29.483  1.00  0.00    -0.354 N 
ATOM     54  N   UNL A   1      40.960  32.599  30.069  1.00  0.00    -0.248 NA
ATOM     55  C   UNL A   1      39.324  34.028  30.923  1.00  0.00     0.031 C 
ATOM     56  C   UNL A   1      45.250  33.602  29.725  1.00  0.00     0.029 A 
ATOM     57  C   UNL A   1      43.899  33.324  29.844  1.00  0.00     0.049 A 
ATOM     58  H   UNL A   1      42.874  31.516  29.471  1.00  0.00     0.167 HD
ATOM     59  C   UNL A   1      41.541  33.826  30.377  1.00  0.00     0.074 A 
ATOM     60  C   UNL A   1      40.478  34.681  30.863  1.00  0.00     0.031 C 
ATOM     61  C   UNL A   1      42.840  34.198  30.278  1.00  0.00     0.034 A 
BRANCH  48  62
ATOM     62  C   UNL A   1      46.587  29.654  28.454  1.00  0.00     0.023 A 
ATOM     63  C   UNL A   1      47.148  29.955  27.196  1.00  0.00     0.012 A 
ATOM     64  C   UNL A   1      47.401  29.090  29.457  1.00  0.00     0.148 A 
ATOM     65  C   UNL A   1      48.490  29.684  26.934  1.00  0.00     0.002 A 
ATOM     66  C   UNL A   1      48.748  28.859  29.200  1.00  0.00     0.091 A 
ATOM     67  F   UNL A   1      46.847  28.801  30.643  1.00  0.00    -0.205 F 
ATOM     68  C   UNL A   1      49.292  29.149  27.937  1.00  0.00     0.022 A 
BRANCH  66  69
ATOM     69  S   UNL A   1      49.886  28.248  30.451  1.00  0.00     0.127 S 
ATOM     70  O   UNL A   1      49.307  26.942  30.762  1.00  0.00    -0.237 OA
ATOM     71  O   UNL A   1      51.152  28.194  29.718  1.00  0.00    -0.237 OA
ATOM     72  O   UNL A   1      49.852  29.221  31.533  1.00  0.00    -0.744 OA
ENDBRANCH  66  69
ENDBRANCH  48  62
BRANCH  49  73
ATOM     73  C   UNL A   1      37.166  32.084  30.480  1.00  0.00     0.023 A 
ATOM     74  C   UNL A   1      36.668  31.872  31.780  1.00  0.00     0.012 A 
ATOM     75  C   UNL A   1      36.338  32.690  29.516  1.00  0.00     0.148 A 
ATOM     76  C   UNL A   1      35.365  32.244  32.112  1.00  0.00     0.002 A 
ATOM     77  C   UNL A   1      35.060  33.109  29.868  1.00  0.00     0.091 A 
ATOM     78  F   UNL A   1      36.826  32.866  28.280  1.00  0.00    -0.205 F 
ATOM     79  C   UNL A   1      34.566  32.874  31.161  1.00  0.00     0.022 A 
BRANCH  77  80
ATOM     80  S   UNL A   1      34.010  34.049  28.754  1.00  0.00     0.127 S 
ATOM     81  O   UNL A   1      34.922  35.091  28.290  1.00  0.00    -0.237 OA
ATOM     82  O   UNL A   1      33.662  33.042  27.749  1.00  0.00    -0.237 OA
ATOM     83  O   UNL A   1      32.888  34.506  29.561  1.00  0.00    -0.744 OA
ENDBRANCH  77  80
ENDBRANCH  49  73
BRANCH  61  84
ATOM     84  C   UNL A   1      43.218  35.600  30.686  1.00  0.00     0.023 A 
ATOM     85  C   UNL A   1      43.641  35.849  32.006  1.00  0.00     0.012 A 
ATOM     86  C   UNL A   1      43.268  36.643  29.738  1.00  0.00     0.148 A 
ATOM     87  C   UNL A   1      44.090  37.115  32.382  1.00  0.00     0.002 A 
ATOM     88  C   UNL A   1      43.759  37.891  30.109  1.00  0.00     0.091 A 
ATOM     89  F   UNL A   1      42.846  36.393  28.490  1.00  0.00    -0.205 F 
ATOM     90  C   UNL A   1      44.162  38.131  31.432  1.00  0.00     0.022 A 
BRANCH  88  91
ATOM     91  S   UNL A   1      43.980  39.233  28.932  1.00  0.00     0.127 S 
ATOM     92  O   UNL A   1      44.565  40.274  29.774  1.00  0.00    -0.237 OA
ATOM     93  O   UNL A   1      44.903  38.645  27.961  1.00  0.00    -0.237 OA
ATOM     94  O   UNL A   1      42.655  39.528  28.405  1.00  0.00    -0.744 OA
ENDBRANCH  88  91
ENDBRANCH  61  84
ENDBRANCH  35  36
ENDBRANCH  27  30
ENDBRANCH  25  26
ENDBRANCH  24  25
ENDBRANCH   1  24
TORSDOF 18
ENDMDL
MODEL 3
REMARK VINA RESULT:     -10.9      5.110      9.981
REMARK SMILES CC[C@](C)(NS(=O)(=O)c1ccc(OC)c(F)c1)C(=O)NCCCNC(=O)c1ccc(-c2c3nc(c(-c4cccc(S(=O)(=O)[O-])c4F)c4ccc([nH]4)c(-c4cccc(S(=O)(=O)[O-])c4F)c4nc(c(-c5cccc(S(=O)(=O)[O-])c5F)c5ccc2[nH]5)C=C4)C=C3)cc1
REMARK SMILES IDX 21 1 20 2 18 3 19 4 3 6 4 7 2 8 1 9 5 10 6 12 7 13 8 14 9 15
REMARK SMILES IDX 10 16 17 17 11 18 15 19 12 20 16 21 13 22 14 23 22 24 23 25
REMARK SMILES IDX 24 26 25 27 26 29 27 30 28 31 89 32 29 33 88 34 30 35 31 36
REMARK SMILES IDX 32 37 82 38 33 39 87 40 81 41 83 42 34 43 86 44 80 45 79 46
REMARK SMILES IDX 35 48 67 49 47 50 66 51 48 52 51 53 65 54 84 55 49 56 50 57
REMARK SMILES IDX 64 59 85 60 52 61 36 62 37 63 45 64 38 65 40 66 46 67 39 68
REMARK SMILES IDX 41 69 42 70 43 71 44 72 68 73 69 74 77 75 70 76 72 77 78 78
REMARK SMILES IDX 71 79 73 80 74 81 75 82 76 83 53 84 54 85 62 86 55 87 57 88
REMARK SMILES IDX 63 89 56 90 58 91 59 92 60 93 61 94
REMARK H PARENT 20 5 5 11 24 28 83 47 51 58
REMARK Flexibility Score: inf
ROOT
ATOM      1  C   UNL A   1      35.635  23.315  23.795  1.00  0.00     0.117 C 
ENDROOT
BRANCH   1   2
ATOM      2  N   UNL A   1      34.549  23.238  22.824  1.00  0.00    -0.354 N 
ATOM      3  C   UNL A   1      33.457  24.007  22.547  1.00  0.00     0.241 C 
ATOM      4  O   UNL A   1      33.243  24.112  21.327  1.00  0.00    -0.273 OA
ATOM      5  H   UNL A   1      34.618  22.451  22.235  1.00  0.00     0.163 HD
BRANCH   3   6
ATOM      6  C   UNL A   1      32.419  24.592  23.560  1.00  0.00     0.108 C 
ATOM      7  C   UNL A   1      31.360  25.383  22.710  1.00  0.00     0.040 C 
BRANCH   6   8
ATOM      8  C   UNL A   1      33.020  25.563  24.601  1.00  0.00     0.030 C 
ATOM      9  C   UNL A   1      31.983  26.254  25.496  1.00  0.00     0.006 C 
ENDBRANCH   6   8
BRANCH   6  10
ATOM     10  N   UNL A   1      31.516  23.595  24.204  1.00  0.00    -0.196 NA
ATOM     11  H   UNL A   1      31.167  23.032  23.429  1.00  0.00     0.142 HD
BRANCH  10  12
ATOM     12  S   UNL A   1      31.853  22.495  25.393  1.00  0.00     0.241 S 
ATOM     13  O   UNL A   1      32.963  23.001  26.155  1.00  0.00    -0.207 OA
ATOM     14  O   UNL A   1      30.562  22.259  26.002  1.00  0.00    -0.207 OA
BRANCH  12  15
ATOM     15  C   UNL A   1      32.314  20.962  24.626  1.00  0.00     0.085 A 
ATOM     16  C   UNL A   1      32.889  19.910  25.332  1.00  0.00     0.026 A 
ATOM     17  C   UNL A   1      32.076  20.815  23.257  1.00  0.00     0.065 A 
ATOM     18  C   UNL A   1      33.057  18.663  24.724  1.00  0.00     0.051 A 
ATOM     19  C   UNL A   1      32.321  19.586  22.638  1.00  0.00     0.166 A 
ATOM     20  C   UNL A   1      32.764  18.483  23.372  1.00  0.00     0.154 A 
ATOM     21  F   UNL A   1      32.080  19.492  21.324  1.00  0.00    -0.203 F 
BRANCH  20  22
ATOM     22  O   UNL A   1      32.938  17.200  22.938  1.00  0.00    -0.494 OA
ATOM     23  C   UNL A   1      34.059  16.482  23.438  1.00  0.00     0.278 C 
ENDBRANCH  20  22
ENDBRANCH  12  15
ENDBRANCH  10  12
ENDBRANCH   6  10
ENDBRANCH   3   6
ENDBRANCH   1   2
BRANCH   1  24
ATOM     24  C   UNL A   1      35.912  22.084  24.676  1.00  0.00     0.042 C 
BRANCH  24  25
ATOM     25  C   UNL A   1      36.803  22.248  25.911  1.00  0.00     0.118 C 
BRANCH  25  26
ATOM     26  N   UNL A   1      37.864  21.253  25.973  1.00  0.00    -0.352 N 
ATOM     27  C   UNL A   1      39.203  21.398  26.253  1.00  0.00     0.251 C 
ATOM     28  H   UNL A   1      37.577  20.330  25.784  1.00  0.00     0.163 HD
ATOM     29  O   UNL A   1      39.944  20.429  26.089  1.00  0.00    -0.269 OA
BRANCH  27  30
ATOM     30  C   UNL A   1      39.787  22.679  26.736  1.00  0.00     0.039 A 
ATOM     31  C   UNL A   1      39.487  23.855  26.036  1.00  0.00     0.014 A 
ATOM     32  C   UNL A   1      40.704  22.733  27.788  1.00  0.00     0.014 A 
ATOM     33  C   UNL A   1      40.071  25.074  26.407  1.00  0.00     0.010 A 
ATOM     34  C   UNL A   1      41.267  23.961  28.177  1.00  0.00     0.010 A 
ATOM     35  C   UNL A   1      40.963  25.146  27.489  1.00  0.00    -0.014 A 
BRANCH  35  36
ATOM     36  C   UNL A   1      41.534  26.459  27.916  1.00  0.00     0.031 A 
ATOM     37  C   UNL A   1      42.971  26.826  27.646  1.00  0.00     0.074 A 
ATOM     38  C   UNL A   1      40.754  27.335  28.582  1.00  0.00     0.049 A 
ATOM     39  N   UNL A   1      43.592  27.954  27.893  1.00  0.00    -0.248 NA
ATOM     40  C   UNL A   1      43.822  25.799  27.029  1.00  0.00     0.031 C 
ATOM     41  C   UNL A   1      39.366  27.093  28.972  1.00  0.00     0.029 A 
ATOM     42  N   UNL A   1      41.020  28.597  29.060  1.00  0.00    -0.354 N 
ATOM     43  C   UNL A   1      44.904  27.774  27.472  1.00  0.00     0.074 A 
ATOM     44  C   UNL A   1      44.999  26.415  26.979  1.00  0.00     0.031 C 
ATOM     45  C   UNL A   1      38.900  28.171  29.624  1.00  0.00     0.029 A 
ATOM     46  C   UNL A   1      39.956  29.177  29.711  1.00  0.00     0.049 A 
ATOM     47  H   UNL A   1      41.890  29.043  28.946  1.00  0.00     0.167 HD
ATOM     48  C   UNL A   1      45.929  28.663  27.469  1.00  0.00     0.034 A 
ATOM     49  C   UNL A   1      39.833  30.382  30.307  1.00  0.00     0.034 A 
ATOM     50  C   UNL A   1      45.837  30.026  27.928  1.00  0.00     0.049 A 
ATOM     51  C   UNL A   1      40.978  31.359  30.270  1.00  0.00     0.074 A 
ATOM     52  C   UNL A   1      46.805  31.015  27.874  1.00  0.00     0.029 A 
ATOM     53  N   UNL A   1      44.726  30.592  28.531  1.00  0.00    -0.354 N 
ATOM     54  N   UNL A   1      42.154  31.227  29.708  1.00  0.00    -0.248 NA
ATOM     55  C   UNL A   1      40.767  32.664  30.915  1.00  0.00     0.031 C 
ATOM     56  C   UNL A   1      46.289  32.171  28.466  1.00  0.00     0.029 A 
ATOM     57  C   UNL A   1      44.990  31.911  28.868  1.00  0.00     0.049 A 
ATOM     58  H   UNL A   1      43.875  30.126  28.696  1.00  0.00     0.167 HD
ATOM     59  C   UNL A   1      42.810  32.439  29.902  1.00  0.00     0.074 A 
ATOM     60  C   UNL A   1      41.893  33.301  30.619  1.00  0.00     0.031 C 
ATOM     61  C   UNL A   1      44.065  32.793  29.532  1.00  0.00     0.034 A 
BRANCH  48  62
ATOM     62  C   UNL A   1      47.247  28.227  26.878  1.00  0.00     0.023 A 
ATOM     63  C   UNL A   1      48.289  27.840  27.745  1.00  0.00     0.012 A 
ATOM     64  C   UNL A   1      47.412  28.073  25.486  1.00  0.00     0.148 A 
ATOM     65  C   UNL A   1      49.482  27.326  27.237  1.00  0.00     0.002 A 
ATOM     66  C   UNL A   1      48.589  27.523  24.990  1.00  0.00     0.091 A 
ATOM     67  F   UNL A   1      46.414  28.456  24.678  1.00  0.00    -0.205 F 
ATOM     68  C   UNL A   1      49.627  27.155  25.863  1.00  0.00     0.022 A 
BRANCH  66  69
ATOM     69  S   UNL A   1      48.844  27.185  23.243  1.00  0.00     0.127 S 
ATOM     70  O   UNL A   1      48.151  25.908  23.085  1.00  0.00    -0.237 OA
ATOM     71  O   UNL A   1      48.178  28.323  22.607  1.00  0.00    -0.237 OA
ATOM     72  O   UNL A   1      50.287  27.141  23.050  1.00  0.00    -0.744 OA
ENDBRANCH  66  69
ENDBRANCH  48  62
BRANCH  49  73
ATOM     73  C   UNL A   1      38.527  30.762  30.917  1.00  0.00     0.023 A 
ATOM     74  C   UNL A   1      38.318  30.539  32.291  1.00  0.00     0.012 A 
ATOM     75  C   UNL A   1      37.521  31.394  30.160  1.00  0.00     0.148 A 
ATOM     76  C   UNL A   1      37.123  30.924  32.900  1.00  0.00     0.002 A 
ATOM     77  C   UNL A   1      36.357  31.826  30.785  1.00  0.00     0.091 A 
ATOM     78  F   UNL A   1      37.734  31.581  28.851  1.00  0.00    -0.205 F 
ATOM     79  C   UNL A   1      36.149  31.579  32.151  1.00  0.00     0.022 A 
BRANCH  77  80
ATOM     80  S   UNL A   1      35.108  32.797  29.934  1.00  0.00     0.127 S 
ATOM     81  O   UNL A   1      34.645  31.862  28.913  1.00  0.00    -0.237 OA
ATOM     82  O   UNL A   1      34.149  33.061  31.009  1.00  0.00    -0.237 OA
ATOM     83  O   UNL A   1      35.798  33.980  29.440  1.00  0.00    -0.744 OA
ENDBRANCH  77  80
ENDBRANCH  49  73
BRANCH  61  84
ATOM     84  C   UNL A   1      44.548  34.181  29.871  1.00  0.00     0.023 A 
ATOM     85  C   UNL A   1      45.264  34.395  31.064  1.00  0.00     0.012 A 
ATOM     86  C   UNL A   1      44.398  35.244  28.957  1.00  0.00     0.148 A 
ATOM     87  C   UNL A   1      45.807  35.648  31.353  1.00  0.00     0.002 A 
ATOM     88  C   UNL A   1      44.980  36.479  29.230  1.00  0.00     0.091 A 
ATOM     89  F   UNL A   1      43.698  35.027  27.833  1.00  0.00    -0.205 F 
ATOM     90  C   UNL A   1      45.678  36.683  30.431  1.00  0.00     0.022 A 
BRANCH  88  91
ATOM     91  S   UNL A   1      44.948  37.844  28.060  1.00  0.00     0.127 S 
ATOM     92  O   UNL A   1      45.580  37.245  26.886  1.00  0.00    -0.237 OA
ATOM     93  O   UNL A   1      43.515  38.098  27.918  1.00  0.00    -0.237 OA
ATOM     94  O   UNL A   1      45.695  38.927  28.686  1.00  0.00    -0.744 OA
ENDBRANCH  88  91
ENDBRANCH  61  84
ENDBRANCH  35  36
ENDBRANCH  27  30
ENDBRANCH  25  26
ENDBRANCH  24  25
ENDBRANCH   1  24
TORSDOF 18
ENDMDL
