MODEL 1
REMARK VINA RESULT:     -11.6      0.000      0.000
REMARK SMILES C[C@@H]1[C@H](C)CCC[C@@H]1NC(=O)COc1csc(C(=O)NCCCNC(=O)c2ccc(-c3c4nc(c(-c5cccc(S(=O)(=O)[O-])c5F)c5ccc([nH]5)c(-c5cccc(S(=O)(=O)[O-])c5F)c5nc(c(-c6cccc(S(=O)(=O)[O-])c6F)c6ccc3[nH]6)C=C5)C=C4)cc2)c1
REMARK SMILES IDX 21 1 20 2 18 3 19 4 17 6 14 7 15 8 90 9 16 10 13 11 12 12
REMARK SMILES IDX 10 13 9 14 11 16 8 17 1 18 2 19 3 20 4 21 5 22 7 23 6 24
REMARK SMILES IDX 22 25 23 26 24 27 25 28 26 30 27 31 28 32 89 33 29 34 88 35
REMARK SMILES IDX 30 36 31 37 32 38 82 39 33 40 87 41 81 42 83 43 34 44 86 45
REMARK SMILES IDX 80 46 79 47 35 49 67 50 47 51 66 52 48 53 51 54 65 55 84 56
REMARK SMILES IDX 49 57 50 58 64 60 85 61 52 62 36 63 37 64 45 65 38 66 40 67
REMARK SMILES IDX 46 68 39 69 41 70 42 71 43 72 44 73 68 74 69 75 77 76 70 77
REMARK SMILES IDX 72 78 78 79 71 80 73 81 74 82 75 83 76 84 53 85 54 86 62 87
REMARK SMILES IDX 55 88 57 89 63 90 56 91 58 92 59 93 60 94 61 95
REMARK H PARENT 20 5 9 15 24 29 83 48 51 59
REMARK Flexibility Score: inf
ROOT
ATOM      1  C   UNL A   1      37.526  20.723  24.681  1.00  0.00     0.118 C 
ENDROOT
BRANCH   1   2
ATOM      2  N   UNL A   1      38.029  21.991  25.173  1.00  0.00    -0.351 N 
ATOM      3  C   UNL A   1      37.374  23.116  25.622  1.00  0.00     0.261 C 
ATOM      4  O   UNL A   1      38.095  23.991  26.104  1.00  0.00    -0.268 OA
ATOM      5  H   UNL A   1      39.011  22.060  25.190  1.00  0.00     0.163 HD
BRANCH   3   6
ATOM      6  C   UNL A   1      35.924  23.216  25.549  1.00  0.00     0.096 A 
ATOM      7  C   UNL A   1      33.636  23.266  26.001  1.00  0.00     0.131 A 
ATOM      8  C   UNL A   1      33.638  23.695  24.697  1.00  0.00     0.112 A 
ATOM      9  C   UNL A   1      34.934  22.955  26.477  1.00  0.00     0.072 A 
ATOM     10  S   UNL A   1      35.223  23.721  24.055  1.00  0.00    -0.135 S 
BRANCH   7  11
ATOM     11  O   UNL A   1      32.546  23.221  26.796  1.00  0.00    -0.483 OA
BRANCH  11  12
ATOM     12  C   UNL A   1      31.324  23.280  26.081  1.00  0.00     0.329 C 
BRANCH  12  13
ATOM     13  C   UNL A   1      30.301  24.271  26.624  1.00  0.00     0.258 C 
ATOM     14  N   UNL A   1      30.485  25.616  26.502  1.00  0.00    -0.350 N 
ATOM     15  H   UNL A   1      29.855  26.159  27.028  1.00  0.00     0.163 HD
ATOM     16  O   UNL A   1      29.300  23.886  27.237  1.00  0.00    -0.271 OA
BRANCH  14  17
ATOM     17  C   UNL A   1      31.454  26.401  25.728  1.00  0.00     0.085 C 
ATOM     18  C   UNL A   1      31.678  28.115  27.624  1.00  0.00     0.010 C 
ATOM     19  C   UNL A   1      32.419  27.274  26.576  1.00  0.00     0.011 C 
ATOM     20  C   UNL A   1      33.330  28.111  25.637  1.00  0.00    -0.009 C 
ATOM     21  C   UNL A   1      34.359  28.952  26.394  1.00  0.00     0.008 C 
ATOM     22  C   UNL A   1      32.514  28.987  24.680  1.00  0.00     0.004 C 
ATOM     23  C   UNL A   1      30.668  27.259  24.714  1.00  0.00     0.025 C 
ATOM     24  C   UNL A   1      31.559  28.141  23.848  1.00  0.00     0.002 C 
ENDBRANCH  14  17
ENDBRANCH  12  13
ENDBRANCH  11  12
ENDBRANCH   7  11
ENDBRANCH   3   6
ENDBRANCH   1   2
BRANCH   1  25
ATOM     25  C   UNL A   1      38.478  19.572  25.000  1.00  0.00     0.042 C 
BRANCH  25  26
ATOM     26  C   UNL A   1      39.431  19.874  26.151  1.00  0.00     0.118 C 
BRANCH  26  27
ATOM     27  N   UNL A   1      40.614  19.026  26.118  1.00  0.00    -0.352 N 
ATOM     28  C   UNL A   1      41.943  19.365  26.095  1.00  0.00     0.251 C 
ATOM     29  H   UNL A   1      40.431  18.059  26.113  1.00  0.00     0.163 HD
ATOM     30  O   UNL A   1      42.777  18.496  25.849  1.00  0.00    -0.269 OA
BRANCH  28  31
ATOM     31  C   UNL A   1      42.376  20.753  26.362  1.00  0.00     0.039 A 
ATOM     32  C   UNL A   1      42.689  21.582  25.278  1.00  0.00     0.014 A 
ATOM     33  C   UNL A   1      42.534  21.225  27.668  1.00  0.00     0.014 A 
ATOM     34  C   UNL A   1      43.130  22.887  25.504  1.00  0.00     0.010 A 
ATOM     35  C   UNL A   1      42.897  22.549  27.890  1.00  0.00     0.010 A 
ATOM     36  C   UNL A   1      43.222  23.386  26.814  1.00  0.00    -0.014 A 
BRANCH  36  37
ATOM     37  C   UNL A   1      43.691  24.768  27.081  1.00  0.00     0.031 A 
ATOM     38  C   UNL A   1      42.732  25.799  27.616  1.00  0.00     0.074 A 
ATOM     39  C   UNL A   1      44.954  25.117  26.768  1.00  0.00     0.049 A 
ATOM     40  N   UNL A   1      42.936  27.065  27.868  1.00  0.00    -0.248 NA
ATOM     41  C   UNL A   1      41.352  25.353  27.871  1.00  0.00     0.031 C 
ATOM     42  C   UNL A   1      45.956  24.226  26.181  1.00  0.00     0.029 A 
ATOM     43  N   UNL A   1      45.604  26.320  26.882  1.00  0.00    -0.354 N 
ATOM     44  C   UNL A   1      41.706  27.576  28.267  1.00  0.00     0.074 A 
ATOM     45  C   UNL A   1      40.753  26.491  28.185  1.00  0.00     0.031 C 
ATOM     46  C   UNL A   1      47.100  24.907  26.005  1.00  0.00     0.029 A 
ATOM     47  C   UNL A   1      46.905  26.287  26.439  1.00  0.00     0.049 A 
ATOM     48  H   UNL A   1      45.179  27.129  27.248  1.00  0.00     0.167 HD
ATOM     49  C   UNL A   1      41.401  28.825  28.695  1.00  0.00     0.034 A 
ATOM     50  C   UNL A   1      47.837  27.258  26.395  1.00  0.00     0.034 A 
ATOM     51  C   UNL A   1      42.365  29.884  28.822  1.00  0.00     0.049 A 
ATOM     52  C   UNL A   1      47.486  28.627  26.914  1.00  0.00     0.074 A 
ATOM     53  C   UNL A   1      42.185  31.158  29.330  1.00  0.00     0.029 A 
ATOM     54  N   UNL A   1      43.694  29.792  28.433  1.00  0.00    -0.354 N 
ATOM     55  N   UNL A   1      46.359  29.050  27.432  1.00  0.00    -0.248 NA
ATOM     56  C   UNL A   1      48.550  29.641  26.878  1.00  0.00     0.031 C 
ATOM     57  C   UNL A   1      43.403  31.843  29.231  1.00  0.00     0.029 A 
ATOM     58  C   UNL A   1      44.346  30.987  28.683  1.00  0.00     0.049 A 
ATOM     59  H   UNL A   1      44.111  28.993  28.038  1.00  0.00     0.167 HD
ATOM     60  C   UNL A   1      46.589  30.364  27.825  1.00  0.00     0.074 A 
ATOM     61  C   UNL A   1      47.969  30.661  27.494  1.00  0.00     0.031 C 
ATOM     62  C   UNL A   1      45.735  31.247  28.399  1.00  0.00     0.034 A 
BRANCH  49  63
ATOM     63  C   UNL A   1      39.974  29.089  29.102  1.00  0.00     0.023 A 
ATOM     64  C   UNL A   1      39.002  29.340  28.109  1.00  0.00     0.012 A 
ATOM     65  C   UNL A   1      39.585  29.076  30.455  1.00  0.00     0.148 A 
ATOM     66  C   UNL A   1      37.683  29.626  28.458  1.00  0.00     0.002 A 
ATOM     67  C   UNL A   1      38.257  29.315  30.793  1.00  0.00     0.091 A 
ATOM     68  F   UNL A   1      40.521  28.860  31.390  1.00  0.00    -0.205 F 
ATOM     69  C   UNL A   1      37.308  29.605  29.799  1.00  0.00     0.022 A 
BRANCH  67  70
ATOM     70  S   UNL A   1      37.667  29.227  32.488  1.00  0.00     0.127 S 
ATOM     71  O   UNL A   1      38.577  30.150  33.166  1.00  0.00    -0.237 OA
ATOM     72  O   UNL A   1      36.290  29.710  32.365  1.00  0.00    -0.237 OA
ATOM     73  O   UNL A   1      37.781  27.828  32.874  1.00  0.00    -0.744 OA
ENDBRANCH  67  70
ENDBRANCH  49  63
BRANCH  50  74
ATOM     74  C   UNL A   1      49.220  26.938  25.943  1.00  0.00     0.023 A 
ATOM     75  C   UNL A   1      50.073  26.231  26.813  1.00  0.00     0.012 A 
ATOM     76  C   UNL A   1      49.679  27.278  24.656  1.00  0.00     0.148 A 
ATOM     77  C   UNL A   1      51.368  25.891  26.422  1.00  0.00     0.002 A 
ATOM     78  C   UNL A   1      50.952  26.891  24.254  1.00  0.00     0.091 A 
ATOM     79  F   UNL A   1      48.853  27.954  23.846  1.00  0.00    -0.205 F 
ATOM     80  C   UNL A   1      51.804  26.212  25.140  1.00  0.00     0.022 A 
BRANCH  78  81
ATOM     81  S   UNL A   1      51.560  27.148  22.582  1.00  0.00     0.127 S 
ATOM     82  O   UNL A   1      51.828  28.583  22.578  1.00  0.00    -0.237 OA
ATOM     83  O   UNL A   1      52.751  26.298  22.563  1.00  0.00    -0.237 OA
ATOM     84  O   UNL A   1      50.490  26.704  21.699  1.00  0.00    -0.744 OA
ENDBRANCH  78  81
ENDBRANCH  50  74
BRANCH  62  85
ATOM     85  C   UNL A   1      46.273  32.609  28.753  1.00  0.00     0.023 A 
ATOM     86  C   UNL A   1      46.881  32.821  30.006  1.00  0.00     0.012 A 
ATOM     87  C   UNL A   1      46.242  33.657  27.812  1.00  0.00     0.148 A 
ATOM     88  C   UNL A   1      47.421  34.065  30.330  1.00  0.00     0.002 A 
ATOM     89  C   UNL A   1      46.825  34.880  28.123  1.00  0.00     0.091 A 
ATOM     90  F   UNL A   1      45.641  33.443  26.634  1.00  0.00    -0.205 F 
ATOM     91  C   UNL A   1      47.404  35.090  29.386  1.00  0.00     0.022 A 
BRANCH  89  92
ATOM     92  S   UNL A   1      46.937  36.219  26.932  1.00  0.00     0.127 S 
ATOM     93  O   UNL A   1      45.528  36.522  26.690  1.00  0.00    -0.237 OA
ATOM     94  O   UNL A   1      47.662  37.245  27.683  1.00  0.00    -0.237 OA
ATOM     95  O   UNL A   1      47.668  35.679  25.793  1.00  0.00    -0.744 OA
ENDBRANCH  89  92
ENDBRANCH  62  85
ENDBRANCH  36  37
ENDBRANCH  28  31
ENDBRANCH  26  27
ENDBRANCH  25  26
ENDBRANCH   1  25
TORSDOF 17
ENDMDL
MODEL 2
REMARK VINA RESULT:     -11.5      5.862     11.983
REMARK SMILES C[C@@H]1[C@H](C)CCC[C@@H]1NC(=O)COc1csc(C(=O)NCCCNC(=O)c2ccc(-c3c4nc(c(-c5cccc(S(=O)(=O)[O-])c5F)c5ccc([nH]5)c(-c5cccc(S(=O)(=O)[O-])c5F)c5nc(c(-c6cccc(S(=O)(=O)[O-])c6F)c6ccc3[nH]6)C=C5)C=C4)cc2)c1
REMARK SMILES IDX 21 1 20 2 18 3 19 4 17 6 14 7 15 8 90 9 16 10 13 11 12 12
REMARK SMILES IDX 10 13 9 14 11 16 8 17 1 18 2 19 3 20 4 21 5 22 7 23 6 24
REMARK SMILES IDX 22 25 23 26 24 27 25 28 26 30 27 31 28 32 89 33 29 34 88 35
REMARK SMILES IDX 30 36 31 37 32 38 82 39 33 40 87 41 81 42 83 43 34 44 86 45
REMARK SMILES IDX 80 46 79 47 35 49 67 50 47 51 66 52 48 53 51 54 65 55 84 56
REMARK SMILES IDX 49 57 50 58 64 60 85 61 52 62 36 63 37 64 45 65 38 66 40 67
REMARK SMILES IDX 46 68 39 69 41 70 42 71 43 72 44 73 68 74 69 75 77 76 70 77
REMARK SMILES IDX 72 78 78 79 71 80 73 81 74 82 75 83 76 84 53 85 54 86 62 87
REMARK SMILES IDX 55 88 57 89 63 90 56 91 58 92 59 93 60 94 61 95
REMARK H PARENT 20 5 9 15 24 29 83 48 51 59
REMARK Flexibility Score: inf
ROOT
ATOM      1  C   UNL A   1      31.343  31.041  26.335  1.00  0.00     0.118 C 
ENDROOT
BRANCH   1   2
ATOM      2  N   UNL A   1      32.497  30.380  26.913  1.00  0.00    -0.351 N 
ATOM      3  C   UNL A   1      33.086  29.168  26.632  1.00  0.00     0.261 C 
ATOM      4  O   UNL A   1      34.148  28.947  27.218  1.00  0.00    -0.268 OA
ATOM      5  H   UNL A   1      32.937  30.888  27.633  1.00  0.00     0.163 HD
BRANCH   3   6
ATOM      6  C   UNL A   1      32.486  28.248  25.677  1.00  0.00     0.096 A 
ATOM      7  C   UNL A   1      31.798  27.112  23.761  1.00  0.00     0.131 A 
ATOM      8  C   UNL A   1      31.328  26.263  24.731  1.00  0.00     0.112 A 
ATOM      9  C   UNL A   1      32.425  28.263  24.297  1.00  0.00     0.072 A 
ATOM     10  S   UNL A   1      31.652  26.870  26.297  1.00  0.00    -0.135 S 
BRANCH   7  11
ATOM     11  O   UNL A   1      31.764  26.861  22.435  1.00  0.00    -0.483 OA
BRANCH  11  12
ATOM     12  C   UNL A   1      33.002  26.405  21.916  1.00  0.00     0.329 C 
BRANCH  12  13
ATOM     13  C   UNL A   1      32.913  25.196  20.991  1.00  0.00     0.258 C 
ATOM     14  N   UNL A   1      32.893  23.927  21.487  1.00  0.00    -0.350 N 
ATOM     15  H   UNL A   1      33.002  23.226  20.805  1.00  0.00     0.163 HD
ATOM     16  O   UNL A   1      32.908  25.330  19.763  1.00  0.00    -0.271 OA
BRANCH  14  17
ATOM     17  C   UNL A   1      32.740  23.416  22.854  1.00  0.00     0.085 C 
ATOM     18  C   UNL A   1      35.283  23.235  23.141  1.00  0.00     0.010 C 
ATOM     19  C   UNL A   1      33.958  23.661  23.787  1.00  0.00     0.011 C 
ATOM     20  C   UNL A   1      33.700  23.002  25.169  1.00  0.00    -0.009 C 
ATOM     21  C   UNL A   1      34.826  23.253  26.173  1.00  0.00     0.008 C 
ATOM     22  C   UNL A   1      33.412  21.502  25.044  1.00  0.00     0.004 C 
ATOM     23  C   UNL A   1      32.396  21.915  22.765  1.00  0.00     0.025 C 
ATOM     24  C   UNL A   1      32.223  21.251  24.125  1.00  0.00     0.002 C 
ENDBRANCH  14  17
ENDBRANCH  12  13
ENDBRANCH  11  12
ENDBRANCH   7  11
ENDBRANCH   3   6
ENDBRANCH   1   2
BRANCH   1  25
ATOM     25  C   UNL A   1      31.404  32.556  26.518  1.00  0.00     0.042 C 
BRANCH  25  26
ATOM     26  C   UNL A   1      32.674  33.032  27.215  1.00  0.00     0.118 C 
BRANCH  26  27
ATOM     27  N   UNL A   1      32.526  34.372  27.765  1.00  0.00    -0.352 N 
ATOM     28  C   UNL A   1      33.117  34.946  28.862  1.00  0.00     0.251 C 
ATOM     29  H   UNL A   1      31.906  34.957  27.273  1.00  0.00     0.163 HD
ATOM     30  O   UNL A   1      32.687  36.019  29.278  1.00  0.00    -0.269 OA
BRANCH  28  31
ATOM     31  C   UNL A   1      34.256  34.290  29.541  1.00  0.00     0.039 A 
ATOM     32  C   UNL A   1      34.001  33.475  30.649  1.00  0.00     0.014 A 
ATOM     33  C   UNL A   1      35.572  34.518  29.132  1.00  0.00     0.014 A 
ATOM     34  C   UNL A   1      35.061  32.869  31.326  1.00  0.00     0.010 A 
ATOM     35  C   UNL A   1      36.621  33.851  29.757  1.00  0.00     0.010 A 
ATOM     36  C   UNL A   1      36.380  33.041  30.875  1.00  0.00    -0.014 A 
BRANCH  36  37
ATOM     37  C   UNL A   1      37.525  32.410  31.577  1.00  0.00     0.031 A 
ATOM     38  C   UNL A   1      38.287  31.290  30.922  1.00  0.00     0.074 A 
ATOM     39  C   UNL A   1      37.826  32.789  32.834  1.00  0.00     0.049 A 
ATOM     40  N   UNL A   1      39.281  30.582  31.390  1.00  0.00    -0.248 NA
ATOM     41  C   UNL A   1      37.852  30.891  29.572  1.00  0.00     0.031 C 
ATOM     42  C   UNL A   1      37.118  33.816  33.600  1.00  0.00     0.029 A 
ATOM     43  N   UNL A   1      38.796  32.341  33.695  1.00  0.00    -0.354 N 
ATOM     44  C   UNL A   1      39.561  29.629  30.416  1.00  0.00     0.074 A 
ATOM     45  C   UNL A   1      38.605  29.825  29.348  1.00  0.00     0.031 C 
ATOM     46  C   UNL A   1      37.689  33.933  34.810  1.00  0.00     0.029 A 
ATOM     47  C   UNL A   1      38.783  32.973  34.916  1.00  0.00     0.049 A 
ATOM     48  H   UNL A   1      39.440  31.635  33.460  1.00  0.00     0.167 HD
ATOM     49  C   UNL A   1      40.544  28.698  30.394  1.00  0.00     0.034 A 
ATOM     50  C   UNL A   1      39.570  32.802  35.995  1.00  0.00     0.034 A 
ATOM     51  C   UNL A   1      41.522  28.542  31.437  1.00  0.00     0.049 A 
ATOM     52  C   UNL A   1      40.682  31.789  35.932  1.00  0.00     0.074 A 
ATOM     53  C   UNL A   1      42.614  27.695  31.477  1.00  0.00     0.029 A 
ATOM     54  N   UNL A   1      41.523  29.254  32.629  1.00  0.00    -0.354 N 
ATOM     55  N   UNL A   1      41.029  31.003  34.941  1.00  0.00    -0.248 NA
ATOM     56  C   UNL A   1      41.535  31.667  37.123  1.00  0.00     0.031 C 
ATOM     57  C   UNL A   1      43.266  27.880  32.702  1.00  0.00     0.029 A 
ATOM     58  C   UNL A   1      42.593  28.860  33.415  1.00  0.00     0.049 A 
ATOM     59  H   UNL A   1      40.861  29.937  32.878  1.00  0.00     0.167 HD
ATOM     60  C   UNL A   1      42.165  30.327  35.370  1.00  0.00     0.074 A 
ATOM     61  C   UNL A   1      42.454  30.806  36.708  1.00  0.00     0.031 C 
ATOM     62  C   UNL A   1      42.898  29.389  34.721  1.00  0.00     0.034 A 
BRANCH  49  63
ATOM     63  C   UNL A   1      40.632  27.811  29.178  1.00  0.00     0.023 A 
ATOM     64  C   UNL A   1      39.843  26.643  29.110  1.00  0.00     0.012 A 
ATOM     65  C   UNL A   1      41.477  28.132  28.099  1.00  0.00     0.148 A 
ATOM     66  C   UNL A   1      39.933  25.784  28.016  1.00  0.00     0.002 A 
ATOM     67  C   UNL A   1      41.525  27.295  26.989  1.00  0.00     0.091 A 
ATOM     68  F   UNL A   1      42.239  29.232  28.184  1.00  0.00    -0.205 F 
ATOM     69  C   UNL A   1      40.767  26.114  26.952  1.00  0.00     0.022 A 
BRANCH  67  70
ATOM     70  S   UNL A   1      42.509  27.684  25.536  1.00  0.00     0.127 S 
ATOM     71  O   UNL A   1      41.918  28.951  25.109  1.00  0.00    -0.237 OA
ATOM     72  O   UNL A   1      43.858  27.799  26.094  1.00  0.00    -0.237 OA
ATOM     73  O   UNL A   1      42.329  26.562  24.625  1.00  0.00    -0.744 OA
ENDBRANCH  67  70
ENDBRANCH  49  63
BRANCH  50  74
ATOM     74  C   UNL A   1      39.403  33.687  37.182  1.00  0.00     0.023 A 
ATOM     75  C   UNL A   1      39.869  35.015  37.110  1.00  0.00     0.012 A 
ATOM     76  C   UNL A   1      38.751  33.249  38.350  1.00  0.00     0.148 A 
ATOM     77  C   UNL A   1      39.712  35.884  38.190  1.00  0.00     0.002 A 
ATOM     78  C   UNL A   1      38.553  34.135  39.403  1.00  0.00     0.091 A 
ATOM     79  F   UNL A   1      38.321  31.981  38.399  1.00  0.00    -0.205 F 
ATOM     80  C   UNL A   1      39.046  35.448  39.331  1.00  0.00     0.022 A 
BRANCH  78  81
ATOM     81  S   UNL A   1      37.599  33.706  40.864  1.00  0.00     0.127 S 
ATOM     82  O   UNL A   1      38.508  32.801  41.560  1.00  0.00    -0.237 OA
ATOM     83  O   UNL A   1      37.422  35.012  41.500  1.00  0.00    -0.237 OA
ATOM     84  O   UNL A   1      36.368  33.106  40.370  1.00  0.00    -0.744 OA
ENDBRANCH  78  81
ENDBRANCH  50  74
BRANCH  62  85
ATOM     85  C   UNL A   1      44.115  28.845  35.423  1.00  0.00     0.023 A 
ATOM     86  C   UNL A   1      45.377  29.430  35.199  1.00  0.00     0.012 A 
ATOM     87  C   UNL A   1      43.993  27.801  36.362  1.00  0.00     0.148 A 
ATOM     88  C   UNL A   1      46.504  28.964  35.874  1.00  0.00     0.002 A 
ATOM     89  C   UNL A   1      45.112  27.374  37.067  1.00  0.00     0.091 A 
ATOM     90  F   UNL A   1      42.788  27.243  36.546  1.00  0.00    -0.205 F 
ATOM     91  C   UNL A   1      46.370  27.946  36.816  1.00  0.00     0.022 A 
BRANCH  89  92
ATOM     92  S   UNL A   1      45.012  26.139  38.367  1.00  0.00     0.127 S 
ATOM     93  O   UNL A   1      46.344  26.223  38.961  1.00  0.00    -0.237 OA
ATOM     94  O   UNL A   1      43.934  26.660  39.210  1.00  0.00    -0.237 OA
ATOM     95  O   UNL A   1      44.699  24.883  37.700  1.00  0.00    -0.744 OA
ENDBRANCH  89  92
ENDBRANCH  62  85
ENDBRANCH  36  37
ENDBRANCH  28  31
ENDBRANCH  26  27
ENDBRANCH  25  26
ENDBRANCH   1  25
TORSDOF 17
ENDMDL
MODEL 3
REMARK VINA RESULT:     -11.5      1.622      7.748
REMARK SMILES C[C@@H]1[C@H](C)CCC[C@@H]1NC(=O)COc1csc(C(=O)NCCCNC(=O)c2ccc(-c3c4nc(c(-c5cccc(S(=O)(=O)[O-])c5F)c5ccc([nH]5)c(-c5cccc(S(=O)(=O)[O-])c5F)c5nc(c(-c6cccc(S(=O)(=O)[O-])c6F)c6ccc3[nH]6)C=C5)C=C4)cc2)c1
REMARK SMILES IDX 21 1 20 2 18 3 19 4 17 6 14 7 15 8 90 9 16 10 13 11 12 12
REMARK SMILES IDX 10 13 9 14 11 16 8 17 1 18 2 19 3 20 4 21 5 22 7 23 6 24
REMARK SMILES IDX 22 25 23 26 24 27 25 28 26 30 27 31 28 32 89 33 29 34 88 35
REMARK SMILES IDX 30 36 31 37 32 38 82 39 33 40 87 41 81 42 83 43 34 44 86 45
REMARK SMILES IDX 80 46 79 47 35 49 67 50 47 51 66 52 48 53 51 54 65 55 84 56
REMARK SMILES IDX 49 57 50 58 64 60 85 61 52 62 36 63 37 64 45 65 38 66 40 67
REMARK SMILES IDX 46 68 39 69 41 70 42 71 43 72 44 73 68 74 69 75 77 76 70 77
REMARK SMILES IDX 72 78 78 79 71 80 73 81 74 82 75 83 76 84 53 85 54 86 62 87
REMARK SMILES IDX 55 88 57 89 63 90 56 91 58 92 59 93 60 94 61 95
REMARK H PARENT 20 5 9 15 24 29 83 48 51 59
REMARK Flexibility Score: inf
ROOT
ATOM      1  C   UNL A   1      37.066  20.418  24.791  1.00  0.00     0.118 C 
ENDROOT
BRANCH   1   2
ATOM      2  N   UNL A   1      37.257  21.688  25.465  1.00  0.00    -0.351 N 
ATOM      3  C   UNL A   1      36.417  22.766  25.627  1.00  0.00     0.261 C 
ATOM      4  O   UNL A   1      36.834  23.654  26.374  1.00  0.00    -0.268 OA
ATOM      5  H   UNL A   1      38.143  21.799  25.879  1.00  0.00     0.163 HD
BRANCH   3   6
ATOM      6  C   UNL A   1      35.116  22.806  24.975  1.00  0.00     0.096 A 
ATOM      7  C   UNL A   1      32.842  22.732  24.461  1.00  0.00     0.131 A 
ATOM      8  C   UNL A   1      33.344  23.225  23.283  1.00  0.00     0.112 A 
ATOM      9  C   UNL A   1      33.854  22.456  25.414  1.00  0.00     0.072 A 
ATOM     10  S   UNL A   1      35.049  23.353  23.339  1.00  0.00    -0.135 S 
BRANCH   7  11
ATOM     11  O   UNL A   1      31.529  22.599  24.745  1.00  0.00    -0.483 OA
BRANCH  11  12
ATOM     12  C   UNL A   1      30.881  23.834  25.002  1.00  0.00     0.329 C 
BRANCH  12  13
ATOM     13  C   UNL A   1      30.947  24.314  26.447  1.00  0.00     0.258 C 
ATOM     14  N   UNL A   1      31.283  25.599  26.750  1.00  0.00    -0.350 N 
ATOM     15  H   UNL A   1      31.457  25.755  27.706  1.00  0.00     0.163 HD
ATOM     16  O   UNL A   1      30.749  23.538  27.388  1.00  0.00    -0.271 OA
BRANCH  14  17
ATOM     17  C   UNL A   1      31.434  26.792  25.909  1.00  0.00     0.085 C 
ATOM     18  C   UNL A   1      33.929  26.309  25.557  1.00  0.00     0.010 C 
ATOM     19  C   UNL A   1      32.612  26.738  24.897  1.00  0.00     0.011 C 
ATOM     20  C   UNL A   1      32.709  28.087  24.134  1.00  0.00    -0.009 C 
ATOM     21  C   UNL A   1      33.805  28.095  23.067  1.00  0.00     0.008 C 
ATOM     22  C   UNL A   1      32.875  29.274  25.088  1.00  0.00     0.004 C 
ATOM     23  C   UNL A   1      31.550  28.018  26.839  1.00  0.00     0.025 C 
ATOM     24  C   UNL A   1      31.728  29.332  26.089  1.00  0.00     0.002 C 
ENDBRANCH  14  17
ENDBRANCH  12  13
ENDBRANCH  11  12
ENDBRANCH   7  11
ENDBRANCH   3   6
ENDBRANCH   1   2
BRANCH   1  25
ATOM     25  C   UNL A   1      38.247  19.475  25.010  1.00  0.00     0.042 C 
BRANCH  25  26
ATOM     26  C   UNL A   1      39.239  19.978  26.054  1.00  0.00     0.118 C 
BRANCH  26  27
ATOM     27  N   UNL A   1      40.473  19.205  26.051  1.00  0.00    -0.352 N 
ATOM     28  C   UNL A   1      41.778  19.624  26.117  1.00  0.00     0.251 C 
ATOM     29  H   UNL A   1      40.352  18.229  25.996  1.00  0.00     0.163 HD
ATOM     30  O   UNL A   1      42.676  18.818  25.881  1.00  0.00    -0.269 OA
BRANCH  28  31
ATOM     31  C   UNL A   1      42.109  21.022  26.464  1.00  0.00     0.039 A 
ATOM     32  C   UNL A   1      42.273  21.361  27.812  1.00  0.00     0.014 A 
ATOM     33  C   UNL A   1      42.199  22.011  25.481  1.00  0.00     0.014 A 
ATOM     34  C   UNL A   1      42.556  22.682  28.168  1.00  0.00     0.010 A 
ATOM     35  C   UNL A   1      42.559  23.309  25.830  1.00  0.00     0.010 A 
ATOM     36  C   UNL A   1      42.716  23.663  27.177  1.00  0.00    -0.014 A 
BRANCH  36  37
ATOM     37  C   UNL A   1      43.014  25.074  27.528  1.00  0.00     0.031 A 
ATOM     38  C   UNL A   1      44.412  25.610  27.376  1.00  0.00     0.074 A 
ATOM     39  C   UNL A   1      42.047  25.847  28.060  1.00  0.00     0.049 A 
ATOM     40  N   UNL A   1      44.881  26.793  27.673  1.00  0.00    -0.248 NA
ATOM     41  C   UNL A   1      45.426  24.680  26.848  1.00  0.00     0.031 C 
ATOM     42  C   UNL A   1      40.671  25.420  28.320  1.00  0.00     0.029 A 
ATOM     43  N   UNL A   1      42.080  27.148  28.495  1.00  0.00    -0.354 N 
ATOM     44  C   UNL A   1      46.246  26.738  27.412  1.00  0.00     0.074 A 
ATOM     45  C   UNL A   1      46.536  25.392  26.970  1.00  0.00     0.031 C 
ATOM     46  C   UNL A   1      39.986  26.446  28.850  1.00  0.00     0.029 A 
ATOM     47  C   UNL A   1      40.879  27.592  28.995  1.00  0.00     0.049 A 
ATOM     48  H   UNL A   1      42.888  27.709  28.452  1.00  0.00     0.167 HD
ATOM     49  C   UNL A   1      47.170  27.725  27.499  1.00  0.00     0.034 A 
ATOM     50  C   UNL A   1      40.536  28.791  29.504  1.00  0.00     0.034 A 
ATOM     51  C   UNL A   1      46.864  29.074  27.891  1.00  0.00     0.049 A 
ATOM     52  C   UNL A   1      41.569  29.884  29.552  1.00  0.00     0.074 A 
ATOM     53  C   UNL A   1      47.702  30.174  27.926  1.00  0.00     0.029 A 
ATOM     54  N   UNL A   1      45.617  29.508  28.319  1.00  0.00    -0.354 N 
ATOM     55  N   UNL A   1      42.819  29.858  29.156  1.00  0.00    -0.248 NA
ATOM     56  C   UNL A   1      41.133  31.184  30.083  1.00  0.00     0.031 C 
ATOM     57  C   UNL A   1      46.966  31.269  28.394  1.00  0.00     0.029 A 
ATOM     58  C   UNL A   1      45.664  30.857  28.627  1.00  0.00     0.049 A 
ATOM     59  H   UNL A   1      44.818  28.939  28.392  1.00  0.00     0.167 HD
ATOM     60  C   UNL A   1      43.306  31.146  29.346  1.00  0.00     0.074 A 
ATOM     61  C   UNL A   1      42.211  31.930  29.883  1.00  0.00     0.031 C 
ATOM     62  C   UNL A   1      44.549  31.635  29.107  1.00  0.00     0.034 A 
BRANCH  49  63
ATOM     63  C   UNL A   1      48.587  27.384  27.115  1.00  0.00     0.023 A 
ATOM     64  C   UNL A   1      49.448  26.807  28.074  1.00  0.00     0.012 A 
ATOM     65  C   UNL A   1      49.067  27.615  25.812  1.00  0.00     0.148 A 
ATOM     66  C   UNL A   1      50.775  26.518  27.758  1.00  0.00     0.002 A 
ATOM     67  C   UNL A   1      50.378  27.279  25.491  1.00  0.00     0.091 A 
ATOM     68  F   UNL A   1      48.247  28.184  24.917  1.00  0.00    -0.205 F 
ATOM     69  C   UNL A   1      51.238  26.745  26.465  1.00  0.00     0.022 A 
BRANCH  67  70
ATOM     70  S   UNL A   1      51.036  27.460  23.828  1.00  0.00     0.127 S 
ATOM     71  O   UNL A   1      51.004  28.912  23.655  1.00  0.00    -0.237 OA
ATOM     72  O   UNL A   1      52.379  26.892  23.960  1.00  0.00    -0.237 OA
ATOM     73  O   UNL A   1      50.143  26.700  22.965  1.00  0.00    -0.744 OA
ENDBRANCH  67  70
ENDBRANCH  49  63
BRANCH  50  74
ATOM     74  C   UNL A   1      39.124  29.049  29.903  1.00  0.00     0.023 A 
ATOM     75  C   UNL A   1      38.728  28.765  31.225  1.00  0.00     0.012 A 
ATOM     76  C   UNL A   1      38.191  29.612  29.012  1.00  0.00     0.148 A 
ATOM     77  C   UNL A   1      37.422  29.013  31.647  1.00  0.00     0.002 A 
ATOM     78  C   UNL A   1      36.905  29.905  29.453  1.00  0.00     0.091 A 
ATOM     79  F   UNL A   1      38.587  29.870  27.758  1.00  0.00    -0.205 F 
ATOM     80  C   UNL A   1      36.514  29.591  30.765  1.00  0.00     0.022 A 
BRANCH  78  81
ATOM     81  S   UNL A   1      35.702  30.762  28.431  1.00  0.00     0.127 S 
ATOM     82  O   UNL A   1      35.122  29.664  27.664  1.00  0.00    -0.237 OA
ATOM     83  O   UNL A   1      34.815  31.346  29.439  1.00  0.00    -0.237 OA
ATOM     84  O   UNL A   1      36.460  31.738  27.660  1.00  0.00    -0.744 OA
ENDBRANCH  78  81
ENDBRANCH  50  74
BRANCH  62  85
ATOM     85  C   UNL A   1      44.787  33.097  29.378  1.00  0.00     0.023 A 
ATOM     86  C   UNL A   1      45.265  33.510  30.638  1.00  0.00     0.012 A 
ATOM     87  C   UNL A   1      44.609  34.053  28.359  1.00  0.00     0.148 A 
ATOM     88  C   UNL A   1      45.530  34.855  30.889  1.00  0.00     0.002 A 
ATOM     89  C   UNL A   1      44.922  35.385  28.601  1.00  0.00     0.091 A 
ATOM     90  F   UNL A   1      44.134  33.644  27.174  1.00  0.00    -0.205 F 
ATOM     91  C   UNL A   1      45.371  35.790  29.868  1.00  0.00     0.022 A 
BRANCH  89  92
ATOM     92  S   UNL A   1      44.842  36.637  27.316  1.00  0.00     0.127 S 
ATOM     93  O   UNL A   1      45.729  36.078  26.298  1.00  0.00    -0.237 OA
ATOM     94  O   UNL A   1      43.422  36.629  26.959  1.00  0.00    -0.237 OA
ATOM     95  O   UNL A   1      45.298  37.874  27.936  1.00  0.00    -0.744 OA
ENDBRANCH  89  92
ENDBRANCH  62  85
ENDBRANCH  36  37
ENDBRANCH  28  31
ENDBRANCH  26  27
ENDBRANCH  25  26
ENDBRANCH   1  25
TORSDOF 17
ENDMDL
