MODEL 1
REMARK VINA RESULT:     -12.5      0.000      0.000
REMARK SMILES O=C(CN1C(=O)/C(=C2\SC(N3CCN(c4ccccc4F)CC3)=[NH+]C2=O)c2ccccc21)NCCCNC(=O)c1ccc(-c2c3nc(c(-c4cccc(S(=O)(=O)[O-])c4F)c4ccc([nH]4)c(-c4cccc(S(=O)(=O)[O-])c4F)c4nc(c(-c5cccc(S(=O)(=O)[O-])c5F)c5ccc2[nH]5)C=C4)C=C3)cc1
REMARK SMILES IDX 35 1 34 2 33 3 1 4 2 5 3 7 4 8 5 9 32 10 6 11 7 12 27 13
REMARK SMILES IDX 31 14 8 15 28 16 30 17 9 18 25 19 29 20 10 21 24 22 26 23
REMARK SMILES IDX 11 24 12 26 23 27 13 28 22 29 14 30 15 31 16 32 20 33 17 34
REMARK SMILES IDX 19 35 21 36 18 37 36 38 37 39 38 40 39 42 40 43 41 44 102 45
REMARK SMILES IDX 42 46 101 47 43 48 44 49 45 50 95 51 46 52 100 53 94 54
REMARK SMILES IDX 96 55 47 56 99 57 93 58 92 59 48 61 80 62 60 63 79 64 61 65
REMARK SMILES IDX 64 66 78 67 97 68 62 69 63 70 77 72 98 73 65 74 49 75 50 76
REMARK SMILES IDX 58 77 51 78 53 79 59 80 52 81 54 82 55 83 56 84 57 85 81 86
REMARK SMILES IDX 82 87 90 88 83 89 85 90 91 91 84 92 86 93 87 94 88 95 89 96
REMARK SMILES IDX 66 97 67 98 75 99 68 100 70 101 76 102 69 103 71 104 72 105
REMARK SMILES IDX 73 106 74 107
REMARK H PARENT 33 6 24 25 37 41 96 60 64 71
REMARK Flexibility Score: inf
ROOT
ATOM      1  C   UNL A   1      40.838  20.019  26.148  1.00  0.00     0.042 C 
ENDROOT
BRANCH   1   2
ATOM      2  C   UNL A   1      40.496  21.493  25.999  1.00  0.00     0.117 C 
BRANCH   2   3
ATOM      3  N   UNL A   1      39.196  21.838  26.538  1.00  0.00    -0.354 N 
ATOM      4  O   UNL A   1      38.092  21.784  24.534  1.00  0.00    -0.273 OA
ATOM      5  C   UNL A   1      38.058  21.804  25.764  1.00  0.00     0.240 C 
ATOM      6  H   UNL A   1      39.125  22.104  27.483  1.00  0.00     0.163 HD
BRANCH   5   7
ATOM      7  C   UNL A   1      36.725  21.968  26.511  1.00  0.00     0.225 C 
BRANCH   7   8
ATOM      8  N   UNL A   1      35.514  22.072  25.707  1.00  0.00    -0.298 N 
ATOM      9  C   UNL A   1      34.634  23.144  25.809  1.00  0.00     0.260 C 
ATOM     10  C   UNL A   1      34.857  20.960  25.147  1.00  0.00     0.053 A 
ATOM     11  O   UNL A   1      34.824  24.173  26.430  1.00  0.00    -0.269 OA
ATOM     12  C   UNL A   1      33.372  22.729  25.079  1.00  0.00     0.071 C 
ATOM     13  C   UNL A   1      33.546  21.299  24.759  1.00  0.00     0.012 A 
ATOM     14  C   UNL A   1      35.357  19.673  25.003  1.00  0.00     0.027 A 
ATOM     15  C   UNL A   1      32.384  23.612  24.840  1.00  0.00     0.122 C 
ATOM     16  C   UNL A   1      32.743  20.333  24.174  1.00  0.00     0.011 A 
ATOM     17  C   UNL A   1      34.532  18.702  24.438  1.00  0.00     0.002 A 
ATOM     18  S   UNL A   1      32.554  25.335  24.956  1.00  0.00     0.007 SA
ATOM     19  C   UNL A   1      30.989  23.347  24.363  1.00  0.00     0.347 C 
ATOM     20  C   UNL A   1      33.237  19.031  24.023  1.00  0.00     0.001 A 
ATOM     21  C   UNL A   1      30.992  25.575  24.219  1.00  0.00     0.319 C 
ATOM     22  N   UNL A   1      30.312  24.497  24.019  1.00  0.00    -0.200 N 
ATOM     23  O   UNL A   1      30.467  22.244  24.348  1.00  0.00    -0.240 OA
ATOM     24  N   UNL A   1      30.574  26.844  23.927  1.00  0.00    -0.252 N 
ATOM     25  H   UNL A   1      29.397  24.497  23.655  1.00  0.00     0.316 HD
ATOM     26  C   UNL A   1      31.487  27.923  23.505  1.00  0.00     0.258 C 
ATOM     27  C   UNL A   1      29.196  27.270  24.225  1.00  0.00     0.258 C 
ATOM     28  C   UNL A   1      30.876  28.742  22.346  1.00  0.00     0.162 C 
ATOM     29  C   UNL A   1      28.599  28.160  23.116  1.00  0.00     0.162 C 
ATOM     30  N   UNL A   1      29.550  29.221  22.753  1.00  0.00    -0.361 N 
BRANCH  30  31
ATOM     31  C   UNL A   1      29.089  30.454  22.335  1.00  0.00     0.073 A 
ATOM     32  C   UNL A   1      28.553  30.578  21.043  1.00  0.00     0.029 A 
ATOM     33  C   UNL A   1      29.062  31.599  23.149  1.00  0.00     0.146 A 
ATOM     34  C   UNL A   1      27.991  31.778  20.597  1.00  0.00     0.002 A 
ATOM     35  C   UNL A   1      28.521  32.806  22.707  1.00  0.00     0.041 A 
ATOM     36  F   UNL A   1      29.580  31.557  24.387  1.00  0.00    -0.205 F 
ATOM     37  C   UNL A   1      27.975  32.893  21.429  1.00  0.00     0.003 A 
ENDBRANCH  30  31
ENDBRANCH   7   8
ENDBRANCH   5   7
ENDBRANCH   2   3
ENDBRANCH   1   2
BRANCH   1  38
ATOM     38  C   UNL A   1      42.299  19.741  26.476  1.00  0.00     0.118 C 
BRANCH  38  39
ATOM     39  N   UNL A   1      43.083  19.290  25.332  1.00  0.00    -0.352 N 
ATOM     40  C   UNL A   1      44.045  19.938  24.591  1.00  0.00     0.251 C 
ATOM     41  H   UNL A   1      42.893  18.369  25.042  1.00  0.00     0.163 HD
ATOM     42  O   UNL A   1      44.503  19.384  23.594  1.00  0.00    -0.269 OA
BRANCH  40  43
ATOM     43  C   UNL A   1      44.498  21.300  24.957  1.00  0.00     0.039 A 
ATOM     44  C   UNL A   1      45.322  21.519  26.060  1.00  0.00     0.014 A 
ATOM     45  C   UNL A   1      44.080  22.387  24.182  1.00  0.00     0.014 A 
ATOM     46  C   UNL A   1      45.557  22.817  26.504  1.00  0.00     0.010 A 
ATOM     47  C   UNL A   1      44.403  23.691  24.573  1.00  0.00     0.010 A 
ATOM     48  C   UNL A   1      45.092  23.923  25.773  1.00  0.00    -0.014 A 
BRANCH  48  49
ATOM     49  C   UNL A   1      45.335  25.298  26.287  1.00  0.00     0.031 A 
ATOM     50  C   UNL A   1      46.716  25.904  26.264  1.00  0.00     0.074 A 
ATOM     51  C   UNL A   1      44.296  26.029  26.739  1.00  0.00     0.049 A 
ATOM     52  N   UNL A   1      47.092  27.102  26.635  1.00  0.00    -0.248 NA
ATOM     53  C   UNL A   1      47.819  25.066  25.763  1.00  0.00     0.031 C 
ATOM     54  C   UNL A   1      42.912  25.556  26.837  1.00  0.00     0.029 A 
ATOM     55  N   UNL A   1      44.235  27.324  27.189  1.00  0.00    -0.354 N 
ATOM     56  C   UNL A   1      48.469  27.148  26.451  1.00  0.00     0.074 A 
ATOM     57  C   UNL A   1      48.870  25.856  25.943  1.00  0.00     0.031 C 
ATOM     58  C   UNL A   1      42.136  26.557  27.276  1.00  0.00     0.029 A 
ATOM     59  C   UNL A   1      42.968  27.725  27.543  1.00  0.00     0.049 A 
ATOM     60  H   UNL A   1      45.023  27.911  27.251  1.00  0.00     0.167 HD
ATOM     61  C   UNL A   1      49.319  28.179  26.665  1.00  0.00     0.034 A 
ATOM     62  C   UNL A   1      42.520  28.895  28.039  1.00  0.00     0.034 A 
ATOM     63  C   UNL A   1      48.920  29.483  27.118  1.00  0.00     0.049 A 
ATOM     64  C   UNL A   1      43.484  30.022  28.263  1.00  0.00     0.074 A 
ATOM     65  C   UNL A   1      49.712  30.604  27.301  1.00  0.00     0.029 A 
ATOM     66  N   UNL A   1      47.627  29.844  27.460  1.00  0.00    -0.354 N 
ATOM     67  N   UNL A   1      44.765  30.069  27.997  1.00  0.00    -0.248 NA
ATOM     68  C   UNL A   1      42.942  31.261  28.840  1.00  0.00     0.031 C 
ATOM     69  C   UNL A   1      48.901  31.639  27.771  1.00  0.00     0.029 A 
ATOM     70  C   UNL A   1      47.602  31.167  27.863  1.00  0.00     0.049 A 
ATOM     71  H   UNL A   1      46.845  29.248  27.422  1.00  0.00     0.167 HD
ATOM     72  C   UNL A   1      45.183  31.343  28.361  1.00  0.00     0.074 A 
ATOM     73  C   UNL A   1      44.013  32.045  28.848  1.00  0.00     0.031 C 
ATOM     74  C   UNL A   1      46.427  31.873  28.307  1.00  0.00     0.034 A 
BRANCH  61  75
ATOM     75  C   UNL A   1      50.779  27.975  26.360  1.00  0.00     0.023 A 
ATOM     76  C   UNL A   1      51.650  27.579  27.394  1.00  0.00     0.012 A 
ATOM     77  C   UNL A   1      51.259  28.051  25.038  1.00  0.00     0.148 A 
ATOM     78  C   UNL A   1      52.980  27.267  27.118  1.00  0.00     0.002 A 
ATOM     79  C   UNL A   1      52.578  27.710  24.766  1.00  0.00     0.091 A 
ATOM     80  F   UNL A   1      50.410  28.437  24.074  1.00  0.00    -0.205 F 
ATOM     81  C   UNL A   1      53.440  27.322  25.804  1.00  0.00     0.022 A 
BRANCH  79  82
ATOM     82  S   UNL A   1      53.258  27.693  23.103  1.00  0.00     0.127 S 
ATOM     83  O   UNL A   1      54.635  27.269  23.353  1.00  0.00    -0.237 OA
ATOM     84  O   UNL A   1      52.422  26.692  22.442  1.00  0.00    -0.237 OA
ATOM     85  O   UNL A   1      53.114  29.049  22.592  1.00  0.00    -0.744 OA
ENDBRANCH  79  82
ENDBRANCH  61  75
BRANCH  62  86
ATOM     86  C   UNL A   1      41.066  29.055  28.316  1.00  0.00     0.023 A 
ATOM     87  C   UNL A   1      40.173  29.221  27.241  1.00  0.00     0.012 A 
ATOM     88  C   UNL A   1      40.563  28.961  29.628  1.00  0.00     0.148 A 
ATOM     89  C   UNL A   1      38.799  29.296  27.470  1.00  0.00     0.002 A 
ATOM     90  C   UNL A   1      39.192  28.995  29.845  1.00  0.00     0.091 A 
ATOM     91  F   UNL A   1      41.439  28.804  30.631  1.00  0.00    -0.205 F 
ATOM     92  C   UNL A   1      38.308  29.172  28.768  1.00  0.00     0.022 A 
BRANCH  90  93
ATOM     93  S   UNL A   1      38.460  28.740  31.464  1.00  0.00     0.127 S 
ATOM     94  O   UNL A   1      37.037  28.900  31.176  1.00  0.00    -0.237 OA
ATOM     95  O   UNL A   1      38.877  27.371  31.766  1.00  0.00    -0.237 OA
ATOM     96  O   UNL A   1      39.040  29.757  32.329  1.00  0.00    -0.744 OA
ENDBRANCH  90  93
ENDBRANCH  62  86
BRANCH  74  97
ATOM     97  C   UNL A   1      46.619  33.287  28.778  1.00  0.00     0.023 A 
ATOM     98  C   UNL A   1      46.974  33.525  30.118  1.00  0.00     0.012 A 
ATOM     99  C   UNL A   1      46.583  34.359  27.864  1.00  0.00     0.148 A 
ATOM    100  C   UNL A   1      47.289  34.815  30.546  1.00  0.00     0.002 A 
ATOM    101  C   UNL A   1      46.931  35.635  28.289  1.00  0.00     0.091 A 
ATOM    102  F   UNL A   1      46.239  34.102  26.594  1.00  0.00    -0.205 F 
ATOM    103  C   UNL A   1      47.280  35.865  29.630  1.00  0.00     0.022 A 
BRANCH 101 104
ATOM    104  S   UNL A   1      47.019  37.040  27.172  1.00  0.00     0.127 S 
ATOM    105  O   UNL A   1      45.625  37.172  26.750  1.00  0.00    -0.237 OA
ATOM    106  O   UNL A   1      47.493  38.105  28.055  1.00  0.00    -0.237 OA
ATOM    107  O   UNL A   1      47.949  36.661  26.117  1.00  0.00    -0.744 OA
ENDBRANCH 101 104
ENDBRANCH  74  97
ENDBRANCH  48  49
ENDBRANCH  40  43
ENDBRANCH  38  39
ENDBRANCH   1  38
TORSDOF 15
ENDMDL
MODEL 2
REMARK VINA RESULT:     -12.4      3.137      5.258
REMARK SMILES O=C(CN1C(=O)/C(=C2\SC(N3CCN(c4ccccc4F)CC3)=[NH+]C2=O)c2ccccc21)NCCCNC(=O)c1ccc(-c2c3nc(c(-c4cccc(S(=O)(=O)[O-])c4F)c4ccc([nH]4)c(-c4cccc(S(=O)(=O)[O-])c4F)c4nc(c(-c5cccc(S(=O)(=O)[O-])c5F)c5ccc2[nH]5)C=C4)C=C3)cc1
REMARK SMILES IDX 35 1 34 2 33 3 1 4 2 5 3 7 4 8 5 9 32 10 6 11 7 12 27 13
REMARK SMILES IDX 31 14 8 15 28 16 30 17 9 18 25 19 29 20 10 21 24 22 26 23
REMARK SMILES IDX 11 24 12 26 23 27 13 28 22 29 14 30 15 31 16 32 20 33 17 34
REMARK SMILES IDX 19 35 21 36 18 37 36 38 37 39 38 40 39 42 40 43 41 44 102 45
REMARK SMILES IDX 42 46 101 47 43 48 44 49 45 50 95 51 46 52 100 53 94 54
REMARK SMILES IDX 96 55 47 56 99 57 93 58 92 59 48 61 80 62 60 63 79 64 61 65
REMARK SMILES IDX 64 66 78 67 97 68 62 69 63 70 77 72 98 73 65 74 49 75 50 76
REMARK SMILES IDX 58 77 51 78 53 79 59 80 52 81 54 82 55 83 56 84 57 85 81 86
REMARK SMILES IDX 82 87 90 88 83 89 85 90 91 91 84 92 86 93 87 94 88 95 89 96
REMARK SMILES IDX 66 97 67 98 75 99 68 100 70 101 76 102 69 103 71 104 72 105
REMARK SMILES IDX 73 106 74 107
REMARK H PARENT 33 6 24 25 37 41 96 60 64 71
REMARK Flexibility Score: inf
ROOT
ATOM      1  C   UNL A   1      37.223  21.537  24.607  1.00  0.00     0.042 C 
ENDROOT
BRANCH   1   2
ATOM      2  C   UNL A   1      35.920  20.900  25.063  1.00  0.00     0.117 C 
BRANCH   2   3
ATOM      3  N   UNL A   1      34.743  21.588  24.574  1.00  0.00    -0.354 N 
ATOM      4  O   UNL A   1      33.316  20.768  26.165  1.00  0.00    -0.273 OA
ATOM      5  C   UNL A   1      33.556  21.580  25.271  1.00  0.00     0.240 C 
ATOM      6  H   UNL A   1      34.794  22.073  23.719  1.00  0.00     0.163 HD
BRANCH   5   7
ATOM      7  C   UNL A   1      32.463  22.530  24.759  1.00  0.00     0.225 C 
BRANCH   7   8
ATOM      8  N   UNL A   1      32.870  23.872  24.366  1.00  0.00    -0.298 N 
ATOM      9  C   UNL A   1      32.840  24.954  25.240  1.00  0.00     0.260 C 
ATOM     10  C   UNL A   1      32.855  24.329  23.033  1.00  0.00     0.053 A 
ATOM     11  O   UNL A   1      32.639  24.902  26.439  1.00  0.00    -0.269 OA
ATOM     12  C   UNL A   1      33.011  26.195  24.388  1.00  0.00     0.071 C 
ATOM     13  C   UNL A   1      32.926  25.735  22.988  1.00  0.00     0.012 A 
ATOM     14  C   UNL A   1      32.748  23.560  21.883  1.00  0.00     0.027 A 
ATOM     15  C   UNL A   1      33.204  27.404  24.949  1.00  0.00     0.122 C 
ATOM     16  C   UNL A   1      32.935  26.371  21.757  1.00  0.00     0.011 A 
ATOM     17  C   UNL A   1      32.730  24.212  20.651  1.00  0.00     0.002 A 
ATOM     18  S   UNL A   1      33.663  27.660  26.603  1.00  0.00     0.007 SA
ATOM     19  C   UNL A   1      33.151  28.754  24.302  1.00  0.00     0.347 C 
ATOM     20  C   UNL A   1      32.828  25.607  20.589  1.00  0.00     0.001 A 
ATOM     21  C   UNL A   1      33.947  29.353  26.300  1.00  0.00     0.319 C 
ATOM     22  N   UNL A   1      33.609  29.761  25.124  1.00  0.00    -0.200 N 
ATOM     23  O   UNL A   1      32.683  28.967  23.195  1.00  0.00    -0.240 OA
ATOM     24  N   UNL A   1      34.469  30.135  27.293  1.00  0.00    -0.252 N 
ATOM     25  H   UNL A   1      33.673  30.702  24.841  1.00  0.00     0.316 HD
ATOM     26  C   UNL A   1      35.441  29.644  28.288  1.00  0.00     0.258 C 
ATOM     27  C   UNL A   1      33.923  31.477  27.560  1.00  0.00     0.258 C 
ATOM     28  C   UNL A   1      36.561  30.682  28.526  1.00  0.00     0.162 C 
ATOM     29  C   UNL A   1      35.023  32.509  27.884  1.00  0.00     0.162 C 
ATOM     30  N   UNL A   1      35.947  31.964  28.889  1.00  0.00    -0.361 N 
BRANCH  30  31
ATOM     31  C   UNL A   1      36.561  32.806  29.797  1.00  0.00     0.073 A 
ATOM     32  C   UNL A   1      37.793  33.387  29.460  1.00  0.00     0.029 A 
ATOM     33  C   UNL A   1      35.996  33.174  31.030  1.00  0.00     0.146 A 
ATOM     34  C   UNL A   1      38.417  34.315  30.300  1.00  0.00     0.002 A 
ATOM     35  C   UNL A   1      36.621  34.084  31.884  1.00  0.00     0.041 A 
ATOM     36  F   UNL A   1      34.831  32.637  31.425  1.00  0.00    -0.205 F 
ATOM     37  C   UNL A   1      37.831  34.663  31.513  1.00  0.00     0.003 A 
ENDBRANCH  30  31
ENDBRANCH   7   8
ENDBRANCH   5   7
ENDBRANCH   2   3
ENDBRANCH   1   2
BRANCH   1  38
ATOM     38  C   UNL A   1      38.162  21.933  25.740  1.00  0.00     0.118 C 
BRANCH  38  39
ATOM     39  N   UNL A   1      39.162  20.919  26.056  1.00  0.00    -0.352 N 
ATOM     40  C   UNL A   1      40.410  21.035  26.624  1.00  0.00     0.251 C 
ATOM     41  H   UNL A   1      38.900  19.998  25.825  1.00  0.00     0.163 HD
ATOM     42  O   UNL A   1      41.125  20.038  26.700  1.00  0.00    -0.269 OA
BRANCH  40  43
ATOM     43  C   UNL A   1      40.910  22.345  27.100  1.00  0.00     0.039 A 
ATOM     44  C   UNL A   1      40.523  23.536  26.487  1.00  0.00     0.014 A 
ATOM     45  C   UNL A   1      41.797  22.382  28.181  1.00  0.00     0.014 A 
ATOM     46  C   UNL A   1      41.168  24.725  26.814  1.00  0.00     0.010 A 
ATOM     47  C   UNL A   1      42.370  23.597  28.576  1.00  0.00     0.010 A 
ATOM     48  C   UNL A   1      42.109  24.772  27.856  1.00  0.00    -0.014 A 
BRANCH  48  49
ATOM     49  C   UNL A   1      42.802  26.053  28.163  1.00  0.00     0.031 A 
ATOM     50  C   UNL A   1      44.090  26.425  27.472  1.00  0.00     0.074 A 
ATOM     51  C   UNL A   1      42.246  26.913  29.040  1.00  0.00     0.049 A 
ATOM     52  N   UNL A   1      44.800  27.518  27.593  1.00  0.00    -0.248 NA
ATOM     53  C   UNL A   1      44.659  25.452  26.523  1.00  0.00     0.031 C 
ATOM     54  C   UNL A   1      41.015  26.668  29.796  1.00  0.00     0.029 A 
ATOM     55  N   UNL A   1      42.633  28.169  29.437  1.00  0.00    -0.354 N 
ATOM     56  C   UNL A   1      45.910  27.350  26.774  1.00  0.00     0.074 A 
ATOM     57  C   UNL A   1      45.790  26.045  26.164  1.00  0.00     0.031 C 
ATOM     58  C   UNL A   1      40.727  27.751  30.530  1.00  0.00     0.029 A 
ATOM     59  C   UNL A   1      41.776  28.748  30.344  1.00  0.00     0.049 A 
ATOM     60  H   UNL A   1      43.446  28.613  29.103  1.00  0.00     0.167 HD
ATOM     61  C   UNL A   1      46.926  28.211  26.534  1.00  0.00     0.034 A 
ATOM     62  C   UNL A   1      41.828  29.940  30.968  1.00  0.00     0.034 A 
ATOM     63  C   UNL A   1      47.024  29.531  27.096  1.00  0.00     0.049 A 
ATOM     64  C   UNL A   1      42.964  30.877  30.682  1.00  0.00     0.074 A 
ATOM     65  C   UNL A   1      47.990  30.493  26.856  1.00  0.00     0.029 A 
ATOM     66  N   UNL A   1      46.132  30.075  28.005  1.00  0.00    -0.354 N 
ATOM     67  N   UNL A   1      43.953  30.731  29.836  1.00  0.00    -0.248 NA
ATOM     68  C   UNL A   1      42.986  32.148  31.421  1.00  0.00     0.031 C 
ATOM     69  C   UNL A   1      47.693  31.614  27.633  1.00  0.00     0.029 A 
ATOM     70  C   UNL A   1      46.532  31.356  28.343  1.00  0.00     0.049 A 
ATOM     71  H   UNL A   1      45.334  29.620  28.356  1.00  0.00     0.167 HD
ATOM     72  C   UNL A   1      44.709  31.892  29.930  1.00  0.00     0.074 A 
ATOM     73  C   UNL A   1      44.052  32.743  30.901  1.00  0.00     0.031 C 
ATOM     74  C   UNL A   1      45.851  32.214  29.278  1.00  0.00     0.034 A 
BRANCH  61  75
ATOM     75  C   UNL A   1      48.008  27.791  25.576  1.00  0.00     0.023 A 
ATOM     76  C   UNL A   1      49.164  27.160  26.075  1.00  0.00     0.012 A 
ATOM     77  C   UNL A   1      47.823  27.905  24.184  1.00  0.00     0.148 A 
ATOM     78  C   UNL A   1      50.126  26.654  25.202  1.00  0.00     0.002 A 
ATOM     79  C   UNL A   1      48.771  27.371  23.320  1.00  0.00     0.091 A 
ATOM     80  F   UNL A   1      46.716  28.515  23.736  1.00  0.00    -0.205 F 
ATOM     81  C   UNL A   1      49.924  26.749  23.827  1.00  0.00     0.022 A 
BRANCH  79  82
ATOM     82  S   UNL A   1      48.584  27.391  21.533  1.00  0.00     0.127 S 
ATOM     83  O   UNL A   1      47.250  27.973  21.384  1.00  0.00    -0.237 OA
ATOM     84  O   UNL A   1      49.680  28.267  21.122  1.00  0.00    -0.237 OA
ATOM     85  O   UNL A   1      48.705  26.007  21.097  1.00  0.00    -0.744 OA
ENDBRANCH  79  82
ENDBRANCH  61  75
BRANCH  62  86
ATOM     86  C   UNL A   1      40.732  30.318  31.901  1.00  0.00     0.023 A 
ATOM     87  C   UNL A   1      39.475  30.678  31.379  1.00  0.00     0.012 A 
ATOM     88  C   UNL A   1      40.908  30.241  33.296  1.00  0.00     0.148 A 
ATOM     89  C   UNL A   1      38.410  30.962  32.235  1.00  0.00     0.002 A 
ATOM     90  C   UNL A   1      39.833  30.484  34.141  1.00  0.00     0.091 A 
ATOM     91  F   UNL A   1      42.116  29.896  33.763  1.00  0.00    -0.205 F 
ATOM     92  C   UNL A   1      38.585  30.854  33.613  1.00  0.00     0.022 A 
BRANCH  90  93
ATOM     93  S   UNL A   1      39.931  30.270  35.921  1.00  0.00     0.127 S 
ATOM     94  O   UNL A   1      38.522  30.328  36.305  1.00  0.00    -0.237 OA
ATOM     95  O   UNL A   1      40.544  28.945  36.027  1.00  0.00    -0.237 OA
ATOM     96  O   UNL A   1      40.758  31.363  36.409  1.00  0.00    -0.744 OA
ENDBRANCH  90  93
ENDBRANCH  62  86
BRANCH  74  97
ATOM     97  C   UNL A   1      46.487  33.544  29.571  1.00  0.00     0.023 A 
ATOM     98  C   UNL A   1      47.460  33.635  30.582  1.00  0.00     0.012 A 
ATOM     99  C   UNL A   1      46.220  34.662  28.755  1.00  0.00     0.148 A 
ATOM    100  C   UNL A   1      48.160  34.825  30.782  1.00  0.00     0.002 A 
ATOM    101  C   UNL A   1      46.945  35.832  28.937  1.00  0.00     0.091 A 
ATOM    102  F   UNL A   1      45.285  34.546  27.801  1.00  0.00    -0.205 F 
ATOM    103  C   UNL A   1      47.913  35.916  29.953  1.00  0.00     0.022 A 
BRANCH 101 104
ATOM    104  S   UNL A   1      46.751  37.270  27.876  1.00  0.00     0.127 S 
ATOM    105  O   UNL A   1      47.165  38.353  28.767  1.00  0.00    -0.237 OA
ATOM    106  O   UNL A   1      47.688  36.980  26.791  1.00  0.00    -0.237 OA
ATOM    107  O   UNL A   1      45.349  37.297  27.483  1.00  0.00    -0.744 OA
ENDBRANCH 101 104
ENDBRANCH  74  97
ENDBRANCH  48  49
ENDBRANCH  40  43
ENDBRANCH  38  39
ENDBRANCH   1  38
TORSDOF 15
ENDMDL
MODEL 3
REMARK VINA RESULT:     -12.4      5.848     12.056
REMARK SMILES O=C(CN1C(=O)/C(=C2\SC(N3CCN(c4ccccc4F)CC3)=[NH+]C2=O)c2ccccc21)NCCCNC(=O)c1ccc(-c2c3nc(c(-c4cccc(S(=O)(=O)[O-])c4F)c4ccc([nH]4)c(-c4cccc(S(=O)(=O)[O-])c4F)c4nc(c(-c5cccc(S(=O)(=O)[O-])c5F)c5ccc2[nH]5)C=C4)C=C3)cc1
REMARK SMILES IDX 35 1 34 2 33 3 1 4 2 5 3 7 4 8 5 9 32 10 6 11 7 12 27 13
REMARK SMILES IDX 31 14 8 15 28 16 30 17 9 18 25 19 29 20 10 21 24 22 26 23
REMARK SMILES IDX 11 24 12 26 23 27 13 28 22 29 14 30 15 31 16 32 20 33 17 34
REMARK SMILES IDX 19 35 21 36 18 37 36 38 37 39 38 40 39 42 40 43 41 44 102 45
REMARK SMILES IDX 42 46 101 47 43 48 44 49 45 50 95 51 46 52 100 53 94 54
REMARK SMILES IDX 96 55 47 56 99 57 93 58 92 59 48 61 80 62 60 63 79 64 61 65
REMARK SMILES IDX 64 66 78 67 97 68 62 69 63 70 77 72 98 73 65 74 49 75 50 76
REMARK SMILES IDX 58 77 51 78 53 79 59 80 52 81 54 82 55 83 56 84 57 85 81 86
REMARK SMILES IDX 82 87 90 88 83 89 85 90 91 91 84 92 86 93 87 94 88 95 89 96
REMARK SMILES IDX 66 97 67 98 75 99 68 100 70 101 76 102 69 103 71 104 72 105
REMARK SMILES IDX 73 106 74 107
REMARK H PARENT 33 6 24 25 37 41 96 60 64 71
REMARK Flexibility Score: inf
ROOT
ATOM      1  C   UNL A   1      32.064  30.704  26.517  1.00  0.00     0.042 C 
ENDROOT
BRANCH   1   2
ATOM      2  C   UNL A   1      31.782  29.398  27.243  1.00  0.00     0.117 C 
BRANCH   2   3
ATOM      3  N   UNL A   1      31.834  28.237  26.377  1.00  0.00    -0.354 N 
ATOM      4  O   UNL A   1      30.617  29.162  24.674  1.00  0.00    -0.273 OA
ATOM      5  C   UNL A   1      31.367  28.276  25.083  1.00  0.00     0.240 C 
ATOM      6  H   UNL A   1      32.214  27.398  26.725  1.00  0.00     0.163 HD
BRANCH   5   7
ATOM      7  C   UNL A   1      31.690  27.054  24.209  1.00  0.00     0.225 C 
BRANCH   7   8
ATOM      8  N   UNL A   1      32.068  25.823  24.889  1.00  0.00    -0.298 N 
ATOM      9  C   UNL A   1      33.162  25.056  24.503  1.00  0.00     0.260 C 
ATOM     10  C   UNL A   1      31.163  25.035  25.628  1.00  0.00     0.053 A 
ATOM     11  O   UNL A   1      34.011  25.374  23.692  1.00  0.00    -0.269 OA
ATOM     12  C   UNL A   1      33.024  23.727  25.219  1.00  0.00     0.071 C 
ATOM     13  C   UNL A   1      31.688  23.747  25.847  1.00  0.00     0.012 A 
ATOM     14  C   UNL A   1      29.901  25.402  26.075  1.00  0.00     0.027 A 
ATOM     15  C   UNL A   1      34.017  22.819  25.199  1.00  0.00     0.122 C 
ATOM     16  C   UNL A   1      30.943  22.828  26.569  1.00  0.00     0.011 A 
ATOM     17  C   UNL A   1      29.149  24.461  26.777  1.00  0.00     0.002 A 
ATOM     18  S   UNL A   1      35.654  23.160  24.732  1.00  0.00     0.007 SA
ATOM     19  C   UNL A   1      33.981  21.383  25.627  1.00  0.00     0.347 C 
ATOM     20  C   UNL A   1      29.668  23.186  27.025  1.00  0.00     0.001 A 
ATOM     21  C   UNL A   1      36.178  21.595  25.295  1.00  0.00     0.319 C 
ATOM     22  N   UNL A   1      35.231  20.806  25.674  1.00  0.00    -0.200 N 
ATOM     23  O   UNL A   1      32.955  20.757  25.842  1.00  0.00    -0.240 OA
ATOM     24  N   UNL A   1      37.511  21.289  25.282  1.00  0.00    -0.252 N 
ATOM     25  H   UNL A   1      35.387  19.879  25.968  1.00  0.00     0.316 HD
ATOM     26  C   UNL A   1      38.575  22.281  25.525  1.00  0.00     0.258 C 
ATOM     27  C   UNL A   1      37.976  19.973  24.809  1.00  0.00     0.258 C 
ATOM     28  C   UNL A   1      39.675  21.698  26.441  1.00  0.00     0.162 C 
ATOM     29  C   UNL A   1      39.134  19.414  25.662  1.00  0.00     0.162 C 
ATOM     30  N   UNL A   1      40.164  20.445  25.854  1.00  0.00    -0.361 N 
BRANCH  30  31
ATOM     31  C   UNL A   1      41.493  20.086  25.969  1.00  0.00     0.073 A 
ATOM     32  C   UNL A   1      41.813  18.767  26.328  1.00  0.00     0.029 A 
ATOM     33  C   UNL A   1      42.565  20.950  25.686  1.00  0.00     0.146 A 
ATOM     34  C   UNL A   1      43.139  18.324  26.374  1.00  0.00     0.002 A 
ATOM     35  C   UNL A   1      43.892  20.521  25.747  1.00  0.00     0.041 A 
ATOM     36  F   UNL A   1      42.331  22.230  25.359  1.00  0.00    -0.205 F 
ATOM     37  C   UNL A   1      44.179  19.201  26.083  1.00  0.00     0.003 A 
ENDBRANCH  30  31
ENDBRANCH   7   8
ENDBRANCH   5   7
ENDBRANCH   2   3
ENDBRANCH   1   2
BRANCH   1  38
ATOM     38  C   UNL A   1      33.181  31.537  27.131  1.00  0.00     0.118 C 
BRANCH  38  39
ATOM     39  N   UNL A   1      32.770  32.885  27.508  1.00  0.00    -0.352 N 
ATOM     40  C   UNL A   1      33.305  33.764  28.421  1.00  0.00     0.251 C 
ATOM     41  H   UNL A   1      31.979  33.221  27.029  1.00  0.00     0.163 HD
ATOM     42  O   UNL A   1      32.719  34.821  28.645  1.00  0.00    -0.269 OA
BRANCH  40  43
ATOM     43  C   UNL A   1      34.546  33.433  29.160  1.00  0.00     0.039 A 
ATOM     44  C   UNL A   1      35.791  33.887  28.728  1.00  0.00     0.014 A 
ATOM     45  C   UNL A   1      34.461  32.639  30.309  1.00  0.00     0.014 A 
ATOM     46  C   UNL A   1      36.952  33.390  29.313  1.00  0.00     0.010 A 
ATOM     47  C   UNL A   1      35.629  32.221  30.959  1.00  0.00     0.010 A 
ATOM     48  C   UNL A   1      36.888  32.540  30.430  1.00  0.00    -0.014 A 
BRANCH  48  49
ATOM     49  C   UNL A   1      38.146  32.002  31.016  1.00  0.00     0.031 A 
ATOM     50  C   UNL A   1      38.726  32.585  32.281  1.00  0.00     0.074 A 
ATOM     51  C   UNL A   1      38.751  30.947  30.433  1.00  0.00     0.049 A 
ATOM     52  N   UNL A   1      39.790  32.209  32.945  1.00  0.00    -0.248 NA
ATOM     53  C   UNL A   1      38.032  33.737  32.881  1.00  0.00     0.031 C 
ATOM     54  C   UNL A   1      38.307  30.301  29.195  1.00  0.00     0.029 A 
ATOM     55  N   UNL A   1      39.857  30.225  30.805  1.00  0.00    -0.354 N 
ATOM     56  C   UNL A   1      39.914  33.093  34.009  1.00  0.00     0.074 A 
ATOM     57  C   UNL A   1      38.823  34.036  33.903  1.00  0.00     0.031 C 
ATOM     58  C   UNL A   1      39.106  29.257  28.933  1.00  0.00     0.029 A 
ATOM     59  C   UNL A   1      40.150  29.188  29.950  1.00  0.00     0.049 A 
ATOM     60  H   UNL A   1      40.389  30.429  31.607  1.00  0.00     0.167 HD
ATOM     61  C   UNL A   1      40.838  33.108  34.998  1.00  0.00     0.034 A 
ATOM     62  C   UNL A   1      41.150  28.286  29.969  1.00  0.00     0.034 A 
ATOM     63  C   UNL A   1      41.893  32.141  35.140  1.00  0.00     0.049 A 
ATOM     64  C   UNL A   1      42.159  28.323  31.078  1.00  0.00     0.074 A 
ATOM     65  C   UNL A   1      42.836  32.048  36.150  1.00  0.00     0.029 A 
ATOM     66  N   UNL A   1      42.148  31.108  34.255  1.00  0.00    -0.354 N 
ATOM     67  N   UNL A   1      42.202  29.114  32.121  1.00  0.00    -0.248 NA
ATOM     68  C   UNL A   1      43.249  27.337  31.025  1.00  0.00     0.031 C 
ATOM     69  C   UNL A   1      43.673  30.967  35.865  1.00  0.00     0.029 A 
ATOM     70  C   UNL A   1      43.240  30.378  34.689  1.00  0.00     0.049 A 
ATOM     71  H   UNL A   1      41.630  30.921  33.439  1.00  0.00     0.167 HD
ATOM     72  C   UNL A   1      43.311  28.716  32.855  1.00  0.00     0.074 A 
ATOM     73  C   UNL A   1      43.904  27.599  32.149  1.00  0.00     0.031 C 
ATOM     74  C   UNL A   1      43.799  29.242  34.004  1.00  0.00     0.034 A 
BRANCH  61  75
ATOM     75  C   UNL A   1      40.734  34.172  36.057  1.00  0.00     0.023 A 
ATOM     76  C   UNL A   1      41.109  35.493  35.746  1.00  0.00     0.012 A 
ATOM     77  C   UNL A   1      40.152  33.891  37.309  1.00  0.00     0.148 A 
ATOM     78  C   UNL A   1      40.911  36.520  36.667  1.00  0.00     0.002 A 
ATOM     79  C   UNL A   1      39.930  34.925  38.210  1.00  0.00     0.091 A 
ATOM     80  F   UNL A   1      39.809  32.623  37.582  1.00  0.00    -0.205 F 
ATOM     81  C   UNL A   1      40.312  36.238  37.893  1.00  0.00     0.022 A 
BRANCH  79  82
ATOM     82  S   UNL A   1      39.117  34.680  39.794  1.00  0.00     0.127 S 
ATOM     83  O   UNL A   1      40.138  33.945  40.538  1.00  0.00    -0.237 OA
ATOM     84  O   UNL A   1      38.906  36.056  40.244  1.00  0.00    -0.237 OA
ATOM     85  O   UNL A   1      37.899  33.932  39.514  1.00  0.00    -0.744 OA
ENDBRANCH  79  82
ENDBRANCH  61  75
BRANCH  62  86
ATOM     86  C   UNL A   1      41.208  27.246  28.906  1.00  0.00     0.023 A 
ATOM     87  C   UNL A   1      40.318  26.157  28.957  1.00  0.00     0.012 A 
ATOM     88  C   UNL A   1      42.082  27.378  27.809  1.00  0.00     0.148 A 
ATOM     89  C   UNL A   1      40.301  25.210  27.933  1.00  0.00     0.002 A 
ATOM     90  C   UNL A   1      42.031  26.455  26.773  1.00  0.00     0.091 A 
ATOM     91  F   UNL A   1      42.918  28.425  27.789  1.00  0.00    -0.205 F 
ATOM     92  C   UNL A   1      41.147  25.364  26.837  1.00  0.00     0.022 A 
BRANCH  90  93
ATOM     93  S   UNL A   1      43.004  26.625  25.274  1.00  0.00     0.127 S 
ATOM     94  O   UNL A   1      44.364  26.678  25.807  1.00  0.00    -0.237 OA
ATOM     95  O   UNL A   1      42.670  25.392  24.561  1.00  0.00    -0.237 OA
ATOM     96  O   UNL A   1      42.538  27.845  24.632  1.00  0.00    -0.744 OA
ENDBRANCH  90  93
ENDBRANCH  62  86
BRANCH  74  97
ATOM     97  C   UNL A   1      45.036  28.629  34.597  1.00  0.00     0.023 A 
ATOM     98  C   UNL A   1      44.914  27.521  35.455  1.00  0.00     0.012 A 
ATOM     99  C   UNL A   1      46.316  29.062  34.195  1.00  0.00     0.148 A 
ATOM    100  C   UNL A   1      46.050  26.852  35.910  1.00  0.00     0.002 A 
ATOM    101  C   UNL A   1      47.441  28.370  34.624  1.00  0.00     0.091 A 
ATOM    102  F   UNL A   1      46.402  30.122  33.378  1.00  0.00    -0.205 F 
ATOM    103  C   UNL A   1      47.309  27.267  35.485  1.00  0.00     0.022 A 
BRANCH 101 104
ATOM    104  S   UNL A   1      49.102  28.782  34.077  1.00  0.00     0.127 S 
ATOM    105  O   UNL A   1      48.994  28.592  32.631  1.00  0.00    -0.237 OA
ATOM    106  O   UNL A   1      49.229  30.175  34.502  1.00  0.00    -0.237 OA
ATOM    107  O   UNL A   1      49.994  27.852  34.756  1.00  0.00    -0.744 OA
ENDBRANCH 101 104
ENDBRANCH  74  97
ENDBRANCH  48  49
ENDBRANCH  40  43
ENDBRANCH  38  39
ENDBRANCH   1  38
TORSDOF 15
ENDMDL
