MODEL 1
REMARK VINA RESULT:     -12.3      0.000      0.000
REMARK SMILES CNc1nc(C(=O)N2C[C@@H](C(=O)NCCCNC(=O)c3ccc(-c4c5nc(c(-c6cccc(S(=O)(=O)[O-])c6F)c6ccc([nH]6)c(-c6cccc(S(=O)(=O)[O-])c6F)c6nc(c(-c7cccc(S(=O)(=O)[O-])c7F)c7ccc4[nH]7)C=C6)C=C5)cc3)[C@H](c3ccccc3C)C2)cs1
REMARK SMILES IDX 15 1 14 2 13 3 11 4 12 5 10 7 8 8 9 9 91 10 83 11 6 12 7 13
REMARK SMILES IDX 5 14 3 15 4 16 93 17 92 18 2 19 1 20 84 22 85 23 89 24 86 25
REMARK SMILES IDX 88 26 90 27 87 28 16 29 17 30 18 31 19 33 20 34 21 35 82 36
REMARK SMILES IDX 22 37 81 38 23 39 24 40 25 41 75 42 26 43 80 44 74 45 76 46
REMARK SMILES IDX 27 47 79 48 73 49 72 50 28 52 60 53 40 54 59 55 41 56 44 57
REMARK SMILES IDX 58 58 77 59 42 60 43 61 57 63 78 64 45 65 29 66 30 67 38 68
REMARK SMILES IDX 31 69 33 70 39 71 32 72 34 73 35 74 36 75 37 76 61 77 62 78
REMARK SMILES IDX 70 79 63 80 65 81 71 82 64 83 66 84 67 85 68 86 69 87 46 88
REMARK SMILES IDX 47 89 55 90 48 91 50 92 56 93 49 94 51 95 52 96 53 97 54 98
REMARK H PARENT 13 6 2 21 17 32 76 51 44 62
REMARK Flexibility Score: inf
ROOT
ATOM      1  C   UNL A   1      31.229  31.834  26.307  1.00  0.00     0.042 C 
ENDROOT
BRANCH   1   2
ATOM      2  C   UNL A   1      31.252  30.402  25.785  1.00  0.00     0.117 C 
BRANCH   2   3
ATOM      3  N   UNL A   1      32.575  29.797  25.825  1.00  0.00    -0.356 N 
ATOM      4  C   UNL A   1      33.039  28.628  25.308  1.00  0.00     0.225 C 
ATOM      5  O   UNL A   1      34.182  28.683  24.838  1.00  0.00    -0.275 OA
ATOM      6  H   UNL A   1      33.250  30.324  26.310  1.00  0.00     0.163 HD
BRANCH   4   7
ATOM      7  C   UNL A   1      32.313  27.291  25.354  1.00  0.00     0.107 C 
ATOM      8  N   UNL A   1      32.314  24.995  25.501  1.00  0.00    -0.336 N 
ATOM      9  C   UNL A   1      33.122  26.126  25.862  1.00  0.00     0.134 C 
ATOM     10  C   UNL A   1      31.856  25.193  24.139  1.00  0.00     0.129 C 
ATOM     11  C   UNL A   1      31.723  26.756  24.003  1.00  0.00     0.053 C 
BRANCH   8  12
ATOM     12  C   UNL A   1      31.993  23.915  26.300  1.00  0.00     0.273 C 
ATOM     13  O   UNL A   1      31.355  24.026  27.343  1.00  0.00    -0.267 OA
BRANCH  12  14
ATOM     14  C   UNL A   1      32.506  22.611  25.850  1.00  0.00     0.141 A 
ATOM     15  C   UNL A   1      34.118  21.114  25.451  1.00  0.00     0.183 A 
ATOM     16  N   UNL A   1      33.877  22.338  25.846  1.00  0.00    -0.215 NA
ATOM     17  S   UNL A   1      32.715  20.214  25.021  1.00  0.00    -0.105 S 
ATOM     18  C   UNL A   1      31.722  21.545  25.454  1.00  0.00     0.102 A 
BRANCH  15  19
ATOM     19  N   UNL A   1      35.345  20.563  25.383  1.00  0.00    -0.365 N 
ATOM     20  C   UNL A   1      36.528  21.384  25.471  1.00  0.00     0.142 C 
ATOM     21  H   UNL A   1      35.435  19.588  25.271  1.00  0.00     0.162 HD
ENDBRANCH  15  19
ENDBRANCH  12  14
ENDBRANCH   8  12
BRANCH  11  22
ATOM     22  C   UNL A   1      30.308  27.278  23.704  1.00  0.00    -0.039 A 
ATOM     23  C   UNL A   1      29.171  26.595  24.192  1.00  0.00     0.004 A 
ATOM     24  C   UNL A   1      30.074  28.440  22.926  1.00  0.00    -0.048 A 
ATOM     25  C   UNL A   1      27.867  27.006  23.892  1.00  0.00     0.000 A 
ATOM     26  C   UNL A   1      28.751  28.867  22.676  1.00  0.00     0.004 A 
ATOM     27  C   UNL A   1      31.152  29.321  22.352  1.00  0.00     0.044 C 
ATOM     28  C   UNL A   1      27.656  28.146  23.137  1.00  0.00     0.000 A 
ENDBRANCH  11  22
ENDBRANCH   4   7
ENDBRANCH   2   3
ENDBRANCH   1   2
BRANCH   1  29
ATOM     29  C   UNL A   1      32.560  32.280  26.914  1.00  0.00     0.118 C 
BRANCH  29  30
ATOM     30  N   UNL A   1      32.492  33.630  27.468  1.00  0.00    -0.352 N 
ATOM     31  C   UNL A   1      33.221  34.217  28.474  1.00  0.00     0.251 C 
ATOM     32  H   UNL A   1      31.814  34.213  27.055  1.00  0.00     0.163 HD
ATOM     33  O   UNL A   1      32.860  35.299  28.929  1.00  0.00    -0.269 OA
BRANCH  31  34
ATOM     34  C   UNL A   1      34.429  33.555  29.008  1.00  0.00     0.039 A 
ATOM     35  C   UNL A   1      35.679  33.880  28.470  1.00  0.00     0.014 A 
ATOM     36  C   UNL A   1      34.327  32.592  30.014  1.00  0.00     0.014 A 
ATOM     37  C   UNL A   1      36.834  33.290  28.991  1.00  0.00     0.010 A 
ATOM     38  C   UNL A   1      35.481  32.054  30.574  1.00  0.00     0.010 A 
ATOM     39  C   UNL A   1      36.744  32.397  30.070  1.00  0.00    -0.014 A 
BRANCH  39  40
ATOM     40  C   UNL A   1      37.949  31.815  30.711  1.00  0.00     0.031 A 
ATOM     41  C   UNL A   1      38.743  30.755  29.997  1.00  0.00     0.074 A 
ATOM     42  C   UNL A   1      38.245  32.141  31.985  1.00  0.00     0.049 A 
ATOM     43  N   UNL A   1      39.721  30.014  30.446  1.00  0.00    -0.248 NA
ATOM     44  C   UNL A   1      38.361  30.467  28.604  1.00  0.00     0.031 C 
ATOM     45  C   UNL A   1      37.503  33.099  32.808  1.00  0.00     0.029 A 
ATOM     46  N   UNL A   1      39.221  31.668  32.827  1.00  0.00    -0.354 N 
ATOM     47  C   UNL A   1      40.037  29.137  29.415  1.00  0.00     0.074 A 
ATOM     48  C   UNL A   1      39.134  29.427  28.322  1.00  0.00     0.031 C 
ATOM     49  C   UNL A   1      38.043  33.135  34.036  1.00  0.00     0.029 A 
ATOM     50  C   UNL A   1      39.147  32.183  34.099  1.00  0.00     0.049 A 
ATOM     51  H   UNL A   1      39.909  31.022  32.545  1.00  0.00     0.167 HD
ATOM     52  C   UNL A   1      41.008  28.195  29.372  1.00  0.00     0.034 A 
ATOM     53  C   UNL A   1      39.878  31.910  35.199  1.00  0.00     0.034 A 
ATOM     54  C   UNL A   1      41.944  27.958  30.436  1.00  0.00     0.049 A 
ATOM     55  C   UNL A   1      40.998  30.910  35.100  1.00  0.00     0.074 A 
ATOM     56  C   UNL A   1      43.024  27.091  30.456  1.00  0.00     0.029 A 
ATOM     57  N   UNL A   1      41.920  28.594  31.667  1.00  0.00    -0.354 N 
ATOM     58  N   UNL A   1      41.376  30.196  34.067  1.00  0.00    -0.248 NA
ATOM     59  C   UNL A   1      41.815  30.703  36.305  1.00  0.00     0.031 C 
ATOM     60  C   UNL A   1      43.650  27.203  31.702  1.00  0.00     0.029 A 
ATOM     61  C   UNL A   1      42.966  28.144  32.453  1.00  0.00     0.049 A 
ATOM     62  H   UNL A   1      41.254  29.267  31.942  1.00  0.00     0.167 HD
ATOM     63  C   UNL A   1      42.496  29.487  34.485  1.00  0.00     0.074 A 
ATOM     64  C   UNL A   1      42.743  29.866  35.860  1.00  0.00     0.031 C 
ATOM     65  C   UNL A   1      43.241  28.588  33.795  1.00  0.00     0.034 A 
BRANCH  52  66
ATOM     66  C   UNL A   1      41.150  27.393  28.105  1.00  0.00     0.023 A 
ATOM     67  C   UNL A   1      41.723  27.997  26.967  1.00  0.00     0.012 A 
ATOM     68  C   UNL A   1      40.772  26.038  28.052  1.00  0.00     0.148 A 
ATOM     69  C   UNL A   1      41.890  27.275  25.787  1.00  0.00     0.002 A 
ATOM     70  C   UNL A   1      40.979  25.313  26.883  1.00  0.00     0.091 A 
ATOM     71  F   UNL A   1      40.207  25.487  29.135  1.00  0.00    -0.205 F 
ATOM     72  C   UNL A   1      41.527  25.930  25.748  1.00  0.00     0.022 A 
BRANCH  70  73
ATOM     73  S   UNL A   1      40.612  23.557  26.761  1.00  0.00     0.127 S 
ATOM     74  O   UNL A   1      41.568  23.126  25.744  1.00  0.00    -0.237 OA
ATOM     75  O   UNL A   1      40.906  23.083  28.114  1.00  0.00    -0.237 OA
ATOM     76  O   UNL A   1      39.207  23.470  26.384  1.00  0.00    -0.744 OA
ENDBRANCH  70  73
ENDBRANCH  52  66
BRANCH  53  77
ATOM     77  C   UNL A   1      39.622  32.657  36.462  1.00  0.00     0.023 A 
ATOM     78  C   UNL A   1      40.302  33.869  36.689  1.00  0.00     0.012 A 
ATOM     79  C   UNL A   1      38.684  32.207  37.410  1.00  0.00     0.148 A 
ATOM     80  C   UNL A   1      40.072  34.608  37.850  1.00  0.00     0.002 A 
ATOM     81  C   UNL A   1      38.422  32.975  38.540  1.00  0.00     0.091 A 
ATOM     82  F   UNL A   1      38.057  31.044  37.184  1.00  0.00    -0.205 F 
ATOM     83  C   UNL A   1      39.125  34.167  38.770  1.00  0.00     0.022 A 
BRANCH  81  84
ATOM     84  S   UNL A   1      37.121  32.548  39.704  1.00  0.00     0.127 S 
ATOM     85  O   UNL A   1      37.538  31.221  40.147  1.00  0.00    -0.237 OA
ATOM     86  O   UNL A   1      37.250  33.604  40.710  1.00  0.00    -0.237 OA
ATOM     87  O   UNL A   1      35.882  32.607  38.938  1.00  0.00    -0.744 OA
ENDBRANCH  81  84
ENDBRANCH  53  77
BRANCH  65  88
ATOM     88  C   UNL A   1      44.426  27.979  34.493  1.00  0.00     0.023 A 
ATOM     89  C   UNL A   1      45.666  28.645  34.470  1.00  0.00     0.012 A 
ATOM     90  C   UNL A   1      44.285  26.799  35.249  1.00  0.00     0.148 A 
ATOM     91  C   UNL A   1      46.756  28.134  35.174  1.00  0.00     0.002 A 
ATOM     92  C   UNL A   1      45.364  26.319  35.982  1.00  0.00     0.091 A 
ATOM     93  F   UNL A   1      43.101  26.169  35.239  1.00  0.00    -0.205 F 
ATOM     94  C   UNL A   1      46.602  26.980  35.938  1.00  0.00     0.022 A 
BRANCH  92  95
ATOM     95  S   UNL A   1      45.226  24.892  37.066  1.00  0.00     0.127 S 
ATOM     96  O   UNL A   1      46.591  24.772  37.576  1.00  0.00    -0.237 OA
ATOM     97  O   UNL A   1      44.244  25.343  38.053  1.00  0.00    -0.237 OA
ATOM     98  O   UNL A   1      44.771  23.795  36.223  1.00  0.00    -0.744 OA
ENDBRANCH  92  95
ENDBRANCH  65  88
ENDBRANCH  39  40
ENDBRANCH  31  34
ENDBRANCH  29  30
ENDBRANCH   1  29
TORSDOF 17
ENDMDL
MODEL 2
REMARK VINA RESULT:     -12.2      1.871      2.786
REMARK SMILES CNc1nc(C(=O)N2C[C@@H](C(=O)NCCCNC(=O)c3ccc(-c4c5nc(c(-c6cccc(S(=O)(=O)[O-])c6F)c6ccc([nH]6)c(-c6cccc(S(=O)(=O)[O-])c6F)c6nc(c(-c7cccc(S(=O)(=O)[O-])c7F)c7ccc4[nH]7)C=C6)C=C5)cc3)[C@H](c3ccccc3C)C2)cs1
REMARK SMILES IDX 15 1 14 2 13 3 11 4 12 5 10 7 8 8 9 9 91 10 83 11 6 12 7 13
REMARK SMILES IDX 5 14 3 15 4 16 93 17 92 18 2 19 1 20 84 22 85 23 89 24 86 25
REMARK SMILES IDX 88 26 90 27 87 28 16 29 17 30 18 31 19 33 20 34 21 35 82 36
REMARK SMILES IDX 22 37 81 38 23 39 24 40 25 41 75 42 26 43 80 44 74 45 76 46
REMARK SMILES IDX 27 47 79 48 73 49 72 50 28 52 60 53 40 54 59 55 41 56 44 57
REMARK SMILES IDX 58 58 77 59 42 60 43 61 57 63 78 64 45 65 29 66 30 67 38 68
REMARK SMILES IDX 31 69 33 70 39 71 32 72 34 73 35 74 36 75 37 76 61 77 62 78
REMARK SMILES IDX 70 79 63 80 65 81 71 82 64 83 66 84 67 85 68 86 69 87 46 88
REMARK SMILES IDX 47 89 55 90 48 91 50 92 56 93 49 94 51 95 52 96 53 97 54 98
REMARK H PARENT 13 6 2 21 17 32 76 51 44 62
REMARK Flexibility Score: inf
ROOT
ATOM      1  C   UNL A   1      33.450  29.082  23.211  1.00  0.00     0.042 C 
ENDROOT
BRANCH   1   2
ATOM      2  C   UNL A   1      32.481  28.019  22.707  1.00  0.00     0.117 C 
BRANCH   2   3
ATOM      3  N   UNL A   1      33.076  27.110  21.739  1.00  0.00    -0.356 N 
ATOM      4  C   UNL A   1      32.957  25.765  21.586  1.00  0.00     0.225 C 
ATOM      5  O   UNL A   1      32.907  25.375  20.412  1.00  0.00    -0.275 OA
ATOM      6  H   UNL A   1      33.668  27.544  21.083  1.00  0.00     0.163 HD
BRANCH   4   7
ATOM      7  C   UNL A   1      32.975  24.742  22.713  1.00  0.00     0.107 C 
ATOM      8  N   UNL A   1      32.939  22.569  23.470  1.00  0.00    -0.336 N 
ATOM      9  C   UNL A   1      33.299  23.327  22.305  1.00  0.00     0.134 C 
ATOM     10  C   UNL A   1      31.655  23.055  23.937  1.00  0.00     0.129 C 
ATOM     11  C   UNL A   1      31.658  24.581  23.549  1.00  0.00     0.053 C 
BRANCH   8  12
ATOM     12  C   UNL A   1      33.680  21.572  24.074  1.00  0.00     0.273 C 
ATOM     13  O   UNL A   1      33.271  20.421  24.197  1.00  0.00    -0.267 OA
BRANCH  12  14
ATOM     14  C   UNL A   1      34.986  21.983  24.614  1.00  0.00     0.141 A 
ATOM     15  C   UNL A   1      37.100  21.632  25.248  1.00  0.00     0.183 A 
ATOM     16  N   UNL A   1      36.014  21.056  24.800  1.00  0.00    -0.215 NA
ATOM     17  S   UNL A   1      36.952  23.327  25.511  1.00  0.00    -0.105 S 
ATOM     18  C   UNL A   1      35.340  23.282  24.926  1.00  0.00     0.102 A 
BRANCH  15  19
ATOM     19  N   UNL A   1      38.261  20.991  25.486  1.00  0.00    -0.365 N 
ATOM     20  C   UNL A   1      38.475  19.649  25.001  1.00  0.00     0.142 C 
ATOM     21  H   UNL A   1      38.971  21.443  25.997  1.00  0.00     0.162 HD
ENDBRANCH  15  19
ENDBRANCH  12  14
ENDBRANCH   8  12
BRANCH  11  22
ATOM     22  C   UNL A   1      31.556  25.565  24.725  1.00  0.00    -0.039 A 
ATOM     23  C   UNL A   1      32.580  25.634  25.697  1.00  0.00     0.004 A 
ATOM     24  C   UNL A   1      30.445  26.428  24.901  1.00  0.00    -0.048 A 
ATOM     25  C   UNL A   1      32.494  26.474  26.813  1.00  0.00     0.000 A 
ATOM     26  C   UNL A   1      30.401  27.305  26.007  1.00  0.00     0.004 A 
ATOM     27  C   UNL A   1      29.276  26.529  23.956  1.00  0.00     0.044 C 
ATOM     28  C   UNL A   1      31.406  27.315  26.967  1.00  0.00     0.000 A 
ENDBRANCH  11  22
ENDBRANCH   4   7
ENDBRANCH   2   3
ENDBRANCH   1   2
BRANCH   1  29
ATOM     29  C   UNL A   1      33.656  29.047  24.726  1.00  0.00     0.118 C 
BRANCH  29  30
ATOM     30  N   UNL A   1      32.904  30.095  25.412  1.00  0.00    -0.352 N 
ATOM     31  C   UNL A   1      33.140  30.717  26.614  1.00  0.00     0.251 C 
ATOM     32  H   UNL A   1      32.100  30.406  24.937  1.00  0.00     0.163 HD
ATOM     33  O   UNL A   1      32.267  31.425  27.109  1.00  0.00    -0.269 OA
BRANCH  31  34
ATOM     34  C   UNL A   1      34.430  30.537  27.311  1.00  0.00     0.039 A 
ATOM     35  C   UNL A   1      35.198  31.663  27.624  1.00  0.00     0.014 A 
ATOM     36  C   UNL A   1      34.897  29.259  27.625  1.00  0.00     0.014 A 
ATOM     37  C   UNL A   1      36.403  31.511  28.316  1.00  0.00     0.010 A 
ATOM     38  C   UNL A   1      36.063  29.114  28.369  1.00  0.00     0.010 A 
ATOM     39  C   UNL A   1      36.827  30.236  28.723  1.00  0.00    -0.014 A 
BRANCH  39  40
ATOM     40  C   UNL A   1      38.053  30.037  29.535  1.00  0.00     0.031 A 
ATOM     41  C   UNL A   1      39.133  29.108  29.050  1.00  0.00     0.074 A 
ATOM     42  C   UNL A   1      38.129  30.582  30.766  1.00  0.00     0.049 A 
ATOM     43  N   UNL A   1      40.195  28.679  29.679  1.00  0.00    -0.248 NA
ATOM     44  C   UNL A   1      38.978  28.565  27.690  1.00  0.00     0.031 C 
ATOM     45  C   UNL A   1      37.109  31.437  31.377  1.00  0.00     0.029 A 
ATOM     46  N   UNL A   1      39.087  30.460  31.741  1.00  0.00    -0.354 N 
ATOM     47  C   UNL A   1      40.806  27.776  28.816  1.00  0.00     0.074 A 
ATOM     48  C   UNL A   1      39.987  27.707  27.626  1.00  0.00     0.031 C 
ATOM     49  C   UNL A   1      37.491  31.754  32.625  1.00  0.00     0.029 A 
ATOM     50  C   UNL A   1      38.763  31.101  32.913  1.00  0.00     0.049 A 
ATOM     51  H   UNL A   1      39.927  29.961  31.613  1.00  0.00     0.167 HD
ATOM     52  C   UNL A   1      41.959  27.089  28.989  1.00  0.00     0.034 A 
ATOM     53  C   UNL A   1      39.412  31.147  34.094  1.00  0.00     0.034 A 
ATOM     54  C   UNL A   1      42.803  27.213  30.146  1.00  0.00     0.049 A 
ATOM     55  C   UNL A   1      40.728  30.431  34.232  1.00  0.00     0.074 A 
ATOM     56  C   UNL A   1      44.038  26.631  30.377  1.00  0.00     0.029 A 
ATOM     57  N   UNL A   1      42.505  27.977  31.263  1.00  0.00    -0.354 N 
ATOM     58  N   UNL A   1      41.364  29.700  33.350  1.00  0.00    -0.248 NA
ATOM     59  C   UNL A   1      41.434  30.575  35.514  1.00  0.00     0.031 C 
ATOM     60  C   UNL A   1      44.484  27.042  31.638  1.00  0.00     0.029 A 
ATOM     61  C   UNL A   1      43.532  27.887  32.186  1.00  0.00     0.049 A 
ATOM     62  H   UNL A   1      41.683  28.505  31.383  1.00  0.00     0.167 HD
ATOM     63  C   UNL A   1      42.560  29.329  33.953  1.00  0.00     0.074 A 
ATOM     64  C   UNL A   1      42.567  29.928  35.272  1.00  0.00     0.031 C 
ATOM     65  C   UNL A   1      43.555  28.549  33.464  1.00  0.00     0.034 A 
BRANCH  52  66
ATOM     66  C   UNL A   1      42.412  26.187  27.870  1.00  0.00     0.023 A 
ATOM     67  C   UNL A   1      43.349  26.668  26.933  1.00  0.00     0.012 A 
ATOM     68  C   UNL A   1      41.959  24.858  27.774  1.00  0.00     0.148 A 
ATOM     69  C   UNL A   1      43.805  25.852  25.900  1.00  0.00     0.002 A 
ATOM     70  C   UNL A   1      42.448  24.036  26.765  1.00  0.00     0.091 A 
ATOM     71  F   UNL A   1      41.049  24.425  28.659  1.00  0.00    -0.205 F 
ATOM     72  C   UNL A   1      43.362  24.533  25.822  1.00  0.00     0.022 A 
BRANCH  70  73
ATOM     73  S   UNL A   1      41.994  22.303  26.627  1.00  0.00     0.127 S 
ATOM     74  O   UNL A   1      42.651  21.924  25.377  1.00  0.00    -0.237 OA
ATOM     75  O   UNL A   1      42.596  21.727  27.830  1.00  0.00    -0.237 OA
ATOM     76  O   UNL A   1      40.538  22.274  26.608  1.00  0.00    -0.744 OA
ENDBRANCH  70  73
ENDBRANCH  52  66
BRANCH  53  77
ATOM     77  C   UNL A   1      38.862  31.969  35.209  1.00  0.00     0.023 A 
ATOM     78  C   UNL A   1      38.814  33.369  35.067  1.00  0.00     0.012 A 
ATOM     79  C   UNL A   1      38.346  31.379  36.378  1.00  0.00     0.148 A 
ATOM     80  C   UNL A   1      38.285  34.170  36.080  1.00  0.00     0.002 A 
ATOM     81  C   UNL A   1      37.774  32.178  37.361  1.00  0.00     0.091 A 
ATOM     82  F   UNL A   1      38.414  30.045  36.502  1.00  0.00    -0.205 F 
ATOM     83  C   UNL A   1      37.756  33.575  37.222  1.00  0.00     0.022 A 
BRANCH  81  84
ATOM     84  S   UNL A   1      36.948  31.483  38.798  1.00  0.00     0.127 S 
ATOM     85  O   UNL A   1      35.756  32.321  38.893  1.00  0.00    -0.237 OA
ATOM     86  O   UNL A   1      36.700  30.104  38.372  1.00  0.00    -0.237 OA
ATOM     87  O   UNL A   1      37.905  31.604  39.890  1.00  0.00    -0.744 OA
ENDBRANCH  81  84
ENDBRANCH  53  77
BRANCH  65  88
ATOM     88  C   UNL A   1      44.762  28.326  34.335  1.00  0.00     0.023 A 
ATOM     89  C   UNL A   1      45.884  29.166  34.198  1.00  0.00     0.012 A 
ATOM     90  C   UNL A   1      44.745  27.349  35.348  1.00  0.00     0.148 A 
ATOM     91  C   UNL A   1      46.981  29.022  35.046  1.00  0.00     0.002 A 
ATOM     92  C   UNL A   1      45.824  27.240  36.217  1.00  0.00     0.091 A 
ATOM     93  F   UNL A   1      43.675  26.546  35.447  1.00  0.00    -0.205 F 
ATOM     94  C   UNL A   1      46.946  28.070  36.062  1.00  0.00     0.022 A 
BRANCH  92  95
ATOM     95  S   UNL A   1      45.821  26.104  37.609  1.00  0.00     0.127 S 
ATOM     96  O   UNL A   1      45.800  24.807  36.935  1.00  0.00    -0.237 OA
ATOM     97  O   UNL A   1      47.084  26.423  38.277  1.00  0.00    -0.237 OA
ATOM     98  O   UNL A   1      44.632  26.428  38.385  1.00  0.00    -0.744 OA
ENDBRANCH  92  95
ENDBRANCH  65  88
ENDBRANCH  39  40
ENDBRANCH  31  34
ENDBRANCH  29  30
ENDBRANCH   1  29
TORSDOF 17
ENDMDL
MODEL 3
REMARK VINA RESULT:     -12.2      1.814      2.362
REMARK SMILES CNc1nc(C(=O)N2C[C@@H](C(=O)NCCCNC(=O)c3ccc(-c4c5nc(c(-c6cccc(S(=O)(=O)[O-])c6F)c6ccc([nH]6)c(-c6cccc(S(=O)(=O)[O-])c6F)c6nc(c(-c7cccc(S(=O)(=O)[O-])c7F)c7ccc4[nH]7)C=C6)C=C5)cc3)[C@H](c3ccccc3C)C2)cs1
REMARK SMILES IDX 15 1 14 2 13 3 11 4 12 5 10 7 8 8 9 9 91 10 83 11 6 12 7 13
REMARK SMILES IDX 5 14 3 15 4 16 93 17 92 18 2 19 1 20 84 22 85 23 89 24 86 25
REMARK SMILES IDX 88 26 90 27 87 28 16 29 17 30 18 31 19 33 20 34 21 35 82 36
REMARK SMILES IDX 22 37 81 38 23 39 24 40 25 41 75 42 26 43 80 44 74 45 76 46
REMARK SMILES IDX 27 47 79 48 73 49 72 50 28 52 60 53 40 54 59 55 41 56 44 57
REMARK SMILES IDX 58 58 77 59 42 60 43 61 57 63 78 64 45 65 29 66 30 67 38 68
REMARK SMILES IDX 31 69 33 70 39 71 32 72 34 73 35 74 36 75 37 76 61 77 62 78
REMARK SMILES IDX 70 79 63 80 65 81 71 82 64 83 66 84 67 85 68 86 69 87 46 88
REMARK SMILES IDX 47 89 55 90 48 91 50 92 56 93 49 94 51 95 52 96 53 97 54 98
REMARK H PARENT 13 6 2 21 17 32 76 51 44 62
REMARK Flexibility Score: inf
ROOT
ATOM      1  C   UNL A   1      31.554  31.972  26.810  1.00  0.00     0.042 C 
ENDROOT
BRANCH   1   2
ATOM      2  C   UNL A   1      31.832  30.787  25.894  1.00  0.00     0.117 C 
BRANCH   2   3
ATOM      3  N   UNL A   1      31.639  29.499  26.545  1.00  0.00    -0.356 N 
ATOM      4  C   UNL A   1      32.042  28.250  26.191  1.00  0.00     0.225 C 
ATOM      5  O   UNL A   1      32.412  27.535  27.131  1.00  0.00    -0.275 OA
ATOM      6  H   UNL A   1      31.129  29.540  27.386  1.00  0.00     0.163 HD
BRANCH   4   7
ATOM      7  C   UNL A   1      31.980  27.666  24.787  1.00  0.00     0.107 C 
ATOM      8  N   UNL A   1      32.997  26.888  22.875  1.00  0.00    -0.336 N 
ATOM      9  C   UNL A   1      33.260  27.055  24.277  1.00  0.00     0.134 C 
ATOM     10  C   UNL A   1      32.373  28.105  22.391  1.00  0.00     0.129 C 
ATOM     11  C   UNL A   1      31.559  28.637  23.630  1.00  0.00     0.053 C 
BRANCH   8  12
ATOM     12  C   UNL A   1      33.255  25.767  22.109  1.00  0.00     0.273 C 
ATOM     13  O   UNL A   1      33.277  25.791  20.882  1.00  0.00    -0.267 OA
BRANCH  12  14
ATOM     14  C   UNL A   1      33.456  24.515  22.856  1.00  0.00     0.141 A 
ATOM     15  C   UNL A   1      34.700  22.928  23.820  1.00  0.00     0.183 A 
ATOM     16  N   UNL A   1      34.740  24.025  23.109  1.00  0.00    -0.215 NA
ATOM     17  S   UNL A   1      33.111  22.386  24.206  1.00  0.00    -0.105 S 
ATOM     18  C   UNL A   1      32.447  23.754  23.411  1.00  0.00     0.102 A 
BRANCH  15  19
ATOM     19  N   UNL A   1      35.785  22.253  24.245  1.00  0.00    -0.365 N 
ATOM     20  C   UNL A   1      35.786  21.589  25.525  1.00  0.00     0.142 C 
ATOM     21  H   UNL A   1      36.588  22.214  23.675  1.00  0.00     0.162 HD
ENDBRANCH  15  19
ENDBRANCH  12  14
ENDBRANCH   8  12
BRANCH  11  22
ATOM     22  C   UNL A   1      30.037  28.731  23.433  1.00  0.00    -0.039 A 
ATOM     23  C   UNL A   1      29.425  29.968  23.133  1.00  0.00     0.004 A 
ATOM     24  C   UNL A   1      29.184  27.605  23.554  1.00  0.00    -0.048 A 
ATOM     25  C   UNL A   1      28.038  30.103  23.005  1.00  0.00     0.000 A 
ATOM     26  C   UNL A   1      27.791  27.753  23.372  1.00  0.00     0.004 A 
ATOM     27  C   UNL A   1      29.649  26.199  23.832  1.00  0.00     0.044 C 
ATOM     28  C   UNL A   1      27.219  28.994  23.119  1.00  0.00     0.000 A 
ENDBRANCH  11  22
ENDBRANCH   4   7
ENDBRANCH   2   3
ENDBRANCH   1   2
BRANCH   1  29
ATOM     29  C   UNL A   1      32.823  32.664  27.310  1.00  0.00     0.118 C 
BRANCH  29  30
ATOM     30  N   UNL A   1      32.585  34.055  27.687  1.00  0.00    -0.352 N 
ATOM     31  C   UNL A   1      33.137  34.811  28.693  1.00  0.00     0.251 C 
ATOM     32  H   UNL A   1      31.923  34.526  27.131  1.00  0.00     0.163 HD
ATOM     33  O   UNL A   1      32.642  35.900  28.969  1.00  0.00    -0.269 OA
BRANCH  31  34
ATOM     34  C   UNL A   1      34.314  34.322  29.439  1.00  0.00     0.039 A 
ATOM     35  C   UNL A   1      34.122  33.635  30.642  1.00  0.00     0.014 A 
ATOM     36  C   UNL A   1      35.606  34.570  28.970  1.00  0.00     0.014 A 
ATOM     37  C   UNL A   1      35.225  33.135  31.339  1.00  0.00     0.010 A 
ATOM     38  C   UNL A   1      36.698  34.017  29.631  1.00  0.00     0.010 A 
ATOM     39  C   UNL A   1      36.519  33.293  30.820  1.00  0.00    -0.014 A 
BRANCH  39  40
ATOM     40  C   UNL A   1      37.710  32.703  31.481  1.00  0.00     0.031 A 
ATOM     41  C   UNL A   1      38.427  31.545  30.843  1.00  0.00     0.074 A 
ATOM     42  C   UNL A   1      38.058  33.120  32.714  1.00  0.00     0.049 A 
ATOM     43  N   UNL A   1      39.378  30.793  31.331  1.00  0.00    -0.248 NA
ATOM     44  C   UNL A   1      37.992  31.160  29.489  1.00  0.00     0.031 C 
ATOM     45  C   UNL A   1      37.390  34.184  33.468  1.00  0.00     0.029 A 
ATOM     46  N   UNL A   1      39.032  32.669  33.570  1.00  0.00    -0.354 N 
ATOM     47  C   UNL A   1      39.619  29.816  30.372  1.00  0.00     0.074 A 
ATOM     48  C   UNL A   1      38.702  30.060  29.280  1.00  0.00     0.031 C 
ATOM     49  C   UNL A   1      37.966  34.295  34.676  1.00  0.00     0.029 A 
ATOM     50  C   UNL A   1      39.020  33.294  34.795  1.00  0.00     0.049 A 
ATOM     51  H   UNL A   1      39.677  31.965  33.330  1.00  0.00     0.167 HD
ATOM     52  C   UNL A   1      40.538  28.823  30.388  1.00  0.00     0.034 A 
ATOM     53  C   UNL A   1      39.766  33.077  35.896  1.00  0.00     0.034 A 
ATOM     54  C   UNL A   1      41.491  28.627  31.447  1.00  0.00     0.049 A 
ATOM     55  C   UNL A   1      40.830  32.013  35.858  1.00  0.00     0.074 A 
ATOM     56  C   UNL A   1      42.524  27.708  31.516  1.00  0.00     0.029 A 
ATOM     57  N   UNL A   1      41.534  29.366  32.619  1.00  0.00    -0.354 N 
ATOM     58  N   UNL A   1      41.141  31.194  34.883  1.00  0.00    -0.248 NA
ATOM     59  C   UNL A   1      41.669  31.866  37.057  1.00  0.00     0.031 C 
ATOM     60  C   UNL A   1      43.189  27.891  32.733  1.00  0.00     0.029 A 
ATOM     61  C   UNL A   1      42.577  28.929  33.416  1.00  0.00     0.049 A 
ATOM     62  H   UNL A   1      40.912  30.095  32.850  1.00  0.00     0.167 HD
ATOM     63  C   UNL A   1      42.234  30.463  35.334  1.00  0.00     0.074 A 
ATOM     64  C   UNL A   1      42.540  30.945  36.665  1.00  0.00     0.031 C 
ATOM     65  C   UNL A   1      42.912  29.471  34.707  1.00  0.00     0.034 A 
BRANCH  52  66
ATOM     66  C   UNL A   1      40.603  27.909  29.193  1.00  0.00     0.023 A 
ATOM     67  C   UNL A   1      39.719  26.813  29.114  1.00  0.00     0.012 A 
ATOM     68  C   UNL A   1      41.491  28.158  28.129  1.00  0.00     0.148 A 
ATOM     69  C   UNL A   1      39.738  25.963  28.010  1.00  0.00     0.002 A 
ATOM     70  C   UNL A   1      41.476  27.329  27.013  1.00  0.00     0.091 A 
ATOM     71  F   UNL A   1      42.341  29.190  28.232  1.00  0.00    -0.205 F 
ATOM     72  C   UNL A   1      40.609  26.226  26.956  1.00  0.00     0.022 A 
BRANCH  70  73
ATOM     73  S   UNL A   1      42.510  27.631  25.574  1.00  0.00     0.127 S 
ATOM     74  O   UNL A   1      43.844  27.660  26.170  1.00  0.00    -0.237 OA
ATOM     75  O   UNL A   1      42.238  26.458  24.743  1.00  0.00    -0.237 OA
ATOM     76  O   UNL A   1      42.044  28.891  25.009  1.00  0.00    -0.744 OA
ENDBRANCH  70  73
ENDBRANCH  52  66
BRANCH  53  77
ATOM     77  C   UNL A   1      39.585  33.942  37.096  1.00  0.00     0.023 A 
ATOM     78  C   UNL A   1      40.009  35.284  37.041  1.00  0.00     0.012 A 
ATOM     79  C   UNL A   1      38.959  33.466  38.262  1.00  0.00     0.148 A 
ATOM     80  C   UNL A   1      39.836  36.131  38.136  1.00  0.00     0.002 A 
ATOM     81  C   UNL A   1      38.743  34.329  39.332  1.00  0.00     0.091 A 
ATOM     82  F   UNL A   1      38.575  32.182  38.302  1.00  0.00    -0.205 F 
ATOM     83  C   UNL A   1      39.194  35.657  39.277  1.00  0.00     0.022 A 
BRANCH  81  84
ATOM     84  S   UNL A   1      37.803  33.837  40.782  1.00  0.00     0.127 S 
ATOM     85  O   UNL A   1      36.646  33.180  40.181  1.00  0.00    -0.237 OA
ATOM     86  O   UNL A   1      38.737  32.940  41.464  1.00  0.00    -0.237 OA
ATOM     87  O   UNL A   1      37.533  35.073  41.505  1.00  0.00    -0.744 OA
ENDBRANCH  81  84
ENDBRANCH  53  77
BRANCH  65  88
ATOM     88  C   UNL A   1      44.083  28.860  35.427  1.00  0.00     0.023 A 
ATOM     89  C   UNL A   1      45.366  29.419  35.270  1.00  0.00     0.012 A 
ATOM     90  C   UNL A   1      43.895  27.796  36.330  1.00  0.00     0.148 A 
ATOM     91  C   UNL A   1      46.449  28.913  35.988  1.00  0.00     0.002 A 
ATOM     92  C   UNL A   1      44.971  27.325  37.073  1.00  0.00     0.091 A 
ATOM     93  F   UNL A   1      42.669  27.264  36.448  1.00  0.00    -0.205 F 
ATOM     94  C   UNL A   1      46.250  27.877  36.897  1.00  0.00     0.022 A 
BRANCH  92  95
ATOM     95  S   UNL A   1      44.784  26.057  38.332  1.00  0.00     0.127 S 
ATOM     96  O   UNL A   1      46.176  25.758  38.664  1.00  0.00    -0.237 OA
ATOM     97  O   UNL A   1      44.046  26.762  39.381  1.00  0.00    -0.237 OA
ATOM     98  O   UNL A   1      44.043  24.975  37.700  1.00  0.00    -0.744 OA
ENDBRANCH  92  95
ENDBRANCH  65  88
ENDBRANCH  39  40
ENDBRANCH  31  34
ENDBRANCH  29  30
ENDBRANCH   1  29
TORSDOF 17
ENDMDL
