MODEL 1
REMARK VINA RESULT:     -13.7      0.000      0.000
REMARK SMILES C[N@H+]1CCO[C@H](c2noc(-c3ccccc3C(=O)NCCCNC(=O)c3ccc(-c4c5nc(c(-c6cccc(S(=O)(=O)[O-])c6F)c6ccc([nH]6)c(-c6cccc(S(=O)(=O)[O-])c6F)c6nc(c(-c7cccc(S(=O)(=O)[O-])c7F)c7ccc4[nH]7)C=C6)C=C5)cc3)n2)C1
REMARK SMILES IDX 21 1 20 2 19 3 17 4 18 5 16 7 11 8 12 9 13 10 15 11 14 12
REMARK SMILES IDX 10 13 7 14 8 15 89 16 9 17 6 18 1 19 2 20 3 21 90 22 4 24
REMARK SMILES IDX 5 25 22 26 23 27 24 28 25 30 26 31 27 32 88 33 28 34 87 35
REMARK SMILES IDX 29 36 30 37 31 38 81 39 32 40 86 41 80 42 82 43 33 44 85 45
REMARK SMILES IDX 79 46 78 47 34 49 66 50 46 51 65 52 47 53 50 54 64 55 83 56
REMARK SMILES IDX 48 57 49 58 63 60 84 61 51 62 35 63 36 64 44 65 37 66 39 67
REMARK SMILES IDX 45 68 38 69 40 70 41 71 42 72 43 73 67 74 68 75 76 76 69 77
REMARK SMILES IDX 71 78 77 79 70 80 72 81 73 82 74 83 75 84 52 85 53 86 61 87
REMARK SMILES IDX 54 88 56 89 62 90 55 91 57 92 58 93 59 94 60 95
REMARK H PARENT 19 6 2 23 23 29 82 48 50 59
REMARK Flexibility Score: inf
ROOT
ATOM      1  C   UNL A   1      35.787  22.126  25.160  1.00  0.00     0.042 C 
ENDROOT
BRANCH   1   2
ATOM      2  C   UNL A   1      35.758  23.175  26.264  1.00  0.00     0.118 C 
BRANCH   2   3
ATOM      3  N   UNL A   1      34.702  23.036  27.230  1.00  0.00    -0.352 N 
ATOM      4  C   UNL A   1      33.343  22.946  27.157  1.00  0.00     0.252 C 
ATOM      5  O   UNL A   1      32.815  22.454  28.163  1.00  0.00    -0.269 OA
ATOM      6  H   UNL A   1      35.036  22.995  28.155  1.00  0.00     0.163 HD
BRANCH   4   7
ATOM      7  C   UNL A   1      32.431  23.478  26.092  1.00  0.00     0.052 A 
ATOM      8  C   UNL A   1      31.824  22.871  24.976  1.00  0.00     0.053 A 
ATOM      9  C   UNL A   1      30.929  23.644  24.185  1.00  0.00     0.015 A 
ATOM     10  C   UNL A   1      30.634  24.977  24.467  1.00  0.00     0.001 A 
ATOM     11  C   UNL A   1      32.119  24.845  26.340  1.00  0.00     0.014 A 
ATOM     12  C   UNL A   1      31.239  25.585  25.549  1.00  0.00     0.001 A 
BRANCH   8  13
ATOM     13  C   UNL A   1      32.003  21.512  24.503  1.00  0.00     0.258 A 
ATOM     14  C   UNL A   1      32.273  19.469  24.063  1.00  0.00     0.206 A 
ATOM     15  N   UNL A   1      32.198  20.041  22.852  1.00  0.00    -0.059 NA
ATOM     16  N   UNL A   1      32.059  20.348  25.117  1.00  0.00    -0.189 NA
ATOM     17  O   UNL A   1      32.039  21.391  23.139  1.00  0.00    -0.334 OA
BRANCH  14  18
ATOM     18  C   UNL A   1      32.660  18.019  24.228  1.00  0.00     0.245 C 
ATOM     19  C   UNL A   1      32.315  15.254  25.734  1.00  0.00     0.332 C 
ATOM     20  N   UNL A   1      33.331  16.270  25.994  1.00  0.00    -0.333 N 
ATOM     21  C   UNL A   1      34.535  16.050  25.166  1.00  0.00     0.290 C 
ATOM     22  C   UNL A   1      32.837  17.645  25.726  1.00  0.00     0.303 C 
ATOM     23  H   UNL A   1      33.561  16.183  26.983  1.00  0.00     0.348 HD
ATOM     24  C   UNL A   1      34.301  16.369  23.685  1.00  0.00     0.222 C 
ATOM     25  O   UNL A   1      33.881  17.726  23.501  1.00  0.00    -0.358 OA
ENDBRANCH  14  18
ENDBRANCH   8  13
ENDBRANCH   4   7
ENDBRANCH   2   3
ENDBRANCH   1   2
BRANCH   1  26
ATOM     26  C   UNL A   1      37.197  21.855  24.619  1.00  0.00     0.118 C 
BRANCH  26  27
ATOM     27  N   UNL A   1      37.905  20.880  25.435  1.00  0.00    -0.352 N 
ATOM     28  C   UNL A   1      39.210  21.024  25.839  1.00  0.00     0.251 C 
ATOM     29  H   UNL A   1      37.420  20.070  25.715  1.00  0.00     0.163 HD
ATOM     30  O   UNL A   1      40.011  20.111  25.661  1.00  0.00    -0.269 OA
BRANCH  28  31
ATOM     31  C   UNL A   1      39.599  22.228  26.599  1.00  0.00     0.039 A 
ATOM     32  C   UNL A   1      39.215  23.481  26.124  1.00  0.00     0.014 A 
ATOM     33  C   UNL A   1      40.531  22.126  27.630  1.00  0.00     0.014 A 
ATOM     34  C   UNL A   1      39.839  24.634  26.591  1.00  0.00     0.010 A 
ATOM     35  C   UNL A   1      41.105  23.283  28.149  1.00  0.00     0.010 A 
ATOM     36  C   UNL A   1      40.807  24.541  27.596  1.00  0.00    -0.014 A 
BRANCH  36  37
ATOM     37  C   UNL A   1      41.569  25.721  28.068  1.00  0.00     0.031 A 
ATOM     38  C   UNL A   1      40.847  26.787  28.847  1.00  0.00     0.074 A 
ATOM     39  C   UNL A   1      42.848  25.888  27.686  1.00  0.00     0.049 A 
ATOM     40  N   UNL A   1      41.179  28.033  29.050  1.00  0.00    -0.248 NA
ATOM     41  C   UNL A   1      39.547  26.411  29.434  1.00  0.00     0.031 C 
ATOM     42  C   UNL A   1      43.637  24.921  26.922  1.00  0.00     0.029 A 
ATOM     43  N   UNL A   1      43.690  26.960  27.839  1.00  0.00    -0.354 N 
ATOM     44  C   UNL A   1      40.086  28.619  29.681  1.00  0.00     0.074 A 
ATOM     45  C   UNL A   1      39.094  27.582  29.862  1.00  0.00     0.031 C 
ATOM     46  C   UNL A   1      44.835  25.454  26.641  1.00  0.00     0.029 A 
ATOM     47  C   UNL A   1      44.870  26.820  27.146  1.00  0.00     0.049 A 
ATOM     48  H   UNL A   1      43.472  27.747  28.388  1.00  0.00     0.167 HD
ATOM     49  C   UNL A   1      39.931  29.909  30.061  1.00  0.00     0.034 A 
ATOM     50  C   UNL A   1      45.844  27.714  26.895  1.00  0.00     0.034 A 
ATOM     51  C   UNL A   1      40.978  30.891  29.963  1.00  0.00     0.049 A 
ATOM     52  C   UNL A   1      45.695  29.106  27.439  1.00  0.00     0.074 A 
ATOM     53  C   UNL A   1      40.978  32.201  30.406  1.00  0.00     0.029 A 
ATOM     54  N   UNL A   1      42.224  30.658  29.398  1.00  0.00    -0.354 N 
ATOM     55  N   UNL A   1      44.687  29.630  28.096  1.00  0.00    -0.248 NA
ATOM     56  C   UNL A   1      46.823  30.022  27.234  1.00  0.00     0.031 C 
ATOM     57  C   UNL A   1      42.225  32.762  30.107  1.00  0.00     0.029 A 
ATOM     58  C   UNL A   1      43.005  31.796  29.490  1.00  0.00     0.049 A 
ATOM     59  H   UNL A   1      42.510  29.808  28.991  1.00  0.00     0.167 HD
ATOM     60  C   UNL A   1      45.065  30.932  28.397  1.00  0.00     0.074 A 
ATOM     61  C   UNL A   1      46.411  31.102  27.884  1.00  0.00     0.031 C 
ATOM     62  C   UNL A   1      44.359  31.911  29.013  1.00  0.00     0.034 A 
BRANCH  49  63
ATOM     63  C   UNL A   1      38.606  30.333  30.641  1.00  0.00     0.023 A 
ATOM     64  C   UNL A   1      38.348  30.164  32.015  1.00  0.00     0.012 A 
ATOM     65  C   UNL A   1      37.642  30.973  29.832  1.00  0.00     0.148 A 
ATOM     66  C   UNL A   1      37.144  30.599  32.571  1.00  0.00     0.002 A 
ATOM     67  C   UNL A   1      36.463  31.441  30.402  1.00  0.00     0.091 A 
ATOM     68  F   UNL A   1      37.895  31.109  28.523  1.00  0.00    -0.205 F 
ATOM     69  C   UNL A   1      36.208  31.246  31.769  1.00  0.00     0.022 A 
BRANCH  67  70
ATOM     70  S   UNL A   1      35.225  32.358  29.473  1.00  0.00     0.127 S 
ATOM     71  O   UNL A   1      36.027  33.437  28.899  1.00  0.00    -0.237 OA
ATOM     72  O   UNL A   1      34.767  31.359  28.507  1.00  0.00    -0.237 OA
ATOM     73  O   UNL A   1      34.221  32.776  30.441  1.00  0.00    -0.744 OA
ENDBRANCH  67  70
ENDBRANCH  49  63
BRANCH  50  74
ATOM     74  C   UNL A   1      47.044  27.303  26.113  1.00  0.00     0.023 A 
ATOM     75  C   UNL A   1      47.992  26.450  26.707  1.00  0.00     0.012 A 
ATOM     76  C   UNL A   1      47.220  27.693  24.770  1.00  0.00     0.148 A 
ATOM     77  C   UNL A   1      49.108  26.015  25.990  1.00  0.00     0.002 A 
ATOM     78  C   UNL A   1      48.300  27.207  24.042  1.00  0.00     0.091 A 
ATOM     79  F   UNL A   1      46.317  28.519  24.220  1.00  0.00    -0.205 F 
ATOM     80  C   UNL A   1      49.255  26.382  24.655  1.00  0.00     0.022 A 
BRANCH  78  81
ATOM     81  S   UNL A   1      48.464  27.507  22.278  1.00  0.00     0.127 S 
ATOM     82  O   UNL A   1      49.633  28.379  22.226  1.00  0.00    -0.237 OA
ATOM     83  O   UNL A   1      48.678  26.158  21.749  1.00  0.00    -0.237 OA
ATOM     84  O   UNL A   1      47.196  28.106  21.876  1.00  0.00    -0.744 OA
ENDBRANCH  78  81
ENDBRANCH  50  74
BRANCH  62  85
ATOM     85  C   UNL A   1      45.044  33.239  29.183  1.00  0.00     0.023 A 
ATOM     86  C   UNL A   1      45.836  33.470  30.325  1.00  0.00     0.012 A 
ATOM     87  C   UNL A   1      44.940  34.235  28.195  1.00  0.00     0.148 A 
ATOM     88  C   UNL A   1      46.484  34.692  30.498  1.00  0.00     0.002 A 
ATOM     89  C   UNL A   1      45.627  35.432  28.353  1.00  0.00     0.091 A 
ATOM     90  F   UNL A   1      44.162  34.003  27.127  1.00  0.00    -0.205 F 
ATOM     91  C   UNL A   1      46.389  35.667  29.510  1.00  0.00     0.022 A 
BRANCH  89  92
ATOM     92  S   UNL A   1      45.623  36.699  27.081  1.00  0.00     0.127 S 
ATOM     93  O   UNL A   1      46.171  35.975  25.935  1.00  0.00    -0.237 OA
ATOM     94  O   UNL A   1      44.202  37.032  26.968  1.00  0.00    -0.237 OA
ATOM     95  O   UNL A   1      46.450  37.780  27.602  1.00  0.00    -0.744 OA
ENDBRANCH  89  92
ENDBRANCH  62  85
ENDBRANCH  36  37
ENDBRANCH  28  31
ENDBRANCH  26  27
ENDBRANCH   1  26
TORSDOF 15
ENDMDL
MODEL 2
REMARK VINA RESULT:     -13.6      1.267      1.502
REMARK SMILES C[N@H+]1CCO[C@H](c2noc(-c3ccccc3C(=O)NCCCNC(=O)c3ccc(-c4c5nc(c(-c6cccc(S(=O)(=O)[O-])c6F)c6ccc([nH]6)c(-c6cccc(S(=O)(=O)[O-])c6F)c6nc(c(-c7cccc(S(=O)(=O)[O-])c7F)c7ccc4[nH]7)C=C6)C=C5)cc3)n2)C1
REMARK SMILES IDX 21 1 20 2 19 3 17 4 18 5 16 7 11 8 12 9 13 10 15 11 14 12
REMARK SMILES IDX 10 13 7 14 8 15 89 16 9 17 6 18 1 19 2 20 3 21 90 22 4 24
REMARK SMILES IDX 5 25 22 26 23 27 24 28 25 30 26 31 27 32 88 33 28 34 87 35
REMARK SMILES IDX 29 36 30 37 31 38 81 39 32 40 86 41 80 42 82 43 33 44 85 45
REMARK SMILES IDX 79 46 78 47 34 49 66 50 46 51 65 52 47 53 50 54 64 55 83 56
REMARK SMILES IDX 48 57 49 58 63 60 84 61 51 62 35 63 36 64 44 65 37 66 39 67
REMARK SMILES IDX 45 68 38 69 40 70 41 71 42 72 43 73 67 74 68 75 76 76 69 77
REMARK SMILES IDX 71 78 77 79 70 80 72 81 73 82 74 83 75 84 52 85 53 86 61 87
REMARK SMILES IDX 54 88 56 89 62 90 55 91 57 92 58 93 59 94 60 95
REMARK H PARENT 19 6 2 23 23 29 82 48 50 59
REMARK Flexibility Score: inf
ROOT
ATOM      1  C   UNL A   1      35.618  22.474  25.058  1.00  0.00     0.042 C 
ENDROOT
BRANCH   1   2
ATOM      2  C   UNL A   1      35.703  23.300  26.335  1.00  0.00     0.118 C 
BRANCH   2   3
ATOM      3  N   UNL A   1      34.627  23.115  27.271  1.00  0.00    -0.352 N 
ATOM      4  C   UNL A   1      33.274  22.987  27.161  1.00  0.00     0.252 C 
ATOM      5  O   UNL A   1      32.735  22.464  28.145  1.00  0.00    -0.269 OA
ATOM      6  H   UNL A   1      34.938  23.070  28.203  1.00  0.00     0.163 HD
BRANCH   4   7
ATOM      7  C   UNL A   1      32.374  23.508  26.080  1.00  0.00     0.052 A 
ATOM      8  C   UNL A   1      31.790  22.892  24.956  1.00  0.00     0.053 A 
ATOM      9  C   UNL A   1      30.902  23.655  24.149  1.00  0.00     0.015 A 
ATOM     10  C   UNL A   1      30.591  24.986  24.422  1.00  0.00     0.001 A 
ATOM     11  C   UNL A   1      32.046  24.873  26.318  1.00  0.00     0.014 A 
ATOM     12  C   UNL A   1      31.173  25.602  25.511  1.00  0.00     0.001 A 
BRANCH   8  13
ATOM     13  C   UNL A   1      31.989  21.533  24.490  1.00  0.00     0.258 A 
ATOM     14  C   UNL A   1      32.281  19.491  24.061  1.00  0.00     0.206 A 
ATOM     15  N   UNL A   1      32.232  20.060  22.848  1.00  0.00    -0.059 NA
ATOM     16  N   UNL A   1      32.037  20.371  25.107  1.00  0.00    -0.189 NA
ATOM     17  O   UNL A   1      32.058  21.410  23.127  1.00  0.00    -0.334 OA
BRANCH  14  18
ATOM     18  C   UNL A   1      32.672  18.043  24.238  1.00  0.00     0.245 C 
ATOM     19  C   UNL A   1      32.298  15.276  25.733  1.00  0.00     0.332 C 
ATOM     20  N   UNL A   1      33.299  16.299  26.025  1.00  0.00    -0.333 N 
ATOM     21  C   UNL A   1      34.530  16.086  25.235  1.00  0.00     0.290 C 
ATOM     22  C   UNL A   1      32.805  17.670  25.741  1.00  0.00     0.303 C 
ATOM     23  H   UNL A   1      33.499  16.213  27.020  1.00  0.00     0.348 HD
ATOM     24  C   UNL A   1      34.340  16.404  23.747  1.00  0.00     0.222 C 
ATOM     25  O   UNL A   1      33.917  17.758  23.550  1.00  0.00    -0.358 OA
ENDBRANCH  14  18
ENDBRANCH   8  13
ENDBRANCH   4   7
ENDBRANCH   2   3
ENDBRANCH   1   2
BRANCH   1  26
ATOM     26  C   UNL A   1      36.991  22.073  24.503  1.00  0.00     0.118 C 
BRANCH  26  27
ATOM     27  N   UNL A   1      37.627  21.058  25.330  1.00  0.00    -0.352 N 
ATOM     28  C   UNL A   1      38.926  21.134  25.771  1.00  0.00     0.251 C 
ATOM     29  H   UNL A   1      37.095  20.271  25.588  1.00  0.00     0.163 HD
ATOM     30  O   UNL A   1      39.685  20.184  25.607  1.00  0.00    -0.269 OA
BRANCH  28  31
ATOM     31  C   UNL A   1      39.352  22.311  26.552  1.00  0.00     0.039 A 
ATOM     32  C   UNL A   1      38.957  23.581  26.132  1.00  0.00     0.014 A 
ATOM     33  C   UNL A   1      40.324  22.173  27.541  1.00  0.00     0.014 A 
ATOM     34  C   UNL A   1      39.606  24.716  26.610  1.00  0.00     0.010 A 
ATOM     35  C   UNL A   1      40.925  23.309  28.073  1.00  0.00     0.010 A 
ATOM     36  C   UNL A   1      40.613  24.585  27.572  1.00  0.00    -0.014 A 
BRANCH  36  37
ATOM     37  C   UNL A   1      41.402  25.746  28.049  1.00  0.00     0.031 A 
ATOM     38  C   UNL A   1      40.705  26.820  28.841  1.00  0.00     0.074 A 
ATOM     39  C   UNL A   1      42.682  25.891  27.663  1.00  0.00     0.049 A 
ATOM     40  N   UNL A   1      41.062  28.057  29.052  1.00  0.00    -0.248 NA
ATOM     41  C   UNL A   1      39.400  26.465  29.431  1.00  0.00     0.031 C 
ATOM     42  C   UNL A   1      43.447  24.914  26.886  1.00  0.00     0.029 A 
ATOM     43  N   UNL A   1      43.546  26.944  27.820  1.00  0.00    -0.354 N 
ATOM     44  C   UNL A   1      39.984  28.660  29.693  1.00  0.00     0.074 A 
ATOM     45  C   UNL A   1      38.973  27.641  29.870  1.00  0.00     0.031 C 
ATOM     46  C   UNL A   1      44.655  25.426  26.604  1.00  0.00     0.029 A 
ATOM     47  C   UNL A   1      44.719  26.787  27.120  1.00  0.00     0.049 A 
ATOM     48  H   UNL A   1      43.346  27.732  28.377  1.00  0.00     0.167 HD
ATOM     49  C   UNL A   1      39.856  29.950  30.084  1.00  0.00     0.034 A 
ATOM     50  C   UNL A   1      45.710  27.663  26.871  1.00  0.00     0.034 A 
ATOM     51  C   UNL A   1      40.923  30.911  29.989  1.00  0.00     0.049 A 
ATOM     52  C   UNL A   1      45.591  29.053  27.428  1.00  0.00     0.074 A 
ATOM     53  C   UNL A   1      40.950  32.218  30.442  1.00  0.00     0.029 A 
ATOM     54  N   UNL A   1      42.161  30.658  29.416  1.00  0.00    -0.354 N 
ATOM     55  N   UNL A   1      44.597  29.592  28.094  1.00  0.00    -0.248 NA
ATOM     56  C   UNL A   1      46.736  29.949  27.225  1.00  0.00     0.031 C 
ATOM     57  C   UNL A   1      42.207  32.756  30.142  1.00  0.00     0.029 A 
ATOM     58  C   UNL A   1      42.965  31.780  29.513  1.00  0.00     0.049 A 
ATOM     59  H   UNL A   1      42.428  29.806  29.001  1.00  0.00     0.167 HD
ATOM     60  C   UNL A   1      45.002  30.884  28.403  1.00  0.00     0.074 A 
ATOM     61  C   UNL A   1      46.348  31.031  27.885  1.00  0.00     0.031 C 
ATOM     62  C   UNL A   1      44.319  31.872  29.031  1.00  0.00     0.034 A 
BRANCH  49  63
ATOM     63  C   UNL A   1      38.543  30.396  30.674  1.00  0.00     0.023 A 
ATOM     64  C   UNL A   1      38.293  30.230  32.050  1.00  0.00     0.012 A 
ATOM     65  C   UNL A   1      37.584  31.051  29.873  1.00  0.00     0.148 A 
ATOM     66  C   UNL A   1      37.100  30.684  32.615  1.00  0.00     0.002 A 
ATOM     67  C   UNL A   1      36.417  31.539  30.452  1.00  0.00     0.091 A 
ATOM     68  F   UNL A   1      37.830  31.185  28.562  1.00  0.00    -0.205 F 
ATOM     69  C   UNL A   1      36.169  31.347  31.821  1.00  0.00     0.022 A 
BRANCH  67  70
ATOM     70  S   UNL A   1      35.188  32.476  29.532  1.00  0.00     0.127 S 
ATOM     71  O   UNL A   1      36.003  33.545  28.956  1.00  0.00    -0.237 OA
ATOM     72  O   UNL A   1      34.709  31.487  28.567  1.00  0.00    -0.237 OA
ATOM     73  O   UNL A   1      34.195  32.908  30.507  1.00  0.00    -0.744 OA
ENDBRANCH  67  70
ENDBRANCH  49  63
BRANCH  50  74
ATOM     74  C   UNL A   1      46.897  27.235  26.080  1.00  0.00     0.023 A 
ATOM     75  C   UNL A   1      46.949  27.531  24.705  1.00  0.00     0.012 A 
ATOM     76  C   UNL A   1      47.999  26.600  26.686  1.00  0.00     0.148 A 
ATOM     77  C   UNL A   1      48.063  27.178  23.942  1.00  0.00     0.002 A 
ATOM     78  C   UNL A   1      49.131  26.306  25.934  1.00  0.00     0.091 A 
ATOM     79  F   UNL A   1      47.930  26.309  27.994  1.00  0.00    -0.205 F 
ATOM     80  C   UNL A   1      49.159  26.578  24.558  1.00  0.00     0.022 A 
BRANCH  78  81
ATOM     81  S   UNL A   1      50.636  25.684  26.693  1.00  0.00     0.127 S 
ATOM     82  O   UNL A   1      51.004  26.782  27.582  1.00  0.00    -0.237 OA
ATOM     83  O   UNL A   1      50.167  24.474  27.372  1.00  0.00    -0.237 OA
ATOM     84  O   UNL A   1      51.543  25.424  25.581  1.00  0.00    -0.744 OA
ENDBRANCH  78  81
ENDBRANCH  50  74
BRANCH  62  85
ATOM     85  C   UNL A   1      45.031  33.185  29.208  1.00  0.00     0.023 A 
ATOM     86  C   UNL A   1      45.862  33.377  30.329  1.00  0.00     0.012 A 
ATOM     87  C   UNL A   1      44.913  34.204  28.246  1.00  0.00     0.148 A 
ATOM     88  C   UNL A   1      46.536  34.584  30.508  1.00  0.00     0.002 A 
ATOM     89  C   UNL A   1      45.624  35.386  28.409  1.00  0.00     0.091 A 
ATOM     90  F   UNL A   1      44.097  34.009  27.198  1.00  0.00    -0.205 F 
ATOM     91  C   UNL A   1      46.426  35.582  29.545  1.00  0.00     0.022 A 
BRANCH  89  92
ATOM     92  S   UNL A   1      45.601  36.681  27.165  1.00  0.00     0.127 S 
ATOM     93  O   UNL A   1      46.359  37.743  27.824  1.00  0.00    -0.237 OA
ATOM     94  O   UNL A   1      46.289  36.051  26.038  1.00  0.00    -0.237 OA
ATOM     95  O   UNL A   1      44.192  36.965  26.922  1.00  0.00    -0.744 OA
ENDBRANCH  89  92
ENDBRANCH  62  85
ENDBRANCH  36  37
ENDBRANCH  28  31
ENDBRANCH  26  27
ENDBRANCH   1  26
TORSDOF 15
ENDMDL
MODEL 3
REMARK VINA RESULT:     -13.3      5.611     10.444
REMARK SMILES C[N@H+]1CCO[C@H](c2noc(-c3ccccc3C(=O)NCCCNC(=O)c3ccc(-c4c5nc(c(-c6cccc(S(=O)(=O)[O-])c6F)c6ccc([nH]6)c(-c6cccc(S(=O)(=O)[O-])c6F)c6nc(c(-c7cccc(S(=O)(=O)[O-])c7F)c7ccc4[nH]7)C=C6)C=C5)cc3)n2)C1
REMARK SMILES IDX 21 1 20 2 19 3 17 4 18 5 16 7 11 8 12 9 13 10 15 11 14 12
REMARK SMILES IDX 10 13 7 14 8 15 89 16 9 17 6 18 1 19 2 20 3 21 90 22 4 24
REMARK SMILES IDX 5 25 22 26 23 27 24 28 25 30 26 31 27 32 88 33 28 34 87 35
REMARK SMILES IDX 29 36 30 37 31 38 81 39 32 40 86 41 80 42 82 43 33 44 85 45
REMARK SMILES IDX 79 46 78 47 34 49 66 50 46 51 65 52 47 53 50 54 64 55 83 56
REMARK SMILES IDX 48 57 49 58 63 60 84 61 51 62 35 63 36 64 44 65 37 66 39 67
REMARK SMILES IDX 45 68 38 69 40 70 41 71 42 72 43 73 67 74 68 75 76 76 69 77
REMARK SMILES IDX 71 78 77 79 70 80 72 81 73 82 74 83 75 84 52 85 53 86 61 87
REMARK SMILES IDX 54 88 56 89 62 90 55 91 57 92 58 93 59 94 60 95
REMARK H PARENT 19 6 2 23 23 29 82 48 50 59
REMARK Flexibility Score: inf
ROOT
ATOM      1  C   UNL A   1      31.873  28.094  26.370  1.00  0.00     0.042 C 
ENDROOT
BRANCH   1   2
ATOM      2  C   UNL A   1      32.372  26.668  26.563  1.00  0.00     0.118 C 
BRANCH   2   3
ATOM      3  N   UNL A   1      31.365  25.693  26.888  1.00  0.00    -0.352 N 
ATOM      4  C   UNL A   1      31.098  24.420  26.481  1.00  0.00     0.252 C 
ATOM      5  O   UNL A   1      30.383  23.779  27.263  1.00  0.00    -0.269 OA
ATOM      6  H   UNL A   1      30.722  26.020  27.558  1.00  0.00     0.163 HD
BRANCH   4   7
ATOM      7  C   UNL A   1      31.447  23.766  25.177  1.00  0.00     0.052 A 
ATOM      8  C   UNL A   1      31.517  24.260  23.861  1.00  0.00     0.053 A 
ATOM      9  C   UNL A   1      31.965  23.387  22.831  1.00  0.00     0.015 A 
ATOM     10  C   UNL A   1      32.331  22.064  23.071  1.00  0.00     0.001 A 
ATOM     11  C   UNL A   1      31.812  22.405  25.383  1.00  0.00     0.014 A 
ATOM     12  C   UNL A   1      32.247  21.566  24.356  1.00  0.00     0.001 A 
BRANCH   8  13
ATOM     13  C   UNL A   1      31.173  25.590  23.396  1.00  0.00     0.258 A 
ATOM     14  C   UNL A   1      30.451  27.491  22.846  1.00  0.00     0.206 A 
ATOM     15  N   UNL A   1      31.659  27.438  22.267  1.00  0.00    -0.059 NA
ATOM     16  N   UNL A   1      30.155  26.390  23.639  1.00  0.00    -0.189 NA
ATOM     17  O   UNL A   1      32.131  26.178  22.612  1.00  0.00    -0.334 OA
BRANCH  14  18
ATOM     18  C   UNL A   1      29.484  28.615  22.555  1.00  0.00     0.245 C 
ATOM     19  C   UNL A   1      28.957  31.578  21.566  1.00  0.00     0.332 C 
ATOM     20  N   UNL A   1      29.093  31.129  22.949  1.00  0.00    -0.333 N 
ATOM     21  C   UNL A   1      27.787  30.730  23.515  1.00  0.00     0.290 C 
ATOM     22  C   UNL A   1      30.020  29.976  23.080  1.00  0.00     0.303 C 
ATOM     23  H   UNL A   1      29.472  31.924  23.460  1.00  0.00     0.348 HD
ATOM     24  C   UNL A   1      27.263  29.416  22.924  1.00  0.00     0.222 C 
ATOM     25  O   UNL A   1      28.185  28.341  23.139  1.00  0.00    -0.358 OA
ENDBRANCH  14  18
ENDBRANCH   8  13
ENDBRANCH   4   7
ENDBRANCH   2   3
ENDBRANCH   1   2
BRANCH   1  26
ATOM     26  C   UNL A   1      32.824  28.960  25.534  1.00  0.00     0.118 C 
BRANCH  26  27
ATOM     27  N   UNL A   1      32.737  30.364  25.906  1.00  0.00    -0.352 N 
ATOM     28  C   UNL A   1      33.249  30.880  27.072  1.00  0.00     0.251 C 
ATOM     29  H   UNL A   1      32.284  30.981  25.287  1.00  0.00     0.163 HD
ATOM     30  O   UNL A   1      32.546  31.579  27.795  1.00  0.00    -0.269 OA
BRANCH  28  31
ATOM     31  C   UNL A   1      34.683  30.692  27.372  1.00  0.00     0.039 A 
ATOM     32  C   UNL A   1      35.158  29.404  27.617  1.00  0.00     0.014 A 
ATOM     33  C   UNL A   1      35.486  31.798  27.642  1.00  0.00     0.014 A 
ATOM     34  C   UNL A   1      36.389  29.213  28.239  1.00  0.00     0.010 A 
ATOM     35  C   UNL A   1      36.747  31.607  28.198  1.00  0.00     0.010 A 
ATOM     36  C   UNL A   1      37.186  30.319  28.553  1.00  0.00    -0.014 A 
BRANCH  36  37
ATOM     37  C   UNL A   1      38.461  30.185  29.296  1.00  0.00     0.031 A 
ATOM     38  C   UNL A   1      39.531  29.281  28.744  1.00  0.00     0.074 A 
ATOM     39  C   UNL A   1      38.596  30.760  30.505  1.00  0.00     0.049 A 
ATOM     40  N   UNL A   1      40.543  28.728  29.354  1.00  0.00    -0.248 NA
ATOM     41  C   UNL A   1      39.411  28.907  27.322  1.00  0.00     0.031 C 
ATOM     42  C   UNL A   1      37.616  31.646  31.135  1.00  0.00     0.029 A 
ATOM     43  N   UNL A   1      39.587  30.636  31.444  1.00  0.00    -0.354 N 
ATOM     44  C   UNL A   1      41.111  27.854  28.431  1.00  0.00     0.074 A 
ATOM     45  C   UNL A   1      40.352  27.979  27.207  1.00  0.00     0.031 C 
ATOM     46  C   UNL A   1      38.036  31.959  32.369  1.00  0.00     0.029 A 
ATOM     47  C   UNL A   1      39.275  31.241  32.639  1.00  0.00     0.049 A 
ATOM     48  H   UNL A   1      40.434  30.161  31.280  1.00  0.00     0.167 HD
ATOM     49  C   UNL A   1      42.164  27.021  28.605  1.00  0.00     0.034 A 
ATOM     50  C   UNL A   1      39.888  31.177  33.835  1.00  0.00     0.034 A 
ATOM     51  C   UNL A   1      42.963  26.999  29.801  1.00  0.00     0.049 A 
ATOM     52  C   UNL A   1      41.128  30.338  33.959  1.00  0.00     0.074 A 
ATOM     53  C   UNL A   1      44.113  26.275  30.058  1.00  0.00     0.029 A 
ATOM     54  N   UNL A   1      42.703  27.757  30.934  1.00  0.00    -0.354 N 
ATOM     55  N   UNL A   1      41.696  29.571  33.059  1.00  0.00    -0.248 NA
ATOM     56  C   UNL A   1      41.827  30.374  35.249  1.00  0.00     0.031 C 
ATOM     57  C   UNL A   1      44.548  26.594  31.350  1.00  0.00     0.029 A 
ATOM     58  C   UNL A   1      43.676  27.527  31.891  1.00  0.00     0.049 A 
ATOM     59  H   UNL A   1      41.939  28.368  31.042  1.00  0.00     0.167 HD
ATOM     60  C   UNL A   1      42.828  29.045  33.668  1.00  0.00     0.074 A 
ATOM     61  C   UNL A   1      42.884  29.614  35.001  1.00  0.00     0.031 C 
ATOM     62  C   UNL A   1      43.726  28.151  33.187  1.00  0.00     0.034 A 
BRANCH  49  63
ATOM     63  C   UNL A   1      42.536  26.089  27.480  1.00  0.00     0.023 A 
ATOM     64  C   UNL A   1      43.422  26.515  26.472  1.00  0.00     0.012 A 
ATOM     65  C   UNL A   1      42.063  24.759  27.466  1.00  0.00     0.148 A 
ATOM     66  C   UNL A   1      43.812  25.643  25.453  1.00  0.00     0.002 A 
ATOM     67  C   UNL A   1      42.490  23.884  26.472  1.00  0.00     0.091 A 
ATOM     68  F   UNL A   1      41.207  24.375  28.423  1.00  0.00    -0.205 F 
ATOM     69  C   UNL A   1      43.356  24.328  25.459  1.00  0.00     0.022 A 
BRANCH  67  70
ATOM     70  S   UNL A   1      42.023  22.148  26.433  1.00  0.00     0.127 S 
ATOM     71  O   UNL A   1      40.578  22.235  26.229  1.00  0.00    -0.237 OA
ATOM     72  O   UNL A   1      42.773  21.656  25.277  1.00  0.00    -0.237 OA
ATOM     73  O   UNL A   1      42.438  21.589  27.712  1.00  0.00    -0.744 OA
ENDBRANCH  67  70
ENDBRANCH  49  63
BRANCH  50  74
ATOM     74  C   UNL A   1      39.345  31.946  34.989  1.00  0.00     0.023 A 
ATOM     75  C   UNL A   1      38.449  31.317  35.874  1.00  0.00     0.012 A 
ATOM     76  C   UNL A   1      39.755  33.267  35.256  1.00  0.00     0.148 A 
ATOM     77  C   UNL A   1      37.950  31.997  36.987  1.00  0.00     0.002 A 
ATOM     78  C   UNL A   1      39.303  33.918  36.399  1.00  0.00     0.091 A 
ATOM     79  F   UNL A   1      40.597  33.862  34.396  1.00  0.00    -0.205 F 
ATOM     80  C   UNL A   1      38.388  33.291  37.257  1.00  0.00     0.022 A 
BRANCH  78  81
ATOM     81  S   UNL A   1      39.949  35.521  36.893  1.00  0.00     0.127 S 
ATOM     82  O   UNL A   1      41.381  35.256  36.983  1.00  0.00    -0.237 OA
ATOM     83  O   UNL A   1      39.551  36.376  35.773  1.00  0.00    -0.237 OA
ATOM     84  O   UNL A   1      39.270  35.833  38.146  1.00  0.00    -0.744 OA
ENDBRANCH  78  81
ENDBRANCH  50  74
BRANCH  62  85
ATOM     85  C   UNL A   1      44.853  27.758  34.103  1.00  0.00     0.023 A 
ATOM     86  C   UNL A   1      46.044  28.508  34.098  1.00  0.00     0.012 A 
ATOM     87  C   UNL A   1      44.713  26.680  34.996  1.00  0.00     0.148 A 
ATOM     88  C   UNL A   1      47.098  28.165  34.943  1.00  0.00     0.002 A 
ATOM     89  C   UNL A   1      45.749  26.373  35.868  1.00  0.00     0.091 A 
ATOM     90  F   UNL A   1      43.578  25.964  34.968  1.00  0.00    -0.205 F 
ATOM     91  C   UNL A   1      46.947  27.107  35.835  1.00  0.00     0.022 A 
BRANCH  89  92
ATOM     92  S   UNL A   1      45.592  25.080  37.104  1.00  0.00     0.127 S 
ATOM     93  O   UNL A   1      46.864  25.191  37.817  1.00  0.00    -0.237 OA
ATOM     94  O   UNL A   1      44.424  25.515  37.871  1.00  0.00    -0.237 OA
ATOM     95  O   UNL A   1      45.390  23.846  36.356  1.00  0.00    -0.744 OA
ENDBRANCH  89  92
ENDBRANCH  62  85
ENDBRANCH  36  37
ENDBRANCH  28  31
ENDBRANCH  26  27
ENDBRANCH   1  26
TORSDOF 15
ENDMDL
