MODEL 1
REMARK VINA RESULT:     -11.7      0.000      0.000
REMARK SMILES C[C@H]1OCC[C@H]1C(=O)N1CCCC[C@@H]1CC(=O)NCCCNC(=O)c1ccc(-c2c3nc(c(-c4cccc(S(=O)(=O)[O-])c4F)c4ccc([nH]4)c(-c4cccc(S(=O)(=O)[O-])c4F)c4nc(c(-c5cccc(S(=O)(=O)[O-])c5F)c5ccc2[nH]5)C=C4)C=C3)cc1
REMARK SMILES IDX 20 1 19 2 18 3 16 4 17 5 15 7 14 8 9 9 10 10 11 11 13 12
REMARK SMILES IDX 12 13 7 14 8 15 6 16 1 17 2 18 3 19 4 20 5 21 21 22 22 23
REMARK SMILES IDX 23 24 24 26 25 27 26 28 87 29 27 30 86 31 28 32 29 33 30 34
REMARK SMILES IDX 80 35 31 36 85 37 79 38 81 39 32 40 84 41 78 42 77 43 33 45
REMARK SMILES IDX 65 46 45 47 64 48 46 49 49 50 63 51 82 52 47 53 48 54 62 56
REMARK SMILES IDX 83 57 50 58 34 59 35 60 43 61 36 62 38 63 44 64 37 65 39 66
REMARK SMILES IDX 40 67 41 68 42 69 66 70 67 71 75 72 68 73 70 74 76 75 69 76
REMARK SMILES IDX 71 77 72 78 73 79 74 80 51 81 52 82 60 83 53 84 55 85 61 86
REMARK SMILES IDX 54 87 56 88 57 89 58 90 59 91
REMARK H PARENT 18 6 22 25 81 44 49 55
REMARK Flexibility Score: inf
ROOT
ATOM      1  C   UNL A   1      32.760  28.977  23.717  1.00  0.00     0.042 C 
ENDROOT
BRANCH   1   2
ATOM      2  C   UNL A   1      33.873  28.573  22.752  1.00  0.00     0.117 C 
BRANCH   2   3
ATOM      3  N   UNL A   1      33.419  27.554  21.816  1.00  0.00    -0.356 N 
ATOM      4  C   UNL A   1      33.446  26.197  21.901  1.00  0.00     0.222 C 
ATOM      5  O   UNL A   1      33.215  25.543  20.883  1.00  0.00    -0.275 OA
ATOM      6  H   UNL A   1      33.029  27.906  20.983  1.00  0.00     0.163 HD
BRANCH   4   7
ATOM      7  C   UNL A   1      33.675  25.522  23.226  1.00  0.00     0.125 C 
BRANCH   7   8
ATOM      8  C   UNL A   1      34.028  24.029  23.153  1.00  0.00     0.094 C 
ATOM      9  N   UNL A   1      32.873  23.141  23.439  1.00  0.00    -0.339 N 
ATOM     10  C   UNL A   1      33.185  21.721  23.601  1.00  0.00     0.120 C 
ATOM     11  C   UNL A   1      34.267  21.497  24.653  1.00  0.00     0.022 C 
ATOM     12  C   UNL A   1      35.220  23.727  24.070  1.00  0.00     0.026 C 
ATOM     13  C   UNL A   1      35.526  22.249  24.256  1.00  0.00     0.004 C 
BRANCH   9  14
ATOM     14  C   UNL A   1      31.760  23.604  24.122  1.00  0.00     0.228 C 
ATOM     15  O   UNL A   1      30.665  23.717  23.571  1.00  0.00    -0.274 OA
BRANCH  14  16
ATOM     16  C   UNL A   1      31.955  23.974  25.600  1.00  0.00     0.109 C 
ATOM     17  C   UNL A   1      30.676  26.255  25.208  1.00  0.00     0.039 C 
ATOM     18  C   UNL A   1      31.066  25.104  26.127  1.00  0.00     0.127 C 
ATOM     19  O   UNL A   1      29.888  24.486  26.686  1.00  0.00    -0.378 OA
ATOM     20  C   UNL A   1      30.157  23.092  26.890  1.00  0.00     0.161 C 
ATOM     21  C   UNL A   1      31.631  22.881  26.606  1.00  0.00     0.044 C 
ENDBRANCH  14  16
ENDBRANCH   9  14
ENDBRANCH   7   8
ENDBRANCH   4   7
ENDBRANCH   2   3
ENDBRANCH   1   2
BRANCH   1  22
ATOM     22  C   UNL A   1      33.257  29.269  25.124  1.00  0.00     0.118 C 
BRANCH  22  23
ATOM     23  N   UNL A   1      32.669  30.487  25.651  1.00  0.00    -0.352 N 
ATOM     24  C   UNL A   1      33.009  31.170  26.796  1.00  0.00     0.251 C 
ATOM     25  H   UNL A   1      31.934  30.874  25.122  1.00  0.00     0.163 HD
ATOM     26  O   UNL A   1      32.248  32.018  27.250  1.00  0.00    -0.269 OA
BRANCH  24  27
ATOM     27  C   UNL A   1      34.286  30.864  27.482  1.00  0.00     0.039 A 
ATOM     28  C   UNL A   1      35.235  31.875  27.638  1.00  0.00     0.014 A 
ATOM     29  C   UNL A   1      34.547  29.579  27.967  1.00  0.00     0.014 A 
ATOM     30  C   UNL A   1      36.424  31.610  28.323  1.00  0.00     0.010 A 
ATOM     31  C   UNL A   1      35.687  29.342  28.728  1.00  0.00     0.010 A 
ATOM     32  C   UNL A   1      36.649  30.348  28.899  1.00  0.00    -0.014 A 
BRANCH  32  33
ATOM     33  C   UNL A   1      37.887  30.051  29.667  1.00  0.00     0.031 A 
ATOM     34  C   UNL A   1      38.904  29.086  29.112  1.00  0.00     0.074 A 
ATOM     35  C   UNL A   1      38.058  30.576  30.896  1.00  0.00     0.049 A 
ATOM     36  N   UNL A   1      40.004  28.641  29.661  1.00  0.00    -0.248 NA
ATOM     37  C   UNL A   1      38.634  28.524  27.778  1.00  0.00     0.031 C 
ATOM     38  C   UNL A   1      37.112  31.462  31.578  1.00  0.00     0.029 A 
ATOM     39  N   UNL A   1      39.076  30.417  31.805  1.00  0.00    -0.354 N 
ATOM     40  C   UNL A   1      40.534  27.722  28.762  1.00  0.00     0.074 A 
ATOM     41  C   UNL A   1      39.615  27.643  27.648  1.00  0.00     0.031 C 
ATOM     42  C   UNL A   1      37.595  31.772  32.792  1.00  0.00     0.029 A 
ATOM     43  C   UNL A   1      38.865  31.082  32.991  1.00  0.00     0.049 A 
ATOM     44  H   UNL A   1      39.879  29.879  31.625  1.00  0.00     0.167 HD
ATOM     45  C   UNL A   1      41.694  27.029  28.839  1.00  0.00     0.034 A 
ATOM     46  C   UNL A   1      39.606  31.124  34.117  1.00  0.00     0.034 A 
ATOM     47  C   UNL A   1      42.631  27.149  29.921  1.00  0.00     0.049 A 
ATOM     48  C   UNL A   1      40.909  30.371  34.163  1.00  0.00     0.074 A 
ATOM     49  C   UNL A   1      43.880  26.565  30.046  1.00  0.00     0.029 A 
ATOM     50  N   UNL A   1      42.422  27.897  31.069  1.00  0.00    -0.354 N 
ATOM     51  N   UNL A   1      41.469  29.634  33.234  1.00  0.00    -0.248 NA
ATOM     52  C   UNL A   1      41.698  30.479  35.399  1.00  0.00     0.031 C 
ATOM     53  C   UNL A   1      44.414  26.941  31.284  1.00  0.00     0.029 A 
ATOM     54  C   UNL A   1      43.510  27.780  31.915  1.00  0.00     0.049 A 
ATOM     55  H   UNL A   1      41.617  28.432  31.255  1.00  0.00     0.167 HD
ATOM     56  C   UNL A   1      42.687  29.217  33.759  1.00  0.00     0.074 A 
ATOM     57  C   UNL A   1      42.794  29.803  35.080  1.00  0.00     0.031 C 
ATOM     58  C   UNL A   1      43.625  28.410  33.206  1.00  0.00     0.034 A 
BRANCH  45  59
ATOM     59  C   UNL A   1      42.045  26.119  27.689  1.00  0.00     0.023 A 
ATOM     60  C   UNL A   1      42.819  26.618  26.620  1.00  0.00     0.012 A 
ATOM     61  C   UNL A   1      41.663  24.764  27.691  1.00  0.00     0.148 A 
ATOM     62  C   UNL A   1      43.174  25.793  25.554  1.00  0.00     0.002 A 
ATOM     63  C   UNL A   1      42.061  23.935  26.647  1.00  0.00     0.091 A 
ATOM     64  F   UNL A   1      40.911  24.312  28.705  1.00  0.00    -0.205 F 
ATOM     65  C   UNL A   1      42.804  24.451  25.573  1.00  0.00     0.022 A 
BRANCH  63  66
ATOM     66  S   UNL A   1      41.704  22.175  26.616  1.00  0.00     0.127 S 
ATOM     67  O   UNL A   1      42.368  21.718  27.836  1.00  0.00    -0.237 OA
ATOM     68  O   UNL A   1      40.242  22.158  26.675  1.00  0.00    -0.237 OA
ATOM     69  O   UNL A   1      42.268  21.672  25.372  1.00  0.00    -0.744 OA
ENDBRANCH  63  66
ENDBRANCH  45  59
BRANCH  46  70
ATOM     70  C   UNL A   1      39.161  31.956  35.271  1.00  0.00     0.023 A 
ATOM     71  C   UNL A   1      38.253  31.414  36.203  1.00  0.00     0.012 A 
ATOM     72  C   UNL A   1      39.650  33.261  35.469  1.00  0.00     0.148 A 
ATOM     73  C   UNL A   1      37.818  32.168  37.293  1.00  0.00     0.002 A 
ATOM     74  C   UNL A   1      39.256  33.986  36.588  1.00  0.00     0.091 A 
ATOM     75  F   UNL A   1      40.503  33.764  34.565  1.00  0.00    -0.205 F 
ATOM     76  C   UNL A   1      38.326  33.449  37.491  1.00  0.00     0.022 A 
BRANCH  74  77
ATOM     77  S   UNL A   1      39.962  35.588  36.994  1.00  0.00     0.127 S 
ATOM     78  O   UNL A   1      39.263  35.919  38.232  1.00  0.00    -0.237 OA
ATOM     79  O   UNL A   1      41.380  35.263  37.154  1.00  0.00    -0.237 OA
ATOM     80  O   UNL A   1      39.671  36.447  35.853  1.00  0.00    -0.744 OA
ENDBRANCH  74  77
ENDBRANCH  46  70
BRANCH  58  81
ATOM     81  C   UNL A   1      44.869  28.126  34.007  1.00  0.00     0.023 A 
ATOM     82  C   UNL A   1      45.950  29.027  33.960  1.00  0.00     0.012 A 
ATOM     83  C   UNL A   1      44.928  27.017  34.873  1.00  0.00     0.148 A 
ATOM     84  C   UNL A   1      47.083  28.815  34.745  1.00  0.00     0.002 A 
ATOM     85  C   UNL A   1      46.039  26.838  35.687  1.00  0.00     0.091 A 
ATOM     86  F   UNL A   1      43.894  26.162  34.889  1.00  0.00    -0.205 F 
ATOM     87  C   UNL A   1      47.122  27.729  35.616  1.00  0.00     0.022 A 
BRANCH  85  88
ATOM     88  S   UNL A   1      46.139  25.525  36.910  1.00  0.00     0.127 S 
ATOM     89  O   UNL A   1      45.964  24.333  36.081  1.00  0.00    -0.237 OA
ATOM     90  O   UNL A   1      47.490  25.704  37.444  1.00  0.00    -0.237 OA
ATOM     91  O   UNL A   1      45.071  25.781  37.865  1.00  0.00    -0.744 OA
ENDBRANCH  85  88
ENDBRANCH  58  81
ENDBRANCH  32  33
ENDBRANCH  24  27
ENDBRANCH  22  23
ENDBRANCH   1  22
TORSDOF 16
ENDMDL
MODEL 2
REMARK VINA RESULT:     -11.6      1.333      1.661
REMARK SMILES C[C@H]1OCC[C@H]1C(=O)N1CCCC[C@@H]1CC(=O)NCCCNC(=O)c1ccc(-c2c3nc(c(-c4cccc(S(=O)(=O)[O-])c4F)c4ccc([nH]4)c(-c4cccc(S(=O)(=O)[O-])c4F)c4nc(c(-c5cccc(S(=O)(=O)[O-])c5F)c5ccc2[nH]5)C=C4)C=C3)cc1
REMARK SMILES IDX 20 1 19 2 18 3 16 4 17 5 15 7 14 8 9 9 10 10 11 11 13 12
REMARK SMILES IDX 12 13 7 14 8 15 6 16 1 17 2 18 3 19 4 20 5 21 21 22 22 23
REMARK SMILES IDX 23 24 24 26 25 27 26 28 87 29 27 30 86 31 28 32 29 33 30 34
REMARK SMILES IDX 80 35 31 36 85 37 79 38 81 39 32 40 84 41 78 42 77 43 33 45
REMARK SMILES IDX 65 46 45 47 64 48 46 49 49 50 63 51 82 52 47 53 48 54 62 56
REMARK SMILES IDX 83 57 50 58 34 59 35 60 43 61 36 62 38 63 44 64 37 65 39 66
REMARK SMILES IDX 40 67 41 68 42 69 66 70 67 71 75 72 68 73 70 74 76 75 69 76
REMARK SMILES IDX 71 77 72 78 73 79 74 80 51 81 52 82 60 83 53 84 55 85 61 86
REMARK SMILES IDX 54 87 56 88 57 89 58 90 59 91
REMARK H PARENT 18 6 22 25 81 44 49 55
REMARK Flexibility Score: inf
ROOT
ATOM      1  C   UNL A   1      33.348  28.952  23.477  1.00  0.00     0.042 C 
ENDROOT
BRANCH   1   2
ATOM      2  C   UNL A   1      32.049  28.274  23.045  1.00  0.00     0.117 C 
BRANCH   2   3
ATOM      3  N   UNL A   1      32.283  27.308  21.980  1.00  0.00    -0.356 N 
ATOM      4  C   UNL A   1      33.056  26.190  21.951  1.00  0.00     0.222 C 
ATOM      5  O   UNL A   1      33.275  25.660  20.862  1.00  0.00    -0.275 OA
ATOM      6  H   UNL A   1      31.802  27.498  21.142  1.00  0.00     0.163 HD
BRANCH   4   7
ATOM      7  C   UNL A   1      33.560  25.581  23.232  1.00  0.00     0.125 C 
BRANCH   7   8
ATOM      8  C   UNL A   1      33.972  24.103  23.141  1.00  0.00     0.094 C 
ATOM      9  N   UNL A   1      32.864  23.168  23.459  1.00  0.00    -0.339 N 
ATOM     10  C   UNL A   1      33.240  21.762  23.605  1.00  0.00     0.120 C 
ATOM     11  C   UNL A   1      34.362  21.579  24.622  1.00  0.00     0.022 C 
ATOM     12  C   UNL A   1      35.203  23.848  24.020  1.00  0.00     0.026 C 
ATOM     13  C   UNL A   1      35.576  22.384  24.190  1.00  0.00     0.004 C 
BRANCH   9  14
ATOM     14  C   UNL A   1      31.755  23.582  24.178  1.00  0.00     0.228 C 
ATOM     15  O   UNL A   1      30.662  23.754  23.638  1.00  0.00    -0.274 OA
BRANCH  14  16
ATOM     16  C   UNL A   1      31.950  23.822  25.683  1.00  0.00     0.109 C 
ATOM     17  C   UNL A   1      30.814  26.200  25.462  1.00  0.00     0.039 C 
ATOM     18  C   UNL A   1      31.123  24.958  26.290  1.00  0.00     0.127 C 
ATOM     19  O   UNL A   1      29.903  24.370  26.787  1.00  0.00    -0.378 OA
ATOM     20  C   UNL A   1      30.086  22.950  26.882  1.00  0.00     0.161 C 
ATOM     21  C   UNL A   1      31.548  22.674  26.595  1.00  0.00     0.044 C 
ENDBRANCH  14  16
ENDBRANCH   9  14
ENDBRANCH   7   8
ENDBRANCH   4   7
ENDBRANCH   2   3
ENDBRANCH   1   2
BRANCH   1  22
ATOM     22  C   UNL A   1      33.458  29.143  24.981  1.00  0.00     0.118 C 
BRANCH  22  23
ATOM     23  N   UNL A   1      32.750  30.333  25.417  1.00  0.00    -0.352 N 
ATOM     24  C   UNL A   1      32.915  31.042  26.584  1.00  0.00     0.251 C 
ATOM     25  H   UNL A   1      32.064  30.675  24.800  1.00  0.00     0.163 HD
ATOM     26  O   UNL A   1      32.064  31.852  26.933  1.00  0.00    -0.269 OA
BRANCH  24  27
ATOM     27  C   UNL A   1      34.116  30.809  27.421  1.00  0.00     0.039 A 
ATOM     28  C   UNL A   1      34.315  29.552  27.994  1.00  0.00     0.014 A 
ATOM     29  C   UNL A   1      35.044  31.832  27.641  1.00  0.00     0.014 A 
ATOM     30  C   UNL A   1      35.467  29.308  28.747  1.00  0.00     0.010 A 
ATOM     31  C   UNL A   1      36.232  31.561  28.312  1.00  0.00     0.010 A 
ATOM     32  C   UNL A   1      36.450  30.302  28.890  1.00  0.00    -0.014 A 
BRANCH  32  33
ATOM     33  C   UNL A   1      37.702  30.056  29.652  1.00  0.00     0.031 A 
ATOM     34  C   UNL A   1      38.754  29.131  29.093  1.00  0.00     0.074 A 
ATOM     35  C   UNL A   1      37.859  30.590  30.879  1.00  0.00     0.049 A 
ATOM     36  N   UNL A   1      39.874  28.732  29.638  1.00  0.00    -0.248 NA
ATOM     37  C   UNL A   1      38.500  28.557  27.762  1.00  0.00     0.031 C 
ATOM     38  C   UNL A   1      36.881  31.438  31.564  1.00  0.00     0.029 A 
ATOM     39  N   UNL A   1      38.886  30.474  31.784  1.00  0.00    -0.354 N 
ATOM     40  C   UNL A   1      40.435  27.833  28.738  1.00  0.00     0.074 A 
ATOM     41  C   UNL A   1      39.515  27.715  27.629  1.00  0.00     0.031 C 
ATOM     42  C   UNL A   1      37.357  31.770  32.775  1.00  0.00     0.029 A 
ATOM     43  C   UNL A   1      38.655  31.132  32.969  1.00  0.00     0.049 A 
ATOM     44  H   UNL A   1      39.710  29.967  31.600  1.00  0.00     0.167 HD
ATOM     45  C   UNL A   1      41.623  27.187  28.810  1.00  0.00     0.034 A 
ATOM     46  C   UNL A   1      39.399  31.205  34.092  1.00  0.00     0.034 A 
ATOM     47  C   UNL A   1      42.560  27.346  29.888  1.00  0.00     0.049 A 
ATOM     48  C   UNL A   1      40.731  30.505  34.132  1.00  0.00     0.074 A 
ATOM     49  C   UNL A   1      43.831  26.813  30.007  1.00  0.00     0.029 A 
ATOM     50  N   UNL A   1      42.326  28.087  31.036  1.00  0.00    -0.354 N 
ATOM     51  N   UNL A   1      41.316  29.789  33.202  1.00  0.00    -0.248 NA
ATOM     52  C   UNL A   1      41.521  30.647  35.364  1.00  0.00     0.031 C 
ATOM     53  C   UNL A   1      44.356  27.213  31.241  1.00  0.00     0.029 A 
ATOM     54  C   UNL A   1      43.423  28.016  31.876  1.00  0.00     0.049 A 
ATOM     55  H   UNL A   1      41.501  28.591  31.225  1.00  0.00     0.167 HD
ATOM     56  C   UNL A   1      42.552  29.422  33.722  1.00  0.00     0.074 A 
ATOM     57  C   UNL A   1      42.642  30.014  35.041  1.00  0.00     0.031 C 
ATOM     58  C   UNL A   1      43.519  28.652  33.165  1.00  0.00     0.034 A 
BRANCH  45  59
ATOM     59  C   UNL A   1      42.004  26.290  27.660  1.00  0.00     0.023 A 
ATOM     60  C   UNL A   1      42.757  26.815  26.589  1.00  0.00     0.012 A 
ATOM     61  C   UNL A   1      41.672  24.921  27.664  1.00  0.00     0.148 A 
ATOM     62  C   UNL A   1      43.139  26.003  25.522  1.00  0.00     0.002 A 
ATOM     63  C   UNL A   1      42.098  24.107  26.620  1.00  0.00     0.091 A 
ATOM     64  F   UNL A   1      40.940  24.443  28.681  1.00  0.00    -0.205 F 
ATOM     65  C   UNL A   1      42.819  24.648  25.544  1.00  0.00     0.022 A 
BRANCH  63  66
ATOM     66  S   UNL A   1      41.805  22.335  26.591  1.00  0.00     0.127 S 
ATOM     67  O   UNL A   1      42.431  21.912  27.844  1.00  0.00    -0.237 OA
ATOM     68  O   UNL A   1      40.344  22.265  26.585  1.00  0.00    -0.237 OA
ATOM     69  O   UNL A   1      42.442  21.842  25.378  1.00  0.00    -0.744 OA
ENDBRANCH  63  66
ENDBRANCH  45  59
BRANCH  46  70
ATOM     70  C   UNL A   1      38.926  32.021  35.246  1.00  0.00     0.023 A 
ATOM     71  C   UNL A   1      39.022  33.426  35.184  1.00  0.00     0.012 A 
ATOM     72  C   UNL A   1      38.358  31.422  36.387  1.00  0.00     0.148 A 
ATOM     73  C   UNL A   1      38.589  34.216  36.249  1.00  0.00     0.002 A 
ATOM     74  C   UNL A   1      37.876  32.218  37.420  1.00  0.00     0.091 A 
ATOM     75  F   UNL A   1      38.288  30.084  36.433  1.00  0.00    -0.205 F 
ATOM     76  C   UNL A   1      38.007  33.613  37.362  1.00  0.00     0.022 A 
BRANCH  74  77
ATOM     77  S   UNL A   1      36.992  31.536  38.828  1.00  0.00     0.127 S 
ATOM     78  O   UNL A   1      36.815  30.144  38.426  1.00  0.00    -0.237 OA
ATOM     79  O   UNL A   1      37.948  31.746  39.917  1.00  0.00    -0.237 OA
ATOM     80  O   UNL A   1      35.771  32.323  38.945  1.00  0.00    -0.744 OA
ENDBRANCH  74  77
ENDBRANCH  46  70
BRANCH  58  81
ATOM     81  C   UNL A   1      44.776  28.420  33.960  1.00  0.00     0.023 A 
ATOM     82  C   UNL A   1      45.837  29.343  33.875  1.00  0.00     0.012 A 
ATOM     83  C   UNL A   1      44.869  27.339  34.858  1.00  0.00     0.148 A 
ATOM     84  C   UNL A   1      46.983  29.179  34.653  1.00  0.00     0.002 A 
ATOM     85  C   UNL A   1      45.992  27.209  35.666  1.00  0.00     0.091 A 
ATOM     86  F   UNL A   1      43.855  26.463  34.912  1.00  0.00    -0.205 F 
ATOM     87  C   UNL A   1      47.055  28.121  35.556  1.00  0.00     0.022 A 
BRANCH  85  88
ATOM     88  S   UNL A   1      46.135  25.936  36.925  1.00  0.00     0.127 S 
ATOM     89  O   UNL A   1      47.334  26.363  37.646  1.00  0.00    -0.237 OA
ATOM     90  O   UNL A   1      44.886  26.098  37.670  1.00  0.00    -0.237 OA
ATOM     91  O   UNL A   1      46.254  24.673  36.211  1.00  0.00    -0.744 OA
ENDBRANCH  85  88
ENDBRANCH  58  81
ENDBRANCH  32  33
ENDBRANCH  24  27
ENDBRANCH  22  23
ENDBRANCH   1  22
TORSDOF 16
ENDMDL
MODEL 3
REMARK VINA RESULT:     -11.5      5.483     10.339
REMARK SMILES C[C@H]1OCC[C@H]1C(=O)N1CCCC[C@@H]1CC(=O)NCCCNC(=O)c1ccc(-c2c3nc(c(-c4cccc(S(=O)(=O)[O-])c4F)c4ccc([nH]4)c(-c4cccc(S(=O)(=O)[O-])c4F)c4nc(c(-c5cccc(S(=O)(=O)[O-])c5F)c5ccc2[nH]5)C=C4)C=C3)cc1
REMARK SMILES IDX 20 1 19 2 18 3 16 4 17 5 15 7 14 8 9 9 10 10 11 11 13 12
REMARK SMILES IDX 12 13 7 14 8 15 6 16 1 17 2 18 3 19 4 20 5 21 21 22 22 23
REMARK SMILES IDX 23 24 24 26 25 27 26 28 87 29 27 30 86 31 28 32 29 33 30 34
REMARK SMILES IDX 80 35 31 36 85 37 79 38 81 39 32 40 84 41 78 42 77 43 33 45
REMARK SMILES IDX 65 46 45 47 64 48 46 49 49 50 63 51 82 52 47 53 48 54 62 56
REMARK SMILES IDX 83 57 50 58 34 59 35 60 43 61 36 62 38 63 44 64 37 65 39 66
REMARK SMILES IDX 40 67 41 68 42 69 66 70 67 71 75 72 68 73 70 74 76 75 69 76
REMARK SMILES IDX 71 77 72 78 73 79 74 80 51 81 52 82 60 83 53 84 55 85 61 86
REMARK SMILES IDX 54 87 56 88 57 89 58 90 59 91
REMARK H PARENT 18 6 22 25 81 44 49 55
REMARK Flexibility Score: inf
ROOT
ATOM      1  C   UNL A   1      37.671  19.418  24.894  1.00  0.00     0.042 C 
ENDROOT
BRANCH   1   2
ATOM      2  C   UNL A   1      36.323  20.130  24.986  1.00  0.00     0.117 C 
BRANCH   2   3
ATOM      3  N   UNL A   1      35.217  19.186  24.903  1.00  0.00    -0.356 N 
ATOM      4  C   UNL A   1      33.879  19.397  24.784  1.00  0.00     0.222 C 
ATOM      5  O   UNL A   1      33.120  18.444  24.966  1.00  0.00    -0.275 OA
ATOM      6  H   UNL A   1      35.483  18.239  24.940  1.00  0.00     0.163 HD
BRANCH   4   7
ATOM      7  C   UNL A   1      33.355  20.744  24.365  1.00  0.00     0.125 C 
BRANCH   7   8
ATOM      8  C   UNL A   1      32.426  21.433  25.376  1.00  0.00     0.094 C 
ATOM      9  N   UNL A   1      31.609  22.517  24.773  1.00  0.00    -0.339 N 
ATOM     10  C   UNL A   1      30.869  23.356  25.716  1.00  0.00     0.120 C 
ATOM     11  C   UNL A   1      31.782  23.946  26.785  1.00  0.00     0.022 C 
ATOM     12  C   UNL A   1      33.237  21.932  26.578  1.00  0.00     0.026 C 
ATOM     13  C   UNL A   1      32.471  22.823  27.542  1.00  0.00     0.004 C 
BRANCH   9  14
ATOM     14  C   UNL A   1      31.976  23.117  23.579  1.00  0.00     0.228 C 
ATOM     15  O   UNL A   1      32.038  22.478  22.528  1.00  0.00    -0.274 OA
BRANCH  14  16
ATOM     16  C   UNL A   1      32.305  24.616  23.625  1.00  0.00     0.109 C 
ATOM     17  C   UNL A   1      34.868  24.054  23.959  1.00  0.00     0.039 C 
ATOM     18  C   UNL A   1      33.779  24.981  23.432  1.00  0.00     0.127 C 
ATOM     19  O   UNL A   1      33.970  25.228  22.023  1.00  0.00    -0.378 OA
ATOM     20  C   UNL A   1      32.685  25.421  21.416  1.00  0.00     0.161 C 
ATOM     21  C   UNL A   1      31.668  25.469  22.539  1.00  0.00     0.044 C 
ENDBRANCH  14  16
ENDBRANCH   9  14
ENDBRANCH   7   8
ENDBRANCH   4   7
ENDBRANCH   2   3
ENDBRANCH   1   2
BRANCH   1  22
ATOM     22  C   UNL A   1      38.777  20.119  25.667  1.00  0.00     0.118 C 
BRANCH  22  23
ATOM     23  N   UNL A   1      39.883  19.219  25.941  1.00  0.00    -0.352 N 
ATOM     24  C   UNL A   1      41.201  19.536  26.175  1.00  0.00     0.251 C 
ATOM     25  H   UNL A   1      39.662  18.259  25.961  1.00  0.00     0.163 HD
ATOM     26  O   UNL A   1      42.060  18.663  26.116  1.00  0.00    -0.269 OA
BRANCH  24  27
ATOM     27  C   UNL A   1      41.575  20.937  26.482  1.00  0.00     0.039 A 
ATOM     28  C   UNL A   1      41.648  21.347  27.814  1.00  0.00     0.014 A 
ATOM     29  C   UNL A   1      41.852  21.844  25.455  1.00  0.00     0.014 A 
ATOM     30  C   UNL A   1      42.044  22.653  28.116  1.00  0.00     0.010 A 
ATOM     31  C   UNL A   1      42.335  23.113  25.760  1.00  0.00     0.010 A 
ATOM     32  C   UNL A   1      42.418  23.540  27.093  1.00  0.00    -0.014 A 
BRANCH  32  33
ATOM     33  C   UNL A   1      42.881  24.921  27.389  1.00  0.00     0.031 A 
ATOM     34  C   UNL A   1      41.938  25.912  28.024  1.00  0.00     0.074 A 
ATOM     35  C   UNL A   1      44.114  25.313  27.011  1.00  0.00     0.049 A 
ATOM     36  N   UNL A   1      42.129  27.178  28.289  1.00  0.00    -0.248 NA
ATOM     37  C   UNL A   1      40.595  25.423  28.378  1.00  0.00     0.031 C 
ATOM     38  C   UNL A   1      45.095  24.473  26.320  1.00  0.00     0.029 A 
ATOM     39  N   UNL A   1      44.745  26.528  27.128  1.00  0.00    -0.354 N 
ATOM     40  C   UNL A   1      40.924  27.644  28.802  1.00  0.00     0.074 A 
ATOM     41  C   UNL A   1      39.996  26.536  28.775  1.00  0.00     0.031 C 
ATOM     42  C   UNL A   1      46.202  25.194  26.080  1.00  0.00     0.029 A 
ATOM     43  C   UNL A   1      46.000  26.554  26.567  1.00  0.00     0.049 A 
ATOM     44  H   UNL A   1      44.336  27.305  27.573  1.00  0.00     0.167 HD
ATOM     45  C   UNL A   1      40.623  28.874  29.282  1.00  0.00     0.034 A 
ATOM     46  C   UNL A   1      46.886  27.564  26.447  1.00  0.00     0.034 A 
ATOM     47  C   UNL A   1      41.563  29.959  29.358  1.00  0.00     0.049 A 
ATOM     48  C   UNL A   1      46.540  28.912  27.020  1.00  0.00     0.074 A 
ATOM     49  C   UNL A   1      41.385  31.212  29.917  1.00  0.00     0.029 A 
ATOM     50  N   UNL A   1      42.853  29.924  28.853  1.00  0.00    -0.354 N 
ATOM     51  N   UNL A   1      45.451  29.287  27.647  1.00  0.00    -0.248 NA
ATOM     52  C   UNL A   1      47.555  29.969  26.897  1.00  0.00     0.031 C 
ATOM     53  C   UNL A   1      42.563  31.944  29.726  1.00  0.00     0.029 A 
ATOM     54  C   UNL A   1      43.480  31.137  29.074  1.00  0.00     0.049 A 
ATOM     55  H   UNL A   1      43.263  29.150  28.403  1.00  0.00     0.167 HD
ATOM     56  C   UNL A   1      45.661  30.610  28.021  1.00  0.00     0.074 A 
ATOM     57  C   UNL A   1      46.991  30.964  27.569  1.00  0.00     0.031 C 
ATOM     58  C   UNL A   1      44.824  31.459  28.665  1.00  0.00     0.034 A 
BRANCH  45  59
ATOM     59  C   UNL A   1      39.232  29.096  29.820  1.00  0.00     0.023 A 
ATOM     60  C   UNL A   1      38.924  28.694  31.136  1.00  0.00     0.012 A 
ATOM     61  C   UNL A   1      38.251  29.752  29.051  1.00  0.00     0.148 A 
ATOM     62  C   UNL A   1      37.651  28.905  31.665  1.00  0.00     0.002 A 
ATOM     63  C   UNL A   1      36.999  30.001  29.601  1.00  0.00     0.091 A 
ATOM     64  F   UNL A   1      38.556  30.110  27.795  1.00  0.00    -0.205 F 
ATOM     65  C   UNL A   1      36.694  29.568  30.902  1.00  0.00     0.022 A 
BRANCH  63  66
ATOM     66  S   UNL A   1      35.722  30.917  28.731  1.00  0.00     0.127 S 
ATOM     67  O   UNL A   1      35.046  29.851  27.992  1.00  0.00    -0.237 OA
ATOM     68  O   UNL A   1      34.944  31.482  29.834  1.00  0.00    -0.237 OA
ATOM     69  O   UNL A   1      36.418  31.899  27.912  1.00  0.00    -0.744 OA
ENDBRANCH  63  66
ENDBRANCH  45  59
BRANCH  46  70
ATOM     70  C   UNL A   1      48.211  27.320  25.808  1.00  0.00     0.023 A 
ATOM     71  C   UNL A   1      49.286  26.869  26.601  1.00  0.00     0.012 A 
ATOM     72  C   UNL A   1      48.406  27.501  24.426  1.00  0.00     0.148 A 
ATOM     73  C   UNL A   1      50.538  26.632  26.032  1.00  0.00     0.002 A 
ATOM     74  C   UNL A   1      49.641  27.208  23.856  1.00  0.00     0.091 A 
ATOM     75  F   UNL A   1      47.376  27.943  23.691  1.00  0.00    -0.205 F 
ATOM     76  C   UNL A   1      50.713  26.792  24.660  1.00  0.00     0.022 A 
BRANCH  74  77
ATOM     77  S   UNL A   1      49.917  27.256  22.082  1.00  0.00     0.127 S 
ATOM     78  O   UNL A   1      48.868  26.368  21.590  1.00  0.00    -0.237 OA
ATOM     79  O   UNL A   1      49.715  28.674  21.781  1.00  0.00    -0.237 OA
ATOM     80  O   UNL A   1      51.285  26.793  21.883  1.00  0.00    -0.744 OA
ENDBRANCH  74  77
ENDBRANCH  46  70
BRANCH  58  81
ATOM     81  C   UNL A   1      45.319  32.852  28.951  1.00  0.00     0.023 A 
ATOM     82  C   UNL A   1      46.103  33.093  30.096  1.00  0.00     0.012 A 
ATOM     83  C   UNL A   1      45.086  33.899  28.038  1.00  0.00     0.148 A 
ATOM     84  C   UNL A   1      46.625  34.362  30.343  1.00  0.00     0.002 A 
ATOM     85  C   UNL A   1      45.650  35.149  28.266  1.00  0.00     0.091 A 
ATOM     86  F   UNL A   1      44.324  33.653  26.963  1.00  0.00    -0.205 F 
ATOM     87  C   UNL A   1      46.409  35.385  29.423  1.00  0.00     0.022 A 
BRANCH  85  88
ATOM     88  S   UNL A   1      45.508  36.501  27.091  1.00  0.00     0.127 S 
ATOM     89  O   UNL A   1      46.263  37.559  27.762  1.00  0.00    -0.237 OA
ATOM     90  O   UNL A   1      46.160  35.947  25.903  1.00  0.00    -0.237 OA
ATOM     91  O   UNL A   1      44.083  36.754  26.937  1.00  0.00    -0.744 OA
ENDBRANCH  85  88
ENDBRANCH  58  81
ENDBRANCH  32  33
ENDBRANCH  24  27
ENDBRANCH  22  23
ENDBRANCH   1  22
TORSDOF 16
ENDMDL
