MODEL 1
REMARK VINA RESULT:     -11.0      0.000      0.000
REMARK SMILES CS(=O)(=O)CC(=O)N1CCO[C@@H](CC(=O)NCCCNC(=O)c2ccc(-c3c4nc(c(-c5cccc(S(=O)(=O)[O-])c5F)c5ccc([nH]5)c(-c5cccc(S(=O)(=O)[O-])c5F)c5nc(c(-c6cccc(S(=O)(=O)[O-])c6F)c6ccc3[nH]6)C=C5)C=C4)cc2)C1
REMARK SMILES IDX 17 1 16 2 14 3 15 4 13 6 12 7 8 8 9 9 86 10 10 11 11 12 6 13
REMARK SMILES IDX 7 14 5 15 2 16 1 17 3 18 4 19 18 20 19 21 20 22 21 23 22 25
REMARK SMILES IDX 23 26 24 27 85 28 25 29 84 30 26 31 27 32 28 33 78 34 29 35
REMARK SMILES IDX 83 36 77 37 79 38 30 39 82 40 76 41 75 42 31 44 63 45 43 46
REMARK SMILES IDX 62 47 44 48 47 49 61 50 80 51 45 52 46 53 60 55 81 56 48 57
REMARK SMILES IDX 32 58 33 59 41 60 34 61 36 62 42 63 35 64 37 65 38 66 39 67
REMARK SMILES IDX 40 68 64 69 65 70 73 71 66 72 68 73 74 74 67 75 69 76 70 77
REMARK SMILES IDX 71 78 72 79 49 80 50 81 58 82 51 83 53 84 59 85 52 86 54 87
REMARK SMILES IDX 55 88 56 89 57 90
REMARK H PARENT 16 5 20 24 79 43 47 54
REMARK Flexibility Score: inf
ROOT
ATOM      1  C   UNL A   1      35.207  21.136  25.860  1.00  0.00     0.117 C 
ENDROOT
BRANCH   1   2
ATOM      2  N   UNL A   1      34.171  20.211  25.411  1.00  0.00    -0.356 N 
ATOM      3  C   UNL A   1      32.819  20.355  25.302  1.00  0.00     0.222 C 
ATOM      4  O   UNL A   1      32.159  19.387  24.920  1.00  0.00    -0.275 OA
ATOM      5  H   UNL A   1      34.507  19.326  25.138  1.00  0.00     0.163 HD
BRANCH   3   6
ATOM      6  C   UNL A   1      32.142  21.657  25.654  1.00  0.00     0.133 C 
BRANCH   6   7
ATOM      7  C   UNL A   1      32.106  22.649  24.490  1.00  0.00     0.147 C 
ATOM      8  N   UNL A   1      32.908  24.934  23.833  1.00  0.00    -0.337 N 
ATOM      9  C   UNL A   1      33.794  24.294  22.867  1.00  0.00     0.148 C 
ATOM     10  C   UNL A   1      32.586  24.042  24.933  1.00  0.00     0.152 C 
ATOM     11  C   UNL A   1      33.152  23.005  22.368  1.00  0.00     0.182 C 
ATOM     12  O   UNL A   1      32.966  22.095  23.465  1.00  0.00    -0.374 OA
BRANCH   8  13
ATOM     13  C   UNL A   1      33.160  26.264  24.162  1.00  0.00     0.237 C 
ATOM     14  O   UNL A   1      33.645  27.049  23.348  1.00  0.00    -0.274 OA
BRANCH  13  15
ATOM     15  C   UNL A   1      32.999  26.604  25.612  1.00  0.00     0.236 C 
BRANCH  15  16
ATOM     16  S   UNL A   1      31.547  27.546  25.948  1.00  0.00     0.156 S 
ATOM     17  C   UNL A   1      32.066  29.247  25.836  1.00  0.00     0.158 C 
ATOM     18  O   UNL A   1      31.171  27.230  27.308  1.00  0.00    -0.229 OA
ATOM     19  O   UNL A   1      30.590  27.289  24.879  1.00  0.00    -0.229 OA
ENDBRANCH  15  16
ENDBRANCH  13  15
ENDBRANCH   8  13
ENDBRANCH   6   7
ENDBRANCH   3   6
ENDBRANCH   1   2
BRANCH   1  20
ATOM     20  C   UNL A   1      36.036  21.691  24.700  1.00  0.00     0.042 C 
BRANCH  20  21
ATOM     21  C   UNL A   1      37.384  22.271  25.107  1.00  0.00     0.118 C 
BRANCH  21  22
ATOM     22  N   UNL A   1      38.252  21.264  25.690  1.00  0.00    -0.352 N 
ATOM     23  C   UNL A   1      39.463  21.402  26.326  1.00  0.00     0.251 C 
ATOM     24  H   UNL A   1      37.922  20.339  25.620  1.00  0.00     0.163 HD
ATOM     25  O   UNL A   1      40.140  20.393  26.520  1.00  0.00    -0.269 OA
BRANCH  23  26
ATOM     26  C   UNL A   1      39.972  22.725  26.777  1.00  0.00     0.039 A 
ATOM     27  C   UNL A   1      39.555  23.869  26.086  1.00  0.00     0.014 A 
ATOM     28  C   UNL A   1      40.911  22.855  27.803  1.00  0.00     0.014 A 
ATOM     29  C   UNL A   1      40.050  25.130  26.443  1.00  0.00     0.010 A 
ATOM     30  C   UNL A   1      41.340  24.120  28.213  1.00  0.00     0.010 A 
ATOM     31  C   UNL A   1      40.936  25.272  27.523  1.00  0.00    -0.014 A 
BRANCH  31  32
ATOM     32  C   UNL A   1      41.464  26.608  27.917  1.00  0.00     0.031 A 
ATOM     33  C   UNL A   1      42.900  26.978  27.633  1.00  0.00     0.074 A 
ATOM     34  C   UNL A   1      40.675  27.476  28.581  1.00  0.00     0.049 A 
ATOM     35  N   UNL A   1      43.542  28.082  27.924  1.00  0.00    -0.248 NA
ATOM     36  C   UNL A   1      43.730  25.969  26.953  1.00  0.00     0.031 C 
ATOM     37  C   UNL A   1      39.292  27.221  28.984  1.00  0.00     0.029 A 
ATOM     38  N   UNL A   1      40.929  28.741  29.053  1.00  0.00    -0.354 N 
ATOM     39  C   UNL A   1      44.851  27.887  27.499  1.00  0.00     0.074 A 
ATOM     40  C   UNL A   1      44.923  26.547  26.959  1.00  0.00     0.031 C 
ATOM     41  C   UNL A   1      38.816  28.297  29.630  1.00  0.00     0.029 A 
ATOM     42  C   UNL A   1      39.864  29.309  29.715  1.00  0.00     0.049 A 
ATOM     43  H   UNL A   1      41.792  29.199  28.929  1.00  0.00     0.167 HD
ATOM     44  C   UNL A   1      45.893  28.754  27.519  1.00  0.00     0.034 A 
ATOM     45  C   UNL A   1      39.744  30.508  30.321  1.00  0.00     0.034 A 
ATOM     46  C   UNL A   1      45.811  30.107  27.999  1.00  0.00     0.049 A 
ATOM     47  C   UNL A   1      40.904  31.469  30.288  1.00  0.00     0.074 A 
ATOM     48  C   UNL A   1      46.788  31.088  27.978  1.00  0.00     0.029 A 
ATOM     49  N   UNL A   1      44.690  30.674  28.583  1.00  0.00    -0.354 N 
ATOM     50  N   UNL A   1      42.082  31.321  29.734  1.00  0.00    -0.248 NA
ATOM     51  C   UNL A   1      40.703  32.777  30.931  1.00  0.00     0.031 C 
ATOM     52  C   UNL A   1      46.261  32.244  28.563  1.00  0.00     0.029 A 
ATOM     53  C   UNL A   1      44.950  31.987  28.932  1.00  0.00     0.049 A 
ATOM     54  H   UNL A   1      43.834  30.210  28.729  1.00  0.00     0.167 HD
ATOM     55  C   UNL A   1      42.749  32.527  29.927  1.00  0.00     0.074 A 
ATOM     56  C   UNL A   1      41.833  33.402  30.628  1.00  0.00     0.031 C 
ATOM     57  C   UNL A   1      44.011  32.871  29.572  1.00  0.00     0.034 A 
BRANCH  44  58
ATOM     58  C   UNL A   1      47.205  28.289  26.941  1.00  0.00     0.023 A 
ATOM     59  C   UNL A   1      48.268  27.971  27.810  1.00  0.00     0.012 A 
ATOM     60  C   UNL A   1      47.365  28.096  25.554  1.00  0.00     0.148 A 
ATOM     61  C   UNL A   1      49.480  27.500  27.309  1.00  0.00     0.002 A 
ATOM     62  C   UNL A   1      48.563  27.585  25.066  1.00  0.00     0.091 A 
ATOM     63  F   UNL A   1      46.350  28.420  24.742  1.00  0.00    -0.205 F 
ATOM     64  C   UNL A   1      49.624  27.296  25.940  1.00  0.00     0.022 A 
BRANCH  62  65
ATOM     65  S   UNL A   1      48.823  27.215  23.326  1.00  0.00     0.127 S 
ATOM     66  O   UNL A   1      48.136  25.931  23.193  1.00  0.00    -0.237 OA
ATOM     67  O   UNL A   1      48.152  28.337  22.669  1.00  0.00    -0.237 OA
ATOM     68  O   UNL A   1      50.266  27.175  23.136  1.00  0.00    -0.744 OA
ENDBRANCH  62  65
ENDBRANCH  44  58
BRANCH  45  69
ATOM     69  C   UNL A   1      38.446  30.900  30.943  1.00  0.00     0.023 A 
ATOM     70  C   UNL A   1      38.246  30.688  32.322  1.00  0.00     0.012 A 
ATOM     71  C   UNL A   1      37.426  31.512  30.193  1.00  0.00     0.148 A 
ATOM     72  C   UNL A   1      37.043  31.044  32.931  1.00  0.00     0.002 A 
ATOM     73  C   UNL A   1      36.257  31.929  30.821  1.00  0.00     0.091 A 
ATOM     74  F   UNL A   1      37.616  31.691  28.877  1.00  0.00    -0.205 F 
ATOM     75  C   UNL A   1      36.052  31.676  32.185  1.00  0.00     0.022 A 
BRANCH  73  76
ATOM     76  S   UNL A   1      35.036  32.917  29.952  1.00  0.00     0.127 S 
ATOM     77  O   UNL A   1      34.129  33.296  31.030  1.00  0.00    -0.237 OA
ATOM     78  O   UNL A   1      35.843  34.011  29.408  1.00  0.00    -0.237 OA
ATOM     79  O   UNL A   1      34.503  32.025  28.929  1.00  0.00    -0.744 OA
ENDBRANCH  73  76
ENDBRANCH  45  69
BRANCH  57  80
ATOM     80  C   UNL A   1      44.476  34.266  29.900  1.00  0.00     0.023 A 
ATOM     81  C   UNL A   1      45.182  34.503  31.097  1.00  0.00     0.012 A 
ATOM     82  C   UNL A   1      44.277  35.326  28.994  1.00  0.00     0.148 A 
ATOM     83  C   UNL A   1      45.655  35.779  31.400  1.00  0.00     0.002 A 
ATOM     84  C   UNL A   1      44.793  36.585  29.280  1.00  0.00     0.091 A 
ATOM     85  F   UNL A   1      43.586  35.087  27.869  1.00  0.00    -0.205 F 
ATOM     86  C   UNL A   1      45.471  36.816  30.488  1.00  0.00     0.022 A 
BRANCH  84  87
ATOM     87  S   UNL A   1      44.682  37.954  28.122  1.00  0.00     0.127 S 
ATOM     88  O   UNL A   1      43.245  38.220  28.110  1.00  0.00    -0.237 OA
ATOM     89  O   UNL A   1      45.487  38.985  28.778  1.00  0.00    -0.237 OA
ATOM     90  O   UNL A   1      45.242  37.462  26.870  1.00  0.00    -0.744 OA
ENDBRANCH  84  87
ENDBRANCH  57  80
ENDBRANCH  31  32
ENDBRANCH  23  26
ENDBRANCH  21  22
ENDBRANCH  20  21
ENDBRANCH   1  20
TORSDOF 17
ENDMDL
MODEL 2
REMARK VINA RESULT:     -10.9      5.118     10.013
REMARK SMILES CS(=O)(=O)CC(=O)N1CCO[C@@H](CC(=O)NCCCNC(=O)c2ccc(-c3c4nc(c(-c5cccc(S(=O)(=O)[O-])c5F)c5ccc([nH]5)c(-c5cccc(S(=O)(=O)[O-])c5F)c5nc(c(-c6cccc(S(=O)(=O)[O-])c6F)c6ccc3[nH]6)C=C5)C=C4)cc2)C1
REMARK SMILES IDX 17 1 16 2 14 3 15 4 13 6 12 7 8 8 9 9 86 10 10 11 11 12 6 13
REMARK SMILES IDX 7 14 5 15 2 16 1 17 3 18 4 19 18 20 19 21 20 22 21 23 22 25
REMARK SMILES IDX 23 26 24 27 85 28 25 29 84 30 26 31 27 32 28 33 78 34 29 35
REMARK SMILES IDX 83 36 77 37 79 38 30 39 82 40 76 41 75 42 31 44 63 45 43 46
REMARK SMILES IDX 62 47 44 48 47 49 61 50 80 51 45 52 46 53 60 55 81 56 48 57
REMARK SMILES IDX 32 58 33 59 41 60 34 61 36 62 42 63 35 64 37 65 38 66 39 67
REMARK SMILES IDX 40 68 64 69 65 70 73 71 66 72 68 73 74 74 67 75 69 76 70 77
REMARK SMILES IDX 71 78 72 79 49 80 50 81 58 82 51 83 53 84 59 85 52 86 54 87
REMARK SMILES IDX 55 88 56 89 57 90
REMARK H PARENT 16 5 20 24 79 43 47 54
REMARK Flexibility Score: inf
ROOT
ATOM      1  C   UNL A   1      33.428  26.921  24.380  1.00  0.00     0.117 C 
ENDROOT
BRANCH   1   2
ATOM      2  N   UNL A   1      32.400  26.190  25.115  1.00  0.00    -0.356 N 
ATOM      3  C   UNL A   1      32.440  24.999  25.778  1.00  0.00     0.222 C 
ATOM      4  O   UNL A   1      31.402  24.585  26.295  1.00  0.00    -0.275 OA
ATOM      5  H   UNL A   1      31.522  26.636  25.137  1.00  0.00     0.163 HD
BRANCH   3   6
ATOM      6  C   UNL A   1      33.717  24.197  25.865  1.00  0.00     0.133 C 
BRANCH   6   7
ATOM      7  C   UNL A   1      33.831  23.131  24.773  1.00  0.00     0.147 C 
ATOM      8  N   UNL A   1      32.961  20.860  24.150  1.00  0.00    -0.337 N 
ATOM      9  C   UNL A   1      32.250  21.489  23.043  1.00  0.00     0.148 C 
ATOM     10  C   UNL A   1      33.204  21.801  25.230  1.00  0.00     0.152 C 
ATOM     11  C   UNL A   1      33.037  22.701  22.558  1.00  0.00     0.182 C 
ATOM     12  O   UNL A   1      33.146  23.668  23.616  1.00  0.00    -0.374 OA
BRANCH   8  13
ATOM     13  C   UNL A   1      32.579  19.574  24.519  1.00  0.00     0.237 C 
ATOM     14  O   UNL A   1      32.428  19.258  25.698  1.00  0.00    -0.274 OA
BRANCH  13  15
ATOM     15  C   UNL A   1      32.573  18.567  23.409  1.00  0.00     0.236 C 
BRANCH  15  16
ATOM     16  S   UNL A   1      33.607  17.176  23.725  1.00  0.00     0.156 S 
ATOM     17  C   UNL A   1      35.043  17.847  24.542  1.00  0.00     0.158 C 
ATOM     18  O   UNL A   1      33.975  16.647  22.431  1.00  0.00    -0.229 OA
ATOM     19  O   UNL A   1      32.912  16.306  24.665  1.00  0.00    -0.229 OA
ENDBRANCH  15  16
ENDBRANCH  13  15
ENDBRANCH   8  13
ENDBRANCH   6   7
ENDBRANCH   3   6
ENDBRANCH   1   2
BRANCH   1  20
ATOM     20  C   UNL A   1      33.481  28.400  24.765  1.00  0.00     0.042 C 
BRANCH  20  21
ATOM     21  C   UNL A   1      33.949  28.668  26.188  1.00  0.00     0.118 C 
BRANCH  21  22
ATOM     22  N   UNL A   1      33.882  30.079  26.523  1.00  0.00    -0.352 N 
ATOM     23  C   UNL A   1      34.625  30.812  27.419  1.00  0.00     0.251 C 
ATOM     24  H   UNL A   1      33.198  30.591  26.033  1.00  0.00     0.163 HD
ATOM     25  O   UNL A   1      34.232  31.938  27.721  1.00  0.00    -0.269 OA
BRANCH  23  26
ATOM     26  C   UNL A   1      35.875  30.282  28.026  1.00  0.00     0.039 A 
ATOM     27  C   UNL A   1      37.052  30.320  27.269  1.00  0.00     0.014 A 
ATOM     28  C   UNL A   1      35.896  29.675  29.285  1.00  0.00     0.014 A 
ATOM     29  C   UNL A   1      38.240  29.785  27.781  1.00  0.00     0.010 A 
ATOM     30  C   UNL A   1      37.099  29.217  29.829  1.00  0.00     0.010 A 
ATOM     31  C   UNL A   1      38.281  29.242  29.076  1.00  0.00    -0.014 A 
BRANCH  31  32
ATOM     32  C   UNL A   1      39.540  28.675  29.635  1.00  0.00     0.031 A 
ATOM     33  C   UNL A   1      40.171  29.278  30.867  1.00  0.00     0.074 A 
ATOM     34  C   UNL A   1      40.155  27.651  29.009  1.00  0.00     0.049 A 
ATOM     35  N   UNL A   1      41.276  28.937  31.481  1.00  0.00    -0.248 NA
ATOM     36  C   UNL A   1      39.484  30.429  31.476  1.00  0.00     0.031 C 
ATOM     37  C   UNL A   1      39.696  27.020  27.771  1.00  0.00     0.029 A 
ATOM     38  N   UNL A   1      41.311  26.974  29.316  1.00  0.00    -0.354 N 
ATOM     39  C   UNL A   1      41.434  29.847  32.519  1.00  0.00     0.074 A 
ATOM     40  C   UNL A   1      40.330  30.778  32.435  1.00  0.00     0.031 C 
ATOM     41  C   UNL A   1      40.551  26.042  27.432  1.00  0.00     0.029 A 
ATOM     42  C   UNL A   1      41.635  25.992  28.408  1.00  0.00     0.049 A 
ATOM     43  H   UNL A   1      41.855  27.172  30.112  1.00  0.00     0.167 HD
ATOM     44  C   UNL A   1      42.388  29.887  33.481  1.00  0.00     0.034 A 
ATOM     45  C   UNL A   1      42.686  25.148  28.365  1.00  0.00     0.034 A 
ATOM     46  C   UNL A   1      43.454  28.929  33.606  1.00  0.00     0.049 A 
ATOM     47  C   UNL A   1      43.706  25.184  29.472  1.00  0.00     0.074 A 
ATOM     48  C   UNL A   1      44.415  28.836  34.597  1.00  0.00     0.029 A 
ATOM     49  N   UNL A   1      43.698  27.897  32.714  1.00  0.00    -0.354 N 
ATOM     50  N   UNL A   1      43.744  25.951  30.534  1.00  0.00    -0.248 NA
ATOM     51  C   UNL A   1      44.809  24.214  29.393  1.00  0.00     0.031 C 
ATOM     52  C   UNL A   1      45.250  27.754  34.297  1.00  0.00     0.029 A 
ATOM     53  C   UNL A   1      44.797  27.164  33.128  1.00  0.00     0.049 A 
ATOM     54  H   UNL A   1      43.169  27.712  31.905  1.00  0.00     0.167 HD
ATOM     55  C   UNL A   1      44.848  25.531  31.269  1.00  0.00     0.074 A 
ATOM     56  C   UNL A   1      45.438  24.428  30.541  1.00  0.00     0.031 C 
ATOM     57  C   UNL A   1      45.339  26.028  32.431  1.00  0.00     0.034 A 
BRANCH  44  58
ATOM     58  C   UNL A   1      42.288  30.970  34.525  1.00  0.00     0.023 A 
ATOM     59  C   UNL A   1      41.617  30.701  35.735  1.00  0.00     0.012 A 
ATOM     60  C   UNL A   1      42.914  32.219  34.346  1.00  0.00     0.148 A 
ATOM     61  C   UNL A   1      41.542  31.667  36.737  1.00  0.00     0.002 A 
ATOM     62  C   UNL A   1      42.871  33.162  35.367  1.00  0.00     0.091 A 
ATOM     63  F   UNL A   1      43.532  32.463  33.182  1.00  0.00    -0.205 F 
ATOM     64  C   UNL A   1      42.177  32.892  36.558  1.00  0.00     0.022 A 
BRANCH  62  65
ATOM     65  S   UNL A   1      43.722  34.742  35.265  1.00  0.00     0.127 S 
ATOM     66  O   UNL A   1      43.393  35.338  36.559  1.00  0.00    -0.237 OA
ATOM     67  O   UNL A   1      45.119  34.331  35.121  1.00  0.00    -0.237 OA
ATOM     68  O   UNL A   1      43.167  35.422  34.103  1.00  0.00    -0.744 OA
ENDBRANCH  62  65
ENDBRANCH  44  58
BRANCH  45  69
ATOM     69  C   UNL A   1      42.782  24.136  27.272  1.00  0.00     0.023 A 
ATOM     70  C   UNL A   1      43.594  24.403  26.151  1.00  0.00     0.012 A 
ATOM     71  C   UNL A   1      42.109  22.904  27.348  1.00  0.00     0.148 A 
ATOM     72  C   UNL A   1      43.704  23.476  25.113  1.00  0.00     0.002 A 
ATOM     73  C   UNL A   1      42.279  21.957  26.343  1.00  0.00     0.091 A 
ATOM     74  F   UNL A   1      41.321  22.667  28.408  1.00  0.00    -0.205 F 
ATOM     75  C   UNL A   1      43.057  22.248  25.214  1.00  0.00     0.022 A 
BRANCH  73  76
ATOM     76  S   UNL A   1      41.628  20.292  26.516  1.00  0.00     0.127 S 
ATOM     77  O   UNL A   1      40.190  20.532  26.557  1.00  0.00    -0.237 OA
ATOM     78  O   UNL A   1      42.112  19.635  25.301  1.00  0.00    -0.237 OA
ATOM     79  O   UNL A   1      42.243  19.783  27.736  1.00  0.00    -0.744 OA
ENDBRANCH  73  76
ENDBRANCH  45  69
BRANCH  57  80
ATOM     80  C   UNL A   1      46.558  25.363  33.017  1.00  0.00     0.023 A 
ATOM     81  C   UNL A   1      47.839  25.881  32.734  1.00  0.00     0.012 A 
ATOM     82  C   UNL A   1      46.432  24.275  33.902  1.00  0.00     0.148 A 
ATOM     83  C   UNL A   1      48.976  25.305  33.299  1.00  0.00     0.002 A 
ATOM     84  C   UNL A   1      47.567  23.736  34.498  1.00  0.00     0.091 A 
ATOM     85  F   UNL A   1      45.208  23.783  34.144  1.00  0.00    -0.205 F 
ATOM     86  C   UNL A   1      48.839  24.242  34.189  1.00  0.00     0.022 A 
BRANCH  84  87
ATOM     87  S   UNL A   1      47.477  22.427  35.725  1.00  0.00     0.127 S 
ATOM     88  O   UNL A   1      48.888  22.097  35.915  1.00  0.00    -0.237 OA
ATOM     89  O   UNL A   1      46.852  23.106  36.862  1.00  0.00    -0.237 OA
ATOM     90  O   UNL A   1      46.659  21.379  35.130  1.00  0.00    -0.744 OA
ENDBRANCH  84  87
ENDBRANCH  57  80
ENDBRANCH  31  32
ENDBRANCH  23  26
ENDBRANCH  21  22
ENDBRANCH  20  21
ENDBRANCH   1  20
TORSDOF 17
ENDMDL
MODEL 3
REMARK VINA RESULT:     -10.9      4.709      9.696
REMARK SMILES CS(=O)(=O)CC(=O)N1CCO[C@@H](CC(=O)NCCCNC(=O)c2ccc(-c3c4nc(c(-c5cccc(S(=O)(=O)[O-])c5F)c5ccc([nH]5)c(-c5cccc(S(=O)(=O)[O-])c5F)c5nc(c(-c6cccc(S(=O)(=O)[O-])c6F)c6ccc3[nH]6)C=C5)C=C4)cc2)C1
REMARK SMILES IDX 17 1 16 2 14 3 15 4 13 6 12 7 8 8 9 9 86 10 10 11 11 12 6 13
REMARK SMILES IDX 7 14 5 15 2 16 1 17 3 18 4 19 18 20 19 21 20 22 21 23 22 25
REMARK SMILES IDX 23 26 24 27 85 28 25 29 84 30 26 31 27 32 28 33 78 34 29 35
REMARK SMILES IDX 83 36 77 37 79 38 30 39 82 40 76 41 75 42 31 44 63 45 43 46
REMARK SMILES IDX 62 47 44 48 47 49 61 50 80 51 45 52 46 53 60 55 81 56 48 57
REMARK SMILES IDX 32 58 33 59 41 60 34 61 36 62 42 63 35 64 37 65 38 66 39 67
REMARK SMILES IDX 40 68 64 69 65 70 73 71 66 72 68 73 74 74 67 75 69 76 70 77
REMARK SMILES IDX 71 78 72 79 49 80 50 81 58 82 51 83 53 84 59 85 52 86 54 87
REMARK SMILES IDX 55 88 56 89 57 90
REMARK H PARENT 16 5 20 24 79 43 47 54
REMARK Flexibility Score: inf
ROOT
ATOM      1  C   UNL A   1      33.336  26.640  24.921  1.00  0.00     0.117 C 
ENDROOT
BRANCH   1   2
ATOM      2  N   UNL A   1      32.346  25.866  25.663  1.00  0.00    -0.356 N 
ATOM      3  C   UNL A   1      32.426  24.647  26.271  1.00  0.00     0.222 C 
ATOM      4  O   UNL A   1      31.413  24.199  26.810  1.00  0.00    -0.275 OA
ATOM      5  H   UNL A   1      31.466  26.300  25.740  1.00  0.00     0.163 HD
BRANCH   3   6
ATOM      6  C   UNL A   1      33.713  23.858  26.271  1.00  0.00     0.133 C 
BRANCH   6   7
ATOM      7  C   UNL A   1      33.817  22.880  25.099  1.00  0.00     0.147 C 
ATOM      8  N   UNL A   1      32.911  20.683  24.290  1.00  0.00    -0.337 N 
ATOM      9  C   UNL A   1      32.221  21.412  23.231  1.00  0.00     0.148 C 
ATOM     10  C   UNL A   1      33.161  21.531  25.443  1.00  0.00     0.152 C 
ATOM     11  C   UNL A   1      33.035  22.642  22.850  1.00  0.00     0.182 C 
ATOM     12  O   UNL A   1      33.152  23.521  23.983  1.00  0.00    -0.374 OA
BRANCH   8  13
ATOM     13  C   UNL A   1      32.502  19.379  24.552  1.00  0.00     0.237 C 
ATOM     14  O   UNL A   1      32.235  19.002  25.693  1.00  0.00    -0.274 OA
BRANCH  13  15
ATOM     15  C   UNL A   1      32.613  18.431  23.397  1.00  0.00     0.236 C 
BRANCH  15  16
ATOM     16  S   UNL A   1      33.708  17.085  23.705  1.00  0.00     0.156 S 
ATOM     17  C   UNL A   1      35.104  17.811  24.544  1.00  0.00     0.158 C 
ATOM     18  O   UNL A   1      34.111  16.591  22.407  1.00  0.00    -0.229 OA
ATOM     19  O   UNL A   1      33.045  16.171  24.627  1.00  0.00    -0.229 OA
ENDBRANCH  15  16
ENDBRANCH  13  15
ENDBRANCH   8  13
ENDBRANCH   6   7
ENDBRANCH   3   6
ENDBRANCH   1   2
BRANCH   1  20
ATOM     20  C   UNL A   1      33.318  28.123  25.295  1.00  0.00     0.042 C 
BRANCH  20  21
ATOM     21  C   UNL A   1      33.776  28.424  26.715  1.00  0.00     0.118 C 
BRANCH  21  22
ATOM     22  N   UNL A   1      33.662  29.836  27.032  1.00  0.00    -0.352 N 
ATOM     23  C   UNL A   1      34.451  30.629  27.833  1.00  0.00     0.251 C 
ATOM     24  H   UNL A   1      32.903  30.298  26.609  1.00  0.00     0.163 HD
ATOM     25  O   UNL A   1      34.027  31.737  28.157  1.00  0.00    -0.269 OA
BRANCH  23  26
ATOM     26  C   UNL A   1      35.786  30.184  28.313  1.00  0.00     0.039 A 
ATOM     27  C   UNL A   1      36.886  30.334  27.460  1.00  0.00     0.014 A 
ATOM     28  C   UNL A   1      35.964  29.547  29.544  1.00  0.00     0.014 A 
ATOM     29  C   UNL A   1      38.152  29.881  27.850  1.00  0.00     0.010 A 
ATOM     30  C   UNL A   1      37.242  29.171  29.968  1.00  0.00     0.010 A 
ATOM     31  C   UNL A   1      38.348  29.309  29.118  1.00  0.00    -0.014 A 
BRANCH  31  32
ATOM     32  C   UNL A   1      39.691  28.829  29.548  1.00  0.00     0.031 A 
ATOM     33  C   UNL A   1      40.442  29.539  30.649  1.00  0.00     0.074 A 
ATOM     34  C   UNL A   1      40.268  27.787  28.918  1.00  0.00     0.049 A 
ATOM     35  N   UNL A   1      41.629  29.282  31.138  1.00  0.00    -0.248 NA
ATOM     36  C   UNL A   1      39.785  30.705  31.264  1.00  0.00     0.031 C 
ATOM     37  C   UNL A   1      39.688  27.054  27.792  1.00  0.00     0.029 A 
ATOM     38  N   UNL A   1      41.482  27.175  29.119  1.00  0.00    -0.354 N 
ATOM     39  C   UNL A   1      41.874  30.268  32.087  1.00  0.00     0.074 A 
ATOM     40  C   UNL A   1      40.727  31.150  32.083  1.00  0.00     0.031 C 
ATOM     41  C   UNL A   1      40.537  26.086  27.411  1.00  0.00     0.029 A 
ATOM     42  C   UNL A   1      41.735  26.145  28.242  1.00  0.00     0.049 A 
ATOM     43  H   UNL A   1      42.112  27.448  29.825  1.00  0.00     0.167 HD
ATOM     44  C   UNL A   1      42.937  30.410  32.915  1.00  0.00     0.034 A 
ATOM     45  C   UNL A   1      42.809  25.338  28.121  1.00  0.00     0.034 A 
ATOM     46  C   UNL A   1      44.052  29.502  32.965  1.00  0.00     0.049 A 
ATOM     47  C   UNL A   1      43.956  25.489  29.085  1.00  0.00     0.074 A 
ATOM     48  C   UNL A   1      45.132  29.514  33.830  1.00  0.00     0.029 A 
ATOM     49  N   UNL A   1      44.230  28.420  32.119  1.00  0.00    -0.354 N 
ATOM     50  N   UNL A   1      44.091  26.329  30.081  1.00  0.00    -0.248 NA
ATOM     51  C   UNL A   1      45.083  24.556  28.930  1.00  0.00     0.031 C 
ATOM     52  C   UNL A   1      45.971  28.445  33.498  1.00  0.00     0.029 A 
ATOM     53  C   UNL A   1      45.403  27.758  32.436  1.00  0.00     0.049 A 
ATOM     54  H   UNL A   1      43.613  28.159  31.397  1.00  0.00     0.167 HD
ATOM     55  C   UNL A   1      45.296  26.002  30.696  1.00  0.00     0.074 A 
ATOM     56  C   UNL A   1      45.840  24.872  29.972  1.00  0.00     0.031 C 
ATOM     57  C   UNL A   1      45.905  26.596  31.752  1.00  0.00     0.034 A 
BRANCH  44  58
ATOM     58  C   UNL A   1      42.919  31.559  33.891  1.00  0.00     0.023 A 
ATOM     59  C   UNL A   1      43.416  32.815  33.489  1.00  0.00     0.012 A 
ATOM     60  C   UNL A   1      42.348  31.420  35.172  1.00  0.00     0.148 A 
ATOM     61  C   UNL A   1      43.375  33.907  34.354  1.00  0.00     0.002 A 
ATOM     62  C   UNL A   1      42.273  32.524  36.014  1.00  0.00     0.091 A 
ATOM     63  F   UNL A   1      41.897  30.214  35.544  1.00  0.00    -0.205 F 
ATOM     64  C   UNL A   1      42.795  33.765  35.611  1.00  0.00     0.022 A 
BRANCH  62  65
ATOM     65  S   UNL A   1      41.477  32.465  37.624  1.00  0.00     0.127 S 
ATOM     66  O   UNL A   1      40.116  32.070  37.265  1.00  0.00    -0.237 OA
ATOM     67  O   UNL A   1      42.250  31.431  38.313  1.00  0.00    -0.237 OA
ATOM     68  O   UNL A   1      41.612  33.801  38.187  1.00  0.00    -0.744 OA
ENDBRANCH  62  65
ENDBRANCH  44  58
BRANCH  45  69
ATOM     69  C   UNL A   1      42.814  24.256  27.093  1.00  0.00     0.023 A 
ATOM     70  C   UNL A   1      43.529  24.445  25.893  1.00  0.00     0.012 A 
ATOM     71  C   UNL A   1      42.151  23.035  27.306  1.00  0.00     0.148 A 
ATOM     72  C   UNL A   1      43.551  23.452  24.913  1.00  0.00     0.002 A 
ATOM     73  C   UNL A   1      42.237  22.023  26.355  1.00  0.00     0.091 A 
ATOM     74  F   UNL A   1      41.456  22.871  28.442  1.00  0.00    -0.205 F 
ATOM     75  C   UNL A   1      42.917  22.236  25.148  1.00  0.00     0.022 A 
BRANCH  73  76
ATOM     76  S   UNL A   1      41.605  20.376  26.691  1.00  0.00     0.127 S 
ATOM     77  O   UNL A   1      41.943  19.665  25.462  1.00  0.00    -0.237 OA
ATOM     78  O   UNL A   1      42.375  19.975  27.869  1.00  0.00    -0.237 OA
ATOM     79  O   UNL A   1      40.187  20.576  26.964  1.00  0.00    -0.744 OA
ENDBRANCH  73  76
ENDBRANCH  45  69
BRANCH  57  80
ATOM     80  C   UNL A   1      47.216  26.019  32.220  1.00  0.00     0.023 A 
ATOM     81  C   UNL A   1      47.234  25.121  33.306  1.00  0.00     0.012 A 
ATOM     82  C   UNL A   1      48.415  26.308  31.541  1.00  0.00     0.148 A 
ATOM     83  C   UNL A   1      48.432  24.545  33.729  1.00  0.00     0.002 A 
ATOM     84  C   UNL A   1      49.598  25.694  31.938  1.00  0.00     0.091 A 
ATOM     85  F   UNL A   1      48.382  27.180  30.522  1.00  0.00    -0.205 F 
ATOM     86  C   UNL A   1      49.610  24.822  33.038  1.00  0.00     0.022 A 
BRANCH  84  87
ATOM     87  S   UNL A   1      51.143  25.921  31.050  1.00  0.00     0.127 S 
ATOM     88  O   UNL A   1      52.065  25.107  31.841  1.00  0.00    -0.237 OA
ATOM     89  O   UNL A   1      50.828  25.375  29.729  1.00  0.00    -0.237 OA
ATOM     90  O   UNL A   1      51.401  27.354  31.060  1.00  0.00    -0.744 OA
ENDBRANCH  84  87
ENDBRANCH  57  80
ENDBRANCH  31  32
ENDBRANCH  23  26
ENDBRANCH  21  22
ENDBRANCH  20  21
ENDBRANCH   1  20
TORSDOF 17
ENDMDL
