MODEL 1
REMARK VINA RESULT:     -12.8      0.000      0.000
REMARK SMILES O=C(NCCCNC(=O)[C@@H]1[C@H](C(=O)Nc2ccccc2Cc2ccccc2)[C@H]2C=C[C@@H]1O2)c1ccc(-c2c3nc(c(-c4cccc(S(=O)(=O)[O-])c4F)c4ccc([nH]4)c(-c4cccc(S(=O)(=O)[O-])c4F)c4nc(c(-c5cccc(S(=O)(=O)[O-])c5F)c5ccc2[nH]5)C=C4)C=C3)cc1
REMARK SMILES IDX 5 1 4 2 3 3 1 4 2 5 33 7 34 8 95 9 35 10 94 11 36 12 37 13
REMARK SMILES IDX 38 14 88 15 39 16 93 17 87 18 89 19 40 20 92 21 86 22 85 23
REMARK SMILES IDX 41 25 73 26 53 27 72 28 54 29 57 30 71 31 90 32 55 33 56 34
REMARK SMILES IDX 70 36 91 37 58 38 42 39 43 40 51 41 44 42 46 43 52 44 45 45
REMARK SMILES IDX 47 46 48 47 49 48 50 49 74 50 75 51 83 52 76 53 78 54 84 55
REMARK SMILES IDX 77 56 79 57 80 58 81 59 82 60 59 61 60 62 68 63 61 64 63 65
REMARK SMILES IDX 69 66 62 67 64 68 65 69 66 70 67 71 6 72 7 73 8 74 9 76
REMARK SMILES IDX 10 77 11 78 31 79 28 80 30 81 32 82 29 83 12 84 13 85 14 86
REMARK SMILES IDX 15 88 16 89 20 90 17 91 19 92 18 93 21 94 22 95 23 96 27 97
REMARK SMILES IDX 24 98 26 99 25 100
REMARK H PARENT 3 6 89 24 57 35 7 75 14 87
REMARK Flexibility Score: inf
ROOT
ATOM      1  C   UNL A   1      32.052  29.276  27.002  1.00  0.00     0.042 C 
ENDROOT
BRANCH   1   2
ATOM      2  C   UNL A   1      32.974  30.312  26.365  1.00  0.00     0.118 C 
BRANCH   2   3
ATOM      3  N   UNL A   1      32.676  31.683  26.738  1.00  0.00    -0.352 N 
ATOM      4  O   UNL A   1      33.035  33.618  27.863  1.00  0.00    -0.269 OA
ATOM      5  C   UNL A   1      33.434  32.508  27.546  1.00  0.00     0.251 C 
ATOM      6  H   UNL A   1      31.846  32.066  26.376  1.00  0.00     0.163 HD
BRANCH   5   7
ATOM      7  C   UNL A   1      34.734  32.002  28.048  1.00  0.00     0.039 A 
ATOM      8  C   UNL A   1      34.817  30.743  28.653  1.00  0.00     0.014 A 
ATOM      9  C   UNL A   1      35.862  32.820  27.960  1.00  0.00     0.014 A 
ATOM     10  C   UNL A   1      36.001  30.351  29.275  1.00  0.00     0.010 A 
ATOM     11  C   UNL A   1      37.064  32.400  28.538  1.00  0.00     0.010 A 
ATOM     12  C   UNL A   1      37.134  31.178  29.228  1.00  0.00    -0.014 A 
BRANCH  12  13
ATOM     13  C   UNL A   1      38.411  30.739  29.844  1.00  0.00     0.031 A 
ATOM     14  C   UNL A   1      39.290  29.724  29.165  1.00  0.00     0.074 A 
ATOM     15  C   UNL A   1      38.740  31.214  31.062  1.00  0.00     0.049 A 
ATOM     16  N   UNL A   1      40.397  29.175  29.596  1.00  0.00    -0.248 NA
ATOM     17  C   UNL A   1      38.871  29.255  27.833  1.00  0.00     0.031 C 
ATOM     18  C   UNL A   1      37.938  32.165  31.836  1.00  0.00     0.029 A 
ATOM     19  N   UNL A   1      39.807  30.935  31.878  1.00  0.00    -0.354 N 
ATOM     20  C   UNL A   1      40.781  28.266  28.617  1.00  0.00     0.074 A 
ATOM     21  C   UNL A   1      39.795  28.341  27.562  1.00  0.00     0.031 C 
ATOM     22  C   UNL A   1      38.525  32.369  33.024  1.00  0.00     0.029 A 
ATOM     23  C   UNL A   1      39.718  31.533  33.113  1.00  0.00     0.049 A 
ATOM     24  H   UNL A   1      40.559  30.362  31.607  1.00  0.00     0.167 HD
ATOM     25  C   UNL A   1      41.864  27.452  28.601  1.00  0.00     0.034 A 
ATOM     26  C   UNL A   1      40.487  31.398  34.211  1.00  0.00     0.034 A 
ATOM     27  C   UNL A   1      42.867  27.422  29.632  1.00  0.00     0.049 A 
ATOM     28  C   UNL A   1      41.687  30.495  34.154  1.00  0.00     0.074 A 
ATOM     29  C   UNL A   1      44.066  26.730  29.645  1.00  0.00     0.029 A 
ATOM     30  N   UNL A   1      42.780  28.092  30.842  1.00  0.00    -0.354 N 
ATOM     31  N   UNL A   1      42.135  29.784  33.148  1.00  0.00    -0.248 NA
ATOM     32  C   UNL A   1      42.501  30.392  35.373  1.00  0.00     0.031 C 
ATOM     33  C   UNL A   1      44.690  26.958  30.876  1.00  0.00     0.029 A 
ATOM     34  C   UNL A   1      43.887  27.804  31.623  1.00  0.00     0.049 A 
ATOM     35  H   UNL A   1      42.041  28.685  31.108  1.00  0.00     0.167 HD
ATOM     36  C   UNL A   1      43.289  29.162  33.607  1.00  0.00     0.074 A 
ATOM     37  C   UNL A   1      43.490  29.605  34.971  1.00  0.00     0.031 C 
ATOM     38  C   UNL A   1      44.096  28.283  32.964  1.00  0.00     0.034 A 
BRANCH  25  39
ATOM     39  C   UNL A   1      42.063  26.545  27.416  1.00  0.00     0.023 A 
ATOM     40  C   UNL A   1      42.717  27.034  26.267  1.00  0.00     0.012 A 
ATOM     41  C   UNL A   1      41.715  25.180  27.486  1.00  0.00     0.148 A 
ATOM     42  C   UNL A   1      43.011  26.183  25.202  1.00  0.00     0.002 A 
ATOM     43  C   UNL A   1      42.041  24.332  26.435  1.00  0.00     0.091 A 
ATOM     44  F   UNL A   1      41.080  24.740  28.582  1.00  0.00    -0.205 F 
ATOM     45  C   UNL A   1      42.684  24.832  25.291  1.00  0.00     0.022 A 
BRANCH  43  46
ATOM     46  S   UNL A   1      41.726  22.563  26.479  1.00  0.00     0.127 S 
ATOM     47  O   UNL A   1      40.265  22.525  26.505  1.00  0.00    -0.237 OA
ATOM     48  O   UNL A   1      42.325  22.112  25.222  1.00  0.00    -0.237 OA
ATOM     49  O   UNL A   1      42.384  22.066  27.679  1.00  0.00    -0.744 OA
ENDBRANCH  43  46
ENDBRANCH  25  39
BRANCH  26  50
ATOM     50  C   UNL A   1      40.142  32.148  35.449  1.00  0.00     0.023 A 
ATOM     51  C   UNL A   1      40.766  33.382  35.712  1.00  0.00     0.012 A 
ATOM     52  C   UNL A   1      39.165  31.668  36.345  1.00  0.00     0.148 A 
ATOM     53  C   UNL A   1      40.441  34.113  36.855  1.00  0.00     0.002 A 
ATOM     54  C   UNL A   1      38.804  32.430  37.449  1.00  0.00     0.091 A 
ATOM     55  F   UNL A   1      38.597  30.480  36.093  1.00  0.00    -0.205 F 
ATOM     56  C   UNL A   1      39.450  33.645  37.715  1.00  0.00     0.022 A 
BRANCH  54  57
ATOM     57  S   UNL A   1      37.434  31.957  38.511  1.00  0.00     0.127 S 
ATOM     58  O   UNL A   1      36.389  32.882  38.086  1.00  0.00    -0.237 OA
ATOM     59  O   UNL A   1      37.213  30.560  38.132  1.00  0.00    -0.237 OA
ATOM     60  O   UNL A   1      37.931  32.128  39.870  1.00  0.00    -0.744 OA
ENDBRANCH  54  57
ENDBRANCH  26  50
BRANCH  38  61
ATOM     61  C   UNL A   1      45.273  27.736  33.726  1.00  0.00     0.023 A 
ATOM     62  C   UNL A   1      46.481  28.459  33.739  1.00  0.00     0.012 A 
ATOM     63  C   UNL A   1      45.162  26.556  34.487  1.00  0.00     0.148 A 
ATOM     64  C   UNL A   1      47.571  28.004  34.479  1.00  0.00     0.002 A 
ATOM     65  C   UNL A   1      46.237  26.132  35.257  1.00  0.00     0.091 A 
ATOM     66  F   UNL A   1      44.006  25.876  34.446  1.00  0.00    -0.205 F 
ATOM     67  C   UNL A   1      47.445  26.848  35.246  1.00  0.00     0.022 A 
BRANCH  65  68
ATOM     68  S   UNL A   1      46.141  24.705  36.345  1.00  0.00     0.127 S 
ATOM     69  O   UNL A   1      45.856  23.628  35.399  1.00  0.00    -0.237 OA
ATOM     70  O   UNL A   1      47.484  24.667  36.926  1.00  0.00    -0.237 OA
ATOM     71  O   UNL A   1      45.079  24.996  37.298  1.00  0.00    -0.744 OA
ENDBRANCH  65  68
ENDBRANCH  38  61
ENDBRANCH  12  13
ENDBRANCH   5   7
ENDBRANCH   2   3
ENDBRANCH   1   2
BRANCH   1  72
ATOM     72  C   UNL A   1      32.283  27.832  26.567  1.00  0.00     0.117 C 
BRANCH  72  73
ATOM     73  N   UNL A   1      31.055  27.176  26.161  1.00  0.00    -0.356 N 
ATOM     74  C   UNL A   1      30.723  25.890  25.909  1.00  0.00     0.227 C 
ATOM     75  H   UNL A   1      30.304  27.801  26.042  1.00  0.00     0.163 HD
ATOM     76  O   UNL A   1      29.558  25.727  25.535  1.00  0.00    -0.275 OA
BRANCH  74  77
ATOM     77  C   UNL A   1      31.706  24.736  25.927  1.00  0.00     0.127 C 
ATOM     78  C   UNL A   1      31.976  24.085  24.526  1.00  0.00     0.127 C 
ATOM     79  C   UNL A   1      31.436  23.475  26.767  1.00  0.00     0.155 C 
ATOM     80  C   UNL A   1      31.932  22.593  24.841  1.00  0.00     0.155 C 
ATOM     81  C   UNL A   1      32.741  22.753  26.967  1.00  0.00     0.004 C 
ATOM     82  O   UNL A   1      30.854  22.567  25.801  1.00  0.00    -0.365 OA
ATOM     83  C   UNL A   1      33.057  22.227  25.774  1.00  0.00     0.004 C 
BRANCH  78  84
ATOM     84  C   UNL A   1      31.149  24.486  23.303  1.00  0.00     0.231 C 
ATOM     85  O   UNL A   1      30.073  23.891  23.123  1.00  0.00    -0.274 OA
ATOM     86  N   UNL A   1      31.441  25.434  22.366  1.00  0.00    -0.325 N 
ATOM     87  H   UNL A   1      31.122  25.220  21.459  1.00  0.00     0.169 HD
BRANCH  86  88
ATOM     88  C   UNL A   1      32.120  26.665  22.468  1.00  0.00     0.044 A 
ATOM     89  C   UNL A   1      33.519  26.593  22.564  1.00  0.00     0.026 A 
ATOM     90  C   UNL A   1      31.466  27.890  22.725  1.00  0.00    -0.020 A 
ATOM     91  C   UNL A   1      34.280  27.740  22.786  1.00  0.00     0.002 A 
ATOM     92  C   UNL A   1      32.255  29.042  22.899  1.00  0.00     0.006 A 
ATOM     93  C   UNL A   1      33.647  28.969  22.928  1.00  0.00     0.000 A 
BRANCH  90  94
ATOM     94  C   UNL A   1      29.963  27.978  22.732  1.00  0.00     0.073 C 
BRANCH  94  95
ATOM     95  C   UNL A   1      29.244  29.306  22.773  1.00  0.00    -0.044 A 
ATOM     96  C   UNL A   1      28.521  29.737  21.652  1.00  0.00     0.004 A 
ATOM     97  C   UNL A   1      29.427  30.193  23.845  1.00  0.00     0.004 A 
ATOM     98  C   UNL A   1      28.008  31.032  21.595  1.00  0.00     0.000 A 
ATOM     99  C   UNL A   1      28.899  31.483  23.793  1.00  0.00     0.000 A 
ATOM    100  C   UNL A   1      28.198  31.903  22.665  1.00  0.00     0.000 A 
ENDBRANCH  94  95
ENDBRANCH  90  94
ENDBRANCH  86  88
ENDBRANCH  78  84
ENDBRANCH  74  77
ENDBRANCH  72  73
ENDBRANCH   1  72
TORSDOF 17
ENDMDL
MODEL 2
REMARK VINA RESULT:     -12.8      2.384      4.550
REMARK SMILES O=C(NCCCNC(=O)[C@@H]1[C@H](C(=O)Nc2ccccc2Cc2ccccc2)[C@H]2C=C[C@@H]1O2)c1ccc(-c2c3nc(c(-c4cccc(S(=O)(=O)[O-])c4F)c4ccc([nH]4)c(-c4cccc(S(=O)(=O)[O-])c4F)c4nc(c(-c5cccc(S(=O)(=O)[O-])c5F)c5ccc2[nH]5)C=C4)C=C3)cc1
REMARK SMILES IDX 5 1 4 2 3 3 1 4 2 5 33 7 34 8 95 9 35 10 94 11 36 12 37 13
REMARK SMILES IDX 38 14 88 15 39 16 93 17 87 18 89 19 40 20 92 21 86 22 85 23
REMARK SMILES IDX 41 25 73 26 53 27 72 28 54 29 57 30 71 31 90 32 55 33 56 34
REMARK SMILES IDX 70 36 91 37 58 38 42 39 43 40 51 41 44 42 46 43 52 44 45 45
REMARK SMILES IDX 47 46 48 47 49 48 50 49 74 50 75 51 83 52 76 53 78 54 84 55
REMARK SMILES IDX 77 56 79 57 80 58 81 59 82 60 59 61 60 62 68 63 61 64 63 65
REMARK SMILES IDX 69 66 62 67 64 68 65 69 66 70 67 71 6 72 7 73 8 74 9 76
REMARK SMILES IDX 10 77 11 78 31 79 28 80 30 81 32 82 29 83 12 84 13 85 14 86
REMARK SMILES IDX 15 88 16 89 20 90 17 91 19 92 18 93 21 94 22 95 23 96 27 97
REMARK SMILES IDX 24 98 26 99 25 100
REMARK H PARENT 3 6 89 24 57 35 7 75 14 87
REMARK Flexibility Score: inf
ROOT
ATOM      1  C   UNL A   1      31.933  32.271  26.670  1.00  0.00     0.042 C 
ENDROOT
BRANCH   1   2
ATOM      2  C   UNL A   1      32.951  32.988  27.551  1.00  0.00     0.118 C 
BRANCH   2   3
ATOM      3  N   UNL A   1      32.541  34.315  27.977  1.00  0.00    -0.352 N 
ATOM      4  O   UNL A   1      32.638  36.159  29.290  1.00  0.00    -0.269 OA
ATOM      5  C   UNL A   1      33.129  35.092  28.955  1.00  0.00     0.251 C 
ATOM      6  H   UNL A   1      31.761  34.701  27.518  1.00  0.00     0.163 HD
BRANCH   5   7
ATOM      7  C   UNL A   1      34.355  34.585  29.616  1.00  0.00     0.039 A 
ATOM      8  C   UNL A   1      35.600  34.713  28.991  1.00  0.00     0.014 A 
ATOM      9  C   UNL A   1      34.244  33.928  30.843  1.00  0.00     0.014 A 
ATOM     10  C   UNL A   1      36.717  34.082  29.536  1.00  0.00     0.010 A 
ATOM     11  C   UNL A   1      35.377  33.342  31.415  1.00  0.00     0.010 A 
ATOM     12  C   UNL A   1      36.614  33.386  30.750  1.00  0.00    -0.014 A 
BRANCH  12  13
ATOM     13  C   UNL A   1      37.814  32.757  31.360  1.00  0.00     0.031 A 
ATOM     14  C   UNL A   1      38.486  31.579  30.709  1.00  0.00     0.074 A 
ATOM     15  C   UNL A   1      38.252  33.217  32.548  1.00  0.00     0.049 A 
ATOM     16  N   UNL A   1      39.493  30.865  31.142  1.00  0.00    -0.248 NA
ATOM     17  C   UNL A   1      37.956  31.137  29.408  1.00  0.00     0.031 C 
ATOM     18  C   UNL A   1      37.648  34.323  33.295  1.00  0.00     0.029 A 
ATOM     19  N   UNL A   1      39.277  32.791  33.354  1.00  0.00    -0.354 N 
ATOM     20  C   UNL A   1      39.689  29.864  30.197  1.00  0.00     0.074 A 
ATOM     21  C   UNL A   1      38.701  30.066  29.159  1.00  0.00     0.031 C 
ATOM     22  C   UNL A   1      38.293  34.470  34.461  1.00  0.00     0.029 A 
ATOM     23  C   UNL A   1      39.326  33.445  34.563  1.00  0.00     0.049 A 
ATOM     24  H   UNL A   1      39.912  32.086  33.094  1.00  0.00     0.167 HD
ATOM     25  C   UNL A   1      40.614  28.875  30.196  1.00  0.00     0.034 A 
ATOM     26  C   UNL A   1      40.090  33.223  35.650  1.00  0.00     0.034 A 
ATOM     27  C   UNL A   1      41.625  28.713  31.207  1.00  0.00     0.049 A 
ATOM     28  C   UNL A   1      41.115  32.125  35.610  1.00  0.00     0.074 A 
ATOM     29  C   UNL A   1      42.686  27.826  31.226  1.00  0.00     0.029 A 
ATOM     30  N   UNL A   1      41.688  29.437  32.387  1.00  0.00    -0.354 N 
ATOM     31  N   UNL A   1      41.406  31.307  34.628  1.00  0.00    -0.248 NA
ATOM     32  C   UNL A   1      41.932  31.931  36.816  1.00  0.00     0.031 C 
ATOM     33  C   UNL A   1      43.374  27.991  32.433  1.00  0.00     0.029 A 
ATOM     34  C   UNL A   1      42.749  28.993  33.158  1.00  0.00     0.049 A 
ATOM     35  H   UNL A   1      41.069  30.159  32.641  1.00  0.00     0.167 HD
ATOM     36  C   UNL A   1      42.448  30.513  35.091  1.00  0.00     0.074 A 
ATOM     37  C   UNL A   1      42.759  30.969  36.430  1.00  0.00     0.031 C 
ATOM     38  C   UNL A   1      43.074  29.482  34.472  1.00  0.00     0.034 A 
BRANCH  25  39
ATOM     39  C   UNL A   1      40.622  27.900  29.048  1.00  0.00     0.023 A 
ATOM     40  C   UNL A   1      39.604  26.930  28.953  1.00  0.00     0.012 A 
ATOM     41  C   UNL A   1      41.561  28.022  28.004  1.00  0.00     0.148 A 
ATOM     42  C   UNL A   1      39.527  26.089  27.843  1.00  0.00     0.002 A 
ATOM     43  C   UNL A   1      41.458  27.203  26.886  1.00  0.00     0.091 A 
ATOM     44  F   UNL A   1      42.530  28.941  28.123  1.00  0.00    -0.205 F 
ATOM     45  C   UNL A   1      40.445  26.234  26.806  1.00  0.00     0.022 A 
BRANCH  43  46
ATOM     46  S   UNL A   1      42.548  27.355  25.465  1.00  0.00     0.127 S 
ATOM     47  O   UNL A   1      43.858  27.440  26.108  1.00  0.00    -0.237 OA
ATOM     48  O   UNL A   1      42.299  26.102  24.751  1.00  0.00    -0.237 OA
ATOM     49  O   UNL A   1      42.123  28.554  24.757  1.00  0.00    -0.744 OA
ENDBRANCH  43  46
ENDBRANCH  25  39
BRANCH  26  50
ATOM     50  C   UNL A   1      39.914  34.071  36.861  1.00  0.00     0.023 A 
ATOM     51  C   UNL A   1      40.316  35.419  36.831  1.00  0.00     0.012 A 
ATOM     52  C   UNL A   1      39.307  33.561  38.026  1.00  0.00     0.148 A 
ATOM     53  C   UNL A   1      40.138  36.238  37.946  1.00  0.00     0.002 A 
ATOM     54  C   UNL A   1      39.079  34.397  39.112  1.00  0.00     0.091 A 
ATOM     55  F   UNL A   1      38.952  32.268  38.048  1.00  0.00    -0.205 F 
ATOM     56  C   UNL A   1      39.507  35.732  39.081  1.00  0.00     0.022 A 
BRANCH  54  57
ATOM     57  S   UNL A   1      38.140  33.850  40.542  1.00  0.00     0.127 S 
ATOM     58  O   UNL A   1      37.924  35.103  41.259  1.00  0.00    -0.237 OA
ATOM     59  O   UNL A   1      36.941  33.276  39.927  1.00  0.00    -0.237 OA
ATOM     60  O   UNL A   1      38.992  32.870  41.203  1.00  0.00    -0.744 OA
ENDBRANCH  54  57
ENDBRANCH  26  50
BRANCH  38  61
ATOM     61  C   UNL A   1      44.159  28.771  35.233  1.00  0.00     0.023 A 
ATOM     62  C   UNL A   1      45.494  29.196  35.089  1.00  0.00     0.012 A 
ATOM     63  C   UNL A   1      43.853  27.742  36.145  1.00  0.00     0.148 A 
ATOM     64  C   UNL A   1      46.513  28.591  35.822  1.00  0.00     0.002 A 
ATOM     65  C   UNL A   1      44.868  27.174  36.905  1.00  0.00     0.091 A 
ATOM     66  F   UNL A   1      42.577  27.343  36.254  1.00  0.00    -0.205 F 
ATOM     67  C   UNL A   1      46.199  27.589  36.737  1.00  0.00     0.022 A 
BRANCH  65  68
ATOM     68  S   UNL A   1      44.549  25.939  38.170  1.00  0.00     0.127 S 
ATOM     69  O   UNL A   1      44.136  24.789  37.368  1.00  0.00    -0.237 OA
ATOM     70  O   UNL A   1      45.861  25.800  38.805  1.00  0.00    -0.237 OA
ATOM     71  O   UNL A   1      43.518  26.501  39.031  1.00  0.00    -0.744 OA
ENDBRANCH  65  68
ENDBRANCH  38  61
ENDBRANCH  12  13
ENDBRANCH   5   7
ENDBRANCH   2   3
ENDBRANCH   1   2
BRANCH   1  72
ATOM     72  C   UNL A   1      31.818  30.766  26.886  1.00  0.00     0.117 C 
BRANCH  72  73
ATOM     73  N   UNL A   1      32.802  30.023  26.122  1.00  0.00    -0.356 N 
ATOM     74  C   UNL A   1      32.720  29.141  25.100  1.00  0.00     0.227 C 
ATOM     75  H   UNL A   1      33.727  30.198  26.409  1.00  0.00     0.163 HD
ATOM     76  O   UNL A   1      33.804  28.678  24.736  1.00  0.00    -0.275 OA
BRANCH  74  77
ATOM     77  C   UNL A   1      31.417  28.624  24.523  1.00  0.00     0.127 C 
ATOM     78  C   UNL A   1      30.668  27.583  25.427  1.00  0.00     0.127 C 
ATOM     79  C   UNL A   1      31.382  27.888  23.172  1.00  0.00     0.155 C 
ATOM     80  C   UNL A   1      30.243  26.518  24.422  1.00  0.00     0.155 C 
ATOM     81  C   UNL A   1      29.971  27.927  22.649  1.00  0.00     0.004 C 
ATOM     82  O   UNL A   1      31.408  26.495  23.568  1.00  0.00    -0.365 OA
ATOM     83  C   UNL A   1      29.265  27.098  23.433  1.00  0.00     0.004 C 
BRANCH  78  84
ATOM     84  C   UNL A   1      31.330  27.021  26.687  1.00  0.00     0.231 C 
ATOM     85  O   UNL A   1      31.279  27.717  27.715  1.00  0.00    -0.274 OA
ATOM     86  N   UNL A   1      31.979  25.830  26.834  1.00  0.00    -0.325 N 
ATOM     87  H   UNL A   1      32.730  25.853  27.472  1.00  0.00     0.169 HD
BRANCH  86  88
ATOM     88  C   UNL A   1      31.765  24.573  26.233  1.00  0.00     0.044 A 
ATOM     89  C   UNL A   1      30.654  23.850  26.693  1.00  0.00     0.026 A 
ATOM     90  C   UNL A   1      32.722  23.935  25.413  1.00  0.00    -0.020 A 
ATOM     91  C   UNL A   1      30.416  22.549  26.253  1.00  0.00     0.002 A 
ATOM     92  C   UNL A   1      32.437  22.640  24.943  1.00  0.00     0.006 A 
ATOM     93  C   UNL A   1      31.295  21.954  25.356  1.00  0.00     0.000 A 
BRANCH  90  94
ATOM     94  C   UNL A   1      33.976  24.650  24.987  1.00  0.00     0.073 C 
BRANCH  94  95
ATOM     95  C   UNL A   1      35.290  23.922  24.826  1.00  0.00    -0.044 A 
ATOM     96  C   UNL A   1      35.653  23.417  23.568  1.00  0.00     0.004 A 
ATOM     97  C   UNL A   1      36.075  23.591  25.941  1.00  0.00     0.004 A 
ATOM     98  C   UNL A   1      36.763  22.585  23.433  1.00  0.00     0.000 A 
ATOM     99  C   UNL A   1      37.194  22.772  25.801  1.00  0.00     0.000 A 
ATOM    100  C   UNL A   1      37.532  22.263  24.548  1.00  0.00     0.000 A 
ENDBRANCH  94  95
ENDBRANCH  90  94
ENDBRANCH  86  88
ENDBRANCH  78  84
ENDBRANCH  74  77
ENDBRANCH  72  73
ENDBRANCH   1  72
TORSDOF 17
ENDMDL
MODEL 3
REMARK VINA RESULT:     -12.8      5.375     10.246
REMARK SMILES O=C(NCCCNC(=O)[C@@H]1[C@H](C(=O)Nc2ccccc2Cc2ccccc2)[C@H]2C=C[C@@H]1O2)c1ccc(-c2c3nc(c(-c4cccc(S(=O)(=O)[O-])c4F)c4ccc([nH]4)c(-c4cccc(S(=O)(=O)[O-])c4F)c4nc(c(-c5cccc(S(=O)(=O)[O-])c5F)c5ccc2[nH]5)C=C4)C=C3)cc1
REMARK SMILES IDX 5 1 4 2 3 3 1 4 2 5 33 7 34 8 95 9 35 10 94 11 36 12 37 13
REMARK SMILES IDX 38 14 88 15 39 16 93 17 87 18 89 19 40 20 92 21 86 22 85 23
REMARK SMILES IDX 41 25 73 26 53 27 72 28 54 29 57 30 71 31 90 32 55 33 56 34
REMARK SMILES IDX 70 36 91 37 58 38 42 39 43 40 51 41 44 42 46 43 52 44 45 45
REMARK SMILES IDX 47 46 48 47 49 48 50 49 74 50 75 51 83 52 76 53 78 54 84 55
REMARK SMILES IDX 77 56 79 57 80 58 81 59 82 60 59 61 60 62 68 63 61 64 63 65
REMARK SMILES IDX 69 66 62 67 64 68 65 69 66 70 67 71 6 72 7 73 8 74 9 76
REMARK SMILES IDX 10 77 11 78 31 79 28 80 30 81 32 82 29 83 12 84 13 85 14 86
REMARK SMILES IDX 15 88 16 89 20 90 17 91 19 92 18 93 21 94 22 95 23 96 27 97
REMARK SMILES IDX 24 98 26 99 25 100
REMARK H PARENT 3 6 89 24 57 35 7 75 14 87
REMARK Flexibility Score: inf
ROOT
ATOM      1  C   UNL A   1      37.891  19.829  25.081  1.00  0.00     0.042 C 
ENDROOT
BRANCH   1   2
ATOM      2  C   UNL A   1      39.190  20.195  25.793  1.00  0.00     0.118 C 
BRANCH   2   3
ATOM      3  N   UNL A   1      40.184  19.135  25.798  1.00  0.00    -0.352 N 
ATOM      4  O   UNL A   1      42.291  18.312  25.934  1.00  0.00    -0.269 OA
ATOM      5  C   UNL A   1      41.536  19.266  26.046  1.00  0.00     0.251 C 
ATOM      6  H   UNL A   1      39.858  18.227  25.606  1.00  0.00     0.163 HD
BRANCH   5   7
ATOM      7  C   UNL A   1      42.058  20.602  26.421  1.00  0.00     0.039 A 
ATOM      8  C   UNL A   1      42.208  20.951  27.768  1.00  0.00     0.014 A 
ATOM      9  C   UNL A   1      42.345  21.526  25.415  1.00  0.00     0.014 A 
ATOM     10  C   UNL A   1      42.531  22.262  28.112  1.00  0.00     0.010 A 
ATOM     11  C   UNL A   1      42.722  22.826  25.762  1.00  0.00     0.010 A 
ATOM     12  C   UNL A   1      42.786  23.213  27.112  1.00  0.00    -0.014 A 
BRANCH  12  13
ATOM     13  C   UNL A   1      43.183  24.597  27.475  1.00  0.00     0.031 A 
ATOM     14  C   UNL A   1      42.186  25.561  28.059  1.00  0.00     0.074 A 
ATOM     15  C   UNL A   1      44.441  25.002  27.208  1.00  0.00     0.049 A 
ATOM     16  N   UNL A   1      42.344  26.824  28.363  1.00  0.00    -0.248 NA
ATOM     17  C   UNL A   1      40.833  25.046  28.332  1.00  0.00     0.031 C 
ATOM     18  C   UNL A   1      45.478  24.167  26.597  1.00  0.00     0.029 A 
ATOM     19  N   UNL A   1      45.048  26.220  27.375  1.00  0.00    -0.354 N 
ATOM     20  C   UNL A   1      41.107  27.268  28.815  1.00  0.00     0.074 A 
ATOM     21  C   UNL A   1      40.206  26.137  28.756  1.00  0.00     0.031 C 
ATOM     22  C   UNL A   1      46.583  24.904  26.414  1.00  0.00     0.029 A 
ATOM     23  C   UNL A   1      46.320  26.270  26.855  1.00  0.00     0.049 A 
ATOM     24  H   UNL A   1      44.616  26.983  27.821  1.00  0.00     0.167 HD
ATOM     25  C   UNL A   1      40.761  28.504  29.247  1.00  0.00     0.034 A 
ATOM     26  C   UNL A   1      47.169  27.306  26.711  1.00  0.00     0.034 A 
ATOM     27  C   UNL A   1      41.677  29.609  29.350  1.00  0.00     0.049 A 
ATOM     28  C   UNL A   1      46.757  28.661  27.211  1.00  0.00     0.074 A 
ATOM     29  C   UNL A   1      41.455  30.860  29.898  1.00  0.00     0.029 A 
ATOM     30  N   UNL A   1      42.979  29.606  28.875  1.00  0.00    -0.354 N 
ATOM     31  N   UNL A   1      45.644  29.016  27.806  1.00  0.00    -0.248 NA
ATOM     32  C   UNL A   1      47.724  29.756  27.043  1.00  0.00     0.031 C 
ATOM     33  C   UNL A   1      42.614  31.625  29.728  1.00  0.00     0.029 A 
ATOM     34  C   UNL A   1      43.562  30.844  29.087  1.00  0.00     0.049 A 
ATOM     35  H   UNL A   1      43.423  28.838  28.450  1.00  0.00     0.167 HD
ATOM     36  C   UNL A   1      45.782  30.368  28.096  1.00  0.00     0.074 A 
ATOM     37  C   UNL A   1      47.099  30.761  27.641  1.00  0.00     0.031 C 
ATOM     38  C   UNL A   1      44.888  31.212  28.666  1.00  0.00     0.034 A 
BRANCH  25  39
ATOM     39  C   UNL A   1      39.340  28.740  29.687  1.00  0.00     0.023 A 
ATOM     40  C   UNL A   1      38.955  28.411  31.002  1.00  0.00     0.012 A 
ATOM     41  C   UNL A   1      38.423  29.398  28.841  1.00  0.00     0.148 A 
ATOM     42  C   UNL A   1      37.678  28.722  31.466  1.00  0.00     0.002 A 
ATOM     43  C   UNL A   1      37.163  29.734  29.322  1.00  0.00     0.091 A 
ATOM     44  F   UNL A   1      38.805  29.687  27.590  1.00  0.00    -0.205 F 
ATOM     45  C   UNL A   1      36.788  29.393  30.632  1.00  0.00     0.022 A 
BRANCH  43  46
ATOM     46  S   UNL A   1      35.967  30.659  28.351  1.00  0.00     0.127 S 
ATOM     47  O   UNL A   1      36.745  31.837  27.971  1.00  0.00    -0.237 OA
ATOM     48  O   UNL A   1      35.683  29.735  27.251  1.00  0.00    -0.237 OA
ATOM     49  O   UNL A   1      34.840  30.915  29.237  1.00  0.00    -0.744 OA
ENDBRANCH  43  46
ENDBRANCH  25  39
BRANCH  26  50
ATOM     50  C   UNL A   1      48.496  27.089  26.072  1.00  0.00     0.023 A 
ATOM     51  C   UNL A   1      49.557  26.564  26.832  1.00  0.00     0.012 A 
ATOM     52  C   UNL A   1      48.698  27.356  24.702  1.00  0.00     0.148 A 
ATOM     53  C   UNL A   1      50.802  26.330  26.248  1.00  0.00     0.002 A 
ATOM     54  C   UNL A   1      49.922  27.065  24.114  1.00  0.00     0.091 A 
ATOM     55  F   UNL A   1      47.685  27.878  23.997  1.00  0.00    -0.205 F 
ATOM     56  C   UNL A   1      50.981  26.566  24.886  1.00  0.00     0.022 A 
BRANCH  54  57
ATOM     57  S   UNL A   1      50.171  27.205  22.340  1.00  0.00     0.127 S 
ATOM     58  O   UNL A   1      49.069  26.404  21.816  1.00  0.00    -0.237 OA
ATOM     59  O   UNL A   1      50.044  28.647  22.121  1.00  0.00    -0.237 OA
ATOM     60  O   UNL A   1      51.512  26.687  22.102  1.00  0.00    -0.744 OA
ENDBRANCH  54  57
ENDBRANCH  26  50
BRANCH  38  61
ATOM     61  C   UNL A   1      45.299  32.651  28.830  1.00  0.00     0.023 A 
ATOM     62  C   UNL A   1      46.066  33.025  29.950  1.00  0.00     0.012 A 
ATOM     63  C   UNL A   1      44.995  33.610  27.845  1.00  0.00     0.148 A 
ATOM     64  C   UNL A   1      46.506  34.338  30.100  1.00  0.00     0.002 A 
ATOM     65  C   UNL A   1      45.475  34.907  27.979  1.00  0.00     0.091 A 
ATOM     66  F   UNL A   1      44.249  33.235  26.795  1.00  0.00    -0.205 F 
ATOM     67  C   UNL A   1      46.220  35.275  29.110  1.00  0.00     0.022 A 
BRANCH  65  68
ATOM     68  S   UNL A   1      45.232  36.161  26.715  1.00  0.00     0.127 S 
ATOM     69  O   UNL A   1      45.759  37.355  27.374  1.00  0.00    -0.237 OA
ATOM     70  O   UNL A   1      46.056  35.657  25.615  1.00  0.00    -0.237 OA
ATOM     71  O   UNL A   1      43.802  36.181  26.438  1.00  0.00    -0.744 OA
ENDBRANCH  65  68
ENDBRANCH  38  61
ENDBRANCH  12  13
ENDBRANCH   5   7
ENDBRANCH   2   3
ENDBRANCH   1   2
BRANCH   1  72
ATOM     72  C   UNL A   1      36.885  20.965  24.923  1.00  0.00     0.117 C 
BRANCH  72  73
ATOM     73  N   UNL A   1      35.547  20.576  25.326  1.00  0.00    -0.356 N 
ATOM     74  C   UNL A   1      34.310  20.871  24.867  1.00  0.00     0.227 C 
ATOM     75  H   UNL A   1      35.538  19.968  26.100  1.00  0.00     0.163 HD
ATOM     76  O   UNL A   1      33.390  20.369  25.518  1.00  0.00    -0.275 OA
BRANCH  74  77
ATOM     77  C   UNL A   1      34.028  21.852  23.746  1.00  0.00     0.127 C 
ATOM     78  C   UNL A   1      34.268  23.357  24.118  1.00  0.00     0.127 C 
ATOM     79  C   UNL A   1      32.632  21.948  23.105  1.00  0.00     0.155 C 
ATOM     80  C   UNL A   1      33.042  24.044  23.524  1.00  0.00     0.155 C 
ATOM     81  C   UNL A   1      32.772  22.617  21.765  1.00  0.00     0.004 C 
ATOM     82  O   UNL A   1      32.030  23.056  23.818  1.00  0.00    -0.365 OA
ATOM     83  C   UNL A   1      33.046  23.905  22.023  1.00  0.00     0.004 C 
BRANCH  78  84
ATOM     84  C   UNL A   1      34.574  23.769  25.559  1.00  0.00     0.231 C 
ATOM     85  O   UNL A   1      35.738  24.120  25.816  1.00  0.00    -0.274 OA
ATOM     86  N   UNL A   1      33.719  23.805  26.621  1.00  0.00    -0.325 N 
ATOM     87  H   UNL A   1      34.137  23.590  27.487  1.00  0.00     0.169 HD
BRANCH  86  88
ATOM     88  C   UNL A   1      32.341  24.096  26.697  1.00  0.00     0.044 A 
ATOM     89  C   UNL A   1      31.483  22.992  26.822  1.00  0.00     0.026 A 
ATOM     90  C   UNL A   1      31.802  25.369  26.409  1.00  0.00    -0.020 A 
ATOM     91  C   UNL A   1      30.099  23.156  26.788  1.00  0.00     0.002 A 
ATOM     92  C   UNL A   1      30.404  25.519  26.427  1.00  0.00     0.006 A 
ATOM     93  C   UNL A   1      29.560  24.425  26.616  1.00  0.00     0.000 A 
BRANCH  90  94
ATOM     94  C   UNL A   1      32.701  26.552  26.167  1.00  0.00     0.073 C 
BRANCH  94  95
ATOM     95  C   UNL A   1      32.163  27.963  26.128  1.00  0.00    -0.044 A 
ATOM     96  C   UNL A   1      31.618  28.465  24.937  1.00  0.00     0.004 A 
ATOM     97  C   UNL A   1      32.354  28.839  27.208  1.00  0.00     0.004 A 
ATOM     98  C   UNL A   1      31.289  29.814  24.821  1.00  0.00     0.000 A 
ATOM     99  C   UNL A   1      32.008  30.186  27.096  1.00  0.00     0.000 A 
ATOM    100  C   UNL A   1      31.485  30.673  25.900  1.00  0.00     0.000 A 
ENDBRANCH  94  95
ENDBRANCH  90  94
ENDBRANCH  86  88
ENDBRANCH  78  84
ENDBRANCH  74  77
ENDBRANCH  72  73
ENDBRANCH   1  72
TORSDOF 17
ENDMDL
