MODEL 1
REMARK VINA RESULT:     -12.2      0.000      0.000
REMARK SMILES C[C@@H]1[C@@H](C(=O)NCCCNC(=O)c2ccc(-c3c4nc(c(-c5cccc(S(=O)(=O)[O-])c5F)c5ccc([nH]5)c(-c5cccc(S(=O)(=O)[O-])c5F)c5nc(c(-c6cccc(S(=O)(=O)[O-])c6F)c6ccc3[nH]6)C=C5)C=C4)cc2)CCN1c1nc2sccn2c1[N+](=O)[O-]
REMARK SMILES IDX 8 1 7 2 6 3 4 4 5 5 3 7 1 8 2 9 78 10 76 11 77 12 79 13
REMARK SMILES IDX 80 14 86 15 81 16 85 17 82 18 84 19 83 20 87 21 88 22 89 23
REMARK SMILES IDX 9 24 10 25 11 26 12 28 13 29 14 30 75 31 15 32 74 33 16 34
REMARK SMILES IDX 17 35 18 36 68 37 19 38 73 39 67 40 69 41 20 42 72 43 66 44
REMARK SMILES IDX 65 45 21 47 53 48 33 49 52 50 34 51 37 52 51 53 70 54 35 55
REMARK SMILES IDX 36 56 50 58 71 59 38 60 22 61 23 62 31 63 24 64 26 65 32 66
REMARK SMILES IDX 25 67 27 68 28 69 29 70 30 71 54 72 55 73 63 74 56 75 58 76
REMARK SMILES IDX 64 77 57 78 59 79 60 80 61 81 62 82 39 83 40 84 48 85 41 86
REMARK SMILES IDX 43 87 49 88 42 89 44 90 45 91 46 92 47 93
REMARK H PARENT 6 6 10 27 69 46 37 57
REMARK Flexibility Score: inf
ROOT
ATOM      1  C   UNL A   1      35.166  21.768  26.431  1.00  0.00     0.042 C 
ENDROOT
BRANCH   1   2
ATOM      2  C   UNL A   1      34.054  20.838  25.979  1.00  0.00     0.117 C 
BRANCH   2   3
ATOM      3  N   UNL A   1      32.727  21.362  26.229  1.00  0.00    -0.356 N 
ATOM      4  C   UNL A   1      31.917  22.123  25.445  1.00  0.00     0.225 C 
ATOM      5  O   UNL A   1      30.816  22.412  25.917  1.00  0.00    -0.275 OA
ATOM      6  H   UNL A   1      32.350  21.129  27.108  1.00  0.00     0.163 HD
BRANCH   4   7
ATOM      7  C   UNL A   1      32.411  22.648  24.098  1.00  0.00     0.102 C 
ATOM      8  C   UNL A   1      34.132  24.311  23.236  1.00  0.00     0.032 C 
ATOM      9  C   UNL A   1      33.028  24.060  24.266  1.00  0.00     0.093 C 
ATOM     10  N   UNL A   1      31.885  24.974  24.031  1.00  0.00    -0.346 N 
ATOM     11  C   UNL A   1      31.310  22.916  23.071  1.00  0.00     0.037 C 
ATOM     12  C   UNL A   1      30.737  24.248  23.521  1.00  0.00     0.119 C 
BRANCH  10  13
ATOM     13  C   UNL A   1      31.864  26.229  24.534  1.00  0.00     0.229 A 
ATOM     14  N   UNL A   1      32.659  26.505  25.634  1.00  0.00    -0.173 NA
ATOM     15  C   UNL A   1      31.201  27.373  24.122  1.00  0.00     0.373 A 
ATOM     16  C   UNL A   1      32.462  27.771  25.852  1.00  0.00     0.286 A 
ATOM     17  N   UNL A   1      31.598  28.357  24.977  1.00  0.00    -0.166 N 
ATOM     18  S   UNL A   1      33.069  28.911  27.012  1.00  0.00    -0.078 S 
ATOM     19  C   UNL A   1      31.382  29.705  25.192  1.00  0.00     0.220 A 
ATOM     20  C   UNL A   1      32.093  30.165  26.235  1.00  0.00     0.114 A 
BRANCH  15  21
ATOM     21  N   UNL A   1      30.289  27.655  23.086  1.00  0.00    -0.023 N 
ATOM     22  O   UNL A   1      30.733  27.787  21.943  1.00  0.00    -0.358 OA
ATOM     23  O   UNL A   1      29.092  27.699  23.399  1.00  0.00    -0.358 OA
ENDBRANCH  15  21
ENDBRANCH  10  13
ENDBRANCH   4   7
ENDBRANCH   2   3
ENDBRANCH   1   2
BRANCH   1  24
ATOM     24  C   UNL A   1      36.283  21.974  25.420  1.00  0.00     0.118 C 
BRANCH  24  25
ATOM     25  N   UNL A   1      37.353  20.989  25.517  1.00  0.00    -0.352 N 
ATOM     26  C   UNL A   1      38.667  21.131  25.910  1.00  0.00     0.251 C 
ATOM     27  H   UNL A   1      37.096  20.075  25.260  1.00  0.00     0.163 HD
ATOM     28  O   UNL A   1      39.437  20.188  25.799  1.00  0.00    -0.269 OA
BRANCH  26  29
ATOM     29  C   UNL A   1      39.155  22.432  26.426  1.00  0.00     0.039 A 
ATOM     30  C   UNL A   1      40.191  22.442  27.365  1.00  0.00     0.014 A 
ATOM     31  C   UNL A   1      38.617  23.637  25.977  1.00  0.00     0.014 A 
ATOM     32  C   UNL A   1      40.744  23.660  27.774  1.00  0.00     0.010 A 
ATOM     33  C   UNL A   1      39.246  24.836  26.288  1.00  0.00     0.010 A 
ATOM     34  C   UNL A   1      40.312  24.866  27.198  1.00  0.00    -0.014 A 
BRANCH  34  35
ATOM     35  C   UNL A   1      40.955  26.167  27.525  1.00  0.00     0.031 A 
ATOM     36  C   UNL A   1      42.380  26.432  27.116  1.00  0.00     0.074 A 
ATOM     37  C   UNL A   1      40.293  27.072  28.278  1.00  0.00     0.049 A 
ATOM     38  N   UNL A   1      43.139  27.464  27.385  1.00  0.00    -0.248 NA
ATOM     39  C   UNL A   1      43.058  25.386  26.331  1.00  0.00     0.031 C 
ATOM     40  C   UNL A   1      38.941  26.902  28.816  1.00  0.00     0.029 A 
ATOM     41  N   UNL A   1      40.681  28.303  28.747  1.00  0.00    -0.354 N 
ATOM     42  C   UNL A   1      44.386  27.171  26.846  1.00  0.00     0.074 A 
ATOM     43  C   UNL A   1      44.297  25.848  26.271  1.00  0.00     0.031 C 
ATOM     44  C   UNL A   1      38.607  27.992  29.525  1.00  0.00     0.029 A 
ATOM     45  C   UNL A   1      39.731  28.921  29.527  1.00  0.00     0.049 A 
ATOM     46  H   UNL A   1      41.556  28.705  28.544  1.00  0.00     0.167 HD
ATOM     47  C   UNL A   1      45.496  27.945  26.797  1.00  0.00     0.034 A 
ATOM     48  C   UNL A   1      39.764  30.103  30.177  1.00  0.00     0.034 A 
ATOM     49  C   UNL A   1      45.565  29.283  27.316  1.00  0.00     0.049 A 
ATOM     50  C   UNL A   1      40.991  30.965  30.066  1.00  0.00     0.074 A 
ATOM     51  C   UNL A   1      46.612  30.184  27.232  1.00  0.00     0.029 A 
ATOM     52  N   UNL A   1      44.549  29.913  28.017  1.00  0.00    -0.354 N 
ATOM     53  N   UNL A   1      42.106  30.733  29.415  1.00  0.00    -0.248 NA
ATOM     54  C   UNL A   1      40.954  32.267  30.747  1.00  0.00     0.031 C 
ATOM     55  C   UNL A   1      46.235  31.353  27.903  1.00  0.00     0.029 A 
ATOM     56  C   UNL A   1      44.945  31.188  28.379  1.00  0.00     0.049 A 
ATOM     57  H   UNL A   1      43.674  29.511  28.226  1.00  0.00     0.167 HD
ATOM     58  C   UNL A   1      42.885  31.874  29.575  1.00  0.00     0.074 A 
ATOM     59  C   UNL A   1      42.107  32.802  30.368  1.00  0.00     0.031 C 
ATOM     60  C   UNL A   1      44.137  32.124  29.119  1.00  0.00     0.034 A 
BRANCH  47  61
ATOM     61  C   UNL A   1      46.710  27.383  26.103  1.00  0.00     0.023 A 
ATOM     62  C   UNL A   1      46.855  27.550  24.710  1.00  0.00     0.012 A 
ATOM     63  C   UNL A   1      47.733  26.743  26.830  1.00  0.00     0.148 A 
ATOM     64  C   UNL A   1      47.975  27.053  24.045  1.00  0.00     0.002 A 
ATOM     65  C   UNL A   1      48.869  26.293  26.168  1.00  0.00     0.091 A 
ATOM     66  F   UNL A   1      47.570  26.575  28.150  1.00  0.00    -0.205 F 
ATOM     67  C   UNL A   1      48.986  26.435  24.775  1.00  0.00     0.022 A 
BRANCH  65  68
ATOM     68  S   UNL A   1      50.265  25.558  27.026  1.00  0.00     0.127 S 
ATOM     69  O   UNL A   1      49.677  24.322  27.541  1.00  0.00    -0.237 OA
ATOM     70  O   UNL A   1      51.229  25.369  25.942  1.00  0.00    -0.237 OA
ATOM     71  O   UNL A   1      50.670  26.525  28.037  1.00  0.00    -0.744 OA
ENDBRANCH  65  68
ENDBRANCH  47  61
BRANCH  48  72
ATOM     72  C   UNL A   1      38.566  30.573  30.932  1.00  0.00     0.023 A 
ATOM     73  C   UNL A   1      38.501  30.362  32.322  1.00  0.00     0.012 A 
ATOM     74  C   UNL A   1      37.509  31.246  30.289  1.00  0.00     0.148 A 
ATOM     75  C   UNL A   1      37.389  30.779  33.056  1.00  0.00     0.002 A 
ATOM     76  C   UNL A   1      36.430  31.709  31.033  1.00  0.00     0.091 A 
ATOM     77  F   UNL A   1      37.583  31.428  28.964  1.00  0.00    -0.205 F 
ATOM     78  C   UNL A   1      36.359  31.461  32.413  1.00  0.00     0.022 A 
BRANCH  76  79
ATOM     79  S   UNL A   1      35.122  32.710  30.316  1.00  0.00     0.127 S 
ATOM     80  O   UNL A   1      34.240  32.917  31.461  1.00  0.00    -0.237 OA
ATOM     81  O   UNL A   1      35.857  33.899  29.880  1.00  0.00    -0.237 OA
ATOM     82  O   UNL A   1      34.573  31.916  29.226  1.00  0.00    -0.744 OA
ENDBRANCH  76  79
ENDBRANCH  48  72
BRANCH  60  83
ATOM     83  C   UNL A   1      44.739  33.471  29.424  1.00  0.00     0.023 A 
ATOM     84  C   UNL A   1      45.503  33.649  30.595  1.00  0.00     0.012 A 
ATOM     85  C   UNL A   1      44.611  34.535  28.511  1.00  0.00     0.148 A 
ATOM     86  C   UNL A   1      46.103  34.878  30.866  1.00  0.00     0.002 A 
ATOM     87  C   UNL A   1      45.255  35.740  28.763  1.00  0.00     0.091 A 
ATOM     88  F   UNL A   1      43.864  34.350  27.412  1.00  0.00    -0.205 F 
ATOM     89  C   UNL A   1      45.990  35.918  29.946  1.00  0.00     0.022 A 
BRANCH  87  90
ATOM     90  S   UNL A   1      45.246  37.100  27.590  1.00  0.00     0.127 S 
ATOM     91  O   UNL A   1      45.849  36.481  26.411  1.00  0.00    -0.237 OA
ATOM     92  O   UNL A   1      43.818  37.392  27.463  1.00  0.00    -0.237 OA
ATOM     93  O   UNL A   1      46.027  38.166  28.205  1.00  0.00    -0.744 OA
ENDBRANCH  87  90
ENDBRANCH  60  83
ENDBRANCH  34  35
ENDBRANCH  26  29
ENDBRANCH  24  25
ENDBRANCH   1  24
TORSDOF 15
ENDMDL
MODEL 2
REMARK VINA RESULT:     -12.1      5.530      8.857
REMARK SMILES C[C@@H]1[C@@H](C(=O)NCCCNC(=O)c2ccc(-c3c4nc(c(-c5cccc(S(=O)(=O)[O-])c5F)c5ccc([nH]5)c(-c5cccc(S(=O)(=O)[O-])c5F)c5nc(c(-c6cccc(S(=O)(=O)[O-])c6F)c6ccc3[nH]6)C=C5)C=C4)cc2)CCN1c1nc2sccn2c1[N+](=O)[O-]
REMARK SMILES IDX 8 1 7 2 6 3 4 4 5 5 3 7 1 8 2 9 78 10 76 11 77 12 79 13
REMARK SMILES IDX 80 14 86 15 81 16 85 17 82 18 84 19 83 20 87 21 88 22 89 23
REMARK SMILES IDX 9 24 10 25 11 26 12 28 13 29 14 30 75 31 15 32 74 33 16 34
REMARK SMILES IDX 17 35 18 36 68 37 19 38 73 39 67 40 69 41 20 42 72 43 66 44
REMARK SMILES IDX 65 45 21 47 53 48 33 49 52 50 34 51 37 52 51 53 70 54 35 55
REMARK SMILES IDX 36 56 50 58 71 59 38 60 22 61 23 62 31 63 24 64 26 65 32 66
REMARK SMILES IDX 25 67 27 68 28 69 29 70 30 71 54 72 55 73 63 74 56 75 58 76
REMARK SMILES IDX 64 77 57 78 59 79 60 80 61 81 62 82 39 83 40 84 48 85 41 86
REMARK SMILES IDX 43 87 49 88 42 89 44 90 45 91 46 92 47 93
REMARK H PARENT 6 6 10 27 69 46 37 57
REMARK Flexibility Score: inf
ROOT
ATOM      1  C   UNL A   1      31.759  31.708  26.592  1.00  0.00     0.042 C 
ENDROOT
BRANCH   1   2
ATOM      2  C   UNL A   1      32.037  30.238  26.331  1.00  0.00     0.117 C 
BRANCH   2   3
ATOM      3  N   UNL A   1      32.628  29.985  25.033  1.00  0.00    -0.356 N 
ATOM      4  C   UNL A   1      32.380  29.000  24.129  1.00  0.00     0.225 C 
ATOM      5  O   UNL A   1      33.033  29.043  23.084  1.00  0.00    -0.275 OA
ATOM      6  H   UNL A   1      33.321  30.629  24.762  1.00  0.00     0.163 HD
BRANCH   4   7
ATOM      7  C   UNL A   1      31.406  27.870  24.458  1.00  0.00     0.102 C 
ATOM      8  C   UNL A   1      31.238  25.946  26.113  1.00  0.00     0.032 C 
ATOM      9  C   UNL A   1      32.154  26.701  25.148  1.00  0.00     0.093 C 
ATOM     10  N   UNL A   1      32.551  25.824  24.020  1.00  0.00    -0.346 N 
ATOM     11  C   UNL A   1      30.799  27.170  23.241  1.00  0.00     0.037 C 
ATOM     12  C   UNL A   1      31.914  26.244  22.786  1.00  0.00     0.119 C 
BRANCH  10  13
ATOM     13  C   UNL A   1      33.599  24.975  24.116  1.00  0.00     0.229 A 
ATOM     14  N   UNL A   1      34.562  25.232  25.076  1.00  0.00    -0.173 NA
ATOM     15  C   UNL A   1      33.900  23.806  23.436  1.00  0.00     0.373 A 
ATOM     16  C   UNL A   1      35.397  24.243  24.956  1.00  0.00     0.286 A 
ATOM     17  N   UNL A   1      35.057  23.345  23.989  1.00  0.00    -0.166 N 
ATOM     18  S   UNL A   1      36.861  23.784  25.768  1.00  0.00    -0.078 S 
ATOM     19  C   UNL A   1      35.931  22.284  23.851  1.00  0.00     0.220 A 
ATOM     20  C   UNL A   1      36.948  22.357  24.727  1.00  0.00     0.114 A 
BRANCH  15  21
ATOM     21  N   UNL A   1      33.281  23.100  22.387  1.00  0.00    -0.023 N 
ATOM     22  O   UNL A   1      33.535  23.440  21.228  1.00  0.00    -0.358 OA
ATOM     23  O   UNL A   1      32.559  22.147  22.710  1.00  0.00    -0.358 OA
ENDBRANCH  15  21
ENDBRANCH  10  13
ENDBRANCH   4   7
ENDBRANCH   2   3
ENDBRANCH   1   2
BRANCH   1  24
ATOM     24  C   UNL A   1      32.871  32.456  27.309  1.00  0.00     0.118 C 
BRANCH  24  25
ATOM     25  N   UNL A   1      32.542  33.840  27.624  1.00  0.00    -0.352 N 
ATOM     26  C   UNL A   1      33.075  34.695  28.566  1.00  0.00     0.251 C 
ATOM     27  H   UNL A   1      31.822  34.227  27.076  1.00  0.00     0.163 HD
ATOM     28  O   UNL A   1      32.562  35.789  28.749  1.00  0.00    -0.269 OA
BRANCH  26  29
ATOM     29  C   UNL A   1      34.238  34.274  29.382  1.00  0.00     0.039 A 
ATOM     30  C   UNL A   1      34.012  33.645  30.609  1.00  0.00     0.014 A 
ATOM     31  C   UNL A   1      35.544  34.475  28.937  1.00  0.00     0.014 A 
ATOM     32  C   UNL A   1      35.093  33.136  31.337  1.00  0.00     0.010 A 
ATOM     33  C   UNL A   1      36.603  33.863  29.598  1.00  0.00     0.010 A 
ATOM     34  C   UNL A   1      36.394  33.192  30.811  1.00  0.00    -0.014 A 
BRANCH  34  35
ATOM     35  C   UNL A   1      37.549  32.561  31.503  1.00  0.00     0.031 A 
ATOM     36  C   UNL A   1      38.284  31.414  30.859  1.00  0.00     0.074 A 
ATOM     37  C   UNL A   1      37.876  32.950  32.754  1.00  0.00     0.049 A 
ATOM     38  N   UNL A   1      39.255  30.681  31.341  1.00  0.00    -0.248 NA
ATOM     39  C   UNL A   1      37.850  31.014  29.509  1.00  0.00     0.031 C 
ATOM     40  C   UNL A   1      37.189  33.987  33.528  1.00  0.00     0.029 A 
ATOM     41  N   UNL A   1      38.852  32.497  33.608  1.00  0.00    -0.354 N 
ATOM     42  C   UNL A   1      39.512  29.711  30.379  1.00  0.00     0.074 A 
ATOM     43  C   UNL A   1      38.569  29.921  29.304  1.00  0.00     0.031 C 
ATOM     44  C   UNL A   1      37.772  34.101  34.731  1.00  0.00     0.029 A 
ATOM     45  C   UNL A   1      38.849  33.123  34.833  1.00  0.00     0.049 A 
ATOM     46  H   UNL A   1      39.493  31.790  33.365  1.00  0.00     0.167 HD
ATOM     47  C   UNL A   1      40.471  28.754  30.369  1.00  0.00     0.034 A 
ATOM     48  C   UNL A   1      39.623  32.927  35.919  1.00  0.00     0.034 A 
ATOM     49  C   UNL A   1      41.445  28.584  31.411  1.00  0.00     0.049 A 
ATOM     50  C   UNL A   1      40.713  31.891  35.864  1.00  0.00     0.074 A 
ATOM     51  C   UNL A   1      42.515  27.708  31.451  1.00  0.00     0.029 A 
ATOM     52  N   UNL A   1      41.470  29.302  32.596  1.00  0.00    -0.354 N 
ATOM     53  N   UNL A   1      41.040  31.089  34.879  1.00  0.00    -0.248 NA
ATOM     54  C   UNL A   1      41.563  31.756  37.055  1.00  0.00     0.031 C 
ATOM     55  C   UNL A   1      43.175  27.881  32.673  1.00  0.00     0.029 A 
ATOM     56  C   UNL A   1      42.532  28.885  33.379  1.00  0.00     0.049 A 
ATOM     57  H   UNL A   1      40.827  30.005  32.843  1.00  0.00     0.167 HD
ATOM     58  C   UNL A   1      42.156  30.385  35.315  1.00  0.00     0.074 A 
ATOM     59  C   UNL A   1      42.460  30.868  36.646  1.00  0.00     0.031 C 
ATOM     60  C   UNL A   1      42.858  29.415  34.678  1.00  0.00     0.034 A 
BRANCH  47  61
ATOM     61  C   UNL A   1      40.549  27.855  29.162  1.00  0.00     0.023 A 
ATOM     62  C   UNL A   1      39.665  26.761  29.050  1.00  0.00     0.012 A 
ATOM     63  C   UNL A   1      41.453  28.120  28.115  1.00  0.00     0.148 A 
ATOM     64  C   UNL A   1      39.707  25.923  27.937  1.00  0.00     0.002 A 
ATOM     65  C   UNL A   1      41.456  27.308  26.987  1.00  0.00     0.091 A 
ATOM     66  F   UNL A   1      42.300  29.151  28.247  1.00  0.00    -0.205 F 
ATOM     67  C   UNL A   1      40.594  26.203  26.901  1.00  0.00     0.022 A 
BRANCH  65  68
ATOM     68  S   UNL A   1      42.501  27.631  25.562  1.00  0.00     0.127 S 
ATOM     69  O   UNL A   1      41.943  28.889  25.066  1.00  0.00    -0.237 OA
ATOM     70  O   UNL A   1      43.825  27.751  26.172  1.00  0.00    -0.237 OA
ATOM     71  O   UNL A   1      42.341  26.486  24.678  1.00  0.00    -0.744 OA
ENDBRANCH  65  68
ENDBRANCH  47  61
BRANCH  48  72
ATOM     72  C   UNL A   1      39.443  33.782  37.128  1.00  0.00     0.023 A 
ATOM     73  C   UNL A   1      39.923  35.106  37.114  1.00  0.00     0.012 A 
ATOM     74  C   UNL A   1      38.784  33.304  38.277  1.00  0.00     0.148 A 
ATOM     75  C   UNL A   1      39.781  35.928  38.232  1.00  0.00     0.002 A 
ATOM     76  C   UNL A   1      38.596  34.145  39.368  1.00  0.00     0.091 A 
ATOM     77  F   UNL A   1      38.344  32.038  38.277  1.00  0.00    -0.205 F 
ATOM     78  C   UNL A   1      39.109  35.451  39.355  1.00  0.00     0.022 A 
BRANCH  76  79
ATOM     79  S   UNL A   1      37.630  33.662  40.803  1.00  0.00     0.127 S 
ATOM     80  O   UNL A   1      38.516  32.700  41.452  1.00  0.00    -0.237 OA
ATOM     81  O   UNL A   1      37.479  34.936  41.508  1.00  0.00    -0.237 OA
ATOM     82  O   UNL A   1      36.385  33.121  40.274  1.00  0.00    -0.744 OA
ENDBRANCH  76  79
ENDBRANCH  48  72
BRANCH  60  83
ATOM     83  C   UNL A   1      44.053  28.834  35.387  1.00  0.00     0.023 A 
ATOM     84  C   UNL A   1      45.327  29.404  35.197  1.00  0.00     0.012 A 
ATOM     85  C   UNL A   1      43.897  27.773  36.299  1.00  0.00     0.148 A 
ATOM     86  C   UNL A   1      46.434  28.905  35.882  1.00  0.00     0.002 A 
ATOM     87  C   UNL A   1      44.996  27.315  37.016  1.00  0.00     0.091 A 
ATOM     88  F   UNL A   1      42.680  27.232  36.451  1.00  0.00    -0.205 F 
ATOM     89  C   UNL A   1      46.266  27.870  36.800  1.00  0.00     0.022 A 
BRANCH  87  90
ATOM     90  S   UNL A   1      44.857  26.054  38.289  1.00  0.00     0.127 S 
ATOM     91  O   UNL A   1      46.259  25.826  38.637  1.00  0.00    -0.237 OA
ATOM     92  O   UNL A   1      44.077  26.738  39.319  1.00  0.00    -0.237 OA
ATOM     93  O   UNL A   1      44.177  24.927  37.665  1.00  0.00    -0.744 OA
ENDBRANCH  87  90
ENDBRANCH  60  83
ENDBRANCH  34  35
ENDBRANCH  26  29
ENDBRANCH  24  25
ENDBRANCH   1  24
TORSDOF 15
ENDMDL
MODEL 3
REMARK VINA RESULT:     -12.1      1.872      2.276
REMARK SMILES C[C@@H]1[C@@H](C(=O)NCCCNC(=O)c2ccc(-c3c4nc(c(-c5cccc(S(=O)(=O)[O-])c5F)c5ccc([nH]5)c(-c5cccc(S(=O)(=O)[O-])c5F)c5nc(c(-c6cccc(S(=O)(=O)[O-])c6F)c6ccc3[nH]6)C=C5)C=C4)cc2)CCN1c1nc2sccn2c1[N+](=O)[O-]
REMARK SMILES IDX 8 1 7 2 6 3 4 4 5 5 3 7 1 8 2 9 78 10 76 11 77 12 79 13
REMARK SMILES IDX 80 14 86 15 81 16 85 17 82 18 84 19 83 20 87 21 88 22 89 23
REMARK SMILES IDX 9 24 10 25 11 26 12 28 13 29 14 30 75 31 15 32 74 33 16 34
REMARK SMILES IDX 17 35 18 36 68 37 19 38 73 39 67 40 69 41 20 42 72 43 66 44
REMARK SMILES IDX 65 45 21 47 53 48 33 49 52 50 34 51 37 52 51 53 70 54 35 55
REMARK SMILES IDX 36 56 50 58 71 59 38 60 22 61 23 62 31 63 24 64 26 65 32 66
REMARK SMILES IDX 25 67 27 68 28 69 29 70 30 71 54 72 55 73 63 74 56 75 58 76
REMARK SMILES IDX 64 77 57 78 59 79 60 80 61 81 62 82 39 83 40 84 48 85 41 86
REMARK SMILES IDX 43 87 49 88 42 89 44 90 45 91 46 92 47 93
REMARK H PARENT 6 6 10 27 69 46 37 57
REMARK Flexibility Score: inf
ROOT
ATOM      1  C   UNL A   1      35.507  22.130  26.173  1.00  0.00     0.042 C 
ENDROOT
BRANCH   1   2
ATOM      2  C   UNL A   1      34.202  22.756  25.716  1.00  0.00     0.117 C 
BRANCH   2   3
ATOM      3  N   UNL A   1      34.096  24.166  26.030  1.00  0.00    -0.356 N 
ATOM      4  C   UNL A   1      33.674  25.210  25.267  1.00  0.00     0.225 C 
ATOM      5  O   UNL A   1      33.675  26.317  25.810  1.00  0.00    -0.275 OA
ATOM      6  H   UNL A   1      34.375  24.407  26.943  1.00  0.00     0.163 HD
BRANCH   4   7
ATOM      7  C   UNL A   1      33.310  25.002  23.798  1.00  0.00     0.102 C 
ATOM      8  C   UNL A   1      33.320  26.351  21.642  1.00  0.00     0.032 C 
ATOM      9  C   UNL A   1      32.972  26.360  23.132  1.00  0.00     0.093 C 
ATOM     10  N   UNL A   1      31.507  26.488  23.319  1.00  0.00    -0.346 N 
ATOM     11  C   UNL A   1      32.020  24.215  23.562  1.00  0.00     0.037 C 
ATOM     12  C   UNL A   1      30.936  25.249  23.813  1.00  0.00     0.119 C 
BRANCH  10  13
ATOM     13  C   UNL A   1      30.893  27.693  23.320  1.00  0.00     0.229 A 
ATOM     14  N   UNL A   1      29.896  27.919  22.387  1.00  0.00    -0.173 NA
ATOM     15  C   UNL A   1      31.040  28.798  24.143  1.00  0.00     0.373 A 
ATOM     16  C   UNL A   1      29.478  29.119  22.660  1.00  0.00     0.286 A 
ATOM     17  N   UNL A   1      30.121  29.705  23.708  1.00  0.00    -0.166 N 
ATOM     18  S   UNL A   1      28.256  30.159  21.997  1.00  0.00    -0.078 S 
ATOM     19  C   UNL A   1      29.684  30.980  24.016  1.00  0.00     0.220 A 
ATOM     20  C   UNL A   1      28.688  31.376  23.204  1.00  0.00     0.114 A 
BRANCH  15  21
ATOM     21  N   UNL A   1      31.885  29.104  25.227  1.00  0.00    -0.023 N 
ATOM     22  O   UNL A   1      32.922  29.730  24.995  1.00  0.00    -0.358 OA
ATOM     23  O   UNL A   1      31.494  28.759  26.350  1.00  0.00    -0.358 OA
ENDBRANCH  15  21
ENDBRANCH  10  13
ENDBRANCH   4   7
ENDBRANCH   2   3
ENDBRANCH   1   2
BRANCH   1  24
ATOM     24  C   UNL A   1      36.571  22.000  25.095  1.00  0.00     0.118 C 
BRANCH  24  25
ATOM     25  N   UNL A   1      37.573  20.981  25.377  1.00  0.00    -0.352 N 
ATOM     26  C   UNL A   1      38.831  21.091  25.931  1.00  0.00     0.251 C 
ATOM     27  H   UNL A   1      37.309  20.064  25.132  1.00  0.00     0.163 HD
ATOM     28  O   UNL A   1      39.564  20.114  25.966  1.00  0.00    -0.269 OA
BRANCH  26  29
ATOM     29  C   UNL A   1      39.308  22.396  26.445  1.00  0.00     0.039 A 
ATOM     30  C   UNL A   1      40.330  22.416  27.398  1.00  0.00     0.014 A 
ATOM     31  C   UNL A   1      38.771  23.596  25.980  1.00  0.00     0.014 A 
ATOM     32  C   UNL A   1      40.874  23.639  27.806  1.00  0.00     0.010 A 
ATOM     33  C   UNL A   1      39.392  24.800  26.292  1.00  0.00     0.010 A 
ATOM     34  C   UNL A   1      40.447  24.840  27.216  1.00  0.00    -0.014 A 
BRANCH  34  35
ATOM     35  C   UNL A   1      41.080  26.145  27.543  1.00  0.00     0.031 A 
ATOM     36  C   UNL A   1      42.501  26.423  27.124  1.00  0.00     0.074 A 
ATOM     37  C   UNL A   1      40.417  27.041  28.304  1.00  0.00     0.049 A 
ATOM     38  N   UNL A   1      43.252  27.461  27.391  1.00  0.00    -0.248 NA
ATOM     39  C   UNL A   1      43.181  25.385  26.331  1.00  0.00     0.031 C 
ATOM     40  C   UNL A   1      39.069  26.859  28.850  1.00  0.00     0.029 A 
ATOM     41  N   UNL A   1      40.797  28.274  28.774  1.00  0.00    -0.354 N 
ATOM     42  C   UNL A   1      44.498  27.180  26.842  1.00  0.00     0.074 A 
ATOM     43  C   UNL A   1      44.416  25.858  26.264  1.00  0.00     0.031 C 
ATOM     44  C   UNL A   1      38.732  27.943  29.566  1.00  0.00     0.029 A 
ATOM     45  C   UNL A   1      39.848  28.882  29.563  1.00  0.00     0.049 A 
ATOM     46  H   UNL A   1      41.668  28.684  28.566  1.00  0.00     0.167 HD
ATOM     47  C   UNL A   1      45.601  27.963  26.788  1.00  0.00     0.034 A 
ATOM     48  C   UNL A   1      39.875  30.062  30.216  1.00  0.00     0.034 A 
ATOM     49  C   UNL A   1      45.662  29.300  27.311  1.00  0.00     0.049 A 
ATOM     50  C   UNL A   1      41.095  30.935  30.099  1.00  0.00     0.074 A 
ATOM     51  C   UNL A   1      46.701  30.210  27.223  1.00  0.00     0.029 A 
ATOM     52  N   UNL A   1      44.646  29.919  28.021  1.00  0.00    -0.354 N 
ATOM     53  N   UNL A   1      42.207  30.715  29.439  1.00  0.00    -0.248 NA
ATOM     54  C   UNL A   1      41.052  32.234  30.785  1.00  0.00     0.031 C 
ATOM     55  C   UNL A   1      46.320  31.373  27.899  1.00  0.00     0.029 A 
ATOM     56  C   UNL A   1      45.034  31.197  28.384  1.00  0.00     0.049 A 
ATOM     57  H   UNL A   1      43.777  29.509  28.236  1.00  0.00     0.167 HD
ATOM     58  C   UNL A   1      42.977  31.861  29.597  1.00  0.00     0.074 A 
ATOM     59  C   UNL A   1      42.197  32.780  30.399  1.00  0.00     0.031 C 
ATOM     60  C   UNL A   1      44.224  32.123  29.133  1.00  0.00     0.034 A 
BRANCH  47  61
ATOM     61  C   UNL A   1      46.815  27.414  26.083  1.00  0.00     0.023 A 
ATOM     62  C   UNL A   1      47.640  26.480  26.744  1.00  0.00     0.012 A 
ATOM     63  C   UNL A   1      47.109  27.775  24.754  1.00  0.00     0.148 A 
ATOM     64  C   UNL A   1      48.761  25.946  26.110  1.00  0.00     0.002 A 
ATOM     65  C   UNL A   1      48.201  27.201  24.112  1.00  0.00     0.091 A 
ATOM     66  F   UNL A   1      46.327  28.678  24.148  1.00  0.00    -0.205 F 
ATOM     67  C   UNL A   1      49.034  26.297  24.791  1.00  0.00     0.022 A 
BRANCH  65  68
ATOM     68  S   UNL A   1      48.591  27.523  22.388  1.00  0.00     0.127 S 
ATOM     69  O   UNL A   1      47.436  28.316  21.968  1.00  0.00    -0.237 OA
ATOM     70  O   UNL A   1      49.841  28.275  22.491  1.00  0.00    -0.237 OA
ATOM     71  O   UNL A   1      48.717  26.219  21.754  1.00  0.00    -0.744 OA
ENDBRANCH  65  68
ENDBRANCH  47  61
BRANCH  48  72
ATOM     72  C   UNL A   1      38.679  30.520  30.981  1.00  0.00     0.023 A 
ATOM     73  C   UNL A   1      38.617  30.286  32.368  1.00  0.00     0.012 A 
ATOM     74  C   UNL A   1      37.620  31.202  30.352  1.00  0.00     0.148 A 
ATOM     75  C   UNL A   1      37.508  30.692  33.111  1.00  0.00     0.002 A 
ATOM     76  C   UNL A   1      36.543  31.653  31.106  1.00  0.00     0.091 A 
ATOM     77  F   UNL A   1      37.692  31.406  29.029  1.00  0.00    -0.205 F 
ATOM     78  C   UNL A   1      36.476  31.383  32.482  1.00  0.00     0.022 A 
BRANCH  76  79
ATOM     79  S   UNL A   1      35.234  32.665  30.407  1.00  0.00     0.127 S 
ATOM     80  O   UNL A   1      34.323  32.803  31.541  1.00  0.00    -0.237 OA
ATOM     81  O   UNL A   1      35.956  33.885  30.044  1.00  0.00    -0.237 OA
ATOM     82  O   UNL A   1      34.721  31.914  29.270  1.00  0.00    -0.744 OA
ENDBRANCH  76  79
ENDBRANCH  48  72
BRANCH  60  83
ATOM     83  C   UNL A   1      44.816  33.474  29.439  1.00  0.00     0.023 A 
ATOM     84  C   UNL A   1      45.542  33.669  30.631  1.00  0.00     0.012 A 
ATOM     85  C   UNL A   1      44.720  34.525  28.506  1.00  0.00     0.148 A 
ATOM     86  C   UNL A   1      46.134  34.901  30.904  1.00  0.00     0.002 A 
ATOM     87  C   UNL A   1      45.356  35.733  28.763  1.00  0.00     0.091 A 
ATOM     88  F   UNL A   1      44.009  34.324  27.387  1.00  0.00    -0.205 F 
ATOM     89  C   UNL A   1      46.052  35.928  29.965  1.00  0.00     0.022 A 
BRANCH  87  90
ATOM     90  S   UNL A   1      45.387  37.076  27.570  1.00  0.00     0.127 S 
ATOM     91  O   UNL A   1      46.252  38.048  28.237  1.00  0.00    -0.237 OA
ATOM     92  O   UNL A   1      45.981  36.436  26.397  1.00  0.00    -0.237 OA
ATOM     93  O   UNL A   1      44.001  37.491  27.395  1.00  0.00    -0.744 OA
ENDBRANCH  87  90
ENDBRANCH  60  83
ENDBRANCH  34  35
ENDBRANCH  26  29
ENDBRANCH  24  25
ENDBRANCH   1  24
TORSDOF 15
ENDMDL
