MODEL 1
REMARK VINA RESULT:     -12.1      0.000      0.000
REMARK SMILES Cc1ccc(S(=O)(=O)n2cc(C(=O)C(=O)N[C@@H](Cc3c[nH]c4ccccc34)C(=O)NCC(=O)NCCCNC(=O)c3ccc(-c4c5nc(c(-c6cccc(S(=O)(=O)[O-])c6F)c6ccc([nH]6)c(-c6cccc(S(=O)(=O)[O-])c6F)c6nc(c(-c7cccc(S(=O)(=O)[O-])c7F)c7ccc4[nH]7)C=C6)C=C5)cc3)c3ccccc32)cc1
REMARK SMILES IDX 32 1 33 2 34 3 31 5 30 6 28 7 29 8 17 10 16 11 14 12 15 13
REMARK SMILES IDX 12 15 13 16 11 17 9 18 10 19 109 20 104 21 108 22 105 23
REMARK SMILES IDX 107 24 106 25 6 26 7 27 8 28 5 29 1 30 2 31 3 32 111 33 4 34
REMARK SMILES IDX 110 35 18 36 19 37 20 38 27 39 21 40 22 41 26 42 23 44 25 45
REMARK SMILES IDX 24 46 35 47 36 48 37 49 38 50 39 51 40 53 41 54 42 55 103 56
REMARK SMILES IDX 43 57 102 58 44 59 45 60 46 61 96 62 47 63 101 64 95 65
REMARK SMILES IDX 97 66 48 67 100 68 94 69 93 70 49 72 81 73 61 74 80 75 62 76
REMARK SMILES IDX 65 77 79 78 98 79 63 80 64 81 78 83 99 84 66 85 50 86 51 87
REMARK SMILES IDX 59 88 52 89 54 90 60 91 53 92 55 93 56 94 57 95 58 96 82 97
REMARK SMILES IDX 83 98 91 99 84 100 86 101 92 102 85 103 87 104 88 105 89 106
REMARK SMILES IDX 90 107 67 108 68 109 76 110 69 111 71 112 77 113 70 114
REMARK SMILES IDX 72 115 73 116 74 117 75 118
REMARK H PARENT 34 4 30 9 16 14 21 43 38 52 97 71 65 82
REMARK Flexibility Score: inf
ROOT
ATOM      1  C   UNL A   1      37.762  30.778  31.690  1.00  0.00     0.239 C 
ATOM      2  O   UNL A   1      36.660  30.240  31.802  1.00  0.00    -0.273 OA
ATOM      3  N   UNL A   1      38.833  30.024  31.290  1.00  0.00    -0.355 N 
ATOM      4  H   UNL A   1      38.712  29.048  31.267  1.00  0.00     0.163 HD
ENDROOT
BRANCH   1   5
ATOM      5  C   UNL A   1      37.911  32.309  31.772  1.00  0.00     0.216 C 
BRANCH   5   6
ATOM      6  N   UNL A   1      37.960  33.137  30.578  1.00  0.00    -0.345 N 
ATOM      7  C   UNL A   1      37.162  33.263  29.481  1.00  0.00     0.243 C 
ATOM      8  O   UNL A   1      37.409  34.257  28.781  1.00  0.00    -0.273 OA
ATOM      9  H   UNL A   1      38.740  33.739  30.558  1.00  0.00     0.164 HD
BRANCH   7  10
ATOM     10  C   UNL A   1      35.951  32.344  29.080  1.00  0.00     0.176 C 
BRANCH  10  11
ATOM     11  N   UNL A   1      36.215  30.936  28.702  1.00  0.00    -0.337 N 
ATOM     12  C   UNL A   1      35.501  29.964  28.004  1.00  0.00     0.293 C 
ATOM     13  O   UNL A   1      35.966  28.831  27.921  1.00  0.00    -0.265 OA
ATOM     14  H   UNL A   1      37.092  30.615  29.014  1.00  0.00     0.164 HD
BRANCH  12  15
ATOM     15  C   UNL A   1      34.186  30.283  27.287  1.00  0.00     0.252 C 
ATOM     16  O   UNL A   1      33.865  31.472  27.279  1.00  0.00    -0.283 OA
BRANCH  15  17
ATOM     17  C   UNL A   1      33.269  29.249  26.765  1.00  0.00     0.054 A 
ATOM     18  N   UNL A   1      31.617  27.766  26.326  1.00  0.00    -0.240 N 
ATOM     19  C   UNL A   1      32.370  28.340  27.354  1.00  0.00     0.117 A 
ATOM     20  C   UNL A   1      31.971  28.434  25.135  1.00  0.00     0.065 A 
ATOM     21  C   UNL A   1      33.238  28.940  25.375  1.00  0.00     0.012 A 
ATOM     22  C   UNL A   1      31.464  28.313  23.825  1.00  0.00     0.028 A 
ATOM     23  C   UNL A   1      34.115  29.112  24.286  1.00  0.00     0.011 A 
ATOM     24  C   UNL A   1      32.374  28.399  22.773  1.00  0.00     0.002 A 
ATOM     25  C   UNL A   1      33.697  28.746  23.005  1.00  0.00     0.001 A 
BRANCH  18  26
ATOM     26  S   UNL A   1      31.210  26.118  25.971  1.00  0.00     0.268 S 
ATOM     27  O   UNL A   1      29.815  26.237  25.567  1.00  0.00    -0.201 OA
ATOM     28  O   UNL A   1      31.557  25.500  27.251  1.00  0.00    -0.201 OA
BRANCH  26  29
ATOM     29  C   UNL A   1      31.833  24.882  24.899  1.00  0.00     0.088 A 
ATOM     30  C   UNL A   1      32.016  21.446  22.272  1.00  0.00     0.044 C 
ATOM     31  C   UNL A   1      32.019  22.667  23.146  1.00  0.00    -0.051 A 
ATOM     32  C   UNL A   1      30.874  23.445  23.132  1.00  0.00     0.005 A 
ATOM     33  C   UNL A   1      33.085  23.037  24.001  1.00  0.00     0.005 A 
ATOM     34  C   UNL A   1      30.800  24.533  23.980  1.00  0.00     0.022 A 
ATOM     35  C   UNL A   1      33.001  24.144  24.893  1.00  0.00     0.022 A 
ENDBRANCH  26  29
ENDBRANCH  18  26
ENDBRANCH  15  17
ENDBRANCH  12  15
ENDBRANCH  10  11
BRANCH  10  36
ATOM     36  C   UNL A   1      34.738  32.473  30.059  1.00  0.00     0.072 C 
BRANCH  36  37
ATOM     37  C   UNL A   1      34.014  33.801  30.134  1.00  0.00    -0.020 A 
ATOM     38  C   UNL A   1      33.452  34.457  29.049  1.00  0.00     0.087 A 
ATOM     39  C   UNL A   1      33.853  34.689  31.262  1.00  0.00     0.003 A 
ATOM     40  N   UNL A   1      33.106  35.727  29.436  1.00  0.00    -0.361 N 
ATOM     41  C   UNL A   1      33.473  35.930  30.744  1.00  0.00     0.046 A 
ATOM     42  C   UNL A   1      34.169  34.620  32.636  1.00  0.00     0.010 A 
ATOM     43  H   UNL A   1      32.661  36.392  28.862  1.00  0.00     0.166 HD
ATOM     44  C   UNL A   1      33.560  37.120  31.480  1.00  0.00     0.026 A 
ATOM     45  C   UNL A   1      34.310  35.804  33.371  1.00  0.00     0.001 A 
ATOM     46  C   UNL A   1      34.040  37.038  32.787  1.00  0.00     0.002 A 
ENDBRANCH  36  37
ENDBRANCH  10  36
ENDBRANCH   7  10
ENDBRANCH   5   6
ENDBRANCH   1   5
BRANCH   3  47
ATOM     47  C   UNL A   1      40.123  30.540  30.899  1.00  0.00     0.117 C 
BRANCH  47  48
ATOM     48  C   UNL A   1      40.864  29.612  29.935  1.00  0.00     0.042 C 
BRANCH  48  49
ATOM     49  C   UNL A   1      40.919  28.174  30.371  1.00  0.00     0.118 C 
BRANCH  49  50
ATOM     50  N   UNL A   1      40.148  27.313  29.468  1.00  0.00    -0.352 N 
ATOM     51  C   UNL A   1      40.554  26.584  28.370  1.00  0.00     0.251 C 
ATOM     52  H   UNL A   1      39.189  27.245  29.680  1.00  0.00     0.163 HD
ATOM     53  O   UNL A   1      39.736  26.392  27.465  1.00  0.00    -0.269 OA
BRANCH  51  54
ATOM     54  C   UNL A   1      41.908  26.010  28.340  1.00  0.00     0.039 A 
ATOM     55  C   UNL A   1      42.238  24.723  28.759  1.00  0.00     0.014 A 
ATOM     56  C   UNL A   1      42.939  26.895  28.082  1.00  0.00     0.014 A 
ATOM     57  C   UNL A   1      43.575  24.474  29.076  1.00  0.00     0.010 A 
ATOM     58  C   UNL A   1      44.203  26.488  27.891  1.00  0.00     0.010 A 
ATOM     59  C   UNL A   1      44.516  25.434  28.716  1.00  0.00    -0.014 A 
BRANCH  59  60
ATOM     60  C   UNL A   1      45.859  25.614  29.213  1.00  0.00     0.031 A 
ATOM     61  C   UNL A   1      46.943  25.207  28.339  1.00  0.00     0.074 A 
ATOM     62  C   UNL A   1      45.994  26.538  30.198  1.00  0.00     0.049 A 
ATOM     63  N   UNL A   1      48.173  25.176  28.689  1.00  0.00    -0.248 NA
ATOM     64  C   UNL A   1      46.693  24.773  26.972  1.00  0.00     0.031 C 
ATOM     65  C   UNL A   1      47.107  27.434  30.483  1.00  0.00     0.029 A 
ATOM     66  N   UNL A   1      45.069  26.862  31.186  1.00  0.00    -0.354 N 
ATOM     67  C   UNL A   1      48.898  25.042  27.527  1.00  0.00     0.074 A 
ATOM     68  C   UNL A   1      47.943  24.615  26.537  1.00  0.00     0.031 C 
ATOM     69  C   UNL A   1      46.920  27.994  31.695  1.00  0.00     0.029 A 
ATOM     70  C   UNL A   1      45.759  27.355  32.296  1.00  0.00     0.049 A 
ATOM     71  H   UNL A   1      44.093  26.760  31.115  1.00  0.00     0.167 HD
ATOM     72  C   UNL A   1      50.176  25.511  27.525  1.00  0.00     0.034 A 
ATOM     73  C   UNL A   1      45.783  26.572  33.421  1.00  0.00     0.034 A 
ATOM     74  C   UNL A   1      50.537  25.986  28.883  1.00  0.00     0.049 A 
ATOM     75  C   UNL A   1      47.142  25.921  33.630  1.00  0.00     0.074 A 
ATOM     76  C   UNL A   1      50.595  27.247  29.456  1.00  0.00     0.029 A 
ATOM     77  N   UNL A   1      50.515  25.085  29.950  1.00  0.00    -0.354 N 
ATOM     78  N   UNL A   1      48.122  25.970  32.767  1.00  0.00    -0.248 NA
ATOM     79  C   UNL A   1      47.521  25.205  34.843  1.00  0.00     0.031 C 
ATOM     80  C   UNL A   1      50.484  27.095  30.871  1.00  0.00     0.029 A 
ATOM     81  C   UNL A   1      50.394  25.744  31.167  1.00  0.00     0.049 A 
ATOM     82  H   UNL A   1      50.578  24.107  29.851  1.00  0.00     0.167 HD
ATOM     83  C   UNL A   1      49.187  25.238  33.206  1.00  0.00     0.074 A 
ATOM     84  C   UNL A   1      48.786  24.847  34.551  1.00  0.00     0.031 C 
ATOM     85  C   UNL A   1      50.282  24.984  32.418  1.00  0.00     0.034 A 
BRANCH  72  86
ATOM     86  C   UNL A   1      50.987  25.831  26.274  1.00  0.00     0.023 A 
ATOM     87  C   UNL A   1      52.112  25.017  26.021  1.00  0.00     0.012 A 
ATOM     88  C   UNL A   1      50.779  26.883  25.345  1.00  0.00     0.148 A 
ATOM     89  C   UNL A   1      53.000  25.261  24.965  1.00  0.00     0.002 A 
ATOM     90  C   UNL A   1      51.677  27.150  24.308  1.00  0.00     0.091 A 
ATOM     91  F   UNL A   1      49.678  27.626  25.399  1.00  0.00    -0.205 F 
ATOM     92  C   UNL A   1      52.793  26.338  24.116  1.00  0.00     0.022 A 
BRANCH  90  93
ATOM     93  S   UNL A   1      51.474  28.545  23.178  1.00  0.00     0.127 S 
ATOM     94  O   UNL A   1      52.605  28.368  22.266  1.00  0.00    -0.237 OA
ATOM     95  O   UNL A   1      50.166  28.275  22.584  1.00  0.00    -0.237 OA
ATOM     96  O   UNL A   1      51.548  29.753  23.991  1.00  0.00    -0.744 OA
ENDBRANCH  90  93
ENDBRANCH  72  86
BRANCH  73  97
ATOM     97  C   UNL A   1      44.430  25.946  33.658  1.00  0.00     0.023 A 
ATOM     98  C   UNL A   1      44.335  24.561  33.354  1.00  0.00     0.012 A 
ATOM     99  C   UNL A   1      43.515  26.493  34.576  1.00  0.00     0.148 A 
ATOM    100  C   UNL A   1      43.526  23.712  34.115  1.00  0.00     0.002 A 
ATOM    101  C   UNL A   1      42.684  25.640  35.309  1.00  0.00     0.091 A 
ATOM    102  F   UNL A   1      43.510  27.818  34.771  1.00  0.00    -0.205 F 
ATOM    103  C   UNL A   1      42.740  24.248  35.129  1.00  0.00     0.022 A 
BRANCH 101 104
ATOM    104  S   UNL A   1      41.571  26.283  36.567  1.00  0.00     0.127 S 
ATOM    105  O   UNL A   1      40.529  25.260  36.586  1.00  0.00    -0.237 OA
ATOM    106  O   UNL A   1      42.405  26.312  37.767  1.00  0.00    -0.237 OA
ATOM    107  O   UNL A   1      41.173  27.597  36.083  1.00  0.00    -0.744 OA
ENDBRANCH 101 104
ENDBRANCH  73  97
BRANCH  85 108
ATOM    108  C   UNL A   1      51.374  23.984  32.764  1.00  0.00     0.023 A 
ATOM    109  C   UNL A   1      51.159  22.593  32.741  1.00  0.00     0.012 A 
ATOM    110  C   UNL A   1      52.708  24.411  32.999  1.00  0.00     0.148 A 
ATOM    111  C   UNL A   1      52.174  21.678  33.033  1.00  0.00     0.002 A 
ATOM    112  C   UNL A   1      53.742  23.493  33.148  1.00  0.00     0.091 A 
ATOM    113  F   UNL A   1      52.986  25.719  33.108  1.00  0.00    -0.205 F 
ATOM    114  C   UNL A   1      53.473  22.126  33.214  1.00  0.00     0.022 A 
BRANCH 112 115
ATOM    115  S   UNL A   1      55.464  24.007  33.090  1.00  0.00     0.127 S 
ATOM    116  O   UNL A   1      55.487  25.092  34.069  1.00  0.00    -0.237 OA
ATOM    117  O   UNL A   1      56.163  22.791  33.512  1.00  0.00    -0.237 OA
ATOM    118  O   UNL A   1      55.710  24.387  31.706  1.00  0.00    -0.744 OA
ENDBRANCH 112 115
ENDBRANCH  85 108
ENDBRANCH  59  60
ENDBRANCH  51  54
ENDBRANCH  49  50
ENDBRANCH  48  49
ENDBRANCH  47  48
ENDBRANCH   3  47
TORSDOF 22
ENDMDL
MODEL 2
REMARK VINA RESULT:     -11.7      4.349      7.262
REMARK SMILES Cc1ccc(S(=O)(=O)n2cc(C(=O)C(=O)N[C@@H](Cc3c[nH]c4ccccc34)C(=O)NCC(=O)NCCCNC(=O)c3ccc(-c4c5nc(c(-c6cccc(S(=O)(=O)[O-])c6F)c6ccc([nH]6)c(-c6cccc(S(=O)(=O)[O-])c6F)c6nc(c(-c7cccc(S(=O)(=O)[O-])c7F)c7ccc4[nH]7)C=C6)C=C5)cc3)c3ccccc32)cc1
REMARK SMILES IDX 32 1 33 2 34 3 31 5 30 6 28 7 29 8 17 10 16 11 14 12 15 13
REMARK SMILES IDX 12 15 13 16 11 17 9 18 10 19 109 20 104 21 108 22 105 23
REMARK SMILES IDX 107 24 106 25 6 26 7 27 8 28 5 29 1 30 2 31 3 32 111 33 4 34
REMARK SMILES IDX 110 35 18 36 19 37 20 38 27 39 21 40 22 41 26 42 23 44 25 45
REMARK SMILES IDX 24 46 35 47 36 48 37 49 38 50 39 51 40 53 41 54 42 55 103 56
REMARK SMILES IDX 43 57 102 58 44 59 45 60 46 61 96 62 47 63 101 64 95 65
REMARK SMILES IDX 97 66 48 67 100 68 94 69 93 70 49 72 81 73 61 74 80 75 62 76
REMARK SMILES IDX 65 77 79 78 98 79 63 80 64 81 78 83 99 84 66 85 50 86 51 87
REMARK SMILES IDX 59 88 52 89 54 90 60 91 53 92 55 93 56 94 57 95 58 96 82 97
REMARK SMILES IDX 83 98 91 99 84 100 86 101 92 102 85 103 87 104 88 105 89 106
REMARK SMILES IDX 90 107 67 108 68 109 76 110 69 111 71 112 77 113 70 114
REMARK SMILES IDX 72 115 73 116 74 117 75 118
REMARK H PARENT 34 4 30 9 16 14 21 43 38 52 97 71 65 82
REMARK Flexibility Score: inf
ROOT
ATOM      1  C   UNL A   1      34.525  33.187  29.006  1.00  0.00     0.239 C 
ATOM      2  O   UNL A   1      33.763  33.810  29.746  1.00  0.00    -0.273 OA
ATOM      3  N   UNL A   1      35.774  32.859  29.460  1.00  0.00    -0.355 N 
ATOM      4  H   UNL A   1      36.072  33.278  30.299  1.00  0.00     0.163 HD
ENDROOT
BRANCH   1   5
ATOM      5  C   UNL A   1      34.024  32.579  27.681  1.00  0.00     0.216 C 
BRANCH   5   6
ATOM      6  N   UNL A   1      32.615  32.579  27.324  1.00  0.00    -0.345 N 
ATOM      7  C   UNL A   1      31.831  31.759  26.570  1.00  0.00     0.243 C 
ATOM      8  O   UNL A   1      30.613  31.959  26.695  1.00  0.00    -0.273 OA
ATOM      9  H   UNL A   1      32.119  33.337  27.711  1.00  0.00     0.164 HD
BRANCH   7  10
ATOM     10  C   UNL A   1      32.307  30.574  25.652  1.00  0.00     0.176 C 
BRANCH  10  11
ATOM     11  N   UNL A   1      33.580  29.887  25.973  1.00  0.00    -0.337 N 
ATOM     12  C   UNL A   1      33.907  28.665  26.557  1.00  0.00     0.293 C 
ATOM     13  O   UNL A   1      35.088  28.404  26.767  1.00  0.00    -0.265 OA
ATOM     14  H   UNL A   1      34.373  30.411  25.716  1.00  0.00     0.164 HD
BRANCH  12  15
ATOM     15  C   UNL A   1      32.843  27.614  26.889  1.00  0.00     0.252 C 
ATOM     16  O   UNL A   1      32.360  27.690  28.019  1.00  0.00    -0.283 OA
BRANCH  15  17
ATOM     17  C   UNL A   1      32.506  26.484  25.999  1.00  0.00     0.054 A 
ATOM     18  N   UNL A   1      31.665  25.025  24.487  1.00  0.00    -0.240 N 
ATOM     19  C   UNL A   1      31.316  26.008  25.417  1.00  0.00     0.117 A 
ATOM     20  C   UNL A   1      33.074  25.010  24.414  1.00  0.00     0.065 A 
ATOM     21  C   UNL A   1      33.498  25.533  25.626  1.00  0.00     0.012 A 
ATOM     22  C   UNL A   1      33.947  24.275  23.586  1.00  0.00     0.028 A 
ATOM     23  C   UNL A   1      34.743  25.121  26.141  1.00  0.00     0.011 A 
ATOM     24  C   UNL A   1      35.129  23.807  24.153  1.00  0.00     0.002 A 
ATOM     25  C   UNL A   1      35.500  24.185  25.436  1.00  0.00     0.001 A 
BRANCH  18  26
ATOM     26  S   UNL A   1      31.051  23.428  24.206  1.00  0.00     0.268 S 
ATOM     27  O   UNL A   1      30.287  23.615  22.979  1.00  0.00    -0.201 OA
ATOM     28  O   UNL A   1      30.361  23.205  25.476  1.00  0.00    -0.201 OA
BRANCH  26  29
ATOM     29  C   UNL A   1      31.754  21.839  23.999  1.00  0.00     0.088 A 
ATOM     30  C   UNL A   1      34.305  18.383  24.537  1.00  0.00     0.044 C 
ATOM     31  C   UNL A   1      33.363  19.532  24.320  1.00  0.00    -0.051 A 
ATOM     32  C   UNL A   1      33.031  20.283  25.433  1.00  0.00     0.005 A 
ATOM     33  C   UNL A   1      32.843  19.912  23.059  1.00  0.00     0.005 A 
ATOM     34  C   UNL A   1      32.232  21.398  25.268  1.00  0.00     0.022 A 
ATOM     35  C   UNL A   1      32.038  21.075  22.883  1.00  0.00     0.022 A 
ENDBRANCH  26  29
ENDBRANCH  18  26
ENDBRANCH  15  17
ENDBRANCH  12  15
ENDBRANCH  10  11
BRANCH  10  36
ATOM     36  C   UNL A   1      31.161  29.563  25.319  1.00  0.00     0.072 C 
BRANCH  36  37
ATOM     37  C   UNL A   1      30.611  29.541  23.907  1.00  0.00    -0.020 A 
ATOM     38  C   UNL A   1      31.196  28.873  22.842  1.00  0.00     0.087 A 
ATOM     39  C   UNL A   1      29.486  30.262  23.357  1.00  0.00     0.003 A 
ATOM     40  N   UNL A   1      30.577  29.270  21.684  1.00  0.00    -0.361 N 
ATOM     41  C   UNL A   1      29.627  30.222  21.967  1.00  0.00     0.046 A 
ATOM     42  C   UNL A   1      28.478  31.093  23.891  1.00  0.00     0.010 A 
ATOM     43  H   UNL A   1      30.782  28.924  20.785  1.00  0.00     0.166 HD
ATOM     44  C   UNL A   1      28.938  31.088  21.108  1.00  0.00     0.026 A 
ATOM     45  C   UNL A   1      27.818  32.000  23.053  1.00  0.00     0.001 A 
ATOM     46  C   UNL A   1      28.071  32.017  21.685  1.00  0.00     0.002 A 
ENDBRANCH  36  37
ENDBRANCH  10  36
ENDBRANCH   7  10
ENDBRANCH   5   6
ENDBRANCH   1   5
BRANCH   3  47
ATOM     47  C   UNL A   1      36.690  31.951  28.813  1.00  0.00     0.117 C 
BRANCH  47  48
ATOM     48  C   UNL A   1      36.767  30.591  29.510  1.00  0.00     0.042 C 
BRANCH  48  49
ATOM     49  C   UNL A   1      37.675  30.555  30.708  1.00  0.00     0.118 C 
BRANCH  49  50
ATOM     50  N   UNL A   1      38.051  29.180  31.051  1.00  0.00    -0.352 N 
ATOM     51  C   UNL A   1      38.811  28.263  30.354  1.00  0.00     0.251 C 
ATOM     52  H   UNL A   1      37.707  28.860  31.916  1.00  0.00     0.163 HD
ATOM     53  O   UNL A   1      38.566  27.064  30.514  1.00  0.00    -0.269 OA
BRANCH  51  54
ATOM     54  C   UNL A   1      39.916  28.733  29.504  1.00  0.00     0.039 A 
ATOM     55  C   UNL A   1      39.925  28.689  28.112  1.00  0.00     0.014 A 
ATOM     56  C   UNL A   1      41.100  29.028  30.154  1.00  0.00     0.014 A 
ATOM     57  C   UNL A   1      41.166  28.756  27.476  1.00  0.00     0.010 A 
ATOM     58  C   UNL A   1      42.141  29.594  29.525  1.00  0.00     0.010 A 
ATOM     59  C   UNL A   1      42.270  29.112  28.245  1.00  0.00    -0.014 A 
BRANCH  59  60
ATOM     60  C   UNL A   1      43.672  28.917  27.959  1.00  0.00     0.031 A 
ATOM     61  C   UNL A   1      44.394  30.050  27.412  1.00  0.00     0.074 A 
ATOM     62  C   UNL A   1      44.266  27.902  28.636  1.00  0.00     0.049 A 
ATOM     63  N   UNL A   1      45.597  29.992  26.982  1.00  0.00    -0.248 NA
ATOM     64  C   UNL A   1      43.772  31.361  27.292  1.00  0.00     0.031 C 
ATOM     65  C   UNL A   1      45.633  27.789  29.126  1.00  0.00     0.029 A 
ATOM     66  N   UNL A   1      43.687  26.703  29.041  1.00  0.00    -0.354 N 
ATOM     67  C   UNL A   1      46.016  31.295  26.841  1.00  0.00     0.074 A 
ATOM     68  C   UNL A   1      44.808  32.080  26.864  1.00  0.00     0.031 C 
ATOM     69  C   UNL A   1      45.858  26.518  29.512  1.00  0.00     0.029 A 
ATOM     70  C   UNL A   1      44.690  25.735  29.135  1.00  0.00     0.049 A 
ATOM     71  H   UNL A   1      42.732  26.560  29.229  1.00  0.00     0.167 HD
ATOM     72  C   UNL A   1      47.352  31.541  26.927  1.00  0.00     0.034 A 
ATOM     73  C   UNL A   1      44.681  24.728  28.205  1.00  0.00     0.034 A 
ATOM     74  C   UNL A   1      48.089  30.260  27.056  1.00  0.00     0.049 A 
ATOM     75  C   UNL A   1      45.789  24.898  27.175  1.00  0.00     0.074 A 
ATOM     76  C   UNL A   1      48.638  29.593  28.141  1.00  0.00     0.029 A 
ATOM     77  N   UNL A   1      47.990  29.311  26.036  1.00  0.00    -0.354 N 
ATOM     78  N   UNL A   1      46.557  25.951  27.087  1.00  0.00    -0.248 NA
ATOM     79  C   UNL A   1      46.149  23.879  26.195  1.00  0.00     0.031 C 
ATOM     80  C   UNL A   1      48.752  28.212  27.798  1.00  0.00     0.029 A 
ATOM     81  C   UNL A   1      48.307  28.038  26.497  1.00  0.00     0.049 A 
ATOM     82  H   UNL A   1      47.730  29.517  25.109  1.00  0.00     0.167 HD
ATOM     83  C   UNL A   1      47.407  25.839  26.025  1.00  0.00     0.074 A 
ATOM     84  C   UNL A   1      47.164  24.484  25.550  1.00  0.00     0.031 C 
ATOM     85  C   UNL A   1      48.203  26.876  25.606  1.00  0.00     0.034 A 
BRANCH  72  86
ATOM     86  C   UNL A   1      47.974  32.905  27.206  1.00  0.00     0.023 A 
ATOM     87  C   UNL A   1      47.216  33.799  27.993  1.00  0.00     0.012 A 
ATOM     88  C   UNL A   1      49.212  33.412  26.733  1.00  0.00     0.148 A 
ATOM     89  C   UNL A   1      47.623  35.117  28.242  1.00  0.00     0.002 A 
ATOM     90  C   UNL A   1      49.608  34.734  26.954  1.00  0.00     0.091 A 
ATOM     91  F   UNL A   1      50.072  32.619  26.103  1.00  0.00    -0.205 F 
ATOM     92  C   UNL A   1      48.812  35.593  27.709  1.00  0.00     0.022 A 
BRANCH  90  93
ATOM     93  S   UNL A   1      51.136  35.419  26.274  1.00  0.00     0.127 S 
ATOM     94  O   UNL A   1      50.965  35.187  24.840  1.00  0.00    -0.237 OA
ATOM     95  O   UNL A   1      51.052  36.822  26.677  1.00  0.00    -0.237 OA
ATOM     96  O   UNL A   1      52.232  34.667  26.873  1.00  0.00    -0.744 OA
ENDBRANCH  90  93
ENDBRANCH  72  86
BRANCH  73  97
ATOM     97  C   UNL A   1      43.272  24.252  27.953  1.00  0.00     0.023 A 
ATOM     98  C   UNL A   1      42.420  25.185  27.300  1.00  0.00     0.012 A 
ATOM     99  C   UNL A   1      42.959  22.884  27.861  1.00  0.00     0.148 A 
ATOM    100  C   UNL A   1      41.445  24.756  26.395  1.00  0.00     0.002 A 
ATOM    101  C   UNL A   1      41.959  22.466  26.979  1.00  0.00     0.091 A 
ATOM    102  F   UNL A   1      43.676  22.010  28.579  1.00  0.00    -0.205 F 
ATOM    103  C   UNL A   1      41.252  23.393  26.196  1.00  0.00     0.022 A 
BRANCH 101 104
ATOM    104  S   UNL A   1      41.593  20.718  26.751  1.00  0.00     0.127 S 
ATOM    105  O   UNL A   1      40.339  20.778  26.004  1.00  0.00    -0.237 OA
ATOM    106  O   UNL A   1      42.733  20.239  25.972  1.00  0.00    -0.237 OA
ATOM    107  O   UNL A   1      41.515  20.171  28.097  1.00  0.00    -0.744 OA
ENDBRANCH 101 104
ENDBRANCH  73  97
BRANCH  85 108
ATOM    108  C   UNL A   1      48.978  26.887  24.299  1.00  0.00     0.023 A 
ATOM    109  C   UNL A   1      48.385  27.238  23.071  1.00  0.00     0.012 A 
ATOM    110  C   UNL A   1      50.382  26.670  24.280  1.00  0.00     0.148 A 
ATOM    111  C   UNL A   1      49.110  27.274  21.877  1.00  0.00     0.002 A 
ATOM    112  C   UNL A   1      51.122  26.846  23.116  1.00  0.00     0.091 A 
ATOM    113  F   UNL A   1      51.014  26.262  25.390  1.00  0.00    -0.205 F 
ATOM    114  C   UNL A   1      50.485  27.100  21.901  1.00  0.00     0.022 A 
BRANCH 112 115
ATOM    115  S   UNL A   1      52.918  26.923  23.152  1.00  0.00     0.127 S 
ATOM    116  O   UNL A   1      53.240  27.110  21.739  1.00  0.00    -0.237 OA
ATOM    117  O   UNL A   1      53.160  28.097  23.992  1.00  0.00    -0.237 OA
ATOM    118  O   UNL A   1      53.349  25.665  23.747  1.00  0.00    -0.744 OA
ENDBRANCH 112 115
ENDBRANCH  85 108
ENDBRANCH  59  60
ENDBRANCH  51  54
ENDBRANCH  49  50
ENDBRANCH  48  49
ENDBRANCH  47  48
ENDBRANCH   3  47
TORSDOF 22
ENDMDL
MODEL 3
REMARK VINA RESULT:     -11.7      7.185     15.389
REMARK SMILES Cc1ccc(S(=O)(=O)n2cc(C(=O)C(=O)N[C@@H](Cc3c[nH]c4ccccc34)C(=O)NCC(=O)NCCCNC(=O)c3ccc(-c4c5nc(c(-c6cccc(S(=O)(=O)[O-])c6F)c6ccc([nH]6)c(-c6cccc(S(=O)(=O)[O-])c6F)c6nc(c(-c7cccc(S(=O)(=O)[O-])c7F)c7ccc4[nH]7)C=C6)C=C5)cc3)c3ccccc32)cc1
REMARK SMILES IDX 32 1 33 2 34 3 31 5 30 6 28 7 29 8 17 10 16 11 14 12 15 13
REMARK SMILES IDX 12 15 13 16 11 17 9 18 10 19 109 20 104 21 108 22 105 23
REMARK SMILES IDX 107 24 106 25 6 26 7 27 8 28 5 29 1 30 2 31 3 32 111 33 4 34
REMARK SMILES IDX 110 35 18 36 19 37 20 38 27 39 21 40 22 41 26 42 23 44 25 45
REMARK SMILES IDX 24 46 35 47 36 48 37 49 38 50 39 51 40 53 41 54 42 55 103 56
REMARK SMILES IDX 43 57 102 58 44 59 45 60 46 61 96 62 47 63 101 64 95 65
REMARK SMILES IDX 97 66 48 67 100 68 94 69 93 70 49 72 81 73 61 74 80 75 62 76
REMARK SMILES IDX 65 77 79 78 98 79 63 80 64 81 78 83 99 84 66 85 50 86 51 87
REMARK SMILES IDX 59 88 52 89 54 90 60 91 53 92 55 93 56 94 57 95 58 96 82 97
REMARK SMILES IDX 83 98 91 99 84 100 86 101 92 102 85 103 87 104 88 105 89 106
REMARK SMILES IDX 90 107 67 108 68 109 76 110 69 111 71 112 77 113 70 114
REMARK SMILES IDX 72 115 73 116 74 117 75 118
REMARK H PARENT 34 4 30 9 16 14 21 43 38 52 97 71 65 82
REMARK Flexibility Score: inf
ROOT
ATOM      1  C   UNL A   1      49.533  20.293  33.640  1.00  0.00     0.239 C 
ATOM      2  O   UNL A   1      48.802  19.635  32.898  1.00  0.00    -0.273 OA
ATOM      3  N   UNL A   1      50.886  20.093  33.589  1.00  0.00    -0.355 N 
ATOM      4  H   UNL A   1      51.207  19.315  33.080  1.00  0.00     0.163 HD
ENDROOT
BRANCH   1   5
ATOM      5  C   UNL A   1      48.979  21.482  34.449  1.00  0.00     0.216 C 
BRANCH   5   6
ATOM      6  N   UNL A   1      47.584  21.550  34.851  1.00  0.00    -0.345 N 
ATOM      7  C   UNL A   1      46.859  20.977  35.853  1.00  0.00     0.243 C 
ATOM      8  O   UNL A   1      45.732  21.470  36.014  1.00  0.00    -0.273 OA
ATOM      9  H   UNL A   1      47.044  22.138  34.273  1.00  0.00     0.164 HD
BRANCH   7  10
ATOM     10  C   UNL A   1      47.333  19.847  36.838  1.00  0.00     0.176 C 
BRANCH  10  11
ATOM     11  N   UNL A   1      48.780  19.711  37.128  1.00  0.00    -0.337 N 
ATOM     12  C   UNL A   1      49.711  20.483  37.821  1.00  0.00     0.293 C 
ATOM     13  O   UNL A   1      50.888  20.137  37.819  1.00  0.00    -0.265 OA
ATOM     14  H   UNL A   1      49.171  18.892  36.747  1.00  0.00     0.164 HD
BRANCH  12  15
ATOM     15  C   UNL A   1      49.299  21.715  38.633  1.00  0.00     0.252 C 
ATOM     16  O   UNL A   1      49.204  21.537  39.848  1.00  0.00    -0.283 OA
BRANCH  15  17
ATOM     17  C   UNL A   1      48.890  22.996  38.023  1.00  0.00     0.054 A 
ATOM     18  N   UNL A   1      48.561  24.852  36.769  1.00  0.00    -0.240 N 
ATOM     19  C   UNL A   1      49.535  23.956  37.219  1.00  0.00     0.117 A 
ATOM     20  C   UNL A   1      47.312  24.348  37.193  1.00  0.00     0.065 A 
ATOM     21  C   UNL A   1      47.605  23.549  38.287  1.00  0.00     0.012 A 
ATOM     22  C   UNL A   1      46.002  24.807  36.947  1.00  0.00     0.028 A 
ATOM     23  C   UNL A   1      46.628  23.392  39.290  1.00  0.00     0.011 A 
ATOM     24  C   UNL A   1      45.084  24.719  37.991  1.00  0.00     0.002 A 
ATOM     25  C   UNL A   1      45.409  24.063  39.170  1.00  0.00     0.001 A 
BRANCH  18  26
ATOM     26  S   UNL A   1      48.509  26.585  36.738  1.00  0.00     0.268 S 
ATOM     27  O   UNL A   1      49.843  26.913  36.249  1.00  0.00    -0.201 OA
ATOM     28  O   UNL A   1      48.151  26.844  38.131  1.00  0.00    -0.201 OA
BRANCH  26  29
ATOM     29  C   UNL A   1      47.497  27.790  35.971  1.00  0.00     0.088 A 
ATOM     30  C   UNL A   1      46.241  31.148  33.546  1.00  0.00     0.044 C 
ATOM     31  C   UNL A   1      46.601  29.953  34.380  1.00  0.00    -0.051 A 
ATOM     32  C   UNL A   1      47.653  29.174  33.931  1.00  0.00     0.005 A 
ATOM     33  C   UNL A   1      45.970  29.609  35.600  1.00  0.00     0.005 A 
ATOM     34  C   UNL A   1      48.071  28.111  34.707  1.00  0.00     0.022 A 
ATOM     35  C   UNL A   1      46.416  28.527  36.414  1.00  0.00     0.022 A 
ENDBRANCH  26  29
ENDBRANCH  18  26
ENDBRANCH  15  17
ENDBRANCH  12  15
ENDBRANCH  10  11
BRANCH  10  36
ATOM     36  C   UNL A   1      46.462  19.764  38.134  1.00  0.00     0.072 C 
BRANCH  36  37
ATOM     37  C   UNL A   1      45.838  18.432  38.496  1.00  0.00    -0.020 A 
ATOM     38  C   UNL A   1      45.041  17.677  37.649  1.00  0.00     0.087 A 
ATOM     39  C   UNL A   1      45.837  17.741  39.765  1.00  0.00     0.003 A 
ATOM     40  N   UNL A   1      44.456  16.673  38.378  1.00  0.00    -0.361 N 
ATOM     41  C   UNL A   1      44.821  16.784  39.699  1.00  0.00     0.046 A 
ATOM     42  C   UNL A   1      46.458  17.953  41.014  1.00  0.00     0.010 A 
ATOM     43  H   UNL A   1      43.865  15.977  38.010  1.00  0.00     0.166 HD
ATOM     44  C   UNL A   1      44.286  16.162  40.835  1.00  0.00     0.026 A 
ATOM     45  C   UNL A   1      45.903  17.380  42.166  1.00  0.00     0.001 A 
ATOM     46  C   UNL A   1      44.811  16.523  42.076  1.00  0.00     0.002 A 
ENDBRANCH  36  37
ENDBRANCH  10  36
ENDBRANCH   7  10
ENDBRANCH   5   6
ENDBRANCH   1   5
BRANCH   3  47
ATOM     47  C   UNL A   1      51.881  20.927  34.218  1.00  0.00     0.117 C 
BRANCH  47  48
ATOM     48  C   UNL A   1      53.131  21.112  33.355  1.00  0.00     0.042 C 
BRANCH  48  49
ATOM     49  C   UNL A   1      53.373  22.525  32.902  1.00  0.00     0.118 C 
BRANCH  49  50
ATOM     50  N   UNL A   1      53.424  23.449  34.039  1.00  0.00    -0.352 N 
ATOM     51  C   UNL A   1      53.295  24.822  34.078  1.00  0.00     0.251 C 
ATOM     52  H   UNL A   1      53.575  23.022  34.913  1.00  0.00     0.163 HD
ATOM     53  O   UNL A   1      53.888  25.436  34.970  1.00  0.00    -0.269 OA
BRANCH  51  54
ATOM     54  C   UNL A   1      52.415  25.496  33.112  1.00  0.00     0.039 A 
ATOM     55  C   UNL A   1      52.086  26.849  33.142  1.00  0.00     0.014 A 
ATOM     56  C   UNL A   1      51.705  24.672  32.258  1.00  0.00     0.014 A 
ATOM     57  C   UNL A   1      50.938  27.246  32.454  1.00  0.00     0.010 A 
ATOM     58  C   UNL A   1      50.973  25.153  31.241  1.00  0.00     0.010 A 
ATOM     59  C   UNL A   1      50.350  26.328  31.589  1.00  0.00    -0.014 A 
BRANCH  59  60
ATOM     60  C   UNL A   1      49.012  26.325  31.046  1.00  0.00     0.031 A 
ATOM     61  C   UNL A   1      47.993  25.639  31.817  1.00  0.00     0.074 A 
ATOM     62  C   UNL A   1      48.745  27.315  30.157  1.00  0.00     0.049 A 
ATOM     63  N   UNL A   1      46.800  25.433  31.404  1.00  0.00    -0.248 NA
ATOM     64  C   UNL A   1      48.274  25.106  33.143  1.00  0.00     0.031 C 
ATOM     65  C   UNL A   1      47.499  28.028  29.911  1.00  0.00     0.029 A 
ATOM     66  N   UNL A   1      49.627  27.904  29.256  1.00  0.00    -0.354 N 
ATOM     67  C   UNL A   1      46.074  25.046  32.507  1.00  0.00     0.074 A 
ATOM     68  C   UNL A   1      47.060  24.685  33.495  1.00  0.00     0.031 C 
ATOM     69  C   UNL A   1      47.620  28.744  28.775  1.00  0.00     0.029 A 
ATOM     70  C   UNL A   1      48.895  28.388  28.170  1.00  0.00     0.049 A 
ATOM     71  H   UNL A   1      50.603  27.966  29.365  1.00  0.00     0.167 HD
ATOM     72  C   UNL A   1      44.734  25.281  32.495  1.00  0.00     0.034 A 
ATOM     73  C   UNL A   1      49.047  27.744  26.970  1.00  0.00     0.034 A 
ATOM     74  C   UNL A   1      44.336  25.834  31.177  1.00  0.00     0.049 A 
ATOM     75  C   UNL A   1      47.834  26.892  26.626  1.00  0.00     0.074 A 
ATOM     76  C   UNL A   1      44.071  27.121  30.736  1.00  0.00     0.029 A 
ATOM     77  N   UNL A   1      44.552  25.074  30.024  1.00  0.00    -0.354 N 
ATOM     78  N   UNL A   1      46.835  26.673  27.439  1.00  0.00    -0.248 NA
ATOM     79  C   UNL A   1      47.627  26.261  25.328  1.00  0.00     0.031 C 
ATOM     80  C   UNL A   1      44.251  27.149  29.320  1.00  0.00     0.029 A 
ATOM     81  C   UNL A   1      44.592  25.876  28.889  1.00  0.00     0.049 A 
ATOM     82  H   UNL A   1      44.663  24.096  30.017  1.00  0.00     0.167 HD
ATOM     83  C   UNL A   1      45.932  25.819  26.873  1.00  0.00     0.074 A 
ATOM     84  C   UNL A   1      46.439  25.657  25.516  1.00  0.00     0.031 C 
ATOM     85  C   UNL A   1      44.877  25.291  27.574  1.00  0.00     0.034 A 
BRANCH  72  86
ATOM     86  C   UNL A   1      43.840  25.313  33.729  1.00  0.00     0.023 A 
ATOM     87  C   UNL A   1      43.424  24.066  34.244  1.00  0.00     0.012 A 
ATOM     88  C   UNL A   1      43.330  26.450  34.408  1.00  0.00     0.148 A 
ATOM     89  C   UNL A   1      42.524  23.952  35.312  1.00  0.00     0.002 A 
ATOM     90  C   UNL A   1      42.409  26.343  35.453  1.00  0.00     0.091 A 
ATOM     91  F   UNL A   1      43.761  27.669  34.102  1.00  0.00    -0.205 F 
ATOM     92  C   UNL A   1      42.001  25.090  35.908  1.00  0.00     0.022 A 
BRANCH  90  93
ATOM     93  S   UNL A   1      41.679  27.785  36.259  1.00  0.00     0.127 S 
ATOM     94  O   UNL A   1      40.967  28.428  35.153  1.00  0.00    -0.237 OA
ATOM     95  O   UNL A   1      40.813  27.172  37.265  1.00  0.00    -0.237 OA
ATOM     96  O   UNL A   1      42.786  28.570  36.791  1.00  0.00    -0.744 OA
ENDBRANCH  90  93
ENDBRANCH  72  86
BRANCH  73  97
ATOM     97  C   UNL A   1      50.497  27.395  26.737  1.00  0.00     0.023 A 
ATOM     98  C   UNL A   1      50.833  26.026  26.918  1.00  0.00     0.012 A 
ATOM     99  C   UNL A   1      51.322  28.182  25.914  1.00  0.00     0.148 A 
ATOM    100  C   UNL A   1      51.803  25.412  26.121  1.00  0.00     0.002 A 
ATOM    101  C   UNL A   1      52.314  27.566  25.145  1.00  0.00     0.091 A 
ATOM    102  F   UNL A   1      51.092  29.499  25.841  1.00  0.00    -0.205 F 
ATOM    103  C   UNL A   1      52.507  26.175  25.195  1.00  0.00     0.022 A 
BRANCH 101 104
ATOM    104  S   UNL A   1      53.326  28.516  24.001  1.00  0.00     0.127 S 
ATOM    105  O   UNL A   1      54.621  27.854  24.138  1.00  0.00    -0.237 OA
ATOM    106  O   UNL A   1      52.672  28.293  22.713  1.00  0.00    -0.237 OA
ATOM    107  O   UNL A   1      53.251  29.888  24.481  1.00  0.00    -0.744 OA
ENDBRANCH 101 104
ENDBRANCH  73  97
BRANCH  85 108
ATOM    108  C   UNL A   1      43.994  24.161  27.071  1.00  0.00     0.023 A 
ATOM    109  C   UNL A   1      42.593  24.276  26.989  1.00  0.00     0.012 A 
ATOM    110  C   UNL A   1      44.561  22.976  26.530  1.00  0.00     0.148 A 
ATOM    111  C   UNL A   1      41.788  23.244  26.498  1.00  0.00     0.002 A 
ATOM    112  C   UNL A   1      43.767  22.014  25.913  1.00  0.00     0.091 A 
ATOM    113  F   UNL A   1      45.879  22.755  26.631  1.00  0.00    -0.205 F 
ATOM    114  C   UNL A   1      42.376  22.120  25.938  1.00  0.00     0.022 A 
BRANCH 112 115
ATOM    115  S   UNL A   1      44.490  20.700  24.923  1.00  0.00     0.127 S 
ATOM    116  O   UNL A   1      43.446  19.678  24.970  1.00  0.00    -0.237 OA
ATOM    117  O   UNL A   1      44.650  21.348  23.620  1.00  0.00    -0.237 OA
ATOM    118  O   UNL A   1      45.746  20.364  25.581  1.00  0.00    -0.744 OA
ENDBRANCH 112 115
ENDBRANCH  85 108
ENDBRANCH  59  60
ENDBRANCH  51  54
ENDBRANCH  49  50
ENDBRANCH  48  49
ENDBRANCH  47  48
ENDBRANCH   3  47
TORSDOF 22
ENDMDL
