MODEL 1
REMARK VINA RESULT:     -10.9      0.000      0.000
REMARK SMILES O=C(NCCCNC(=O)[C@@H]1CCCN1C(=O)[C@@H]1CCCN1C(=O)OCC1c2ccccc2-c2ccccc21)c1ccc(-c2c3nc(c(-c4cccc(S(=O)(=O)[O-])c4F)c4ccc([nH]4)c(-c4cccc(S(=O)(=O)[O-])c4F)c4nc(c(-c5cccc(S(=O)(=O)[O-])c5F)c5ccc2[nH]5)C=C4)C=C3)cc1
REMARK SMILES IDX 7 1 8 2 9 3 6 5 5 6 4 7 3 8 1 9 2 10 39 12 40 13 101 14
REMARK SMILES IDX 41 15 100 16 42 17 43 18 44 19 94 20 45 21 99 22 93 23 95 24
REMARK SMILES IDX 46 25 98 26 92 27 91 28 47 30 79 31 59 32 78 33 60 34 63 35
REMARK SMILES IDX 77 36 96 37 61 38 62 39 76 41 97 42 64 43 48 44 49 45 57 46
REMARK SMILES IDX 50 47 52 48 58 49 51 50 53 51 54 52 55 53 56 54 80 55 81 56
REMARK SMILES IDX 89 57 82 58 84 59 90 60 83 61 85 62 86 63 87 64 88 65 65 66
REMARK SMILES IDX 66 67 74 68 67 69 69 70 75 71 68 72 70 73 71 74 72 75 73 76
REMARK SMILES IDX 10 77 11 78 14 79 12 80 13 81 15 82 16 83 17 84 18 85 21 86
REMARK SMILES IDX 19 87 20 88 22 89 23 90 24 91 25 92 26 93 27 94 38 95 28 96
REMARK SMILES IDX 32 97 33 98 37 99 29 100 31 101 34 102 36 103 30 104 35 105
REMARK H PARENT 7 4 3 11 95 29 63 40
REMARK Flexibility Score: inf
ROOT
ATOM      1  N   UNL A   1      34.607  34.956  34.227  1.00  0.00    -0.354 N 
ATOM      2  C   UNL A   1      34.305  35.933  33.347  1.00  0.00     0.242 C 
ATOM      3  O   UNL A   1      34.051  36.986  33.939  1.00  0.00    -0.273 OA
ATOM      4  H   UNL A   1      34.624  35.297  35.150  1.00  0.00     0.163 HD
ENDROOT
BRANCH   1   5
ATOM      5  C   UNL A   1      34.910  33.542  34.179  1.00  0.00     0.117 C 
BRANCH   5   6
ATOM      6  C   UNL A   1      36.395  33.270  34.348  1.00  0.00     0.042 C 
BRANCH   6   7
ATOM      7  C   UNL A   1      37.061  34.227  35.328  1.00  0.00     0.118 C 
BRANCH   7   8
ATOM      8  N   UNL A   1      37.461  33.563  36.563  1.00  0.00    -0.352 N 
ATOM      9  O   UNL A   1      38.323  31.921  37.837  1.00  0.00    -0.269 OA
ATOM     10  C   UNL A   1      38.321  32.507  36.758  1.00  0.00     0.251 C 
ATOM     11  H   UNL A   1      37.054  33.927  37.383  1.00  0.00     0.163 HD
BRANCH  10  12
ATOM     12  C   UNL A   1      39.219  32.074  35.665  1.00  0.00     0.039 A 
ATOM     13  C   UNL A   1      40.538  32.521  35.631  1.00  0.00     0.014 A 
ATOM     14  C   UNL A   1      38.756  31.199  34.678  1.00  0.00     0.014 A 
ATOM     15  C   UNL A   1      41.324  32.268  34.519  1.00  0.00     0.010 A 
ATOM     16  C   UNL A   1      39.601  30.828  33.624  1.00  0.00     0.010 A 
ATOM     17  C   UNL A   1      40.883  31.386  33.518  1.00  0.00    -0.014 A 
BRANCH  17  18
ATOM     18  C   UNL A   1      41.848  31.006  32.453  1.00  0.00     0.031 A 
ATOM     19  C   UNL A   1      42.292  31.976  31.394  1.00  0.00     0.074 A 
ATOM     20  C   UNL A   1      42.376  29.764  32.500  1.00  0.00     0.049 A 
ATOM     21  N   UNL A   1      43.203  31.812  30.468  1.00  0.00    -0.248 NA
ATOM     22  C   UNL A   1      41.630  33.288  31.353  1.00  0.00     0.031 C 
ATOM     23  C   UNL A   1      41.972  28.719  33.447  1.00  0.00     0.029 A 
ATOM     24  N   UNL A   1      43.374  29.176  31.771  1.00  0.00    -0.354 N 
ATOM     25  C   UNL A   1      43.203  32.980  29.716  1.00  0.00     0.074 A 
ATOM     26  C   UNL A   1      42.190  33.844  30.286  1.00  0.00     0.031 C 
ATOM     27  C   UNL A   1      42.757  27.647  33.286  1.00  0.00     0.029 A 
ATOM     28  C   UNL A   1      43.671  27.897  32.180  1.00  0.00     0.049 A 
ATOM     29  H   UNL A   1      43.835  29.625  31.025  1.00  0.00     0.167 HD
ATOM     30  C   UNL A   1      43.986  33.306  28.660  1.00  0.00     0.034 A 
ATOM     31  C   UNL A   1      44.571  27.011  31.713  1.00  0.00     0.034 A 
ATOM     32  C   UNL A   1      45.011  32.450  28.120  1.00  0.00     0.049 A 
ATOM     33  C   UNL A   1      45.462  27.425  30.582  1.00  0.00     0.074 A 
ATOM     34  C   UNL A   1      45.876  32.700  27.069  1.00  0.00     0.029 A 
ATOM     35  N   UNL A   1      45.312  31.179  28.589  1.00  0.00    -0.354 N 
ATOM     36  N   UNL A   1      45.513  28.576  29.954  1.00  0.00    -0.248 NA
ATOM     37  C   UNL A   1      46.434  26.433  30.108  1.00  0.00     0.031 C 
ATOM     38  C   UNL A   1      46.695  31.578  26.897  1.00  0.00     0.029 A 
ATOM     39  C   UNL A   1      46.351  30.634  27.852  1.00  0.00     0.049 A 
ATOM     40  H   UNL A   1      44.855  30.731  29.335  1.00  0.00     0.167 HD
ATOM     41  C   UNL A   1      46.524  28.448  29.014  1.00  0.00     0.074 A 
ATOM     42  C   UNL A   1      47.093  27.127  29.189  1.00  0.00     0.031 C 
ATOM     43  C   UNL A   1      46.926  29.331  28.066  1.00  0.00     0.034 A 
BRANCH  30  44
ATOM     44  C   UNL A   1      43.804  34.669  28.040  1.00  0.00     0.023 A 
ATOM     45  C   UNL A   1      42.980  34.806  26.906  1.00  0.00     0.012 A 
ATOM     46  C   UNL A   1      44.377  35.818  28.620  1.00  0.00     0.148 A 
ATOM     47  C   UNL A   1      42.745  36.062  26.344  1.00  0.00     0.002 A 
ATOM     48  C   UNL A   1      44.109  37.071  28.077  1.00  0.00     0.091 A 
ATOM     49  F   UNL A   1      45.173  35.666  29.688  1.00  0.00    -0.205 F 
ATOM     50  C   UNL A   1      43.300  37.194  26.935  1.00  0.00     0.022 A 
BRANCH  48  51
ATOM     51  S   UNL A   1      44.716  38.598  28.804  1.00  0.00     0.127 S 
ATOM     52  O   UNL A   1      44.148  38.529  30.149  1.00  0.00    -0.237 OA
ATOM     53  O   UNL A   1      46.166  38.413  28.744  1.00  0.00    -0.237 OA
ATOM     54  O   UNL A   1      44.204  39.674  27.965  1.00  0.00    -0.744 OA
ENDBRANCH  48  51
ENDBRANCH  30  44
BRANCH  31  55
ATOM     55  C   UNL A   1      44.679  25.666  32.345  1.00  0.00     0.023 A 
ATOM     56  C   UNL A   1      44.018  24.564  31.771  1.00  0.00     0.012 A 
ATOM     57  C   UNL A   1      45.485  25.464  33.482  1.00  0.00     0.148 A 
ATOM     58  C   UNL A   1      44.142  23.291  32.330  1.00  0.00     0.002 A 
ATOM     59  C   UNL A   1      45.660  24.184  33.992  1.00  0.00     0.091 A 
ATOM     60  F   UNL A   1      46.090  26.527  34.032  1.00  0.00    -0.205 F 
ATOM     61  C   UNL A   1      44.974  23.099  33.430  1.00  0.00     0.022 A 
BRANCH  59  62
ATOM     62  S   UNL A   1      46.851  23.846  35.294  1.00  0.00     0.127 S 
ATOM     63  O   UNL A   1      48.084  24.375  34.717  1.00  0.00    -0.237 OA
ATOM     64  O   UNL A   1      46.313  24.617  36.415  1.00  0.00    -0.237 OA
ATOM     65  O   UNL A   1      46.800  22.403  35.490  1.00  0.00    -0.744 OA
ENDBRANCH  59  62
ENDBRANCH  31  55
BRANCH  43  66
ATOM     66  C   UNL A   1      48.035  28.887  27.152  1.00  0.00     0.023 A 
ATOM     67  C   UNL A   1      49.375  29.073  27.546  1.00  0.00     0.012 A 
ATOM     68  C   UNL A   1      47.754  28.261  25.923  1.00  0.00     0.148 A 
ATOM     69  C   UNL A   1      50.420  28.681  26.712  1.00  0.00     0.002 A 
ATOM     70  C   UNL A   1      48.802  27.832  25.117  1.00  0.00     0.091 A 
ATOM     71  F   UNL A   1      46.473  28.115  25.555  1.00  0.00    -0.205 F 
ATOM     72  C   UNL A   1      50.133  28.052  25.502  1.00  0.00     0.022 A 
BRANCH  70  73
ATOM     73  S   UNL A   1      48.520  26.937  23.584  1.00  0.00     0.127 S 
ATOM     74  O   UNL A   1      47.753  27.908  22.809  1.00  0.00    -0.237 OA
ATOM     75  O   UNL A   1      49.882  26.708  23.101  1.00  0.00    -0.237 OA
ATOM     76  O   UNL A   1      47.806  25.724  23.961  1.00  0.00    -0.744 OA
ENDBRANCH  70  73
ENDBRANCH  43  66
ENDBRANCH  17  18
ENDBRANCH  10  12
ENDBRANCH   7   8
ENDBRANCH   6   7
ENDBRANCH   5   6
ENDBRANCH   1   5
BRANCH   2  77
ATOM     77  C   UNL A   1      34.170  35.826  31.801  1.00  0.00     0.174 C 
ATOM     78  C   UNL A   1      32.973  36.596  31.233  1.00  0.00     0.037 C 
ATOM     79  N   UNL A   1      34.058  34.541  31.048  1.00  0.00    -0.329 N 
ATOM     80  C   UNL A   1      32.903  36.208  29.776  1.00  0.00     0.024 C 
ATOM     81  C   UNL A   1      33.373  34.775  29.777  1.00  0.00     0.120 C 
BRANCH  79  82
ATOM     82  C   UNL A   1      34.778  33.363  31.069  1.00  0.00     0.246 C 
ATOM     83  O   UNL A   1      34.290  32.376  31.652  1.00  0.00    -0.272 OA
BRANCH  82  84
ATOM     84  C   UNL A   1      36.221  33.188  30.588  1.00  0.00     0.178 C 
ATOM     85  C   UNL A   1      37.164  34.206  31.237  1.00  0.00     0.037 C 
ATOM     86  N   UNL A   1      36.606  33.156  29.198  1.00  0.00    -0.296 N 
ATOM     87  C   UNL A   1      38.376  34.289  30.306  1.00  0.00     0.024 C 
ATOM     88  C   UNL A   1      38.009  33.483  29.064  1.00  0.00     0.124 C 
BRANCH  86  89
ATOM     89  C   UNL A   1      35.964  32.410  28.244  1.00  0.00     0.410 C 
ATOM     90  O   UNL A   1      35.404  32.892  27.268  1.00  0.00    -0.224 OA
BRANCH  89  91
ATOM     91  O   UNL A   1      35.975  31.081  28.549  1.00  0.00    -0.448 OA
BRANCH  91  92
ATOM     92  C   UNL A   1      36.985  30.272  27.912  1.00  0.00     0.248 C 
BRANCH  92  93
ATOM     93  C   UNL A   1      38.261  30.048  28.756  1.00  0.00     0.088 C 
ATOM     94  C   UNL A   1      38.051  29.357  30.103  1.00  0.00    -0.029 A 
ATOM     95  C   UNL A   1      39.302  29.144  28.111  1.00  0.00    -0.029 A 
ATOM     96  C   UNL A   1      37.298  29.778  31.189  1.00  0.00     0.005 A 
ATOM     97  C   UNL A   1      38.830  28.179  30.171  1.00  0.00    -0.014 A 
ATOM     98  C   UNL A   1      39.557  28.025  28.931  1.00  0.00    -0.014 A 
ATOM     99  C   UNL A   1      39.953  29.307  26.899  1.00  0.00     0.005 A 
ATOM    100  C   UNL A   1      37.329  29.003  32.353  1.00  0.00     0.000 A 
ATOM    101  C   UNL A   1      38.848  27.403  31.320  1.00  0.00     0.009 A 
ATOM    102  C   UNL A   1      40.398  27.012  28.500  1.00  0.00     0.009 A 
ATOM    103  C   UNL A   1      40.806  28.292  26.467  1.00  0.00     0.000 A 
ATOM    104  C   UNL A   1      38.095  27.826  32.418  1.00  0.00     0.001 A 
ATOM    105  C   UNL A   1      41.015  27.147  27.252  1.00  0.00     0.001 A 
ENDBRANCH  92  93
ENDBRANCH  91  92
ENDBRANCH  89  91
ENDBRANCH  86  89
ENDBRANCH  82  84
ENDBRANCH  79  82
ENDBRANCH   2  77
TORSDOF 19
ENDMDL
MODEL 2
REMARK VINA RESULT:     -10.3      7.431     13.187
REMARK SMILES O=C(NCCCNC(=O)[C@@H]1CCCN1C(=O)[C@@H]1CCCN1C(=O)OCC1c2ccccc2-c2ccccc21)c1ccc(-c2c3nc(c(-c4cccc(S(=O)(=O)[O-])c4F)c4ccc([nH]4)c(-c4cccc(S(=O)(=O)[O-])c4F)c4nc(c(-c5cccc(S(=O)(=O)[O-])c5F)c5ccc2[nH]5)C=C4)C=C3)cc1
REMARK SMILES IDX 7 1 8 2 9 3 6 5 5 6 4 7 3 8 1 9 2 10 39 12 40 13 101 14
REMARK SMILES IDX 41 15 100 16 42 17 43 18 44 19 94 20 45 21 99 22 93 23 95 24
REMARK SMILES IDX 46 25 98 26 92 27 91 28 47 30 79 31 59 32 78 33 60 34 63 35
REMARK SMILES IDX 77 36 96 37 61 38 62 39 76 41 97 42 64 43 48 44 49 45 57 46
REMARK SMILES IDX 50 47 52 48 58 49 51 50 53 51 54 52 55 53 56 54 80 55 81 56
REMARK SMILES IDX 89 57 82 58 84 59 90 60 83 61 85 62 86 63 87 64 88 65 65 66
REMARK SMILES IDX 66 67 74 68 67 69 69 70 75 71 68 72 70 73 71 74 72 75 73 76
REMARK SMILES IDX 10 77 11 78 14 79 12 80 13 81 15 82 16 83 17 84 18 85 21 86
REMARK SMILES IDX 19 87 20 88 22 89 23 90 24 91 25 92 26 93 27 94 38 95 28 96
REMARK SMILES IDX 32 97 33 98 37 99 29 100 31 101 34 102 36 103 30 104 35 105
REMARK H PARENT 7 4 3 11 95 29 63 40
REMARK Flexibility Score: inf
ROOT
ATOM      1  N   UNL A   1      44.307  40.528  26.192  1.00  0.00    -0.354 N 
ATOM      2  C   UNL A   1      44.447  41.540  25.311  1.00  0.00     0.242 C 
ATOM      3  O   UNL A   1      45.638  41.721  25.043  1.00  0.00    -0.273 OA
ATOM      4  H   UNL A   1      45.173  40.103  26.390  1.00  0.00     0.163 HD
ENDROOT
BRANCH   1   5
ATOM      5  C   UNL A   1      43.229  39.901  26.925  1.00  0.00     0.117 C 
BRANCH   5   6
ATOM      6  C   UNL A   1      43.660  39.467  28.316  1.00  0.00     0.042 C 
BRANCH   6   7
ATOM      7  C   UNL A   1      44.183  38.037  28.350  1.00  0.00     0.118 C 
BRANCH   7   8
ATOM      8  N   UNL A   1      45.640  37.982  28.378  1.00  0.00    -0.352 N 
ATOM      9  O   UNL A   1      47.663  37.140  28.889  1.00  0.00    -0.269 OA
ATOM     10  C   UNL A   1      46.478  36.925  28.653  1.00  0.00     0.251 C 
ATOM     11  H   UNL A   1      46.094  38.830  28.170  1.00  0.00     0.163 HD
BRANCH  10  12
ATOM     12  C   UNL A   1      45.943  35.546  28.681  1.00  0.00     0.039 A 
ATOM     13  C   UNL A   1      45.335  35.013  27.547  1.00  0.00     0.014 A 
ATOM     14  C   UNL A   1      46.063  34.768  29.836  1.00  0.00     0.014 A 
ATOM     15  C   UNL A   1      44.674  33.798  27.624  1.00  0.00     0.010 A 
ATOM     16  C   UNL A   1      45.515  33.478  29.867  1.00  0.00     0.010 A 
ATOM     17  C   UNL A   1      44.787  32.995  28.771  1.00  0.00    -0.014 A 
BRANCH  17  18
ATOM     18  C   UNL A   1      44.217  31.623  28.717  1.00  0.00     0.031 A 
ATOM     19  C   UNL A   1      42.848  31.305  29.250  1.00  0.00     0.074 A 
ATOM     20  C   UNL A   1      44.946  30.666  28.106  1.00  0.00     0.049 A 
ATOM     21  N   UNL A   1      42.185  30.179  29.176  1.00  0.00    -0.248 NA
ATOM     22  C   UNL A   1      42.132  32.373  29.966  1.00  0.00     0.031 C 
ATOM     23  C   UNL A   1      46.313  30.846  27.607  1.00  0.00     0.029 A 
ATOM     24  N   UNL A   1      44.644  29.372  27.772  1.00  0.00    -0.354 N 
ATOM     25  C   UNL A   1      40.994  30.387  29.861  1.00  0.00     0.074 A 
ATOM     26  C   UNL A   1      41.028  31.747  30.355  1.00  0.00     0.031 C 
ATOM     27  C   UNL A   1      46.705  29.734  26.973  1.00  0.00     0.029 A 
ATOM     28  C   UNL A   1      45.650  28.736  27.082  1.00  0.00     0.049 A 
ATOM     29  H   UNL A   1      43.790  28.940  28.002  1.00  0.00     0.167 HD
ATOM     30  C   UNL A   1      39.962  29.528  30.044  1.00  0.00     0.034 A 
ATOM     31  C   UNL A   1      45.727  27.482  26.598  1.00  0.00     0.034 A 
ATOM     32  C   UNL A   1      39.927  28.186  29.522  1.00  0.00     0.049 A 
ATOM     33  C   UNL A   1      44.545  26.576  26.766  1.00  0.00     0.074 A 
ATOM     34  C   UNL A   1      38.916  27.247  29.630  1.00  0.00     0.029 A 
ATOM     35  N   UNL A   1      40.945  27.591  28.791  1.00  0.00    -0.354 N 
ATOM     36  N   UNL A   1      43.387  26.831  27.327  1.00  0.00    -0.248 NA
ATOM     37  C   UNL A   1      44.667  25.221  26.217  1.00  0.00     0.031 C 
ATOM     38  C   UNL A   1      39.326  26.082  28.971  1.00  0.00     0.029 A 
ATOM     39  C   UNL A   1      40.587  26.301  28.438  1.00  0.00     0.049 A 
ATOM     40  H   UNL A   1      41.798  28.023  28.557  1.00  0.00     0.167 HD
ATOM     41  C   UNL A   1      42.640  25.670  27.196  1.00  0.00     0.074 A 
ATOM     42  C   UNL A   1      43.458  24.729  26.457  1.00  0.00     0.031 C 
ATOM     43  C   UNL A   1      41.401  25.393  27.672  1.00  0.00     0.034 A 
BRANCH  30  44
ATOM     44  C   UNL A   1      38.757  30.024  30.803  1.00  0.00     0.023 A 
ATOM     45  C   UNL A   1      38.681  29.810  32.194  1.00  0.00     0.012 A 
ATOM     46  C   UNL A   1      37.744  30.766  30.163  1.00  0.00     0.148 A 
ATOM     47  C   UNL A   1      37.608  30.307  32.933  1.00  0.00     0.002 A 
ATOM     48  C   UNL A   1      36.696  31.290  30.913  1.00  0.00     0.091 A 
ATOM     49  F   UNL A   1      37.823  30.944  28.836  1.00  0.00    -0.205 F 
ATOM     50  C   UNL A   1      36.622  31.055  32.295  1.00  0.00     0.022 A 
BRANCH  48  51
ATOM     51  S   UNL A   1      35.413  32.327  30.201  1.00  0.00     0.127 S 
ATOM     52  O   UNL A   1      34.513  32.504  31.339  1.00  0.00    -0.237 OA
ATOM     53  O   UNL A   1      36.160  33.527  29.823  1.00  0.00    -0.237 OA
ATOM     54  O   UNL A   1      34.863  31.575  29.081  1.00  0.00    -0.744 OA
ENDBRANCH  48  51
ENDBRANCH  30  44
BRANCH  31  55
ATOM     55  C   UNL A   1      46.959  27.040  25.887  1.00  0.00     0.023 A 
ATOM     56  C   UNL A   1      47.113  27.304  24.513  1.00  0.00     0.012 A 
ATOM     57  C   UNL A   1      48.009  26.410  26.584  1.00  0.00     0.148 A 
ATOM     58  C   UNL A   1      48.278  26.928  23.843  1.00  0.00     0.002 A 
ATOM     59  C   UNL A   1      49.194  26.102  25.927  1.00  0.00     0.091 A 
ATOM     60  F   UNL A   1      47.840  26.143  27.888  1.00  0.00    -0.205 F 
ATOM     61  C   UNL A   1      49.324  26.343  24.553  1.00  0.00     0.022 A 
BRANCH  59  62
ATOM     62  S   UNL A   1      50.636  25.509  26.819  1.00  0.00     0.127 S 
ATOM     63  O   UNL A   1      51.165  26.745  27.390  1.00  0.00    -0.237 OA
ATOM     64  O   UNL A   1      50.044  24.586  27.788  1.00  0.00    -0.237 OA
ATOM     65  O   UNL A   1      51.465  24.858  25.813  1.00  0.00    -0.744 OA
ENDBRANCH  59  62
ENDBRANCH  31  55
BRANCH  43  66
ATOM     66  C   UNL A   1      40.864  24.014  27.402  1.00  0.00     0.023 A 
ATOM     67  C   UNL A   1      41.499  22.897  27.982  1.00  0.00     0.012 A 
ATOM     68  C   UNL A   1      39.719  23.824  26.605  1.00  0.00     0.148 A 
ATOM     69  C   UNL A   1      41.028  21.608  27.738  1.00  0.00     0.002 A 
ATOM     70  C   UNL A   1      39.229  22.540  26.404  1.00  0.00     0.091 A 
ATOM     71  F   UNL A   1      39.144  24.897  26.043  1.00  0.00    -0.205 F 
ATOM     72  C   UNL A   1      39.888  21.431  26.957  1.00  0.00     0.022 A 
BRANCH  70  73
ATOM     73  S   UNL A   1      37.718  22.230  25.483  1.00  0.00     0.127 S 
ATOM     74  O   UNL A   1      37.909  20.847  25.052  1.00  0.00    -0.237 OA
ATOM     75  O   UNL A   1      36.686  22.414  26.504  1.00  0.00    -0.237 OA
ATOM     76  O   UNL A   1      37.693  23.225  24.419  1.00  0.00    -0.744 OA
ENDBRANCH  70  73
ENDBRANCH  43  66
ENDBRANCH  17  18
ENDBRANCH  10  12
ENDBRANCH   7   8
ENDBRANCH   6   7
ENDBRANCH   5   6
ENDBRANCH   1   5
BRANCH   2  77
ATOM     77  C   UNL A   1      43.342  42.472  24.734  1.00  0.00     0.174 C 
ATOM     78  C   UNL A   1      42.169  41.716  24.103  1.00  0.00     0.037 C 
ATOM     79  N   UNL A   1      43.579  43.530  23.707  1.00  0.00    -0.329 N 
ATOM     80  C   UNL A   1      41.322  42.775  23.438  1.00  0.00     0.024 C 
ATOM     81  C   UNL A   1      42.339  43.789  22.975  1.00  0.00     0.120 C 
BRANCH  79  82
ATOM     82  C   UNL A   1      44.502  44.549  23.589  1.00  0.00     0.246 C 
ATOM     83  O   UNL A   1      44.175  45.696  23.952  1.00  0.00    -0.272 OA
BRANCH  82  84
ATOM     84  C   UNL A   1      45.857  44.451  22.883  1.00  0.00     0.178 C 
ATOM     85  C   UNL A   1      46.936  45.263  23.607  1.00  0.00     0.037 C 
ATOM     86  N   UNL A   1      46.054  44.735  21.482  1.00  0.00    -0.296 N 
ATOM     87  C   UNL A   1      48.018  45.527  22.559  1.00  0.00     0.024 C 
ATOM     88  C   UNL A   1      47.445  45.045  21.230  1.00  0.00     0.124 C 
BRANCH  86  89
ATOM     89  C   UNL A   1      45.250  44.250  20.483  1.00  0.00     0.410 C 
ATOM     90  O   UNL A   1      44.734  43.141  20.506  1.00  0.00    -0.224 OA
BRANCH  89  91
ATOM     91  O   UNL A   1      45.150  45.127  19.444  1.00  0.00    -0.448 OA
BRANCH  91  92
ATOM     92  C   UNL A   1      45.196  44.572  18.114  1.00  0.00     0.248 C 
BRANCH  92  93
ATOM     93  C   UNL A   1      45.119  45.614  16.975  1.00  0.00     0.088 C 
ATOM     94  C   UNL A   1      43.987  46.635  17.087  1.00  0.00    -0.029 A 
ATOM     95  C   UNL A   1      46.334  46.523  16.857  1.00  0.00    -0.029 A 
ATOM     96  C   UNL A   1      42.617  46.417  17.104  1.00  0.00     0.005 A 
ATOM     97  C   UNL A   1      44.514  47.946  17.096  1.00  0.00    -0.014 A 
ATOM     98  C   UNL A   1      45.956  47.873  17.005  1.00  0.00    -0.014 A 
ATOM     99  C   UNL A   1      47.657  46.169  16.643  1.00  0.00     0.005 A 
ATOM    100  C   UNL A   1      41.772  47.532  17.132  1.00  0.00     0.000 A 
ATOM    101  C   UNL A   1      43.677  49.050  17.141  1.00  0.00     0.009 A 
ATOM    102  C   UNL A   1      46.912  48.874  17.034  1.00  0.00     0.009 A 
ATOM    103  C   UNL A   1      48.621  47.177  16.664  1.00  0.00     0.000 A 
ATOM    104  C   UNL A   1      42.297  48.835  17.152  1.00  0.00     0.001 A 
ATOM    105  C   UNL A   1      48.255  48.516  16.874  1.00  0.00     0.001 A 
ENDBRANCH  92  93
ENDBRANCH  91  92
ENDBRANCH  89  91
ENDBRANCH  86  89
ENDBRANCH  82  84
ENDBRANCH  79  82
ENDBRANCH   2  77
TORSDOF 19
ENDMDL
MODEL 3
REMARK VINA RESULT:     -10.2      1.937      7.840
REMARK SMILES O=C(NCCCNC(=O)[C@@H]1CCCN1C(=O)[C@@H]1CCCN1C(=O)OCC1c2ccccc2-c2ccccc21)c1ccc(-c2c3nc(c(-c4cccc(S(=O)(=O)[O-])c4F)c4ccc([nH]4)c(-c4cccc(S(=O)(=O)[O-])c4F)c4nc(c(-c5cccc(S(=O)(=O)[O-])c5F)c5ccc2[nH]5)C=C4)C=C3)cc1
REMARK SMILES IDX 7 1 8 2 9 3 6 5 5 6 4 7 3 8 1 9 2 10 39 12 40 13 101 14
REMARK SMILES IDX 41 15 100 16 42 17 43 18 44 19 94 20 45 21 99 22 93 23 95 24
REMARK SMILES IDX 46 25 98 26 92 27 91 28 47 30 79 31 59 32 78 33 60 34 63 35
REMARK SMILES IDX 77 36 96 37 61 38 62 39 76 41 97 42 64 43 48 44 49 45 57 46
REMARK SMILES IDX 50 47 52 48 58 49 51 50 53 51 54 52 55 53 56 54 80 55 81 56
REMARK SMILES IDX 89 57 82 58 84 59 90 60 83 61 85 62 86 63 87 64 88 65 65 66
REMARK SMILES IDX 66 67 74 68 67 69 69 70 75 71 68 72 70 73 71 74 72 75 73 76
REMARK SMILES IDX 10 77 11 78 14 79 12 80 13 81 15 82 16 83 17 84 18 85 21 86
REMARK SMILES IDX 19 87 20 88 22 89 23 90 24 91 25 92 26 93 27 94 38 95 28 96
REMARK SMILES IDX 32 97 33 98 37 99 29 100 31 101 34 102 36 103 30 104 35 105
REMARK H PARENT 7 4 3 11 95 29 63 40
REMARK Flexibility Score: inf
ROOT
ATOM      1  N   UNL A   1      34.798  34.147  31.997  1.00  0.00    -0.354 N 
ATOM      2  C   UNL A   1      35.310  33.280  31.100  1.00  0.00     0.242 C 
ATOM      3  O   UNL A   1      34.410  32.779  30.419  1.00  0.00    -0.273 OA
ATOM      4  H   UNL A   1      33.825  34.250  31.883  1.00  0.00     0.163 HD
ENDROOT
BRANCH   1   5
ATOM      5  C   UNL A   1      35.293  34.966  33.082  1.00  0.00     0.117 C 
BRANCH   5   6
ATOM      6  C   UNL A   1      35.716  34.132  34.280  1.00  0.00     0.042 C 
BRANCH   6   7
ATOM      7  C   UNL A   1      37.228  33.990  34.393  1.00  0.00     0.118 C 
BRANCH   7   8
ATOM      8  N   UNL A   1      37.653  33.654  35.747  1.00  0.00    -0.352 N 
ATOM      9  O   UNL A   1      38.609  32.411  37.361  1.00  0.00    -0.269 OA
ATOM     10  C   UNL A   1      38.585  32.738  36.178  1.00  0.00     0.251 C 
ATOM     11  H   UNL A   1      37.203  34.159  36.462  1.00  0.00     0.163 HD
BRANCH  10  12
ATOM     12  C   UNL A   1      39.534  32.141  35.213  1.00  0.00     0.039 A 
ATOM     13  C   UNL A   1      40.902  32.171  35.475  1.00  0.00     0.014 A 
ATOM     14  C   UNL A   1      39.063  31.526  34.049  1.00  0.00     0.014 A 
ATOM     15  C   UNL A   1      41.801  31.780  34.496  1.00  0.00     0.010 A 
ATOM     16  C   UNL A   1      39.973  31.001  33.122  1.00  0.00     0.010 A 
ATOM     17  C   UNL A   1      41.351  31.153  33.322  1.00  0.00    -0.014 A 
BRANCH  17  18
ATOM     18  C   UNL A   1      42.373  30.584  32.404  1.00  0.00     0.031 A 
ATOM     19  C   UNL A   1      42.891  29.181  32.557  1.00  0.00     0.074 A 
ATOM     20  C   UNL A   1      42.782  31.350  31.371  1.00  0.00     0.049 A 
ATOM     21  N   UNL A   1      43.704  28.522  31.769  1.00  0.00    -0.248 NA
ATOM     22  C   UNL A   1      42.461  28.422  33.740  1.00  0.00     0.031 C 
ATOM     23  C   UNL A   1      42.393  32.749  31.161  1.00  0.00     0.029 A 
ATOM     24  N   UNL A   1      43.581  31.068  30.295  1.00  0.00    -0.354 N 
ATOM     25  C   UNL A   1      43.909  27.288  32.374  1.00  0.00     0.074 A 
ATOM     26  C   UNL A   1      43.144  27.293  33.603  1.00  0.00     0.031 C 
ATOM     27  C   UNL A   1      42.895  33.179  29.997  1.00  0.00     0.029 A 
ATOM     28  C   UNL A   1      43.702  32.117  29.413  1.00  0.00     0.049 A 
ATOM     29  H   UNL A   1      44.026  30.199  30.165  1.00  0.00     0.167 HD
ATOM     30  C   UNL A   1      44.653  26.245  31.935  1.00  0.00     0.034 A 
ATOM     31  C   UNL A   1      44.394  32.223  28.263  1.00  0.00     0.034 A 
ATOM     32  C   UNL A   1      45.386  26.241  30.695  1.00  0.00     0.049 A 
ATOM     33  C   UNL A   1      45.159  31.030  27.775  1.00  0.00     0.074 A 
ATOM     34  C   UNL A   1      46.148  25.222  30.149  1.00  0.00     0.029 A 
ATOM     35  N   UNL A   1      45.449  27.304  29.807  1.00  0.00    -0.354 N 
ATOM     36  N   UNL A   1      45.252  29.837  28.313  1.00  0.00    -0.248 NA
ATOM     37  C   UNL A   1      45.893  31.184  26.514  1.00  0.00     0.031 C 
ATOM     38  C   UNL A   1      46.677  25.673  28.934  1.00  0.00     0.029 A 
ATOM     39  C   UNL A   1      46.232  26.967  28.715  1.00  0.00     0.049 A 
ATOM     40  H   UNL A   1      45.002  28.172  29.933  1.00  0.00     0.167 HD
ATOM     41  C   UNL A   1      46.053  29.098  27.456  1.00  0.00     0.074 A 
ATOM     42  C   UNL A   1      46.374  29.961  26.337  1.00  0.00     0.031 C 
ATOM     43  C   UNL A   1      46.510  27.829  27.595  1.00  0.00     0.034 A 
BRANCH  30  44
ATOM     44  C   UNL A   1      44.677  24.992  32.775  1.00  0.00     0.023 A 
ATOM     45  C   UNL A   1      43.773  23.950  32.487  1.00  0.00     0.012 A 
ATOM     46  C   UNL A   1      45.638  24.811  33.790  1.00  0.00     0.148 A 
ATOM     47  C   UNL A   1      43.809  22.756  33.208  1.00  0.00     0.002 A 
ATOM     48  C   UNL A   1      45.692  23.603  34.480  1.00  0.00     0.091 A 
ATOM     49  F   UNL A   1      46.478  25.820  34.063  1.00  0.00    -0.205 F 
ATOM     50  C   UNL A   1      44.774  22.579  34.196  1.00  0.00     0.022 A 
BRANCH  48  51
ATOM     51  S   UNL A   1      46.942  23.246  35.721  1.00  0.00     0.127 S 
ATOM     52  O   UNL A   1      46.865  24.437  36.566  1.00  0.00    -0.237 OA
ATOM     53  O   UNL A   1      46.424  22.026  36.338  1.00  0.00    -0.237 OA
ATOM     54  O   UNL A   1      48.193  23.077  34.994  1.00  0.00    -0.744 OA
ENDBRANCH  48  51
ENDBRANCH  30  44
BRANCH  31  55
ATOM     55  C   UNL A   1      44.358  33.499  27.495  1.00  0.00     0.023 A 
ATOM     56  C   UNL A   1      43.440  33.661  26.441  1.00  0.00     0.012 A 
ATOM     57  C   UNL A   1      45.193  34.577  27.847  1.00  0.00     0.148 A 
ATOM     58  C   UNL A   1      43.370  34.864  25.738  1.00  0.00     0.002 A 
ATOM     59  C   UNL A   1      45.071  35.795  27.189  1.00  0.00     0.091 A 
ATOM     60  F   UNL A   1      46.080  34.401  28.838  1.00  0.00    -0.205 F 
ATOM     61  C   UNL A   1      44.173  35.936  26.122  1.00  0.00     0.022 A 
BRANCH  59  62
ATOM     62  S   UNL A   1      45.949  37.258  27.750  1.00  0.00     0.127 S 
ATOM     63  O   UNL A   1      45.311  37.516  29.038  1.00  0.00    -0.237 OA
ATOM     64  O   UNL A   1      47.329  36.780  27.830  1.00  0.00    -0.237 OA
ATOM     65  O   UNL A   1      45.728  38.256  26.712  1.00  0.00    -0.744 OA
ENDBRANCH  59  62
ENDBRANCH  31  55
BRANCH  43  66
ATOM     66  C   UNL A   1      47.406  27.307  26.505  1.00  0.00     0.023 A 
ATOM     67  C   UNL A   1      46.862  26.500  25.486  1.00  0.00     0.012 A 
ATOM     68  C   UNL A   1      48.774  27.638  26.471  1.00  0.00     0.148 A 
ATOM     69  C   UNL A   1      47.673  25.995  24.472  1.00  0.00     0.002 A 
ATOM     70  C   UNL A   1      49.567  27.168  25.431  1.00  0.00     0.091 A 
ATOM     71  F   UNL A   1      49.278  28.387  27.462  1.00  0.00    -0.205 F 
ATOM     72  C   UNL A   1      49.023  26.337  24.439  1.00  0.00     0.022 A 
BRANCH  70  73
ATOM     73  S   UNL A   1      51.295  27.630  25.267  1.00  0.00     0.127 S 
ATOM     74  O   UNL A   1      51.758  26.697  24.243  1.00  0.00    -0.237 OA
ATOM     75  O   UNL A   1      51.206  29.024  24.827  1.00  0.00    -0.237 OA
ATOM     76  O   UNL A   1      51.879  27.456  26.590  1.00  0.00    -0.744 OA
ENDBRANCH  70  73
ENDBRANCH  43  66
ENDBRANCH  17  18
ENDBRANCH  10  12
ENDBRANCH   7   8
ENDBRANCH   6   7
ENDBRANCH   5   6
ENDBRANCH   1   5
BRANCH   2  77
ATOM     77  C   UNL A   1      36.790  32.830  30.934  1.00  0.00     0.174 C 
ATOM     78  C   UNL A   1      37.750  33.981  30.616  1.00  0.00     0.037 C 
ATOM     79  N   UNL A   1      37.257  31.800  29.959  1.00  0.00    -0.329 N 
ATOM     80  C   UNL A   1      39.072  33.324  30.300  1.00  0.00     0.024 C 
ATOM     81  C   UNL A   1      38.665  32.032  29.636  1.00  0.00     0.120 C 
BRANCH  79  82
ATOM     82  C   UNL A   1      36.833  30.523  29.652  1.00  0.00     0.246 C 
ATOM     83  O   UNL A   1      35.978  30.376  28.757  1.00  0.00    -0.272 OA
BRANCH  82  84
ATOM     84  C   UNL A   1      37.183  29.252  30.431  1.00  0.00     0.178 C 
ATOM     85  C   UNL A   1      36.899  29.406  31.928  1.00  0.00     0.037 C 
ATOM     86  N   UNL A   1      38.465  28.594  30.360  1.00  0.00    -0.296 N 
ATOM     87  C   UNL A   1      37.767  28.352  32.618  1.00  0.00     0.024 C 
ATOM     88  C   UNL A   1      38.664  27.768  31.530  1.00  0.00     0.124 C 
BRANCH  86  89
ATOM     89  C   UNL A   1      39.120  28.321  29.187  1.00  0.00     0.410 C 
ATOM     90  O   UNL A   1      39.956  29.062  28.687  1.00  0.00    -0.224 OA
BRANCH  89  91
ATOM     91  O   UNL A   1      38.682  27.160  28.621  1.00  0.00    -0.448 OA
BRANCH  91  92
ATOM     92  C   UNL A   1      39.638  26.086  28.510  1.00  0.00     0.248 C 
BRANCH  92  93
ATOM     93  C   UNL A   1      39.971  25.663  27.061  1.00  0.00     0.088 C 
ATOM     94  C   UNL A   1      41.119  26.422  26.397  1.00  0.00    -0.029 A 
ATOM     95  C   UNL A   1      40.433  24.221  26.907  1.00  0.00    -0.029 A 
ATOM     96  C   UNL A   1      41.223  27.778  26.122  1.00  0.00     0.005 A 
ATOM     97  C   UNL A   1      42.125  25.519  25.984  1.00  0.00    -0.014 A 
ATOM     98  C   UNL A   1      41.724  24.176  26.342  1.00  0.00    -0.014 A 
ATOM     99  C   UNL A   1      39.760  23.059  27.249  1.00  0.00     0.005 A 
ATOM    100  C   UNL A   1      42.350  28.226  25.426  1.00  0.00     0.000 A 
ATOM    101  C   UNL A   1      43.250  25.966  25.309  1.00  0.00     0.009 A 
ATOM    102  C   UNL A   1      42.390  22.970  26.201  1.00  0.00     0.009 A 
ATOM    103  C   UNL A   1      40.426  21.843  27.099  1.00  0.00     0.000 A 
ATOM    104  C   UNL A   1      43.355  27.329  25.025  1.00  0.00     0.001 A 
ATOM    105  C   UNL A   1      41.736  21.799  26.596  1.00  0.00     0.001 A 
ENDBRANCH  92  93
ENDBRANCH  91  92
ENDBRANCH  89  91
ENDBRANCH  86  89
ENDBRANCH  82  84
ENDBRANCH  79  82
ENDBRANCH   2  77
TORSDOF 19
ENDMDL
