MODEL 1
REMARK VINA RESULT:     -13.4      0.000      0.000
REMARK SMILES O=C(C[C@@H](C(=O)NCCCNC(=O)c1ccc(-c2c3nc(c(-c4cccc(S(=O)(=O)[O-])c4F)c4ccc([nH]4)c(-c4cccc(S(=O)(=O)[O-])c4F)c4nc(c(-c5cccc(S(=O)(=O)[O-])c5F)c5ccc2[nH]5)C=C4)C=C3)cc1)[NH+]1CCN(c2cccc(Cl)c2)CC1)c1ccc(F)cc1
REMARK SMILES IDX 9 1 8 2 7 3 5 4 6 5 4 7 3 8 2 9 1 10 90 11 91 12 96 13 92 14
REMARK SMILES IDX 95 15 93 16 94 17 77 18 78 19 89 20 79 22 88 23 80 24 81 25
REMARK SMILES IDX 82 26 87 27 83 28 85 29 84 30 86 31 10 32 11 33 12 34 13 36
REMARK SMILES IDX 14 37 15 38 76 39 16 40 75 41 17 42 18 43 19 44 69 45 20 46
REMARK SMILES IDX 74 47 68 48 70 49 21 50 73 51 67 52 66 53 22 55 54 56 34 57
REMARK SMILES IDX 53 58 35 59 38 60 52 61 71 62 36 63 37 64 51 66 72 67 39 68
REMARK SMILES IDX 23 69 24 70 32 71 25 72 27 73 33 74 26 75 28 76 29 77 30 78
REMARK SMILES IDX 31 79 55 80 56 81 64 82 57 83 59 84 65 85 58 86 60 87 61 88
REMARK SMILES IDX 62 89 63 90 40 91 41 92 49 93 42 94 44 95 50 96 43 97 45 98
REMARK SMILES IDX 46 99 47 100 48 101
REMARK H PARENT 7 6 77 21 11 35 70 54 38 65
REMARK Flexibility Score: inf
ROOT
ATOM      1  C   UNL A   1      31.615  29.093  26.518  1.00  0.00     0.042 C 
ENDROOT
BRANCH   1   2
ATOM      2  C   UNL A   1      31.949  27.598  26.364  1.00  0.00     0.118 C 
BRANCH   2   3
ATOM      3  N   UNL A   1      30.871  26.693  26.711  1.00  0.00    -0.351 N 
ATOM      4  C   UNL A   1      30.240  25.663  26.090  1.00  0.00     0.278 C 
ATOM      5  O   UNL A   1      29.410  25.109  26.818  1.00  0.00    -0.268 OA
ATOM      6  H   UNL A   1      30.511  26.865  27.610  1.00  0.00     0.163 HD
BRANCH   4   7
ATOM      7  C   UNL A   1      30.526  25.225  24.613  1.00  0.00     0.282 C 
BRANCH   7   8
ATOM      8  C   UNL A   1      29.754  25.939  23.478  1.00  0.00     0.156 C 
BRANCH   8   9
ATOM      9  C   UNL A   1      30.135  27.256  22.845  1.00  0.00     0.169 C 
ATOM     10  O   UNL A   1      31.166  27.297  22.167  1.00  0.00    -0.294 OA
BRANCH   9  11
ATOM     11  C   UNL A   1      29.274  28.476  22.897  1.00  0.00     0.018 A 
ATOM     12  C   UNL A   1      27.882  28.437  22.839  1.00  0.00     0.015 A 
ATOM     13  C   UNL A   1      29.901  29.713  23.109  1.00  0.00     0.015 A 
ATOM     14  C   UNL A   1      27.124  29.561  23.175  1.00  0.00     0.040 A 
ATOM     15  C   UNL A   1      29.146  30.857  23.376  1.00  0.00     0.040 A 
ATOM     16  C   UNL A   1      27.764  30.758  23.458  1.00  0.00     0.123 A 
ATOM     17  F   UNL A   1      27.042  31.820  23.832  1.00  0.00    -0.207 F 
ENDBRANCH   9  11
ENDBRANCH   8   9
ENDBRANCH   7   8
BRANCH   7  18
ATOM     18  N   UNL A   1      30.755  23.737  24.378  1.00  0.00    -0.321 N 
ATOM     19  C   UNL A   1      31.529  23.283  23.201  1.00  0.00     0.284 C 
ATOM     20  C   UNL A   1      31.203  22.900  25.519  1.00  0.00     0.284 C 
ATOM     21  H   UNL A   1      29.764  23.581  24.190  1.00  0.00     0.348 HD
ATOM     22  C   UNL A   1      33.074  23.330  23.352  1.00  0.00     0.178 C 
ATOM     23  C   UNL A   1      32.728  22.955  25.817  1.00  0.00     0.178 C 
ATOM     24  N   UNL A   1      33.510  22.688  24.603  1.00  0.00    -0.360 N 
BRANCH  24  25
ATOM     25  C   UNL A   1      34.858  22.396  24.769  1.00  0.00     0.038 A 
ATOM     26  C   UNL A   1      35.854  23.383  24.805  1.00  0.00     0.026 A 
ATOM     27  C   UNL A   1      35.258  21.057  24.867  1.00  0.00     0.046 A 
ATOM     28  C   UNL A   1      37.209  23.044  24.897  1.00  0.00     0.004 A 
ATOM     29  C   UNL A   1      36.609  20.717  24.937  1.00  0.00     0.043 A 
ATOM     30  C   UNL A   1      37.588  21.705  24.948  1.00  0.00     0.020 A 
ATOM     31  Cl  UNL A   1      37.067  19.057  24.975  1.00  0.00    -0.084 Cl
ENDBRANCH  24  25
ENDBRANCH   7  18
ENDBRANCH   4   7
ENDBRANCH   2   3
ENDBRANCH   1   2
BRANCH   1  32
ATOM     32  C   UNL A   1      32.570  30.126  25.908  1.00  0.00     0.118 C 
BRANCH  32  33
ATOM     33  N   UNL A   1      32.281  31.484  26.324  1.00  0.00    -0.352 N 
ATOM     34  C   UNL A   1      32.953  32.278  27.225  1.00  0.00     0.251 C 
ATOM     35  H   UNL A   1      31.491  31.896  25.903  1.00  0.00     0.163 HD
ATOM     36  O   UNL A   1      32.436  33.338  27.576  1.00  0.00    -0.269 OA
BRANCH  34  37
ATOM     37  C   UNL A   1      34.272  31.889  27.797  1.00  0.00     0.039 A 
ATOM     38  C   UNL A   1      34.408  30.600  28.321  1.00  0.00     0.014 A 
ATOM     39  C   UNL A   1      35.333  32.792  27.929  1.00  0.00     0.014 A 
ATOM     40  C   UNL A   1      35.594  30.214  28.961  1.00  0.00     0.010 A 
ATOM     41  C   UNL A   1      36.538  32.387  28.531  1.00  0.00     0.010 A 
ATOM     42  C   UNL A   1      36.680  31.099  29.073  1.00  0.00    -0.014 A 
BRANCH  42  43
ATOM     43  C   UNL A   1      37.930  30.661  29.770  1.00  0.00     0.031 A 
ATOM     44  C   UNL A   1      38.244  31.105  31.180  1.00  0.00     0.074 A 
ATOM     45  C   UNL A   1      38.802  29.842  29.143  1.00  0.00     0.049 A 
ATOM     46  N   UNL A   1      39.220  30.723  31.967  1.00  0.00    -0.248 NA
ATOM     47  C   UNL A   1      37.360  32.117  31.779  1.00  0.00     0.031 C 
ATOM     48  C   UNL A   1      38.684  29.388  27.758  1.00  0.00     0.029 A 
ATOM     49  N   UNL A   1      39.961  29.249  29.589  1.00  0.00    -0.354 N 
ATOM     50  C   UNL A   1      39.082  31.456  33.141  1.00  0.00     0.074 A 
ATOM     51  C   UNL A   1      37.946  32.334  32.949  1.00  0.00     0.031 C 
ATOM     52  C   UNL A   1      39.715  28.576  27.471  1.00  0.00     0.029 A 
ATOM     53  C   UNL A   1      40.578  28.459  28.646  1.00  0.00     0.049 A 
ATOM     54  H   UNL A   1      40.315  29.378  30.497  1.00  0.00     0.167 HD
ATOM     55  C   UNL A   1      39.807  31.390  34.286  1.00  0.00     0.034 A 
ATOM     56  C   UNL A   1      41.700  27.714  28.712  1.00  0.00     0.034 A 
ATOM     57  C   UNL A   1      40.916  30.498  34.503  1.00  0.00     0.049 A 
ATOM     58  C   UNL A   1      42.461  27.620  30.010  1.00  0.00     0.074 A 
ATOM     59  C   UNL A   1      41.645  30.300  35.664  1.00  0.00     0.029 A 
ATOM     60  N   UNL A   1      41.468  29.665  33.543  1.00  0.00    -0.354 N 
ATOM     61  N   UNL A   1      42.198  28.180  31.164  1.00  0.00    -0.248 NA
ATOM     62  C   UNL A   1      43.650  26.754  30.023  1.00  0.00     0.031 C 
ATOM     63  C   UNL A   1      42.655  29.368  35.399  1.00  0.00     0.029 A 
ATOM     64  C   UNL A   1      42.536  28.963  34.081  1.00  0.00     0.049 A 
ATOM     65  H   UNL A   1      41.148  29.585  32.616  1.00  0.00     0.167 HD
ATOM     66  C   UNL A   1      43.163  27.708  32.047  1.00  0.00     0.074 A 
ATOM     67  C   UNL A   1      44.003  26.795  31.301  1.00  0.00     0.031 C 
ATOM     68  C   UNL A   1      43.343  28.015  33.356  1.00  0.00     0.034 A 
BRANCH  55  69
ATOM     69  C   UNL A   1      39.387  32.276  35.434  1.00  0.00     0.023 A 
ATOM     70  C   UNL A   1      38.540  31.759  36.435  1.00  0.00     0.012 A 
ATOM     71  C   UNL A   1      39.891  33.586  35.566  1.00  0.00     0.148 A 
ATOM     72  C   UNL A   1      38.171  32.540  37.529  1.00  0.00     0.002 A 
ATOM     73  C   UNL A   1      39.553  34.345  36.682  1.00  0.00     0.091 A 
ATOM     74  F   UNL A   1      40.685  34.067  34.598  1.00  0.00    -0.205 F 
ATOM     75  C   UNL A   1      38.685  33.827  37.657  1.00  0.00     0.022 A 
BRANCH  73  76
ATOM     76  S   UNL A   1      40.230  35.982  36.982  1.00  0.00     0.127 S 
ATOM     77  O   UNL A   1      39.737  36.722  35.820  1.00  0.00    -0.237 OA
ATOM     78  O   UNL A   1      39.599  36.350  38.250  1.00  0.00    -0.237 OA
ATOM     79  O   UNL A   1      41.675  35.813  37.051  1.00  0.00    -0.744 OA
ENDBRANCH  73  76
ENDBRANCH  55  69
BRANCH  56  80
ATOM     80  C   UNL A   1      42.142  26.931  27.521  1.00  0.00     0.023 A 
ATOM     81  C   UNL A   1      42.842  27.576  26.483  1.00  0.00     0.012 A 
ATOM     82  C   UNL A   1      41.884  25.551  27.422  1.00  0.00     0.148 A 
ATOM     83  C   UNL A   1      43.250  26.867  25.353  1.00  0.00     0.002 A 
ATOM     84  C   UNL A   1      42.345  24.838  26.320  1.00  0.00     0.091 A 
ATOM     85  F   UNL A   1      41.201  24.959  28.412  1.00  0.00    -0.205 F 
ATOM     86  C   UNL A   1      43.012  25.497  25.276  1.00  0.00     0.022 A 
BRANCH  84  87
ATOM     87  S   UNL A   1      42.198  23.053  26.200  1.00  0.00     0.127 S 
ATOM     88  O   UNL A   1      42.783  22.790  24.890  1.00  0.00    -0.237 OA
ATOM     89  O   UNL A   1      43.004  22.608  27.338  1.00  0.00    -0.237 OA
ATOM     90  O   UNL A   1      40.773  22.767  26.328  1.00  0.00    -0.744 OA
ENDBRANCH  84  87
ENDBRANCH  56  80
BRANCH  68  91
ATOM     91  C   UNL A   1      44.476  27.341  34.089  1.00  0.00     0.023 A 
ATOM     92  C   UNL A   1      45.772  27.893  34.042  1.00  0.00     0.012 A 
ATOM     93  C   UNL A   1      44.246  26.193  34.875  1.00  0.00     0.148 A 
ATOM     94  C   UNL A   1      46.827  27.294  34.731  1.00  0.00     0.002 A 
ATOM     95  C   UNL A   1      45.292  25.629  35.598  1.00  0.00     0.091 A 
ATOM     96  F   UNL A   1      43.013  25.667  34.895  1.00  0.00    -0.205 F 
ATOM     97  C   UNL A   1      46.584  26.169  35.517  1.00  0.00     0.022 A 
BRANCH  95  98
ATOM     98  S   UNL A   1      45.052  24.236  36.709  1.00  0.00     0.127 S 
ATOM     99  O   UNL A   1      44.076  24.774  37.655  1.00  0.00    -0.237 OA
ATOM    100  O   UNL A   1      44.528  23.206  35.811  1.00  0.00    -0.237 OA
ATOM    101  O   UNL A   1      46.366  23.938  37.264  1.00  0.00    -0.744 OA
ENDBRANCH  95  98
ENDBRANCH  68  91
ENDBRANCH  42  43
ENDBRANCH  34  37
ENDBRANCH  32  33
ENDBRANCH   1  32
TORSDOF 18
ENDMDL
MODEL 2
REMARK VINA RESULT:     -13.1      5.139     10.008
REMARK SMILES O=C(C[C@@H](C(=O)NCCCNC(=O)c1ccc(-c2c3nc(c(-c4cccc(S(=O)(=O)[O-])c4F)c4ccc([nH]4)c(-c4cccc(S(=O)(=O)[O-])c4F)c4nc(c(-c5cccc(S(=O)(=O)[O-])c5F)c5ccc2[nH]5)C=C4)C=C3)cc1)[NH+]1CCN(c2cccc(Cl)c2)CC1)c1ccc(F)cc1
REMARK SMILES IDX 9 1 8 2 7 3 5 4 6 5 4 7 3 8 2 9 1 10 90 11 91 12 96 13 92 14
REMARK SMILES IDX 95 15 93 16 94 17 77 18 78 19 89 20 79 22 88 23 80 24 81 25
REMARK SMILES IDX 82 26 87 27 83 28 85 29 84 30 86 31 10 32 11 33 12 34 13 36
REMARK SMILES IDX 14 37 15 38 76 39 16 40 75 41 17 42 18 43 19 44 69 45 20 46
REMARK SMILES IDX 74 47 68 48 70 49 21 50 73 51 67 52 66 53 22 55 54 56 34 57
REMARK SMILES IDX 53 58 35 59 38 60 52 61 71 62 36 63 37 64 51 66 72 67 39 68
REMARK SMILES IDX 23 69 24 70 32 71 25 72 27 73 33 74 26 75 28 76 29 77 30 78
REMARK SMILES IDX 31 79 55 80 56 81 64 82 57 83 59 84 65 85 58 86 60 87 61 88
REMARK SMILES IDX 62 89 63 90 40 91 41 92 49 93 42 94 44 95 50 96 43 97 45 98
REMARK SMILES IDX 46 99 47 100 48 101
REMARK H PARENT 7 6 77 21 11 35 70 54 38 65
REMARK Flexibility Score: inf
ROOT
ATOM      1  C   UNL A   1      35.606  21.724  25.515  1.00  0.00     0.042 C 
ENDROOT
BRANCH   1   2
ATOM      2  C   UNL A   1      35.513  20.286  24.973  1.00  0.00     0.118 C 
BRANCH   2   3
ATOM      3  N   UNL A   1      34.208  19.669  25.098  1.00  0.00    -0.351 N 
ATOM      4  C   UNL A   1      32.924  20.099  24.988  1.00  0.00     0.278 C 
ATOM      5  O   UNL A   1      32.106  19.179  25.096  1.00  0.00    -0.268 OA
ATOM      6  H   UNL A   1      34.264  18.710  25.312  1.00  0.00     0.163 HD
BRANCH   4   7
ATOM      7  C   UNL A   1      32.520  21.595  24.757  1.00  0.00     0.282 C 
BRANCH   7   8
ATOM      8  C   UNL A   1      31.555  22.255  25.769  1.00  0.00     0.156 C 
BRANCH   8   9
ATOM      9  C   UNL A   1      31.923  23.324  26.770  1.00  0.00     0.169 C 
ATOM     10  O   UNL A   1      32.137  22.978  27.936  1.00  0.00    -0.294 OA
BRANCH   9  11
ATOM     11  C   UNL A   1      32.158  24.753  26.402  1.00  0.00     0.018 A 
ATOM     12  C   UNL A   1      31.158  25.723  26.414  1.00  0.00     0.015 A 
ATOM     13  C   UNL A   1      33.473  25.150  26.119  1.00  0.00     0.015 A 
ATOM     14  C   UNL A   1      31.482  27.080  26.340  1.00  0.00     0.040 A 
ATOM     15  C   UNL A   1      33.792  26.502  25.975  1.00  0.00     0.040 A 
ATOM     16  C   UNL A   1      32.800  27.458  26.139  1.00  0.00     0.123 A 
ATOM     17  F   UNL A   1      33.119  28.758  26.122  1.00  0.00    -0.207 F 
ENDBRANCH   9  11
ENDBRANCH   8   9
ENDBRANCH   7   8
BRANCH   7  18
ATOM     18  N   UNL A   1      32.303  22.023  23.310  1.00  0.00    -0.321 N 
ATOM     19  C   UNL A   1      31.061  22.731  22.925  1.00  0.00     0.284 C 
ATOM     20  C   UNL A   1      33.410  22.711  22.600  1.00  0.00     0.284 C 
ATOM     21  H   UNL A   1      32.229  21.054  23.000  1.00  0.00     0.348 HD
ATOM     22  C   UNL A   1      31.040  24.257  23.208  1.00  0.00     0.178 C 
ATOM     23  C   UNL A   1      33.538  24.232  22.896  1.00  0.00     0.178 C 
ATOM     24  N   UNL A   1      32.253  24.914  22.695  1.00  0.00    -0.360 N 
BRANCH  24  25
ATOM     25  C   UNL A   1      32.278  26.301  22.615  1.00  0.00     0.038 A 
ATOM     26  C   UNL A   1      33.460  27.035  22.442  1.00  0.00     0.026 A 
ATOM     27  C   UNL A   1      31.079  27.013  22.751  1.00  0.00     0.046 A 
ATOM     28  C   UNL A   1      33.453  28.435  22.444  1.00  0.00     0.004 A 
ATOM     29  C   UNL A   1      31.073  28.407  22.775  1.00  0.00     0.043 A 
ATOM     30  C   UNL A   1      32.256  29.123  22.626  1.00  0.00     0.020 A 
ATOM     31  Cl  UNL A   1      29.590  29.247  23.025  1.00  0.00    -0.084 Cl
ENDBRANCH  24  25
ENDBRANCH   7  18
ENDBRANCH   4   7
ENDBRANCH   2   3
ENDBRANCH   1   2
BRANCH   1  32
ATOM     32  C   UNL A   1      36.993  22.331  25.758  1.00  0.00     0.118 C 
BRANCH  32  33
ATOM     33  N   UNL A   1      38.037  21.333  25.878  1.00  0.00    -0.352 N 
ATOM     34  C   UNL A   1      39.350  21.492  26.258  1.00  0.00     0.251 C 
ATOM     35  H   UNL A   1      37.770  20.412  25.656  1.00  0.00     0.163 HD
ATOM     36  O   UNL A   1      40.123  20.546  26.117  1.00  0.00    -0.269 OA
BRANCH  34  37
ATOM     37  C   UNL A   1      39.866  22.773  26.817  1.00  0.00     0.039 A 
ATOM     38  C   UNL A   1      39.519  23.962  26.168  1.00  0.00     0.014 A 
ATOM     39  C   UNL A   1      40.766  22.821  27.887  1.00  0.00     0.014 A 
ATOM     40  C   UNL A   1      40.056  25.186  26.590  1.00  0.00     0.010 A 
ATOM     41  C   UNL A   1      41.267  24.056  28.338  1.00  0.00     0.010 A 
ATOM     42  C   UNL A   1      40.935  25.254  27.684  1.00  0.00    -0.014 A 
BRANCH  42  43
ATOM     43  C   UNL A   1      41.500  26.575  28.106  1.00  0.00     0.031 A 
ATOM     44  C   UNL A   1      42.929  26.956  27.796  1.00  0.00     0.074 A 
ATOM     45  C   UNL A   1      40.726  27.460  28.769  1.00  0.00     0.049 A 
ATOM     46  N   UNL A   1      43.535  28.104  27.985  1.00  0.00    -0.248 NA
ATOM     47  C   UNL A   1      43.791  25.918  27.214  1.00  0.00     0.031 C 
ATOM     48  C   UNL A   1      39.353  27.213  29.212  1.00  0.00     0.029 A 
ATOM     49  N   UNL A   1      40.983  28.745  29.189  1.00  0.00    -0.354 N 
ATOM     50  C   UNL A   1      44.849  27.922  27.565  1.00  0.00     0.074 A 
ATOM     51  C   UNL A   1      44.961  26.541  27.145  1.00  0.00     0.031 C 
ATOM     52  C   UNL A   1      38.883  28.312  29.825  1.00  0.00     0.029 A 
ATOM     53  C   UNL A   1      39.922  29.341  29.833  1.00  0.00     0.049 A 
ATOM     54  H   UNL A   1      41.846  29.195  29.044  1.00  0.00     0.167 HD
ATOM     55  C   UNL A   1      45.864  28.820  27.504  1.00  0.00     0.034 A 
ATOM     56  C   UNL A   1      39.787  30.575  30.361  1.00  0.00     0.034 A 
ATOM     57  C   UNL A   1      45.757  30.204  27.885  1.00  0.00     0.049 A 
ATOM     58  C   UNL A   1      40.912  31.569  30.236  1.00  0.00     0.074 A 
ATOM     59  C   UNL A   1      46.708  31.205  27.766  1.00  0.00     0.029 A 
ATOM     60  N   UNL A   1      44.644  30.785  28.471  1.00  0.00    -0.354 N 
ATOM     61  N   UNL A   1      42.081  31.427  29.663  1.00  0.00    -0.248 NA
ATOM     62  C   UNL A   1      40.679  32.911  30.794  1.00  0.00     0.031 C 
ATOM     63  C   UNL A   1      46.180  32.384  28.305  1.00  0.00     0.029 A 
ATOM     64  C   UNL A   1      44.888  32.125  28.731  1.00  0.00     0.049 A 
ATOM     65  H   UNL A   1      43.802  30.315  28.672  1.00  0.00     0.167 HD
ATOM     66  C   UNL A   1      42.707  32.665  29.759  1.00  0.00     0.074 A 
ATOM     67  C   UNL A   1      41.778  33.555  30.423  1.00  0.00     0.031 C 
ATOM     68  C   UNL A   1      43.948  33.027  29.345  1.00  0.00     0.034 A 
BRANCH  55  69
ATOM     69  C   UNL A   1      47.184  28.349  26.944  1.00  0.00     0.023 A 
ATOM     70  C   UNL A   1      48.247  28.058  27.823  1.00  0.00     0.012 A 
ATOM     71  C   UNL A   1      47.349  28.117  25.563  1.00  0.00     0.148 A 
ATOM     72  C   UNL A   1      49.463  27.580  27.338  1.00  0.00     0.002 A 
ATOM     73  C   UNL A   1      48.551  27.599  25.091  1.00  0.00     0.091 A 
ATOM     74  F   UNL A   1      46.334  28.411  24.738  1.00  0.00    -0.205 F 
ATOM     75  C   UNL A   1      49.611  27.342  25.975  1.00  0.00     0.022 A 
BRANCH  73  76
ATOM     76  S   UNL A   1      48.813  27.178  23.363  1.00  0.00     0.127 S 
ATOM     77  O   UNL A   1      50.268  27.029  23.314  1.00  0.00    -0.237 OA
ATOM     78  O   UNL A   1      48.068  25.925  23.234  1.00  0.00    -0.237 OA
ATOM     79  O   UNL A   1      48.270  28.288  22.593  1.00  0.00    -0.744 OA
ENDBRANCH  73  76
ENDBRANCH  55  69
BRANCH  56  80
ATOM     80  C   UNL A   1      38.498  30.971  31.000  1.00  0.00     0.023 A 
ATOM     81  C   UNL A   1      38.298  30.729  32.372  1.00  0.00     0.012 A 
ATOM     82  C   UNL A   1      37.480  31.598  30.257  1.00  0.00     0.148 A 
ATOM     83  C   UNL A   1      37.095  31.076  32.988  1.00  0.00     0.002 A 
ATOM     84  C   UNL A   1      36.307  31.994  30.889  1.00  0.00     0.091 A 
ATOM     85  F   UNL A   1      37.683  31.804  28.949  1.00  0.00    -0.205 F 
ATOM     86  C   UNL A   1      36.104  31.718  32.250  1.00  0.00     0.022 A 
BRANCH  84  87
ATOM     87  S   UNL A   1      35.035  32.942  30.048  1.00  0.00     0.127 S 
ATOM     88  O   UNL A   1      34.524  31.972  29.085  1.00  0.00    -0.237 OA
ATOM     89  O   UNL A   1      34.123  33.263  31.146  1.00  0.00    -0.237 OA
ATOM     90  O   UNL A   1      35.719  34.099  29.480  1.00  0.00    -0.744 OA
ENDBRANCH  84  87
ENDBRANCH  56  80
BRANCH  68  91
ATOM     91  C   UNL A   1      44.376  34.457  29.566  1.00  0.00     0.023 A 
ATOM     92  C   UNL A   1      45.039  34.817  30.757  1.00  0.00     0.012 A 
ATOM     93  C   UNL A   1      44.176  35.433  28.568  1.00  0.00     0.148 A 
ATOM     94  C   UNL A   1      45.460  36.130  30.968  1.00  0.00     0.002 A 
ATOM     95  C   UNL A   1      44.641  36.729  28.765  1.00  0.00     0.091 A 
ATOM     96  F   UNL A   1      43.526  35.081  27.449  1.00  0.00    -0.205 F 
ATOM     97  C   UNL A   1      45.271  37.082  29.968  1.00  0.00     0.022 A 
BRANCH  95  98
ATOM     98  S   UNL A   1      44.525  37.996  27.496  1.00  0.00     0.127 S 
ATOM     99  O   UNL A   1      44.686  39.219  28.279  1.00  0.00    -0.237 OA
ATOM    100  O   UNL A   1      45.659  37.674  26.628  1.00  0.00    -0.237 OA
ATOM    101  O   UNL A   1      43.220  37.816  26.871  1.00  0.00    -0.744 OA
ENDBRANCH  95  98
ENDBRANCH  68  91
ENDBRANCH  42  43
ENDBRANCH  34  37
ENDBRANCH  32  33
ENDBRANCH   1  32
TORSDOF 18
ENDMDL
MODEL 3
REMARK VINA RESULT:     -12.9      4.945      9.719
REMARK SMILES O=C(C[C@@H](C(=O)NCCCNC(=O)c1ccc(-c2c3nc(c(-c4cccc(S(=O)(=O)[O-])c4F)c4ccc([nH]4)c(-c4cccc(S(=O)(=O)[O-])c4F)c4nc(c(-c5cccc(S(=O)(=O)[O-])c5F)c5ccc2[nH]5)C=C4)C=C3)cc1)[NH+]1CCN(c2cccc(Cl)c2)CC1)c1ccc(F)cc1
REMARK SMILES IDX 9 1 8 2 7 3 5 4 6 5 4 7 3 8 2 9 1 10 90 11 91 12 96 13 92 14
REMARK SMILES IDX 95 15 93 16 94 17 77 18 78 19 89 20 79 22 88 23 80 24 81 25
REMARK SMILES IDX 82 26 87 27 83 28 85 29 84 30 86 31 10 32 11 33 12 34 13 36
REMARK SMILES IDX 14 37 15 38 76 39 16 40 75 41 17 42 18 43 19 44 69 45 20 46
REMARK SMILES IDX 74 47 68 48 70 49 21 50 73 51 67 52 66 53 22 55 54 56 34 57
REMARK SMILES IDX 53 58 35 59 38 60 52 61 71 62 36 63 37 64 51 66 72 67 39 68
REMARK SMILES IDX 23 69 24 70 32 71 25 72 27 73 33 74 26 75 28 76 29 77 30 78
REMARK SMILES IDX 31 79 55 80 56 81 64 82 57 83 59 84 65 85 58 86 60 87 61 88
REMARK SMILES IDX 62 89 63 90 40 91 41 92 49 93 42 94 44 95 50 96 43 97 45 98
REMARK SMILES IDX 46 99 47 100 48 101
REMARK H PARENT 7 6 77 21 11 35 70 54 38 65
REMARK Flexibility Score: inf
ROOT
ATOM      1  C   UNL A   1      36.885  22.222  24.057  1.00  0.00     0.042 C 
ENDROOT
BRANCH   1   2
ATOM      2  C   UNL A   1      35.666  23.080  23.676  1.00  0.00     0.118 C 
BRANCH   2   3
ATOM      3  N   UNL A   1      35.393  24.186  24.572  1.00  0.00    -0.351 N 
ATOM      4  C   UNL A   1      34.287  24.675  25.191  1.00  0.00     0.278 C 
ATOM      5  O   UNL A   1      34.546  25.613  25.952  1.00  0.00    -0.268 OA
ATOM      6  H   UNL A   1      36.201  24.707  24.783  1.00  0.00     0.163 HD
BRANCH   4   7
ATOM      7  C   UNL A   1      32.841  24.117  24.965  1.00  0.00     0.282 C 
BRANCH   7   8
ATOM      8  C   UNL A   1      31.763  25.084  24.420  1.00  0.00     0.156 C 
BRANCH   8   9
ATOM      9  C   UNL A   1      30.926  26.028  25.248  1.00  0.00     0.169 C 
ATOM     10  O   UNL A   1      29.881  25.597  25.744  1.00  0.00    -0.294 OA
BRANCH   9  11
ATOM     11  C   UNL A   1      31.352  27.418  25.596  1.00  0.00     0.018 A 
ATOM     12  C   UNL A   1      31.344  28.474  24.688  1.00  0.00     0.015 A 
ATOM     13  C   UNL A   1      31.689  27.685  26.932  1.00  0.00     0.015 A 
ATOM     14  C   UNL A   1      31.476  29.793  25.129  1.00  0.00     0.040 A 
ATOM     15  C   UNL A   1      31.892  28.997  27.365  1.00  0.00     0.040 A 
ATOM     16  C   UNL A   1      31.732  30.044  26.468  1.00  0.00     0.123 A 
ATOM     17  F   UNL A   1      31.805  31.308  26.901  1.00  0.00    -0.207 F 
ENDBRANCH   9  11
ENDBRANCH   8   9
ENDBRANCH   7   8
BRANCH   7  18
ATOM     18  N   UNL A   1      32.327  23.121  25.998  1.00  0.00    -0.321 N 
ATOM     19  C   UNL A   1      31.294  22.131  25.624  1.00  0.00     0.284 C 
ATOM     20  C   UNL A   1      33.315  22.395  26.835  1.00  0.00     0.284 C 
ATOM     21  H   UNL A   1      31.881  23.863  26.539  1.00  0.00     0.348 HD
ATOM     22  C   UNL A   1      31.810  20.859  24.897  1.00  0.00     0.178 C 
ATOM     23  C   UNL A   1      33.969  21.158  26.158  1.00  0.00     0.178 C 
ATOM     24  N   UNL A   1      32.945  20.256  25.615  1.00  0.00    -0.360 N 
BRANCH  24  25
ATOM     25  C   UNL A   1      33.351  18.975  25.263  1.00  0.00     0.038 A 
ATOM     26  C   UNL A   1      34.414  18.725  24.384  1.00  0.00     0.026 A 
ATOM     27  C   UNL A   1      32.649  17.874  25.773  1.00  0.00     0.046 A 
ATOM     28  C   UNL A   1      34.744  17.421  23.995  1.00  0.00     0.004 A 
ATOM     29  C   UNL A   1      32.962  16.576  25.369  1.00  0.00     0.043 A 
ATOM     30  C   UNL A   1      34.005  16.344  24.478  1.00  0.00     0.020 A 
ATOM     31  Cl  UNL A   1      32.026  15.254  25.954  1.00  0.00    -0.084 Cl
ENDBRANCH  24  25
ENDBRANCH   7  18
ENDBRANCH   4   7
ENDBRANCH   2   3
ENDBRANCH   1   2
BRANCH   1  32
ATOM     32  C   UNL A   1      37.287  22.128  25.534  1.00  0.00     0.118 C 
BRANCH  32  33
ATOM     33  N   UNL A   1      38.296  21.119  25.787  1.00  0.00    -0.352 N 
ATOM     34  C   UNL A   1      39.573  21.271  26.275  1.00  0.00     0.251 C 
ATOM     35  H   UNL A   1      38.029  20.194  25.579  1.00  0.00     0.163 HD
ATOM     36  O   UNL A   1      40.335  20.306  26.242  1.00  0.00    -0.269 OA
BRANCH  34  37
ATOM     37  C   UNL A   1      40.065  22.566  26.824  1.00  0.00     0.039 A 
ATOM     38  C   UNL A   1      39.709  23.742  26.157  1.00  0.00     0.014 A 
ATOM     39  C   UNL A   1      40.952  22.639  27.904  1.00  0.00     0.014 A 
ATOM     40  C   UNL A   1      40.223  24.978  26.571  1.00  0.00     0.010 A 
ATOM     41  C   UNL A   1      41.430  23.885  28.345  1.00  0.00     0.010 A 
ATOM     42  C   UNL A   1      41.090  25.071  27.674  1.00  0.00    -0.014 A 
BRANCH  42  43
ATOM     43  C   UNL A   1      41.631  26.404  28.087  1.00  0.00     0.031 A 
ATOM     44  C   UNL A   1      43.050  26.812  27.767  1.00  0.00     0.074 A 
ATOM     45  C   UNL A   1      40.843  27.277  28.750  1.00  0.00     0.049 A 
ATOM     46  N   UNL A   1      43.635  27.972  27.948  1.00  0.00    -0.248 NA
ATOM     47  C   UNL A   1      43.929  25.788  27.185  1.00  0.00     0.031 C 
ATOM     48  C   UNL A   1      39.479  27.006  29.202  1.00  0.00     0.029 A 
ATOM     49  N   UNL A   1      41.078  28.569  29.163  1.00  0.00    -0.354 N 
ATOM     50  C   UNL A   1      44.950  27.813  27.522  1.00  0.00     0.074 A 
ATOM     51  C   UNL A   1      45.086  26.432  27.107  1.00  0.00     0.031 C 
ATOM     52  C   UNL A   1      38.991  28.099  29.812  1.00  0.00     0.029 A 
ATOM     53  C   UNL A   1      40.009  29.148  29.810  1.00  0.00     0.049 A 
ATOM     54  H   UNL A   1      41.931  29.035  29.011  1.00  0.00     0.167 HD
ATOM     55  C   UNL A   1      45.947  28.730  27.450  1.00  0.00     0.034 A 
ATOM     56  C   UNL A   1      39.854  30.382  30.333  1.00  0.00     0.034 A 
ATOM     57  C   UNL A   1      45.816  30.114  27.826  1.00  0.00     0.049 A 
ATOM     58  C   UNL A   1      40.959  31.397  30.198  1.00  0.00     0.074 A 
ATOM     59  C   UNL A   1      46.747  31.132  27.697  1.00  0.00     0.029 A 
ATOM     60  N   UNL A   1      44.695  30.676  28.415  1.00  0.00    -0.354 N 
ATOM     61  N   UNL A   1      42.127  31.274  29.619  1.00  0.00    -0.248 NA
ATOM     62  C   UNL A   1      40.703  32.736  30.751  1.00  0.00     0.031 C 
ATOM     63  C   UNL A   1      46.199  32.303  28.234  1.00  0.00     0.029 A 
ATOM     64  C   UNL A   1      44.915  32.022  28.668  1.00  0.00     0.049 A 
ATOM     65  H   UNL A   1      43.864  30.191  28.623  1.00  0.00     0.167 HD
ATOM     66  C   UNL A   1      42.729  32.525  29.706  1.00  0.00     0.074 A 
ATOM     67  C   UNL A   1      41.787  33.400  30.370  1.00  0.00     0.031 C 
ATOM     68  C   UNL A   1      43.961  32.908  29.283  1.00  0.00     0.034 A 
BRANCH  55  69
ATOM     69  C   UNL A   1      47.273  28.282  26.885  1.00  0.00     0.023 A 
ATOM     70  C   UNL A   1      48.339  27.993  27.762  1.00  0.00     0.012 A 
ATOM     71  C   UNL A   1      47.442  28.070  25.502  1.00  0.00     0.148 A 
ATOM     72  C   UNL A   1      49.561  27.536  27.272  1.00  0.00     0.002 A 
ATOM     73  C   UNL A   1      48.650  27.572  25.024  1.00  0.00     0.091 A 
ATOM     74  F   UNL A   1      46.423  28.362  24.680  1.00  0.00    -0.205 F 
ATOM     75  C   UNL A   1      49.713  27.316  25.906  1.00  0.00     0.022 A 
BRANCH  73  76
ATOM     76  S   UNL A   1      48.918  27.175  23.292  1.00  0.00     0.127 S 
ATOM     77  O   UNL A   1      50.365  26.963  23.258  1.00  0.00    -0.237 OA
ATOM     78  O   UNL A   1      48.120  25.960  23.126  1.00  0.00    -0.237 OA
ATOM     79  O   UNL A   1      48.435  28.325  22.537  1.00  0.00    -0.744 OA
ENDBRANCH  73  76
ENDBRANCH  55  69
BRANCH  56  80
ATOM     80  C   UNL A   1      38.561  30.756  30.977  1.00  0.00     0.023 A 
ATOM     81  C   UNL A   1      38.346  30.453  32.335  1.00  0.00     0.012 A 
ATOM     82  C   UNL A   1      37.553  31.421  30.254  1.00  0.00     0.148 A 
ATOM     83  C   UNL A   1      37.139  30.779  32.955  1.00  0.00     0.002 A 
ATOM     84  C   UNL A   1      36.376  31.795  30.892  1.00  0.00     0.091 A 
ATOM     85  F   UNL A   1      37.770  31.685  28.958  1.00  0.00    -0.205 F 
ATOM     86  C   UNL A   1      36.159  31.459  32.238  1.00  0.00     0.022 A 
BRANCH  84  87
ATOM     87  S   UNL A   1      35.117  32.788  30.083  1.00  0.00     0.127 S 
ATOM     88  O   UNL A   1      35.896  33.919  29.592  1.00  0.00    -0.237 OA
ATOM     89  O   UNL A   1      34.634  31.873  29.047  1.00  0.00    -0.237 OA
ATOM     90  O   UNL A   1      34.134  33.094  31.117  1.00  0.00    -0.744 OA
ENDBRANCH  84  87
ENDBRANCH  56  80
BRANCH  68  91
ATOM     91  C   UNL A   1      44.363  34.347  29.495  1.00  0.00     0.023 A 
ATOM     92  C   UNL A   1      45.122  34.706  30.627  1.00  0.00     0.012 A 
ATOM     93  C   UNL A   1      44.040  35.335  28.542  1.00  0.00     0.148 A 
ATOM     94  C   UNL A   1      45.519  36.028  30.827  1.00  0.00     0.002 A 
ATOM     95  C   UNL A   1      44.480  36.641  28.724  1.00  0.00     0.091 A 
ATOM     96  F   UNL A   1      43.300  34.983  27.480  1.00  0.00    -0.205 F 
ATOM     97  C   UNL A   1      45.208  36.993  29.871  1.00  0.00     0.022 A 
BRANCH  95  98
ATOM     98  S   UNL A   1      44.207  37.928  27.498  1.00  0.00     0.127 S 
ATOM     99  O   UNL A   1      43.974  39.099  28.342  1.00  0.00    -0.237 OA
ATOM    100  O   UNL A   1      45.477  37.943  26.771  1.00  0.00    -0.237 OA
ATOM    101  O   UNL A   1      43.066  37.488  26.705  1.00  0.00    -0.744 OA
ENDBRANCH  95  98
ENDBRANCH  68  91
ENDBRANCH  42  43
ENDBRANCH  34  37
ENDBRANCH  32  33
ENDBRANCH   1  32
TORSDOF 18
ENDMDL
