MODEL 1
REMARK VINA RESULT:     -11.7      0.000      0.000
REMARK SMILES C[NH2+][C@@]1(C(=O)NCCCNC(=O)c2ccc(-c3c4nc(c(-c5cccc(S(=O)(=O)[O-])c5F)c5ccc([nH]5)c(-c5cccc(S(=O)(=O)[O-])c5F)c5nc(c(-c6cccc(S(=O)(=O)[O-])c6F)c6ccc3[nH]6)C=C5)C=C4)cc2)CCC[C@H]1CCSc1nccc(=O)[nH]1
REMARK SMILES IDX 7 1 6 2 4 3 5 4 3 6 76 7 79 8 77 9 78 10 2 11 1 12 80 15
REMARK SMILES IDX 81 16 82 17 83 18 84 19 89 20 85 21 87 22 86 24 88 25 8 26
REMARK SMILES IDX 9 27 10 28 11 29 12 31 13 32 14 33 75 34 15 35 74 36 16 37
REMARK SMILES IDX 17 38 18 39 68 40 19 41 73 42 67 43 69 44 20 45 72 46 66 47
REMARK SMILES IDX 65 48 21 50 53 51 33 52 52 53 34 54 37 55 51 56 70 57 35 58
REMARK SMILES IDX 36 59 50 61 71 62 38 63 22 64 23 65 31 66 24 67 26 68 32 69
REMARK SMILES IDX 25 70 27 71 28 72 29 73 30 74 54 75 55 76 63 77 56 78 58 79
REMARK SMILES IDX 64 80 57 81 59 82 60 83 61 84 62 85 39 86 40 87 48 88 41 89
REMARK SMILES IDX 43 90 49 91 42 92 44 93 45 94 46 95 47 96
REMARK H PARENT 6 5 2 13 2 14 89 23 10 30 69 49 37 60
REMARK Flexibility Score: inf
ROOT
ATOM      1  C   UNL A   1      35.179  21.207  25.402  1.00  0.00     0.118 C 
ENDROOT
BRANCH   1   2
ATOM      2  N   UNL A   1      33.991  21.117  24.591  1.00  0.00    -0.351 N 
ATOM      3  C   UNL A   1      33.068  22.037  24.204  1.00  0.00     0.281 C 
ATOM      4  O   UNL A   1      32.496  21.712  23.149  1.00  0.00    -0.268 OA
ATOM      5  H   UNL A   1      33.811  20.211  24.251  1.00  0.00     0.163 HD
BRANCH   3   6
ATOM      6  C   UNL A   1      32.761  23.439  24.912  1.00  0.00     0.178 C 
ATOM      7  C   UNL A   1      33.105  23.310  26.420  1.00  0.00     0.079 C 
ATOM      8  C   UNL A   1      31.265  23.927  24.894  1.00  0.00     0.061 C 
ATOM      9  C   UNL A   1      31.825  23.140  27.208  1.00  0.00     0.008 C 
ATOM     10  C   UNL A   1      30.690  23.569  26.300  1.00  0.00     0.011 C 
BRANCH   6  11
ATOM     11  N   UNL A   1      33.786  24.442  24.447  1.00  0.00    -0.336 N 
ATOM     12  C   UNL A   1      34.926  24.722  25.310  1.00  0.00     0.331 C 
ATOM     13  H   UNL A   1      34.158  24.103  23.559  1.00  0.00     0.346 HD
ATOM     14  H   UNL A   1      33.276  25.324  24.412  1.00  0.00     0.346 HD
ENDBRANCH   6  11
BRANCH   8  15
ATOM     15  C   UNL A   1      30.942  25.435  24.707  1.00  0.00     0.022 C 
BRANCH  15  16
ATOM     16  C   UNL A   1      30.422  26.011  23.386  1.00  0.00     0.079 C 
BRANCH  16  17
ATOM     17  S   UNL A   1      31.232  27.501  22.741  1.00  0.00    -0.088 SA
BRANCH  17  18
ATOM     18  C   UNL A   1      29.971  28.647  22.436  1.00  0.00     0.168 A 
ATOM     19  N   UNL A   1      30.098  29.717  21.728  1.00  0.00    -0.233 NA
ATOM     20  N   UNL A   1      28.812  28.278  23.041  1.00  0.00    -0.301 N 
ATOM     21  C   UNL A   1      28.976  30.489  21.568  1.00  0.00     0.120 A 
ATOM     22  C   UNL A   1      27.666  28.996  22.906  1.00  0.00     0.251 A 
ATOM     23  H   UNL A   1      28.802  27.465  23.596  1.00  0.00     0.172 HD
ATOM     24  C   UNL A   1      27.775  30.205  22.079  1.00  0.00     0.091 A 
ATOM     25  O   UNL A   1      26.597  28.677  23.416  1.00  0.00    -0.269 OA
ENDBRANCH  17  18
ENDBRANCH  16  17
ENDBRANCH  15  16
ENDBRANCH   8  15
ENDBRANCH   3   6
ENDBRANCH   1   2
BRANCH   1  26
ATOM     26  C   UNL A   1      36.479  21.072  24.628  1.00  0.00     0.042 C 
BRANCH  26  27
ATOM     27  C   UNL A   1      37.653  21.791  25.279  1.00  0.00     0.118 C 
BRANCH  27  28
ATOM     28  N   UNL A   1      38.612  20.869  25.886  1.00  0.00    -0.352 N 
ATOM     29  C   UNL A   1      39.826  21.091  26.487  1.00  0.00     0.251 C 
ATOM     30  H   UNL A   1      38.338  19.924  25.860  1.00  0.00     0.163 HD
ATOM     31  O   UNL A   1      40.564  20.133  26.709  1.00  0.00    -0.269 OA
BRANCH  29  32
ATOM     32  C   UNL A   1      40.251  22.454  26.869  1.00  0.00     0.039 A 
ATOM     33  C   UNL A   1      41.196  22.614  27.887  1.00  0.00     0.014 A 
ATOM     34  C   UNL A   1      39.693  23.577  26.258  1.00  0.00     0.014 A 
ATOM     35  C   UNL A   1      41.623  23.896  28.243  1.00  0.00     0.010 A 
ATOM     36  C   UNL A   1      40.196  24.842  26.536  1.00  0.00     0.010 A 
ATOM     37  C   UNL A   1      41.153  25.019  27.543  1.00  0.00    -0.014 A 
BRANCH  37  38
ATOM     38  C   UNL A   1      41.644  26.387  27.845  1.00  0.00     0.031 A 
ATOM     39  C   UNL A   1      43.059  26.778  27.505  1.00  0.00     0.074 A 
ATOM     40  C   UNL A   1      40.847  27.247  28.511  1.00  0.00     0.049 A 
ATOM     41  N   UNL A   1      43.688  27.896  27.753  1.00  0.00    -0.248 NA
ATOM     42  C   UNL A   1      43.887  25.766  26.824  1.00  0.00     0.031 C 
ATOM     43  C   UNL A   1      39.487  26.957  28.969  1.00  0.00     0.029 A 
ATOM     44  N   UNL A   1      41.076  28.528  28.945  1.00  0.00    -0.354 N 
ATOM     45  C   UNL A   1      44.990  27.710  27.301  1.00  0.00     0.074 A 
ATOM     46  C   UNL A   1      45.072  26.357  26.798  1.00  0.00     0.031 C 
ATOM     47  C   UNL A   1      38.998  28.030  29.609  1.00  0.00     0.029 A 
ATOM     48  C   UNL A   1      40.022  29.070  29.644  1.00  0.00     0.049 A 
ATOM     49  H   UNL A   1      41.915  29.014  28.772  1.00  0.00     0.167 HD
ATOM     50  C   UNL A   1      46.016  28.592  27.279  1.00  0.00     0.034 A 
ATOM     51  C   UNL A   1      39.898  30.264  30.254  1.00  0.00     0.034 A 
ATOM     52  C   UNL A   1      45.916  29.948  27.746  1.00  0.00     0.049 A 
ATOM     53  C   UNL A   1      41.042  31.239  30.186  1.00  0.00     0.074 A 
ATOM     54  C   UNL A   1      46.867  30.951  27.683  1.00  0.00     0.029 A 
ATOM     55  N   UNL A   1      44.805  30.488  28.375  1.00  0.00    -0.354 N 
ATOM     56  N   UNL A   1      42.211  31.100  29.609  1.00  0.00    -0.248 NA
ATOM     57  C   UNL A   1      40.837  32.549  30.820  1.00  0.00     0.031 C 
ATOM     58  C   UNL A   1      46.342  32.087  28.308  1.00  0.00     0.029 A 
ATOM     59  C   UNL A   1      45.051  31.805  28.721  1.00  0.00     0.049 A 
ATOM     60  H   UNL A   1      43.966  30.005  28.551  1.00  0.00     0.167 HD
ATOM     61  C   UNL A   1      42.867  32.314  29.780  1.00  0.00     0.074 A 
ATOM     62  C   UNL A   1      41.954  33.183  30.494  1.00  0.00     0.031 C 
ATOM     63  C   UNL A   1      44.115  32.673  29.391  1.00  0.00     0.034 A 
BRANCH  50  64
ATOM     64  C   UNL A   1      47.327  28.130  26.693  1.00  0.00     0.023 A 
ATOM     65  C   UNL A   1      48.396  27.791  27.547  1.00  0.00     0.012 A 
ATOM     66  C   UNL A   1      47.484  27.982  25.300  1.00  0.00     0.148 A 
ATOM     67  C   UNL A   1      49.613  27.355  27.026  1.00  0.00     0.002 A 
ATOM     68  C   UNL A   1      48.682  27.499  24.790  1.00  0.00     0.091 A 
ATOM     69  F   UNL A   1      46.464  28.327  24.501  1.00  0.00    -0.205 F 
ATOM     70  C   UNL A   1      49.752  27.198  25.649  1.00  0.00     0.022 A 
BRANCH  68  71
ATOM     71  S   UNL A   1      48.936  27.181  23.041  1.00  0.00     0.127 S 
ATOM     72  O   UNL A   1      48.190  25.937  22.856  1.00  0.00    -0.237 OA
ATOM     73  O   UNL A   1      48.323  28.357  22.424  1.00  0.00    -0.237 OA
ATOM     74  O   UNL A   1      50.376  27.077  22.855  1.00  0.00    -0.744 OA
ENDBRANCH  68  71
ENDBRANCH  50  64
BRANCH  51  75
ATOM     75  C   UNL A   1      38.621  30.624  30.933  1.00  0.00     0.023 A 
ATOM     76  C   UNL A   1      38.451  30.316  32.297  1.00  0.00     0.012 A 
ATOM     77  C   UNL A   1      37.589  31.291  30.247  1.00  0.00     0.148 A 
ATOM     78  C   UNL A   1      37.263  30.633  32.957  1.00  0.00     0.002 A 
ATOM     79  C   UNL A   1      36.431  31.656  30.923  1.00  0.00     0.091 A 
ATOM     80  F   UNL A   1      37.767  31.570  28.948  1.00  0.00    -0.205 F 
ATOM     81  C   UNL A   1      36.258  31.311  32.273  1.00  0.00     0.022 A 
BRANCH  79  82
ATOM     82  S   UNL A   1      35.140  32.647  30.163  1.00  0.00     0.127 S 
ATOM     83  O   UNL A   1      34.189  32.795  31.262  1.00  0.00    -0.237 OA
ATOM     84  O   UNL A   1      35.867  33.867  29.808  1.00  0.00    -0.237 OA
ATOM     85  O   UNL A   1      34.670  31.875  29.020  1.00  0.00    -0.744 OA
ENDBRANCH  79  82
ENDBRANCH  51  75
BRANCH  63  86
ATOM     86  C   UNL A   1      44.562  34.081  29.689  1.00  0.00     0.023 A 
ATOM     87  C   UNL A   1      45.221  34.371  30.900  1.00  0.00     0.012 A 
ATOM     88  C   UNL A   1      44.390  35.101  28.732  1.00  0.00     0.148 A 
ATOM     89  C   UNL A   1      45.670  35.663  31.169  1.00  0.00     0.002 A 
ATOM     90  C   UNL A   1      44.889  36.372  28.984  1.00  0.00     0.091 A 
ATOM     91  F   UNL A   1      43.747  34.808  27.593  1.00  0.00    -0.205 F 
ATOM     92  C   UNL A   1      45.516  36.659  30.208  1.00  0.00     0.022 A 
BRANCH  90  93
ATOM     93  S   UNL A   1      44.827  37.691  27.766  1.00  0.00     0.127 S 
ATOM     94  O   UNL A   1      45.466  38.791  28.488  1.00  0.00    -0.237 OA
ATOM     95  O   UNL A   1      45.622  37.137  26.671  1.00  0.00    -0.237 OA
ATOM     96  O   UNL A   1      43.417  37.886  27.454  1.00  0.00    -0.744 OA
ENDBRANCH  90  93
ENDBRANCH  63  86
ENDBRANCH  37  38
ENDBRANCH  29  32
ENDBRANCH  27  28
ENDBRANCH  26  27
ENDBRANCH   1  26
TORSDOF 18
ENDMDL
MODEL 2
REMARK VINA RESULT:     -11.7      5.420      8.141
REMARK SMILES C[NH2+][C@@]1(C(=O)NCCCNC(=O)c2ccc(-c3c4nc(c(-c5cccc(S(=O)(=O)[O-])c5F)c5ccc([nH]5)c(-c5cccc(S(=O)(=O)[O-])c5F)c5nc(c(-c6cccc(S(=O)(=O)[O-])c6F)c6ccc3[nH]6)C=C5)C=C4)cc2)CCC[C@H]1CCSc1nccc(=O)[nH]1
REMARK SMILES IDX 7 1 6 2 4 3 5 4 3 6 76 7 79 8 77 9 78 10 2 11 1 12 80 15
REMARK SMILES IDX 81 16 82 17 83 18 84 19 89 20 85 21 87 22 86 24 88 25 8 26
REMARK SMILES IDX 9 27 10 28 11 29 12 31 13 32 14 33 75 34 15 35 74 36 16 37
REMARK SMILES IDX 17 38 18 39 68 40 19 41 73 42 67 43 69 44 20 45 72 46 66 47
REMARK SMILES IDX 65 48 21 50 53 51 33 52 52 53 34 54 37 55 51 56 70 57 35 58
REMARK SMILES IDX 36 59 50 61 71 62 38 63 22 64 23 65 31 66 24 67 26 68 32 69
REMARK SMILES IDX 25 70 27 71 28 72 29 73 30 74 54 75 55 76 63 77 56 78 58 79
REMARK SMILES IDX 64 80 57 81 59 82 60 83 61 84 62 85 39 86 40 87 48 88 41 89
REMARK SMILES IDX 43 90 49 91 42 92 44 93 45 94 46 95 47 96
REMARK H PARENT 6 5 2 13 2 14 89 23 10 30 69 49 37 60
REMARK Flexibility Score: inf
ROOT
ATOM      1  C   UNL A   1      32.859  27.529  23.024  1.00  0.00     0.118 C 
ENDROOT
BRANCH   1   2
ATOM      2  N   UNL A   1      31.503  27.229  23.409  1.00  0.00    -0.351 N 
ATOM      3  C   UNL A   1      30.954  26.226  24.144  1.00  0.00     0.281 C 
ATOM      4  O   UNL A   1      29.874  26.560  24.660  1.00  0.00    -0.268 OA
ATOM      5  H   UNL A   1      30.844  27.878  23.073  1.00  0.00     0.163 HD
BRANCH   3   6
ATOM      6  C   UNL A   1      31.602  24.792  24.438  1.00  0.00     0.178 C 
ATOM      7  C   UNL A   1      32.569  24.931  25.644  1.00  0.00     0.079 C 
ATOM      8  C   UNL A   1      32.489  24.170  23.297  1.00  0.00     0.061 C 
ATOM      9  C   UNL A   1      33.993  24.973  25.137  1.00  0.00     0.008 C 
ATOM     10  C   UNL A   1      33.966  24.454  23.713  1.00  0.00     0.011 C 
BRANCH   6  11
ATOM     11  N   UNL A   1      30.531  23.894  25.003  1.00  0.00    -0.336 N 
ATOM     12  C   UNL A   1      30.508  23.660  26.441  1.00  0.00     0.331 C 
ATOM     13  H   UNL A   1      29.631  24.301  24.750  1.00  0.00     0.346 HD
ATOM     14  H   UNL A   1      30.736  22.978  24.605  1.00  0.00     0.346 HD
ENDBRANCH   6  11
BRANCH   8  15
ATOM     15  C   UNL A   1      32.443  22.642  23.023  1.00  0.00     0.022 C 
BRANCH  15  16
ATOM     16  C   UNL A   1      33.314  21.639  23.784  1.00  0.00     0.079 C 
BRANCH  16  17
ATOM     17  S   UNL A   1      32.626  20.897  25.290  1.00  0.00    -0.088 SA
BRANCH  17  18
ATOM     18  C   UNL A   1      32.785  19.183  25.106  1.00  0.00     0.168 A 
ATOM     19  N   UNL A   1      32.545  18.315  26.027  1.00  0.00    -0.233 NA
ATOM     20  N   UNL A   1      33.199  18.858  23.854  1.00  0.00    -0.301 N 
ATOM     21  C   UNL A   1      32.693  16.995  25.685  1.00  0.00     0.120 A 
ATOM     22  C   UNL A   1      33.349  17.568  23.454  1.00  0.00     0.251 A 
ATOM     23  H   UNL A   1      33.397  19.580  23.214  1.00  0.00     0.172 HD
ATOM     24  C   UNL A   1      33.053  16.555  24.477  1.00  0.00     0.091 A 
ATOM     25  O   UNL A   1      33.695  17.239  22.325  1.00  0.00    -0.269 OA
ENDBRANCH  17  18
ENDBRANCH  16  17
ENDBRANCH  15  16
ENDBRANCH   8  15
ENDBRANCH   3   6
ENDBRANCH   1   2
BRANCH   1  26
ATOM     26  C   UNL A   1      33.549  28.556  23.904  1.00  0.00     0.042 C 
BRANCH  26  27
ATOM     27  C   UNL A   1      32.925  28.693  25.286  1.00  0.00     0.118 C 
BRANCH  27  28
ATOM     28  N   UNL A   1      32.458  30.051  25.561  1.00  0.00    -0.352 N 
ATOM     29  C   UNL A   1      32.819  30.954  26.531  1.00  0.00     0.251 C 
ATOM     30  H   UNL A   1      31.764  30.375  24.942  1.00  0.00     0.163 HD
ATOM     31  O   UNL A   1      32.116  31.946  26.711  1.00  0.00    -0.269 OA
BRANCH  29  32
ATOM     32  C   UNL A   1      34.031  30.750  27.351  1.00  0.00     0.039 A 
ATOM     33  C   UNL A   1      34.268  29.494  27.918  1.00  0.00     0.014 A 
ATOM     34  C   UNL A   1      34.915  31.800  27.598  1.00  0.00     0.014 A 
ATOM     35  C   UNL A   1      35.421  29.280  28.677  1.00  0.00     0.010 A 
ATOM     36  C   UNL A   1      36.113  31.559  28.260  1.00  0.00     0.010 A 
ATOM     37  C   UNL A   1      36.373  30.303  28.822  1.00  0.00    -0.014 A 
BRANCH  37  38
ATOM     38  C   UNL A   1      37.644  30.085  29.558  1.00  0.00     0.031 A 
ATOM     39  C   UNL A   1      38.712  29.193  28.980  1.00  0.00     0.074 A 
ATOM     40  C   UNL A   1      37.798  30.613  30.789  1.00  0.00     0.049 A 
ATOM     41  N   UNL A   1      39.853  28.828  29.502  1.00  0.00    -0.248 NA
ATOM     42  C   UNL A   1      38.449  28.610  27.652  1.00  0.00     0.031 C 
ATOM     43  C   UNL A   1      36.802  31.425  31.491  1.00  0.00     0.029 A 
ATOM     44  N   UNL A   1      38.838  30.522  31.680  1.00  0.00    -0.354 N 
ATOM     45  C   UNL A   1      40.422  27.943  28.593  1.00  0.00     0.074 A 
ATOM     46  C   UNL A   1      39.484  27.796  27.503  1.00  0.00     0.031 C 
ATOM     47  C   UNL A   1      37.281  31.766  32.697  1.00  0.00     0.029 A 
ATOM     48  C   UNL A   1      38.600  31.166  32.872  1.00  0.00     0.049 A 
ATOM     49  H   UNL A   1      39.675  30.042  31.484  1.00  0.00     0.167 HD
ATOM     50  C   UNL A   1      41.628  27.329  28.645  1.00  0.00     0.034 A 
ATOM     51  C   UNL A   1      39.353  31.252  33.985  1.00  0.00     0.034 A 
ATOM     52  C   UNL A   1      42.572  27.511  29.714  1.00  0.00     0.049 A 
ATOM     53  C   UNL A   1      40.703  30.590  34.004  1.00  0.00     0.074 A 
ATOM     54  C   UNL A   1      43.858  27.011  29.818  1.00  0.00     0.029 A 
ATOM     55  N   UNL A   1      42.329  28.236  30.869  1.00  0.00    -0.354 N 
ATOM     56  N   UNL A   1      41.292  29.889  33.065  1.00  0.00    -0.248 NA
ATOM     57  C   UNL A   1      41.510  30.760  35.221  1.00  0.00     0.031 C 
ATOM     58  C   UNL A   1      44.379  27.405  31.055  1.00  0.00     0.029 A 
ATOM     59  C   UNL A   1      43.433  28.185  31.701  1.00  0.00     0.049 A 
ATOM     60  H   UNL A   1      41.493  28.716  31.070  1.00  0.00     0.167 HD
ATOM     61  C   UNL A   1      42.549  29.565  33.562  1.00  0.00     0.074 A 
ATOM     62  C   UNL A   1      42.644  30.166  34.877  1.00  0.00     0.031 C 
ATOM     63  C   UNL A   1      43.531  28.827  32.988  1.00  0.00     0.034 A 
BRANCH  50  64
ATOM     64  C   UNL A   1      42.012  26.438  27.491  1.00  0.00     0.023 A 
ATOM     65  C   UNL A   1      42.703  26.980  26.387  1.00  0.00     0.012 A 
ATOM     66  C   UNL A   1      41.735  25.057  27.520  1.00  0.00     0.148 A 
ATOM     67  C   UNL A   1      43.073  26.172  25.313  1.00  0.00     0.002 A 
ATOM     68  C   UNL A   1      42.152  24.249  26.469  1.00  0.00     0.091 A 
ATOM     69  F   UNL A   1      41.060  24.561  28.567  1.00  0.00    -0.205 F 
ATOM     70  C   UNL A   1      42.808  24.806  25.359  1.00  0.00     0.022 A 
BRANCH  68  71
ATOM     71  S   UNL A   1      41.934  22.466  26.469  1.00  0.00     0.127 S 
ATOM     72  O   UNL A   1      42.449  22.105  27.789  1.00  0.00    -0.237 OA
ATOM     73  O   UNL A   1      40.484  22.334  26.323  1.00  0.00    -0.237 OA
ATOM     74  O   UNL A   1      42.707  21.966  25.341  1.00  0.00    -0.744 OA
ENDBRANCH  68  71
ENDBRANCH  50  64
BRANCH  51  75
ATOM     75  C   UNL A   1      38.869  32.045  35.152  1.00  0.00     0.023 A 
ATOM     76  C   UNL A   1      38.889  33.451  35.089  1.00  0.00     0.012 A 
ATOM     77  C   UNL A   1      38.368  31.416  36.307  1.00  0.00     0.148 A 
ATOM     78  C   UNL A   1      38.451  34.219  36.169  1.00  0.00     0.002 A 
ATOM     79  C   UNL A   1      37.879  32.185  37.357  1.00  0.00     0.091 A 
ATOM     80  F   UNL A   1      38.363  30.076  36.350  1.00  0.00    -0.205 F 
ATOM     81  C   UNL A   1      37.938  33.586  37.297  1.00  0.00     0.022 A 
BRANCH  79  82
ATOM     82  S   UNL A   1      37.078  31.462  38.792  1.00  0.00     0.127 S 
ATOM     83  O   UNL A   1      38.078  31.680  39.835  1.00  0.00    -0.237 OA
ATOM     84  O   UNL A   1      35.873  32.285  38.911  1.00  0.00    -0.237 OA
ATOM     85  O   UNL A   1      36.823  30.071  38.444  1.00  0.00    -0.744 OA
ENDBRANCH  79  82
ENDBRANCH  51  75
BRANCH  63  86
ATOM     86  C   UNL A   1      44.817  28.659  33.755  1.00  0.00     0.023 A 
ATOM     87  C   UNL A   1      45.815  29.651  33.686  1.00  0.00     0.012 A 
ATOM     88  C   UNL A   1      45.003  27.547  34.601  1.00  0.00     0.148 A 
ATOM     89  C   UNL A   1      46.993  29.521  34.420  1.00  0.00     0.002 A 
ATOM     90  C   UNL A   1      46.155  27.452  35.370  1.00  0.00     0.091 A 
ATOM     91  F   UNL A   1      44.048  26.607  34.639  1.00  0.00    -0.205 F 
ATOM     92  C   UNL A   1      47.158  28.431  35.270  1.00  0.00     0.022 A 
BRANCH  90  93
ATOM     93  S   UNL A   1      46.409  26.138  36.568  1.00  0.00     0.127 S 
ATOM     94  O   UNL A   1      46.486  24.961  35.704  1.00  0.00    -0.237 OA
ATOM     95  O   UNL A   1      47.677  26.525  37.186  1.00  0.00    -0.237 OA
ATOM     96  O   UNL A   1      45.260  26.180  37.463  1.00  0.00    -0.744 OA
ENDBRANCH  90  93
ENDBRANCH  63  86
ENDBRANCH  37  38
ENDBRANCH  29  32
ENDBRANCH  27  28
ENDBRANCH  26  27
ENDBRANCH   1  26
TORSDOF 18
ENDMDL
MODEL 3
REMARK VINA RESULT:     -11.5      4.954      9.498
REMARK SMILES C[NH2+][C@@]1(C(=O)NCCCNC(=O)c2ccc(-c3c4nc(c(-c5cccc(S(=O)(=O)[O-])c5F)c5ccc([nH]5)c(-c5cccc(S(=O)(=O)[O-])c5F)c5nc(c(-c6cccc(S(=O)(=O)[O-])c6F)c6ccc3[nH]6)C=C5)C=C4)cc2)CCC[C@H]1CCSc1nccc(=O)[nH]1
REMARK SMILES IDX 7 1 6 2 4 3 5 4 3 6 76 7 79 8 77 9 78 10 2 11 1 12 80 15
REMARK SMILES IDX 81 16 82 17 83 18 84 19 89 20 85 21 87 22 86 24 88 25 8 26
REMARK SMILES IDX 9 27 10 28 11 29 12 31 13 32 14 33 75 34 15 35 74 36 16 37
REMARK SMILES IDX 17 38 18 39 68 40 19 41 73 42 67 43 69 44 20 45 72 46 66 47
REMARK SMILES IDX 65 48 21 50 53 51 33 52 52 53 34 54 37 55 51 56 70 57 35 58
REMARK SMILES IDX 36 59 50 61 71 62 38 63 22 64 23 65 31 66 24 67 26 68 32 69
REMARK SMILES IDX 25 70 27 71 28 72 29 73 30 74 54 75 55 76 63 77 56 78 58 79
REMARK SMILES IDX 64 80 57 81 59 82 60 83 61 84 62 85 39 86 40 87 48 88 41 89
REMARK SMILES IDX 43 90 49 91 42 92 44 93 45 94 46 95 47 96
REMARK H PARENT 6 5 2 13 2 14 89 23 10 30 69 49 37 60
REMARK Flexibility Score: inf
ROOT
ATOM      1  C   UNL A   1      33.871  26.653  24.360  1.00  0.00     0.118 C 
ENDROOT
BRANCH   1   2
ATOM      2  N   UNL A   1      34.599  25.663  25.113  1.00  0.00    -0.351 N 
ATOM      3  C   UNL A   1      34.407  24.332  25.312  1.00  0.00     0.281 C 
ATOM      4  O   UNL A   1      35.465  23.742  25.590  1.00  0.00    -0.268 OA
ATOM      5  H   UNL A   1      35.391  26.020  25.576  1.00  0.00     0.163 HD
BRANCH   3   6
ATOM      6  C   UNL A   1      33.035  23.527  25.135  1.00  0.00     0.178 C 
ATOM      7  C   UNL A   1      33.297  22.035  25.474  1.00  0.00     0.079 C 
ATOM      8  C   UNL A   1      32.416  23.495  23.690  1.00  0.00     0.061 C 
ATOM      9  C   UNL A   1      33.406  21.246  24.189  1.00  0.00     0.008 C 
ATOM     10  C   UNL A   1      32.816  22.110  23.092  1.00  0.00     0.011 C 
BRANCH   6  11
ATOM     11  N   UNL A   1      32.098  23.935  26.244  1.00  0.00    -0.336 N 
ATOM     12  C   UNL A   1      31.606  22.906  27.151  1.00  0.00     0.331 C 
ATOM     13  H   UNL A   1      32.586  24.628  26.812  1.00  0.00     0.346 HD
ATOM     14  H   UNL A   1      31.262  24.260  25.759  1.00  0.00     0.346 HD
ENDBRANCH   6  11
BRANCH   8  15
ATOM     15  C   UNL A   1      30.875  23.576  23.502  1.00  0.00     0.022 C 
BRANCH  15  16
ATOM     16  C   UNL A   1      30.157  24.870  23.109  1.00  0.00     0.079 C 
BRANCH  16  17
ATOM     17  S   UNL A   1      30.101  26.208  24.332  1.00  0.00    -0.088 SA
BRANCH  17  18
ATOM     18  C   UNL A   1      29.839  27.670  23.444  1.00  0.00     0.168 A 
ATOM     19  N   UNL A   1      30.746  28.318  22.799  1.00  0.00    -0.233 NA
ATOM     20  N   UNL A   1      28.538  28.060  23.509  1.00  0.00    -0.301 N 
ATOM     21  C   UNL A   1      30.342  29.441  22.123  1.00  0.00     0.120 A 
ATOM     22  C   UNL A   1      28.078  29.154  22.848  1.00  0.00     0.251 A 
ATOM     23  H   UNL A   1      27.909  27.532  24.052  1.00  0.00     0.172 HD
ATOM     24  C   UNL A   1      29.087  29.895  22.079  1.00  0.00     0.091 A 
ATOM     25  O   UNL A   1      26.907  29.518  22.864  1.00  0.00    -0.269 OA
ENDBRANCH  17  18
ENDBRANCH  16  17
ENDBRANCH  15  16
ENDBRANCH   8  15
ENDBRANCH   3   6
ENDBRANCH   1   2
BRANCH   1  26
ATOM     26  C   UNL A   1      34.158  28.087  24.767  1.00  0.00     0.042 C 
BRANCH  26  27
ATOM     27  C   UNL A   1      33.902  28.366  26.243  1.00  0.00     0.118 C 
BRANCH  27  28
ATOM     28  N   UNL A   1      33.785  29.794  26.534  1.00  0.00    -0.352 N 
ATOM     29  C   UNL A   1      34.505  30.610  27.371  1.00  0.00     0.251 C 
ATOM     30  H   UNL A   1      33.064  30.250  26.042  1.00  0.00     0.163 HD
ATOM     31  O   UNL A   1      34.068  31.728  27.632  1.00  0.00    -0.269 OA
BRANCH  29  32
ATOM     32  C   UNL A   1      35.787  30.163  27.955  1.00  0.00     0.039 A 
ATOM     33  C   UNL A   1      35.801  29.640  29.251  1.00  0.00     0.014 A 
ATOM     34  C   UNL A   1      36.982  30.295  27.247  1.00  0.00     0.014 A 
ATOM     35  C   UNL A   1      37.003  29.194  29.808  1.00  0.00     0.010 A 
ATOM     36  C   UNL A   1      38.156  29.753  27.757  1.00  0.00     0.010 A 
ATOM     37  C   UNL A   1      38.184  29.212  29.049  1.00  0.00    -0.014 A 
BRANCH  37  38
ATOM     38  C   UNL A   1      39.462  28.675  29.583  1.00  0.00     0.031 A 
ATOM     39  C   UNL A   1      40.159  29.370  30.723  1.00  0.00     0.074 A 
ATOM     40  C   UNL A   1      40.042  27.618  28.979  1.00  0.00     0.049 A 
ATOM     41  N   UNL A   1      41.310  29.094  31.277  1.00  0.00    -0.248 NA
ATOM     42  C   UNL A   1      39.488  30.550  31.298  1.00  0.00     0.031 C 
ATOM     43  C   UNL A   1      39.506  26.911  27.814  1.00  0.00     0.029 A 
ATOM     44  N   UNL A   1      41.223  26.973  29.244  1.00  0.00    -0.354 N 
ATOM     45  C   UNL A   1      41.523  30.085  32.229  1.00  0.00     0.074 A 
ATOM     46  C   UNL A   1      40.399  30.992  32.152  1.00  0.00     0.031 C 
ATOM     47  C   UNL A   1      40.349  25.925  27.470  1.00  0.00     0.029 A 
ATOM     48  C   UNL A   1      41.503  25.953  28.363  1.00  0.00     0.049 A 
ATOM     49  H   UNL A   1      41.814  27.215  29.993  1.00  0.00     0.167 HD
ATOM     50  C   UNL A   1      42.545  30.214  33.107  1.00  0.00     0.034 A 
ATOM     51  C   UNL A   1      42.575  25.142  28.276  1.00  0.00     0.034 A 
ATOM     52  C   UNL A   1      43.639  29.287  33.204  1.00  0.00     0.049 A 
ATOM     53  C   UNL A   1      43.680  25.285  29.285  1.00  0.00     0.074 A 
ATOM     54  C   UNL A   1      44.676  29.274  34.120  1.00  0.00     0.029 A 
ATOM     55  N   UNL A   1      43.848  28.219  32.347  1.00  0.00    -0.354 N 
ATOM     56  N   UNL A   1      43.783  26.130  30.283  1.00  0.00    -0.248 NA
ATOM     57  C   UNL A   1      44.801  24.340  29.182  1.00  0.00     0.031 C 
ATOM     58  C   UNL A   1      45.531  28.217  33.793  1.00  0.00     0.029 A 
ATOM     59  C   UNL A   1      45.005  27.548  32.700  1.00  0.00     0.049 A 
ATOM     60  H   UNL A   1      43.261  27.974  31.596  1.00  0.00     0.167 HD
ATOM     61  C   UNL A   1      44.959  25.796  30.945  1.00  0.00     0.074 A 
ATOM     62  C   UNL A   1      45.521  24.657  30.249  1.00  0.00     0.031 C 
ATOM     63  C   UNL A   1      45.528  26.387  32.025  1.00  0.00     0.034 A 
BRANCH  50  64
ATOM     64  C   UNL A   1      42.504  31.379  34.064  1.00  0.00     0.023 A 
ATOM     65  C   UNL A   1      43.267  32.535  33.795  1.00  0.00     0.012 A 
ATOM     66  C   UNL A   1      41.674  31.352  35.203  1.00  0.00     0.148 A 
ATOM     67  C   UNL A   1      43.238  33.625  34.663  1.00  0.00     0.002 A 
ATOM     68  C   UNL A   1      41.611  32.462  36.036  1.00  0.00     0.091 A 
ATOM     69  F   UNL A   1      40.970  30.239  35.455  1.00  0.00    -0.205 F 
ATOM     70  C   UNL A   1      42.402  33.594  35.776  1.00  0.00     0.022 A 
BRANCH  68  71
ATOM     71  S   UNL A   1      40.505  32.556  37.448  1.00  0.00     0.127 S 
ATOM     72  O   UNL A   1      41.384  32.140  38.539  1.00  0.00    -0.237 OA
ATOM     73  O   UNL A   1      40.146  33.975  37.462  1.00  0.00    -0.237 OA
ATOM     74  O   UNL A   1      39.402  31.653  37.156  1.00  0.00    -0.744 OA
ENDBRANCH  68  71
ENDBRANCH  50  64
BRANCH  51  75
ATOM     75  C   UNL A   1      42.624  24.084  27.226  1.00  0.00     0.023 A 
ATOM     76  C   UNL A   1      43.337  24.323  26.036  1.00  0.00     0.012 A 
ATOM     77  C   UNL A   1      41.994  22.839  27.411  1.00  0.00     0.148 A 
ATOM     78  C   UNL A   1      43.393  23.354  25.032  1.00  0.00     0.002 A 
ATOM     79  C   UNL A   1      42.102  21.857  26.434  1.00  0.00     0.091 A 
ATOM     80  F   UNL A   1      41.315  22.633  28.549  1.00  0.00    -0.205 F 
ATOM     81  C   UNL A   1      42.785  22.119  25.236  1.00  0.00     0.022 A 
BRANCH  79  82
ATOM     82  S   UNL A   1      41.466  20.193  26.662  1.00  0.00     0.127 S 
ATOM     83  O   UNL A   1      41.867  19.544  25.416  1.00  0.00    -0.237 OA
ATOM     84  O   UNL A   1      42.198  19.751  27.851  1.00  0.00    -0.237 OA
ATOM     85  O   UNL A   1      40.030  20.342  26.863  1.00  0.00    -0.744 OA
ENDBRANCH  79  82
ENDBRANCH  51  75
BRANCH  63  86
ATOM     86  C   UNL A   1      46.806  25.790  32.554  1.00  0.00     0.023 A 
ATOM     87  C   UNL A   1      48.051  26.271  32.099  1.00  0.00     0.012 A 
ATOM     88  C   UNL A   1      46.771  24.802  33.557  1.00  0.00     0.148 A 
ATOM     89  C   UNL A   1      49.239  25.751  32.609  1.00  0.00     0.002 A 
ATOM     90  C   UNL A   1      47.958  24.327  34.100  1.00  0.00     0.091 A 
ATOM     91  F   UNL A   1      45.577  24.346  33.964  1.00  0.00    -0.205 F 
ATOM     92  C   UNL A   1      49.194  24.790  33.617  1.00  0.00     0.022 A 
BRANCH  90  93
ATOM     93  S   UNL A   1      47.997  23.165  35.469  1.00  0.00     0.127 S 
ATOM     94  O   UNL A   1      47.393  21.978  34.867  1.00  0.00    -0.237 OA
ATOM     95  O   UNL A   1      49.431  23.051  35.736  1.00  0.00    -0.237 OA
ATOM     96  O   UNL A   1      47.227  23.780  36.542  1.00  0.00    -0.744 OA
ENDBRANCH  90  93
ENDBRANCH  63  86
ENDBRANCH  37  38
ENDBRANCH  29  32
ENDBRANCH  27  28
ENDBRANCH  26  27
ENDBRANCH   1  26
TORSDOF 18
ENDMDL
