MODEL 1
REMARK VINA RESULT:     -12.0      0.000      0.000
REMARK SMILES CCc1cccc(-c2ccc([C@@H](C)C(=O)NCCCNC(=O)c3ccc(-c4c5nc(c(-c6cccc(S(=O)(=O)[O-])c6F)c6ccc([nH]6)c(-c6cccc(S(=O)(=O)[O-])c6F)c6nc(c(-c7cccc(S(=O)(=O)[O-])c7F)c7ccc4[nH]7)C=C6)C=C5)cc3)cc2)c1
REMARK SMILES IDX 18 1 17 2 16 3 14 4 15 5 12 7 13 8 11 9 8 10 9 11 87 12
REMARK SMILES IDX 10 13 86 14 7 15 3 16 4 17 88 18 5 19 6 20 2 21 1 22 19 23
REMARK SMILES IDX 20 24 21 25 22 27 23 28 24 29 85 30 25 31 84 32 26 33 27 34
REMARK SMILES IDX 28 35 78 36 29 37 83 38 77 39 79 40 30 41 82 42 76 43 75 44
REMARK SMILES IDX 31 46 63 47 43 48 62 49 44 50 47 51 61 52 80 53 45 54 46 55
REMARK SMILES IDX 60 57 81 58 48 59 32 60 33 61 41 62 34 63 36 64 42 65 35 66
REMARK SMILES IDX 37 67 38 68 39 69 40 70 64 71 65 72 73 73 66 74 68 75 74 76
REMARK SMILES IDX 67 77 69 78 70 79 71 80 72 81 49 82 50 83 58 84 51 85 53 86
REMARK SMILES IDX 59 87 52 88 54 89 55 90 56 91 57 92
REMARK H PARENT 16 6 20 26 79 45 47 56
REMARK Flexibility Score: inf
ROOT
ATOM      1  C   UNL A   1      31.800  28.233  27.265  1.00  0.00     0.042 C 
ENDROOT
BRANCH   1   2
ATOM      2  C   UNL A   1      31.451  27.333  26.082  1.00  0.00     0.117 C 
BRANCH   2   3
ATOM      3  N   UNL A   1      31.239  28.077  24.856  1.00  0.00    -0.356 N 
ATOM      4  C   UNL A   1      32.054  28.343  23.798  1.00  0.00     0.227 C 
ATOM      5  O   UNL A   1      31.565  29.037  22.895  1.00  0.00    -0.274 OA
ATOM      6  H   UNL A   1      30.337  28.462  24.772  1.00  0.00     0.163 HD
BRANCH   4   7
ATOM      7  C   UNL A   1      33.491  27.816  23.660  1.00  0.00     0.105 C 
ATOM      8  C   UNL A   1      34.226  28.315  22.416  1.00  0.00     0.023 C 
BRANCH   7   9
ATOM      9  C   UNL A   1      33.630  26.333  23.958  1.00  0.00    -0.036 A 
ATOM     10  C   UNL A   1      34.026  23.523  24.344  1.00  0.00    -0.018 A 
ATOM     11  C   UNL A   1      34.523  24.473  25.249  1.00  0.00     0.009 A 
ATOM     12  C   UNL A   1      33.282  24.017  23.261  1.00  0.00     0.009 A 
ATOM     13  C   UNL A   1      34.297  25.845  25.082  1.00  0.00     0.005 A 
ATOM     14  C   UNL A   1      33.106  25.394  23.058  1.00  0.00     0.005 A 
BRANCH  10  15
ATOM     15  C   UNL A   1      34.305  22.075  24.520  1.00  0.00    -0.018 A 
ATOM     16  C   UNL A   1      33.587  19.719  24.393  1.00  0.00    -0.048 A 
ATOM     17  C   UNL A   1      34.882  19.316  24.728  1.00  0.00     0.004 A 
ATOM     18  C   UNL A   1      33.314  21.095  24.294  1.00  0.00     0.012 A 
ATOM     19  C   UNL A   1      35.877  20.258  24.967  1.00  0.00     0.001 A 
ATOM     20  C   UNL A   1      35.587  21.619  24.878  1.00  0.00     0.009 A 
BRANCH  16  21
ATOM     21  C   UNL A   1      32.521  18.669  24.184  1.00  0.00     0.032 C 
ATOM     22  C   UNL A   1      32.995  17.235  24.364  1.00  0.00     0.009 C 
ENDBRANCH  16  21
ENDBRANCH  10  15
ENDBRANCH   7   9
ENDBRANCH   4   7
ENDBRANCH   2   3
ENDBRANCH   1   2
BRANCH   1  23
ATOM     23  C   UNL A   1      33.268  28.643  27.325  1.00  0.00     0.118 C 
BRANCH  23  24
ATOM     24  N   UNL A   1      33.439  30.091  27.326  1.00  0.00    -0.352 N 
ATOM     25  C   UNL A   1      34.442  30.875  27.839  1.00  0.00     0.251 C 
ATOM     26  H   UNL A   1      32.712  30.590  26.888  1.00  0.00     0.163 HD
ATOM     27  O   UNL A   1      34.263  32.090  27.914  1.00  0.00    -0.269 OA
BRANCH  25  28
ATOM     28  C   UNL A   1      35.722  30.291  28.305  1.00  0.00     0.039 A 
ATOM     29  C   UNL A   1      36.815  30.285  27.431  1.00  0.00     0.014 A 
ATOM     30  C   UNL A   1      35.844  29.701  29.565  1.00  0.00     0.014 A 
ATOM     31  C   UNL A   1      38.037  29.743  27.841  1.00  0.00     0.010 A 
ATOM     32  C   UNL A   1      37.084  29.234  30.002  1.00  0.00     0.010 A 
ATOM     33  C   UNL A   1      38.192  29.242  29.143  1.00  0.00    -0.014 A 
BRANCH  33  34
ATOM     34  C   UNL A   1      39.507  28.743  29.627  1.00  0.00     0.031 A 
ATOM     35  C   UNL A   1      40.241  29.462  30.730  1.00  0.00     0.074 A 
ATOM     36  C   UNL A   1      40.083  27.691  29.010  1.00  0.00     0.049 A 
ATOM     37  N   UNL A   1      41.419  29.206  31.238  1.00  0.00    -0.248 NA
ATOM     38  C   UNL A   1      39.577  30.635  31.324  1.00  0.00     0.031 C 
ATOM     39  C   UNL A   1      39.514  26.962  27.874  1.00  0.00     0.029 A 
ATOM     40  N   UNL A   1      41.288  27.071  29.229  1.00  0.00    -0.354 N 
ATOM     41  C   UNL A   1      41.656  30.205  32.176  1.00  0.00     0.074 A 
ATOM     42  C   UNL A   1      40.509  31.085  32.152  1.00  0.00     0.031 C 
ATOM     43  C   UNL A   1      40.367  25.998  27.495  1.00  0.00     0.029 A 
ATOM     44  C   UNL A   1      41.557  26.057  28.338  1.00  0.00     0.049 A 
ATOM     45  H   UNL A   1      41.903  27.327  29.954  1.00  0.00     0.167 HD
ATOM     46  C   UNL A   1      42.719  30.361  33.000  1.00  0.00     0.034 A 
ATOM     47  C   UNL A   1      42.644  25.271  28.204  1.00  0.00     0.034 A 
ATOM     48  C   UNL A   1      43.835  29.454  33.056  1.00  0.00     0.049 A 
ATOM     49  C   UNL A   1      43.789  25.438  29.166  1.00  0.00     0.074 A 
ATOM     50  C   UNL A   1      44.908  29.466  33.930  1.00  0.00     0.029 A 
ATOM     51  N   UNL A   1      44.027  28.380  32.201  1.00  0.00    -0.354 N 
ATOM     52  N   UNL A   1      43.913  26.281  30.163  1.00  0.00    -0.248 NA
ATOM     53  C   UNL A   1      44.927  24.522  29.011  1.00  0.00     0.031 C 
ATOM     54  C   UNL A   1      45.764  28.416  33.586  1.00  0.00     0.029 A 
ATOM     55  C   UNL A   1      45.210  27.731  32.516  1.00  0.00     0.049 A 
ATOM     56  H   UNL A   1      43.415  28.118  31.476  1.00  0.00     0.167 HD
ATOM     57  C   UNL A   1      45.125  25.976  30.772  1.00  0.00     0.074 A 
ATOM     58  C   UNL A   1      45.685  24.853  30.048  1.00  0.00     0.031 C 
ATOM     59  C   UNL A   1      45.729  26.581  31.823  1.00  0.00     0.034 A 
BRANCH  46  60
ATOM     60  C   UNL A   1      42.712  31.526  33.955  1.00  0.00     0.023 A 
ATOM     61  C   UNL A   1      43.189  32.781  33.524  1.00  0.00     0.012 A 
ATOM     62  C   UNL A   1      42.153  31.404  35.243  1.00  0.00     0.148 A 
ATOM     63  C   UNL A   1      43.133  33.889  34.368  1.00  0.00     0.002 A 
ATOM     64  C   UNL A   1      42.061  32.524  36.062  1.00  0.00     0.091 A 
ATOM     65  F   UNL A   1      41.721  30.199  35.641  1.00  0.00    -0.205 F 
ATOM     66  C   UNL A   1      42.560  33.764  35.630  1.00  0.00     0.022 A 
BRANCH  64  67
ATOM     67  S   UNL A   1      41.268  32.487  37.673  1.00  0.00     0.127 S 
ATOM     68  O   UNL A   1      39.944  31.961  37.338  1.00  0.00    -0.237 OA
ATOM     69  O   UNL A   1      42.122  31.560  38.415  1.00  0.00    -0.237 OA
ATOM     70  O   UNL A   1      41.285  33.858  38.164  1.00  0.00    -0.744 OA
ENDBRANCH  64  67
ENDBRANCH  46  60
BRANCH  47  71
ATOM     71  C   UNL A   1      42.685  24.222  27.145  1.00  0.00     0.023 A 
ATOM     72  C   UNL A   1      43.360  24.482  25.936  1.00  0.00     0.012 A 
ATOM     73  C   UNL A   1      42.071  22.970  27.331  1.00  0.00     0.148 A 
ATOM     74  C   UNL A   1      43.391  23.528  24.919  1.00  0.00     0.002 A 
ATOM     75  C   UNL A   1      42.152  22.003  26.335  1.00  0.00     0.091 A 
ATOM     76  F   UNL A   1      41.429  22.744  28.486  1.00  0.00    -0.205 F 
ATOM     77  C   UNL A   1      42.794  22.287  25.120  1.00  0.00     0.022 A 
BRANCH  75  78
ATOM     78  S   UNL A   1      41.513  20.339  26.546  1.00  0.00     0.127 S 
ATOM     79  O   UNL A   1      42.116  19.941  27.815  1.00  0.00    -0.237 OA
ATOM     80  O   UNL A   1      40.069  20.572  26.595  1.00  0.00    -0.237 OA
ATOM     81  O   UNL A   1      41.963  19.594  25.380  1.00  0.00    -0.744 OA
ENDBRANCH  75  78
ENDBRANCH  47  71
BRANCH  59  82
ATOM     82  C   UNL A   1      47.052  26.027  32.283  1.00  0.00     0.023 A 
ATOM     83  C   UNL A   1      48.246  26.478  31.687  1.00  0.00     0.012 A 
ATOM     84  C   UNL A   1      47.114  25.113  33.354  1.00  0.00     0.148 A 
ATOM     85  C   UNL A   1      49.481  26.002  32.127  1.00  0.00     0.002 A 
ATOM     86  C   UNL A   1      48.350  24.681  33.819  1.00  0.00     0.091 A 
ATOM     87  F   UNL A   1      45.965  24.682  33.895  1.00  0.00    -0.205 F 
ATOM     88  C   UNL A   1      49.533  25.114  33.199  1.00  0.00     0.022 A 
BRANCH  86  89
ATOM     89  S   UNL A   1      48.519  23.615  35.255  1.00  0.00     0.127 S 
ATOM     90  O   UNL A   1      47.818  24.386  36.281  1.00  0.00    -0.237 OA
ATOM     91  O   UNL A   1      47.825  22.401  34.824  1.00  0.00    -0.237 OA
ATOM     92  O   UNL A   1      49.950  23.448  35.466  1.00  0.00    -0.744 OA
ENDBRANCH  86  89
ENDBRANCH  59  82
ENDBRANCH  33  34
ENDBRANCH  25  28
ENDBRANCH  23  24
ENDBRANCH   1  23
TORSDOF 16
ENDMDL
MODEL 2
REMARK VINA RESULT:     -12.0      0.973      1.926
REMARK SMILES CCc1cccc(-c2ccc([C@@H](C)C(=O)NCCCNC(=O)c3ccc(-c4c5nc(c(-c6cccc(S(=O)(=O)[O-])c6F)c6ccc([nH]6)c(-c6cccc(S(=O)(=O)[O-])c6F)c6nc(c(-c7cccc(S(=O)(=O)[O-])c7F)c7ccc4[nH]7)C=C6)C=C5)cc3)cc2)c1
REMARK SMILES IDX 18 1 17 2 16 3 14 4 15 5 12 7 13 8 11 9 8 10 9 11 87 12
REMARK SMILES IDX 10 13 86 14 7 15 3 16 4 17 88 18 5 19 6 20 2 21 1 22 19 23
REMARK SMILES IDX 20 24 21 25 22 27 23 28 24 29 85 30 25 31 84 32 26 33 27 34
REMARK SMILES IDX 28 35 78 36 29 37 83 38 77 39 79 40 30 41 82 42 76 43 75 44
REMARK SMILES IDX 31 46 63 47 43 48 62 49 44 50 47 51 61 52 80 53 45 54 46 55
REMARK SMILES IDX 60 57 81 58 48 59 32 60 33 61 41 62 34 63 36 64 42 65 35 66
REMARK SMILES IDX 37 67 38 68 39 69 40 70 64 71 65 72 73 73 66 74 68 75 74 76
REMARK SMILES IDX 67 77 69 78 70 79 71 80 72 81 49 82 50 83 58 84 51 85 53 86
REMARK SMILES IDX 59 87 52 88 54 89 55 90 56 91 57 92
REMARK H PARENT 16 6 20 26 79 45 47 56
REMARK Flexibility Score: inf
ROOT
ATOM      1  C   UNL A   1      33.296  28.288  24.895  1.00  0.00     0.042 C 
ENDROOT
BRANCH   1   2
ATOM      2  C   UNL A   1      31.838  28.740  24.891  1.00  0.00     0.117 C 
BRANCH   2   3
ATOM      3  N   UNL A   1      31.441  29.338  23.631  1.00  0.00    -0.356 N 
ATOM      4  C   UNL A   1      30.604  28.914  22.644  1.00  0.00     0.227 C 
ATOM      5  O   UNL A   1      30.490  29.667  21.667  1.00  0.00    -0.274 OA
ATOM      6  H   UNL A   1      31.853  30.215  23.456  1.00  0.00     0.163 HD
BRANCH   4   7
ATOM      7  C   UNL A   1      29.800  27.606  22.696  1.00  0.00     0.105 C 
ATOM      8  C   UNL A   1      28.493  27.702  23.482  1.00  0.00     0.023 C 
BRANCH   7   9
ATOM      9  C   UNL A   1      30.649  26.377  22.974  1.00  0.00    -0.036 A 
ATOM     10  C   UNL A   1      32.421  24.198  23.537  1.00  0.00    -0.018 A 
ATOM     11  C   UNL A   1      31.351  24.523  24.385  1.00  0.00     0.009 A 
ATOM     12  C   UNL A   1      32.552  24.967  22.370  1.00  0.00     0.009 A 
ATOM     13  C   UNL A   1      30.461  25.563  24.091  1.00  0.00     0.005 A 
ATOM     14  C   UNL A   1      31.699  26.050  22.104  1.00  0.00     0.005 A 
BRANCH  10  15
ATOM     15  C   UNL A   1      33.374  23.113  23.883  1.00  0.00    -0.018 A 
ATOM     16  C   UNL A   1      35.633  22.366  24.529  1.00  0.00    -0.048 A 
ATOM     17  C   UNL A   1      35.151  21.062  24.672  1.00  0.00     0.004 A 
ATOM     18  C   UNL A   1      34.737  23.375  24.135  1.00  0.00     0.012 A 
ATOM     19  C   UNL A   1      33.815  20.769  24.421  1.00  0.00     0.001 A 
ATOM     20  C   UNL A   1      32.942  21.780  24.018  1.00  0.00     0.009 A 
BRANCH  16  21
ATOM     21  C   UNL A   1      37.099  22.637  24.768  1.00  0.00     0.032 C 
ATOM     22  C   UNL A   1      37.391  23.828  25.668  1.00  0.00     0.009 C 
ENDBRANCH  16  21
ENDBRANCH  10  15
ENDBRANCH   7   9
ENDBRANCH   4   7
ENDBRANCH   2   3
ENDBRANCH   1   2
BRANCH   1  23
ATOM     23  C   UNL A   1      34.039  28.589  26.193  1.00  0.00     0.118 C 
BRANCH  23  24
ATOM     24  N   UNL A   1      33.856  29.968  26.628  1.00  0.00    -0.352 N 
ATOM     25  C   UNL A   1      34.557  30.722  27.536  1.00  0.00     0.251 C 
ATOM     26  H   UNL A   1      33.104  30.437  26.200  1.00  0.00     0.163 HD
ATOM     27  O   UNL A   1      34.083  31.797  27.902  1.00  0.00    -0.269 OA
BRANCH  25  28
ATOM     28  C   UNL A   1      35.857  30.267  28.084  1.00  0.00     0.039 A 
ATOM     29  C   UNL A   1      35.876  29.648  29.339  1.00  0.00     0.014 A 
ATOM     30  C   UNL A   1      37.058  30.493  27.409  1.00  0.00     0.014 A 
ATOM     31  C   UNL A   1      37.086  29.206  29.883  1.00  0.00     0.010 A 
ATOM     32  C   UNL A   1      38.252  29.980  27.914  1.00  0.00     0.010 A 
ATOM     33  C   UNL A   1      38.282  29.339  29.161  1.00  0.00    -0.014 A 
BRANCH  33  34
ATOM     34  C   UNL A   1      39.564  28.796  29.683  1.00  0.00     0.031 A 
ATOM     35  C   UNL A   1      40.277  29.476  30.823  1.00  0.00     0.074 A 
ATOM     36  C   UNL A   1      40.134  27.738  29.069  1.00  0.00     0.049 A 
ATOM     37  N   UNL A   1      41.430  29.181  31.368  1.00  0.00    -0.248 NA
ATOM     38  C   UNL A   1      39.625  30.658  31.412  1.00  0.00     0.031 C 
ATOM     39  C   UNL A   1      39.586  27.044  27.901  1.00  0.00     0.029 A 
ATOM     40  N   UNL A   1      41.313  27.081  29.321  1.00  0.00    -0.354 N 
ATOM     41  C   UNL A   1      41.659  30.157  32.330  1.00  0.00     0.074 A 
ATOM     42  C   UNL A   1      40.539  31.069  32.281  1.00  0.00     0.031 C 
ATOM     43  C   UNL A   1      40.426  26.062  27.537  1.00  0.00     0.029 A 
ATOM     44  C   UNL A   1      41.586  26.075  28.423  1.00  0.00     0.049 A 
ATOM     45  H   UNL A   1      41.907  27.309  30.071  1.00  0.00     0.167 HD
ATOM     46  C   UNL A   1      42.696  30.270  33.195  1.00  0.00     0.034 A 
ATOM     47  C   UNL A   1      42.655  25.261  28.314  1.00  0.00     0.034 A 
ATOM     48  C   UNL A   1      43.784  29.332  33.275  1.00  0.00     0.049 A 
ATOM     49  C   UNL A   1      43.769  25.381  29.319  1.00  0.00     0.074 A 
ATOM     50  C   UNL A   1      44.825  29.300  34.187  1.00  0.00     0.029 A 
ATOM     51  N   UNL A   1      43.978  28.267  32.410  1.00  0.00    -0.354 N 
ATOM     52  N   UNL A   1      43.880  26.204  30.334  1.00  0.00    -0.248 NA
ATOM     53  C   UNL A   1      44.887  24.436  29.189  1.00  0.00     0.031 C 
ATOM     54  C   UNL A   1      45.664  28.232  33.856  1.00  0.00     0.029 A 
ATOM     55  C   UNL A   1      45.130  27.580  32.756  1.00  0.00     0.049 A 
ATOM     56  H   UNL A   1      43.385  28.034  31.659  1.00  0.00     0.167 HD
ATOM     57  C   UNL A   1      45.060  25.856  30.980  1.00  0.00     0.074 A 
ATOM     58  C   UNL A   1      45.615  24.729  30.258  1.00  0.00     0.031 C 
ATOM     59  C   UNL A   1      45.642  26.427  32.062  1.00  0.00     0.034 A 
BRANCH  46  60
ATOM     60  C   UNL A   1      42.686  31.420  34.169  1.00  0.00     0.023 A 
ATOM     61  C   UNL A   1      43.400  32.597  33.861  1.00  0.00     0.012 A 
ATOM     62  C   UNL A   1      41.903  31.372  35.338  1.00  0.00     0.148 A 
ATOM     63  C   UNL A   1      43.354  33.698  34.716  1.00  0.00     0.002 A 
ATOM     64  C   UNL A   1      41.828  32.489  36.163  1.00  0.00     0.091 A 
ATOM     65  F   UNL A   1      41.246  30.238  35.622  1.00  0.00    -0.205 F 
ATOM     66  C   UNL A   1      42.561  33.648  35.858  1.00  0.00     0.022 A 
BRANCH  64  67
ATOM     67  S   UNL A   1      40.772  32.558  37.614  1.00  0.00     0.127 S 
ATOM     68  O   UNL A   1      41.589  31.860  38.607  1.00  0.00    -0.237 OA
ATOM     69  O   UNL A   1      40.646  33.998  37.834  1.00  0.00    -0.237 OA
ATOM     70  O   UNL A   1      39.534  31.886  37.246  1.00  0.00    -0.744 OA
ENDBRANCH  64  67
ENDBRANCH  46  60
BRANCH  47  71
ATOM     71  C   UNL A   1      42.705  24.228  27.240  1.00  0.00     0.023 A 
ATOM     72  C   UNL A   1      43.398  24.504  26.044  1.00  0.00     0.012 A 
ATOM     73  C   UNL A   1      42.084  22.976  27.399  1.00  0.00     0.148 A 
ATOM     74  C   UNL A   1      43.438  23.565  25.013  1.00  0.00     0.002 A 
ATOM     75  C   UNL A   1      42.174  22.024  26.389  1.00  0.00     0.091 A 
ATOM     76  F   UNL A   1      41.426  22.735  28.542  1.00  0.00    -0.205 F 
ATOM     77  C   UNL A   1      42.834  22.324  25.188  1.00  0.00     0.022 A 
BRANCH  75  78
ATOM     78  S   UNL A   1      41.525  20.359  26.567  1.00  0.00     0.127 S 
ATOM     79  O   UNL A   1      42.135  19.929  27.821  1.00  0.00    -0.237 OA
ATOM     80  O   UNL A   1      40.084  20.601  26.632  1.00  0.00    -0.237 OA
ATOM     81  O   UNL A   1      41.962  19.639  25.380  1.00  0.00    -0.744 OA
ENDBRANCH  75  78
ENDBRANCH  47  71
BRANCH  59  82
ATOM     82  C   UNL A   1      46.932  25.829  32.560  1.00  0.00     0.023 A 
ATOM     83  C   UNL A   1      48.162  26.298  32.058  1.00  0.00     0.012 A 
ATOM     84  C   UNL A   1      46.926  24.853  33.576  1.00  0.00     0.148 A 
ATOM     85  C   UNL A   1      49.365  25.781  32.535  1.00  0.00     0.002 A 
ATOM     86  C   UNL A   1      48.130  24.378  34.082  1.00  0.00     0.091 A 
ATOM     87  F   UNL A   1      45.744  24.407  34.028  1.00  0.00    -0.205 F 
ATOM     88  C   UNL A   1      49.350  24.831  33.553  1.00  0.00     0.022 A 
BRANCH  86  89
ATOM     89  S   UNL A   1      48.208  23.228  35.459  1.00  0.00     0.127 S 
ATOM     90  O   UNL A   1      47.909  21.956  34.801  1.00  0.00    -0.237 OA
ATOM     91  O   UNL A   1      49.594  23.372  35.906  1.00  0.00    -0.237 OA
ATOM     92  O   UNL A   1      47.213  23.684  36.421  1.00  0.00    -0.744 OA
ENDBRANCH  86  89
ENDBRANCH  59  82
ENDBRANCH  33  34
ENDBRANCH  25  28
ENDBRANCH  23  24
ENDBRANCH   1  23
TORSDOF 16
ENDMDL
MODEL 3
REMARK VINA RESULT:     -11.8      4.725      9.912
REMARK SMILES CCc1cccc(-c2ccc([C@@H](C)C(=O)NCCCNC(=O)c3ccc(-c4c5nc(c(-c6cccc(S(=O)(=O)[O-])c6F)c6ccc([nH]6)c(-c6cccc(S(=O)(=O)[O-])c6F)c6nc(c(-c7cccc(S(=O)(=O)[O-])c7F)c7ccc4[nH]7)C=C6)C=C5)cc3)cc2)c1
REMARK SMILES IDX 18 1 17 2 16 3 14 4 15 5 12 7 13 8 11 9 8 10 9 11 87 12
REMARK SMILES IDX 10 13 86 14 7 15 3 16 4 17 88 18 5 19 6 20 2 21 1 22 19 23
REMARK SMILES IDX 20 24 21 25 22 27 23 28 24 29 85 30 25 31 84 32 26 33 27 34
REMARK SMILES IDX 28 35 78 36 29 37 83 38 77 39 79 40 30 41 82 42 76 43 75 44
REMARK SMILES IDX 31 46 63 47 43 48 62 49 44 50 47 51 61 52 80 53 45 54 46 55
REMARK SMILES IDX 60 57 81 58 48 59 32 60 33 61 41 62 34 63 36 64 42 65 35 66
REMARK SMILES IDX 37 67 38 68 39 69 40 70 64 71 65 72 73 73 66 74 68 75 74 76
REMARK SMILES IDX 67 77 69 78 70 79 71 80 72 81 49 82 50 83 58 84 51 85 53 86
REMARK SMILES IDX 59 87 52 88 54 89 55 90 56 91 57 92
REMARK H PARENT 16 6 20 26 79 45 47 56
REMARK Flexibility Score: inf
ROOT
ATOM      1  C   UNL A   1      35.916  22.852  24.505  1.00  0.00     0.042 C 
ENDROOT
BRANCH   1   2
ATOM      2  C   UNL A   1      35.646  21.372  24.767  1.00  0.00     0.117 C 
BRANCH   2   3
ATOM      3  N   UNL A   1      34.984  21.140  26.036  1.00  0.00    -0.356 N 
ATOM      4  C   UNL A   1      33.669  21.129  26.390  1.00  0.00     0.227 C 
ATOM      5  O   UNL A   1      33.429  20.910  27.586  1.00  0.00    -0.274 OA
ATOM      6  H   UNL A   1      35.600  20.955  26.781  1.00  0.00     0.163 HD
BRANCH   4   7
ATOM      7  C   UNL A   1      32.507  21.338  25.406  1.00  0.00     0.105 C 
ATOM      8  C   UNL A   1      32.524  20.395  24.204  1.00  0.00     0.023 C 
BRANCH   7   9
ATOM      9  C   UNL A   1      32.224  22.798  25.096  1.00  0.00    -0.036 A 
ATOM     10  C   UNL A   1      31.476  25.505  24.532  1.00  0.00    -0.018 A 
ATOM     11  C   UNL A   1      32.162  25.153  25.705  1.00  0.00     0.009 A 
ATOM     12  C   UNL A   1      31.215  24.467  23.624  1.00  0.00     0.009 A 
ATOM     13  C   UNL A   1      32.563  23.836  25.963  1.00  0.00     0.005 A 
ATOM     14  C   UNL A   1      31.560  23.137  23.908  1.00  0.00     0.005 A 
BRANCH  10  15
ATOM     15  C   UNL A   1      31.030  26.901  24.293  1.00  0.00    -0.018 A 
ATOM     16  C   UNL A   1      31.115  29.304  24.837  1.00  0.00    -0.048 A 
ATOM     17  C   UNL A   1      30.282  29.571  23.747  1.00  0.00     0.004 A 
ATOM     18  C   UNL A   1      31.478  27.971  25.097  1.00  0.00     0.012 A 
ATOM     19  C   UNL A   1      29.816  28.537  22.942  1.00  0.00     0.001 A 
ATOM     20  C   UNL A   1      30.175  27.218  23.221  1.00  0.00     0.009 A 
BRANCH  16  21
ATOM     21  C   UNL A   1      31.564  30.448  25.715  1.00  0.00     0.032 C 
ATOM     22  C   UNL A   1      32.455  30.046  26.881  1.00  0.00     0.009 C 
ENDBRANCH  16  21
ENDBRANCH  10  15
ENDBRANCH   7   9
ENDBRANCH   4   7
ENDBRANCH   2   3
ENDBRANCH   1   2
BRANCH   1  23
ATOM     23  C   UNL A   1      36.865  23.499  25.508  1.00  0.00     0.118 C 
BRANCH  23  24
ATOM     24  N   UNL A   1      37.925  22.593  25.932  1.00  0.00    -0.352 N 
ATOM     25  C   UNL A   1      39.159  22.848  26.478  1.00  0.00     0.251 C 
ATOM     26  H   UNL A   1      37.723  21.638  25.805  1.00  0.00     0.163 HD
ATOM     27  O   UNL A   1      39.973  21.929  26.552  1.00  0.00    -0.269 OA
BRANCH  25  28
ATOM     28  C   UNL A   1      39.527  24.198  26.967  1.00  0.00     0.039 A 
ATOM     29  C   UNL A   1      39.230  24.535  28.292  1.00  0.00     0.014 A 
ATOM     30  C   UNL A   1      40.105  25.151  26.126  1.00  0.00     0.014 A 
ATOM     31  C   UNL A   1      39.566  25.800  28.785  1.00  0.00     0.010 A 
ATOM     32  C   UNL A   1      40.513  26.382  26.640  1.00  0.00     0.010 A 
ATOM     33  C   UNL A   1      40.241  26.724  27.972  1.00  0.00    -0.014 A 
BRANCH  33  34
ATOM     34  C   UNL A   1      40.685  28.040  28.503  1.00  0.00     0.031 A 
ATOM     35  C   UNL A   1      42.151  28.336  28.689  1.00  0.00     0.074 A 
ATOM     36  C   UNL A   1      39.761  28.938  28.904  1.00  0.00     0.049 A 
ATOM     37  N   UNL A   1      42.719  29.402  29.193  1.00  0.00    -0.248 NA
ATOM     38  C   UNL A   1      43.104  27.290  28.280  1.00  0.00     0.031 C 
ATOM     39  C   UNL A   1      38.312  28.737  28.856  1.00  0.00     0.029 A 
ATOM     40  N   UNL A   1      39.904  30.186  29.459  1.00  0.00    -0.354 N 
ATOM     41  C   UNL A   1      44.085  29.141  29.200  1.00  0.00     0.074 A 
ATOM     42  C   UNL A   1      44.261  27.806  28.672  1.00  0.00     0.031 C 
ATOM     43  C   UNL A   1      37.699  29.819  29.361  1.00  0.00     0.029 A 
ATOM     44  C   UNL A   1      38.708  30.778  29.797  1.00  0.00     0.049 A 
ATOM     45  H   UNL A   1      40.777  30.616  29.602  1.00  0.00     0.167 HD
ATOM     46  C   UNL A   1      45.101  29.948  29.587  1.00  0.00     0.034 A 
ATOM     47  C   UNL A   1      38.452  31.954  30.403  1.00  0.00     0.034 A 
ATOM     48  C   UNL A   1      44.925  31.293  30.065  1.00  0.00     0.049 A 
ATOM     49  C   UNL A   1      39.603  32.849  30.777  1.00  0.00     0.074 A 
ATOM     50  C   UNL A   1      45.897  32.227  30.379  1.00  0.00     0.029 A 
ATOM     51  N   UNL A   1      43.700  31.895  30.304  1.00  0.00    -0.354 N 
ATOM     52  N   UNL A   1      40.888  32.652  30.612  1.00  0.00    -0.248 NA
ATOM     53  C   UNL A   1      39.268  34.144  31.387  1.00  0.00     0.031 C 
ATOM     54  C   UNL A   1      45.260  33.385  30.836  1.00  0.00     0.029 A 
ATOM     55  C   UNL A   1      43.891  33.183  30.777  1.00  0.00     0.049 A 
ATOM     56  H   UNL A   1      42.824  31.470  30.160  1.00  0.00     0.167 HD
ATOM     57  C   UNL A   1      41.512  33.809  31.066  1.00  0.00     0.074 A 
ATOM     58  C   UNL A   1      40.461  34.712  31.488  1.00  0.00     0.031 C 
ATOM     59  C   UNL A   1      42.835  34.092  31.143  1.00  0.00     0.034 A 
BRANCH  46  60
ATOM     60  C   UNL A   1      46.509  29.425  29.462  1.00  0.00     0.023 A 
ATOM     61  C   UNL A   1      47.081  28.704  30.531  1.00  0.00     0.012 A 
ATOM     62  C   UNL A   1      47.231  29.567  28.261  1.00  0.00     0.148 A 
ATOM     63  C   UNL A   1      48.357  28.156  30.415  1.00  0.00     0.002 A 
ATOM     64  C   UNL A   1      48.485  28.980  28.137  1.00  0.00     0.091 A 
ATOM     65  F   UNL A   1      46.678  30.270  27.262  1.00  0.00    -0.205 F 
ATOM     66  C   UNL A   1      49.053  28.284  29.217  1.00  0.00     0.022 A 
BRANCH  64  67
ATOM     67  S   UNL A   1      49.430  29.016  26.610  1.00  0.00     0.127 S 
ATOM     68  O   UNL A   1      50.547  28.127  26.933  1.00  0.00    -0.237 OA
ATOM     69  O   UNL A   1      48.476  28.468  25.646  1.00  0.00    -0.237 OA
ATOM     70  O   UNL A   1      49.789  30.409  26.389  1.00  0.00    -0.744 OA
ENDBRANCH  64  67
ENDBRANCH  46  60
BRANCH  47  71
ATOM     71  C   UNL A   1      37.044  32.378  30.652  1.00  0.00     0.023 A 
ATOM     72  C   UNL A   1      36.475  32.180  31.926  1.00  0.00     0.012 A 
ATOM     73  C   UNL A   1      36.272  32.984  29.644  1.00  0.00     0.148 A 
ATOM     74  C   UNL A   1      35.152  32.543  32.179  1.00  0.00     0.002 A 
ATOM     75  C   UNL A   1      34.971  33.393  29.918  1.00  0.00     0.091 A 
ATOM     76  F   UNL A   1      36.830  33.159  28.438  1.00  0.00    -0.205 F 
ATOM     77  C   UNL A   1      34.403  33.156  31.179  1.00  0.00     0.022 A 
BRANCH  75  78
ATOM     78  S   UNL A   1      33.968  34.291  28.730  1.00  0.00     0.127 S 
ATOM     79  O   UNL A   1      33.694  33.265  27.728  1.00  0.00    -0.237 OA
ATOM     80  O   UNL A   1      32.816  34.684  29.542  1.00  0.00    -0.237 OA
ATOM     81  O   UNL A   1      34.794  35.401  28.279  1.00  0.00    -0.744 OA
ENDBRANCH  75  78
ENDBRANCH  47  71
BRANCH  59  82
ATOM     82  C   UNL A   1      43.231  35.444  31.674  1.00  0.00     0.023 A 
ATOM     83  C   UNL A   1      43.370  35.639  33.063  1.00  0.00     0.012 A 
ATOM     84  C   UNL A   1      43.535  36.501  30.793  1.00  0.00     0.148 A 
ATOM     85  C   UNL A   1      43.772  36.875  33.568  1.00  0.00     0.002 A 
ATOM     86  C   UNL A   1      43.982  37.714  31.302  1.00  0.00     0.091 A 
ATOM     87  F   UNL A   1      43.380  36.301  29.476  1.00  0.00    -0.205 F 
ATOM     88  C   UNL A   1      44.089  37.907  32.689  1.00  0.00     0.022 A 
BRANCH  86  89
ATOM     89  S   UNL A   1      44.506  39.067  30.242  1.00  0.00     0.127 S 
ATOM     90  O   UNL A   1      44.891  40.081  31.222  1.00  0.00    -0.237 OA
ATOM     91  O   UNL A   1      45.624  38.472  29.509  1.00  0.00    -0.237 OA
ATOM     92  O   UNL A   1      43.353  39.400  29.416  1.00  0.00    -0.744 OA
ENDBRANCH  86  89
ENDBRANCH  59  82
ENDBRANCH  33  34
ENDBRANCH  25  28
ENDBRANCH  23  24
ENDBRANCH   1  23
TORSDOF 16
ENDMDL
