MODEL 1
REMARK VINA RESULT:     -13.0      0.000      0.000
REMARK SMILES C[C@H]1CC[C@H]([NH2+]Cc2c(C(=O)NCCCNC(=O)c3ccc(-c4c5nc(c(-c6cccc(S(=O)(=O)[O-])c6F)c6ccc([nH]6)c(-c6cccc(S(=O)(=O)[O-])c6F)c6nc(c(-c7cccc(S(=O)(=O)[O-])c7F)c7ccc4[nH]7)C=C6)C=C5)cc3)n(Cc3ccccc3F)c3ccccc23)CC1
REMARK SMILES IDX 14 1 13 2 12 3 10 4 11 5 9 7 8 8 96 9 82 10 91 11 95 12
REMARK SMILES IDX 92 13 94 14 93 15 7 16 6 17 5 20 1 21 2 22 3 23 98 24 4 25
REMARK SMILES IDX 97 26 83 27 84 28 85 29 89 30 86 31 88 32 90 33 87 34 15 35
REMARK SMILES IDX 16 36 17 37 18 39 19 40 20 41 81 42 21 43 80 44 22 45 23 46
REMARK SMILES IDX 24 47 74 48 25 49 79 50 73 51 75 52 26 53 78 54 72 55 71 56
REMARK SMILES IDX 27 58 59 59 39 60 58 61 40 62 43 63 57 64 76 65 41 66 42 67
REMARK SMILES IDX 56 69 77 70 44 71 28 72 29 73 37 74 30 75 32 76 38 77 31 78
REMARK SMILES IDX 33 79 34 80 35 81 36 82 60 83 61 84 69 85 62 86 64 87 70 88
REMARK SMILES IDX 63 89 65 90 66 91 67 92 68 93 45 94 46 95 54 96 47 97 49 98
REMARK SMILES IDX 55 99 48 100 50 101 51 102 52 103 53 104
REMARK H PARENT 12 6 6 18 6 19 16 38 75 57 43 68
REMARK Flexibility Score: inf
ROOT
ATOM      1  C   UNL A   1      33.191  29.513  27.153  1.00  0.00     0.042 C 
ENDROOT
BRANCH   1   2
ATOM      2  C   UNL A   1      32.367  29.573  25.871  1.00  0.00     0.118 C 
BRANCH   2   3
ATOM      3  N   UNL A   1      33.006  29.147  24.654  1.00  0.00    -0.351 N 
ATOM      4  C   UNL A   1      32.954  27.936  23.995  1.00  0.00     0.268 C 
ATOM      5  O   UNL A   1      33.501  27.968  22.888  1.00  0.00    -0.268 OA
ATOM      6  H   UNL A   1      33.571  29.828  24.223  1.00  0.00     0.163 HD
BRANCH   4   7
ATOM      7  C   UNL A   1      32.377  26.694  24.544  1.00  0.00     0.117 A 
ATOM      8  C   UNL A   1      31.167  25.999  24.339  1.00  0.00     0.045 A 
ATOM      9  C   UNL A   1      31.020  25.118  25.461  1.00  0.00     0.009 A 
ATOM     10  N   UNL A   1      33.131  25.787  25.338  1.00  0.00    -0.331 N 
ATOM     11  C   UNL A   1      32.301  24.814  25.883  1.00  0.00     0.049 A 
ATOM     12  C   UNL A   1      29.927  24.422  26.022  1.00  0.00     0.011 A 
ATOM     13  C   UNL A   1      32.543  23.687  26.691  1.00  0.00     0.027 A 
ATOM     14  C   UNL A   1      30.153  23.423  26.970  1.00  0.00     0.001 A 
ATOM     15  C   UNL A   1      31.451  23.029  27.263  1.00  0.00     0.002 A 
BRANCH   8  16
ATOM     16  C   UNL A   1      30.095  25.983  23.282  1.00  0.00     0.300 C 
BRANCH  16  17
ATOM     17  N   UNL A   1      28.900  26.756  23.545  1.00  0.00    -0.340 N 
ATOM     18  H   UNL A   1      28.195  26.402  22.899  1.00  0.00     0.346 HD
ATOM     19  H   UNL A   1      28.805  26.623  24.553  1.00  0.00     0.346 HD
BRANCH  17  20
ATOM     20  C   UNL A   1      28.824  28.211  23.453  1.00  0.00     0.182 C 
ATOM     21  C   UNL A   1      28.325  31.887  21.023  1.00  0.00     0.007 C 
ATOM     22  C   UNL A   1      28.364  30.455  21.536  1.00  0.00    -0.014 C 
ATOM     23  C   UNL A   1      27.482  30.278  22.774  1.00  0.00     0.009 C 
ATOM     24  C   UNL A   1      29.789  30.014  21.871  1.00  0.00     0.009 C 
ATOM     25  C   UNL A   1      27.442  28.808  23.174  1.00  0.00     0.065 C 
ATOM     26  C   UNL A   1      29.809  28.555  22.310  1.00  0.00     0.065 C 
ENDBRANCH  17  20
ENDBRANCH  16  17
ENDBRANCH   8  16
BRANCH  10  27
ATOM     27  C   UNL A   1      34.596  25.744  25.500  1.00  0.00     0.161 C 
BRANCH  27  28
ATOM     28  C   UNL A   1      35.254  24.469  25.019  1.00  0.00     0.008 A 
ATOM     29  C   UNL A   1      35.954  23.608  25.882  1.00  0.00     0.008 A 
ATOM     30  C   UNL A   1      35.117  24.055  23.692  1.00  0.00     0.128 A 
ATOM     31  C   UNL A   1      36.531  22.418  25.431  1.00  0.00     0.001 A 
ATOM     32  C   UNL A   1      35.701  22.874  23.227  1.00  0.00     0.039 A 
ATOM     33  F   UNL A   1      34.372  24.766  22.835  1.00  0.00    -0.207 F 
ATOM     34  C   UNL A   1      36.417  22.057  24.096  1.00  0.00     0.003 A 
ENDBRANCH  27  28
ENDBRANCH  10  27
ENDBRANCH   4   7
ENDBRANCH   2   3
ENDBRANCH   1   2
BRANCH   1  35
ATOM     35  C   UNL A   1      34.209  30.651  27.358  1.00  0.00     0.118 C 
BRANCH  35  36
ATOM     36  N   UNL A   1      34.129  31.391  28.610  1.00  0.00    -0.352 N 
ATOM     37  C   UNL A   1      35.083  31.939  29.432  1.00  0.00     0.251 C 
ATOM     38  H   UNL A   1      33.208  31.524  28.931  1.00  0.00     0.163 HD
ATOM     39  O   UNL A   1      34.777  32.980  30.017  1.00  0.00    -0.269 OA
BRANCH  37  40
ATOM     40  C   UNL A   1      36.373  31.279  29.764  1.00  0.00     0.039 A 
ATOM     41  C   UNL A   1      37.607  31.914  29.660  1.00  0.00     0.014 A 
ATOM     42  C   UNL A   1      36.340  29.892  30.010  1.00  0.00     0.014 A 
ATOM     43  C   UNL A   1      38.780  31.172  29.681  1.00  0.00     0.010 A 
ATOM     44  C   UNL A   1      37.513  29.145  30.047  1.00  0.00     0.010 A 
ATOM     45  C   UNL A   1      38.728  29.782  29.822  1.00  0.00    -0.014 A 
BRANCH  45  46
ATOM     46  C   UNL A   1      39.996  29.064  29.774  1.00  0.00     0.031 A 
ATOM     47  C   UNL A   1      40.666  28.870  31.090  1.00  0.00     0.074 A 
ATOM     48  C   UNL A   1      40.523  28.551  28.645  1.00  0.00     0.049 A 
ATOM     49  N   UNL A   1      41.792  29.365  31.495  1.00  0.00    -0.248 NA
ATOM     50  C   UNL A   1      39.928  28.123  32.118  1.00  0.00     0.031 C 
ATOM     51  C   UNL A   1      39.898  28.407  27.329  1.00  0.00     0.029 A 
ATOM     52  N   UNL A   1      41.723  27.925  28.487  1.00  0.00    -0.354 N 
ATOM     53  C   UNL A   1      41.996  28.840  32.770  1.00  0.00     0.074 A 
ATOM     54  C   UNL A   1      40.765  28.196  33.153  1.00  0.00     0.031 C 
ATOM     55  C   UNL A   1      40.614  27.524  26.596  1.00  0.00     0.029 A 
ATOM     56  C   UNL A   1      41.804  27.147  27.338  1.00  0.00     0.049 A 
ATOM     57  H   UNL A   1      42.464  28.015  29.129  1.00  0.00     0.167 HD
ATOM     58  C   UNL A   1      43.219  28.806  33.369  1.00  0.00     0.034 A 
ATOM     59  C   UNL A   1      42.742  26.203  27.081  1.00  0.00     0.034 A 
ATOM     60  C   UNL A   1      44.180  29.650  32.723  1.00  0.00     0.049 A 
ATOM     61  C   UNL A   1      43.912  26.509  27.942  1.00  0.00     0.074 A 
ATOM     62  C   UNL A   1      44.284  31.006  32.483  1.00  0.00     0.029 A 
ATOM     63  N   UNL A   1      45.088  29.049  31.885  1.00  0.00    -0.354 N 
ATOM     64  N   UNL A   1      44.660  27.568  27.797  1.00  0.00    -0.248 NA
ATOM     65  C   UNL A   1      44.012  25.843  29.231  1.00  0.00     0.031 C 
ATOM     66  C   UNL A   1      44.870  31.100  31.187  1.00  0.00     0.029 A 
ATOM     67  C   UNL A   1      45.115  29.800  30.741  1.00  0.00     0.049 A 
ATOM     68  H   UNL A   1      45.614  28.237  32.071  1.00  0.00     0.167 HD
ATOM     69  C   UNL A   1      44.993  27.942  29.092  1.00  0.00     0.074 A 
ATOM     70  C   UNL A   1      44.654  26.789  29.921  1.00  0.00     0.031 C 
ATOM     71  C   UNL A   1      45.244  29.246  29.412  1.00  0.00     0.034 A 
BRANCH  58  72
ATOM     72  C   UNL A   1      43.631  27.774  34.379  1.00  0.00     0.023 A 
ATOM     73  C   UNL A   1      44.114  28.205  35.631  1.00  0.00     0.012 A 
ATOM     74  C   UNL A   1      43.799  26.410  34.049  1.00  0.00     0.148 A 
ATOM     75  C   UNL A   1      44.738  27.316  36.515  1.00  0.00     0.002 A 
ATOM     76  C   UNL A   1      44.352  25.518  34.958  1.00  0.00     0.091 A 
ATOM     77  F   UNL A   1      43.542  25.998  32.803  1.00  0.00    -0.205 F 
ATOM     78  C   UNL A   1      44.842  25.969  36.186  1.00  0.00     0.022 A 
BRANCH  76  79
ATOM     79  S   UNL A   1      44.461  23.766  34.585  1.00  0.00     0.127 S 
ATOM     80  O   UNL A   1      45.414  23.766  33.471  1.00  0.00    -0.237 OA
ATOM     81  O   UNL A   1      44.985  23.222  35.842  1.00  0.00    -0.237 OA
ATOM     82  O   UNL A   1      43.107  23.355  34.276  1.00  0.00    -0.744 OA
ENDBRANCH  76  79
ENDBRANCH  58  72
BRANCH  59  83
ATOM     83  C   UNL A   1      42.621  24.920  26.345  1.00  0.00     0.023 A 
ATOM     84  C   UNL A   1      43.569  24.601  25.351  1.00  0.00     0.012 A 
ATOM     85  C   UNL A   1      41.758  23.890  26.785  1.00  0.00     0.148 A 
ATOM     86  C   UNL A   1      43.683  23.299  24.845  1.00  0.00     0.002 A 
ATOM     87  C   UNL A   1      41.862  22.601  26.266  1.00  0.00     0.091 A 
ATOM     88  F   UNL A   1      40.900  24.140  27.781  1.00  0.00    -0.205 F 
ATOM     89  C   UNL A   1      42.835  22.298  25.307  1.00  0.00     0.022 A 
BRANCH  87  90
ATOM     90  S   UNL A   1      40.797  21.263  26.823  1.00  0.00     0.127 S 
ATOM     91  O   UNL A   1      39.482  21.703  26.355  1.00  0.00    -0.237 OA
ATOM     92  O   UNL A   1      41.349  20.117  26.106  1.00  0.00    -0.237 OA
ATOM     93  O   UNL A   1      40.931  21.232  28.275  1.00  0.00    -0.744 OA
ENDBRANCH  87  90
ENDBRANCH  59  83
BRANCH  71  94
ATOM     94  C   UNL A   1      45.346  30.250  28.293  1.00  0.00     0.023 A 
ATOM     95  C   UNL A   1      44.192  30.806  27.700  1.00  0.00     0.012 A 
ATOM     96  C   UNL A   1      46.600  30.810  28.001  1.00  0.00     0.148 A 
ATOM     97  C   UNL A   1      44.288  31.893  26.830  1.00  0.00     0.002 A 
ATOM     98  C   UNL A   1      46.688  31.918  27.166  1.00  0.00     0.091 A 
ATOM     99  F   UNL A   1      47.682  30.280  28.592  1.00  0.00    -0.205 F 
ATOM    100  C   UNL A   1      45.534  32.459  26.575  1.00  0.00     0.022 A 
BRANCH  98 101
ATOM    101  S   UNL A   1      48.237  32.779  26.888  1.00  0.00     0.127 S 
ATOM    102  O   UNL A   1      48.532  33.314  28.216  1.00  0.00    -0.237 OA
ATOM    103  O   UNL A   1      49.120  31.695  26.455  1.00  0.00    -0.237 OA
ATOM    104  O   UNL A   1      47.968  33.779  25.861  1.00  0.00    -0.744 OA
ENDBRANCH  98 101
ENDBRANCH  71  94
ENDBRANCH  45  46
ENDBRANCH  37  40
ENDBRANCH  35  36
ENDBRANCH   1  35
TORSDOF 18
ENDMDL
MODEL 2
REMARK VINA RESULT:     -12.9      3.582      9.167
REMARK SMILES C[C@H]1CC[C@H]([NH2+]Cc2c(C(=O)NCCCNC(=O)c3ccc(-c4c5nc(c(-c6cccc(S(=O)(=O)[O-])c6F)c6ccc([nH]6)c(-c6cccc(S(=O)(=O)[O-])c6F)c6nc(c(-c7cccc(S(=O)(=O)[O-])c7F)c7ccc4[nH]7)C=C6)C=C5)cc3)n(Cc3ccccc3F)c3ccccc23)CC1
REMARK SMILES IDX 14 1 13 2 12 3 10 4 11 5 9 7 8 8 96 9 82 10 91 11 95 12
REMARK SMILES IDX 92 13 94 14 93 15 7 16 6 17 5 20 1 21 2 22 3 23 98 24 4 25
REMARK SMILES IDX 97 26 83 27 84 28 85 29 89 30 86 31 88 32 90 33 87 34 15 35
REMARK SMILES IDX 16 36 17 37 18 39 19 40 20 41 81 42 21 43 80 44 22 45 23 46
REMARK SMILES IDX 24 47 74 48 25 49 79 50 73 51 75 52 26 53 78 54 72 55 71 56
REMARK SMILES IDX 27 58 59 59 39 60 58 61 40 62 43 63 57 64 76 65 41 66 42 67
REMARK SMILES IDX 56 69 77 70 44 71 28 72 29 73 37 74 30 75 32 76 38 77 31 78
REMARK SMILES IDX 33 79 34 80 35 81 36 82 60 83 61 84 69 85 62 86 64 87 70 88
REMARK SMILES IDX 63 89 65 90 66 91 67 92 68 93 45 94 46 95 54 96 47 97 49 98
REMARK SMILES IDX 55 99 48 100 50 101 51 102 52 103 53 104
REMARK H PARENT 12 6 6 18 6 19 16 38 75 57 43 68
REMARK Flexibility Score: inf
ROOT
ATOM      1  C   UNL A   1      37.369  23.020  25.276  1.00  0.00     0.042 C 
ENDROOT
BRANCH   1   2
ATOM      2  C   UNL A   1      36.282  23.834  25.969  1.00  0.00     0.118 C 
BRANCH   2   3
ATOM      3  N   UNL A   1      35.210  23.107  26.595  1.00  0.00    -0.351 N 
ATOM      4  C   UNL A   1      33.922  22.865  26.163  1.00  0.00     0.268 C 
ATOM      5  O   UNL A   1      33.315  22.065  26.882  1.00  0.00    -0.268 OA
ATOM      6  H   UNL A   1      35.431  22.718  27.473  1.00  0.00     0.163 HD
BRANCH   4   7
ATOM      7  C   UNL A   1      33.277  23.521  25.009  1.00  0.00     0.117 A 
ATOM      8  C   UNL A   1      32.990  23.123  23.687  1.00  0.00     0.045 A 
ATOM      9  C   UNL A   1      32.750  24.330  22.952  1.00  0.00     0.009 A 
ATOM     10  N   UNL A   1      32.591  24.762  25.122  1.00  0.00    -0.331 N 
ATOM     11  C   UNL A   1      32.254  25.245  23.863  1.00  0.00     0.049 A 
ATOM     12  C   UNL A   1      32.741  24.652  21.577  1.00  0.00     0.011 A 
ATOM     13  C   UNL A   1      31.551  26.384  23.426  1.00  0.00     0.027 A 
ATOM     14  C   UNL A   1      32.209  25.871  21.154  1.00  0.00     0.001 A 
ATOM     15  C   UNL A   1      31.578  26.705  22.066  1.00  0.00     0.002 A 
BRANCH   8  16
ATOM     16  C   UNL A   1      32.883  21.814  22.952  1.00  0.00     0.300 C 
BRANCH  16  17
ATOM     17  N   UNL A   1      32.294  20.703  23.668  1.00  0.00    -0.340 N 
ATOM     18  H   UNL A   1      31.990  21.082  24.564  1.00  0.00     0.346 HD
ATOM     19  H   UNL A   1      31.617  20.370  22.980  1.00  0.00     0.346 HD
BRANCH  17  20
ATOM     20  C   UNL A   1      32.995  19.462  23.983  1.00  0.00     0.182 C 
ATOM     21  C   UNL A   1      32.920  15.253  25.378  1.00  0.00     0.007 C 
ATOM     22  C   UNL A   1      32.564  16.642  24.869  1.00  0.00    -0.014 C 
ATOM     23  C   UNL A   1      33.282  16.958  23.554  1.00  0.00     0.009 C 
ATOM     24  C   UNL A   1      32.902  17.723  25.895  1.00  0.00     0.009 C 
ATOM     25  C   UNL A   1      32.797  18.296  23.011  1.00  0.00     0.065 C 
ATOM     26  C   UNL A   1      32.468  19.094  25.392  1.00  0.00     0.065 C 
ENDBRANCH  17  20
ENDBRANCH  16  17
ENDBRANCH   8  16
BRANCH  10  27
ATOM     27  C   UNL A   1      32.151  25.432  26.358  1.00  0.00     0.161 C 
BRANCH  27  28
ATOM     28  C   UNL A   1      32.639  26.855  26.522  1.00  0.00     0.008 A 
ATOM     29  C   UNL A   1      33.909  27.274  26.086  1.00  0.00     0.008 A 
ATOM     30  C   UNL A   1      31.799  27.839  27.048  1.00  0.00     0.128 A 
ATOM     31  C   UNL A   1      34.334  28.598  26.215  1.00  0.00     0.001 A 
ATOM     32  C   UNL A   1      32.219  29.163  27.195  1.00  0.00     0.039 A 
ATOM     33  F   UNL A   1      30.536  27.541  27.385  1.00  0.00    -0.207 F 
ATOM     34  C   UNL A   1      33.493  29.543  26.785  1.00  0.00     0.003 A 
ENDBRANCH  27  28
ENDBRANCH  10  27
ENDBRANCH   4   7
ENDBRANCH   2   3
ENDBRANCH   1   2
BRANCH   1  35
ATOM     35  C   UNL A   1      38.344  22.266  26.200  1.00  0.00     0.118 C 
BRANCH  35  36
ATOM     36  N   UNL A   1      39.767  22.436  25.938  1.00  0.00    -0.352 N 
ATOM     37  C   UNL A   1      40.804  22.921  26.697  1.00  0.00     0.251 C 
ATOM     38  H   UNL A   1      40.040  22.146  25.038  1.00  0.00     0.163 HD
ATOM     39  O   UNL A   1      41.908  22.400  26.523  1.00  0.00    -0.269 OA
BRANCH  37  40
ATOM     40  C   UNL A   1      40.701  24.111  27.581  1.00  0.00     0.039 A 
ATOM     41  C   UNL A   1      39.599  24.961  27.595  1.00  0.00     0.014 A 
ATOM     42  C   UNL A   1      41.859  24.487  28.290  1.00  0.00     0.014 A 
ATOM     43  C   UNL A   1      39.686  26.209  28.198  1.00  0.00     0.010 A 
ATOM     44  C   UNL A   1      41.946  25.730  28.909  1.00  0.00     0.010 A 
ATOM     45  C   UNL A   1      40.876  26.612  28.809  1.00  0.00    -0.014 A 
BRANCH  45  46
ATOM     46  C   UNL A   1      40.912  27.958  29.368  1.00  0.00     0.031 A 
ATOM     47  C   UNL A   1      41.885  28.886  28.728  1.00  0.00     0.074 A 
ATOM     48  C   UNL A   1      40.095  28.381  30.354  1.00  0.00     0.049 A 
ATOM     49  N   UNL A   1      42.941  29.423  29.252  1.00  0.00    -0.248 NA
ATOM     50  C   UNL A   1      41.719  29.153  27.293  1.00  0.00     0.031 C 
ATOM     51  C   UNL A   1      38.918  27.714  30.913  1.00  0.00     0.029 A 
ATOM     52  N   UNL A   1      40.094  29.589  30.983  1.00  0.00    -0.354 N 
ATOM     53  C   UNL A   1      43.474  30.247  28.262  1.00  0.00     0.074 A 
ATOM     54  C   UNL A   1      42.765  29.942  27.045  1.00  0.00     0.031 C 
ATOM     55  C   UNL A   1      38.185  28.620  31.599  1.00  0.00     0.029 A 
ATOM     56  C   UNL A   1      38.903  29.881  31.635  1.00  0.00     0.049 A 
ATOM     57  H   UNL A   1      40.867  30.199  30.975  1.00  0.00     0.167 HD
ATOM     58  C   UNL A   1      44.343  31.261  28.532  1.00  0.00     0.034 A 
ATOM     59  C   UNL A   1      38.519  31.103  32.082  1.00  0.00     0.034 A 
ATOM     60  C   UNL A   1      44.905  31.178  29.848  1.00  0.00     0.049 A 
ATOM     61  C   UNL A   1      39.752  31.914  32.235  1.00  0.00     0.074 A 
ATOM     62  C   UNL A   1      45.693  30.263  30.516  1.00  0.00     0.029 A 
ATOM     63  N   UNL A   1      44.374  31.996  30.815  1.00  0.00    -0.354 N 
ATOM     64  N   UNL A   1      40.677  31.668  33.121  1.00  0.00    -0.248 NA
ATOM     65  C   UNL A   1      40.156  32.768  31.128  1.00  0.00     0.031 C 
ATOM     66  C   UNL A   1      45.200  30.268  31.853  1.00  0.00     0.029 A 
ATOM     67  C   UNL A   1      44.170  31.209  31.917  1.00  0.00     0.049 A 
ATOM     68  H   UNL A   1      44.178  32.957  30.732  1.00  0.00     0.167 HD
ATOM     69  C   UNL A   1      41.869  31.971  32.477  1.00  0.00     0.074 A 
ATOM     70  C   UNL A   1      41.481  32.739  31.297  1.00  0.00     0.031 C 
ATOM     71  C   UNL A   1      43.033  31.336  32.802  1.00  0.00     0.034 A 
BRANCH  58  72
ATOM     72  C   UNL A   1      44.465  32.505  27.701  1.00  0.00     0.023 A 
ATOM     73  C   UNL A   1      45.543  32.617  26.800  1.00  0.00     0.012 A 
ATOM     74  C   UNL A   1      43.706  33.669  27.957  1.00  0.00     0.148 A 
ATOM     75  C   UNL A   1      45.852  33.835  26.183  1.00  0.00     0.002 A 
ATOM     76  C   UNL A   1      43.971  34.856  27.287  1.00  0.00     0.091 A 
ATOM     77  F   UNL A   1      42.807  33.665  28.947  1.00  0.00    -0.205 F 
ATOM     78  C   UNL A   1      45.056  34.951  26.413  1.00  0.00     0.022 A 
BRANCH  76  79
ATOM     79  S   UNL A   1      42.937  36.304  27.526  1.00  0.00     0.127 S 
ATOM     80  O   UNL A   1      43.083  36.530  28.967  1.00  0.00    -0.237 OA
ATOM     81  O   UNL A   1      43.606  37.296  26.678  1.00  0.00    -0.237 OA
ATOM     82  O   UNL A   1      41.620  35.915  27.063  1.00  0.00    -0.744 OA
ENDBRANCH  76  79
ENDBRANCH  58  72
BRANCH  59  83
ATOM     83  C   UNL A   1      37.165  31.707  32.149  1.00  0.00     0.023 A 
ATOM     84  C   UNL A   1      36.639  32.085  33.401  1.00  0.00     0.012 A 
ATOM     85  C   UNL A   1      36.498  32.164  30.990  1.00  0.00     0.148 A 
ATOM     86  C   UNL A   1      35.518  32.921  33.497  1.00  0.00     0.002 A 
ATOM     87  C   UNL A   1      35.373  32.980  31.088  1.00  0.00     0.091 A 
ATOM     88  F   UNL A   1      37.017  31.887  29.787  1.00  0.00    -0.205 F 
ATOM     89  C   UNL A   1      34.889  33.374  32.341  1.00  0.00     0.022 A 
BRANCH  87  90
ATOM     90  S   UNL A   1      34.516  33.598  29.633  1.00  0.00     0.127 S 
ATOM     91  O   UNL A   1      33.416  34.361  30.224  1.00  0.00    -0.237 OA
ATOM     92  O   UNL A   1      35.549  34.408  28.994  1.00  0.00    -0.237 OA
ATOM     93  O   UNL A   1      34.089  32.414  28.896  1.00  0.00    -0.744 OA
ENDBRANCH  87  90
ENDBRANCH  59  83
BRANCH  71  94
ATOM     94  C   UNL A   1      43.044  30.434  34.009  1.00  0.00     0.023 A 
ATOM     95  C   UNL A   1      43.288  30.942  35.302  1.00  0.00     0.012 A 
ATOM     96  C   UNL A   1      42.574  29.117  33.871  1.00  0.00     0.148 A 
ATOM     97  C   UNL A   1      43.074  30.153  36.434  1.00  0.00     0.002 A 
ATOM     98  C   UNL A   1      42.325  28.348  35.002  1.00  0.00     0.091 A 
ATOM     99  F   UNL A   1      42.329  28.660  32.634  1.00  0.00    -0.205 F 
ATOM    100  C   UNL A   1      42.578  28.861  36.285  1.00  0.00     0.022 A 
BRANCH  98 101
ATOM    101  S   UNL A   1      41.570  26.723  34.899  1.00  0.00     0.127 S 
ATOM    102  O   UNL A   1      41.218  26.461  36.293  1.00  0.00    -0.237 OA
ATOM    103  O   UNL A   1      40.427  26.968  34.016  1.00  0.00    -0.237 OA
ATOM    104  O   UNL A   1      42.583  25.838  34.336  1.00  0.00    -0.744 OA
ENDBRANCH  98 101
ENDBRANCH  71  94
ENDBRANCH  45  46
ENDBRANCH  37  40
ENDBRANCH  35  36
ENDBRANCH   1  35
TORSDOF 18
ENDMDL
MODEL 3
REMARK VINA RESULT:     -12.8      3.259      8.814
REMARK SMILES C[C@H]1CC[C@H]([NH2+]Cc2c(C(=O)NCCCNC(=O)c3ccc(-c4c5nc(c(-c6cccc(S(=O)(=O)[O-])c6F)c6ccc([nH]6)c(-c6cccc(S(=O)(=O)[O-])c6F)c6nc(c(-c7cccc(S(=O)(=O)[O-])c7F)c7ccc4[nH]7)C=C6)C=C5)cc3)n(Cc3ccccc3F)c3ccccc23)CC1
REMARK SMILES IDX 14 1 13 2 12 3 10 4 11 5 9 7 8 8 96 9 82 10 91 11 95 12
REMARK SMILES IDX 92 13 94 14 93 15 7 16 6 17 5 20 1 21 2 22 3 23 98 24 4 25
REMARK SMILES IDX 97 26 83 27 84 28 85 29 89 30 86 31 88 32 90 33 87 34 15 35
REMARK SMILES IDX 16 36 17 37 18 39 19 40 20 41 81 42 21 43 80 44 22 45 23 46
REMARK SMILES IDX 24 47 74 48 25 49 79 50 73 51 75 52 26 53 78 54 72 55 71 56
REMARK SMILES IDX 27 58 59 59 39 60 58 61 40 62 43 63 57 64 76 65 41 66 42 67
REMARK SMILES IDX 56 69 77 70 44 71 28 72 29 73 37 74 30 75 32 76 38 77 31 78
REMARK SMILES IDX 33 79 34 80 35 81 36 82 60 83 61 84 69 85 62 86 64 87 70 88
REMARK SMILES IDX 63 89 65 90 66 91 67 92 68 93 45 94 46 95 54 96 47 97 49 98
REMARK SMILES IDX 55 99 48 100 50 101 51 102 52 103 53 104
REMARK H PARENT 12 6 6 18 6 19 16 38 75 57 43 68
REMARK Flexibility Score: inf
ROOT
ATOM      1  C   UNL A   1      36.197  22.646  24.941  1.00  0.00     0.042 C 
ENDROOT
BRANCH   1   2
ATOM      2  C   UNL A   1      35.555  23.806  25.694  1.00  0.00     0.118 C 
BRANCH   2   3
ATOM      3  N   UNL A   1      34.467  23.495  26.583  1.00  0.00    -0.351 N 
ATOM      4  C   UNL A   1      33.107  23.670  26.424  1.00  0.00     0.268 C 
ATOM      5  O   UNL A   1      32.447  23.143  27.325  1.00  0.00    -0.268 OA
ATOM      6  H   UNL A   1      34.735  23.093  27.441  1.00  0.00     0.163 HD
BRANCH   4   7
ATOM      7  C   UNL A   1      32.471  24.452  25.347  1.00  0.00     0.117 A 
ATOM      8  C   UNL A   1      31.954  24.131  24.075  1.00  0.00     0.045 A 
ATOM      9  C   UNL A   1      31.872  25.369  23.356  1.00  0.00     0.009 A 
ATOM     10  N   UNL A   1      32.064  25.803  25.523  1.00  0.00    -0.331 N 
ATOM     11  C   UNL A   1      31.681  26.355  24.306  1.00  0.00     0.049 A 
ATOM     12  C   UNL A   1      31.762  25.700  21.988  1.00  0.00     0.011 A 
ATOM     13  C   UNL A   1      31.171  27.616  23.940  1.00  0.00     0.027 A 
ATOM     14  C   UNL A   1      31.436  27.005  21.613  1.00  0.00     0.001 A 
ATOM     15  C   UNL A   1      31.097  27.938  22.582  1.00  0.00     0.002 A 
BRANCH   8  16
ATOM     16  C   UNL A   1      31.501  22.877  23.377  1.00  0.00     0.300 C 
BRANCH  16  17
ATOM     17  N   UNL A   1      32.496  21.848  23.162  1.00  0.00    -0.340 N 
ATOM     18  H   UNL A   1      32.554  21.727  22.151  1.00  0.00     0.346 HD
ATOM     19  H   UNL A   1      33.281  22.228  23.693  1.00  0.00     0.346 HD
BRANCH  17  20
ATOM     20  C   UNL A   1      32.419  20.500  23.716  1.00  0.00     0.182 C 
ATOM     21  C   UNL A   1      33.784  16.281  23.766  1.00  0.00     0.007 C 
ATOM     22  C   UNL A   1      33.636  17.778  23.536  1.00  0.00    -0.014 C 
ATOM     23  C   UNL A   1      33.611  18.548  24.859  1.00  0.00     0.009 C 
ATOM     24  C   UNL A   1      32.369  18.104  22.745  1.00  0.00     0.009 C 
ATOM     25  C   UNL A   1      33.597  20.046  24.583  1.00  0.00     0.065 C 
ATOM     26  C   UNL A   1      32.282  19.599  22.465  1.00  0.00     0.065 C 
ENDBRANCH  17  20
ENDBRANCH  16  17
ENDBRANCH   8  16
BRANCH  10  27
ATOM     27  C   UNL A   1      31.918  26.536  26.793  1.00  0.00     0.161 C 
BRANCH  27  28
ATOM     28  C   UNL A   1      32.778  27.775  26.919  1.00  0.00     0.008 A 
ATOM     29  C   UNL A   1      34.123  27.805  26.511  1.00  0.00     0.008 A 
ATOM     30  C   UNL A   1      32.232  28.976  27.377  1.00  0.00     0.128 A 
ATOM     31  C   UNL A   1      34.897  28.965  26.604  1.00  0.00     0.001 A 
ATOM     32  C   UNL A   1      33.000  30.137  27.487  1.00  0.00     0.039 A 
ATOM     33  F   UNL A   1      30.929  29.055  27.681  1.00  0.00    -0.207 F 
ATOM     34  C   UNL A   1      34.338  30.131  27.108  1.00  0.00     0.003 A 
ENDBRANCH  27  28
ENDBRANCH  10  27
ENDBRANCH   4   7
ENDBRANCH   2   3
ENDBRANCH   1   2
BRANCH   1  35
ATOM     35  C   UNL A   1      37.099  21.713  25.773  1.00  0.00     0.118 C 
BRANCH  35  36
ATOM     36  N   UNL A   1      38.511  21.671  25.418  1.00  0.00    -0.352 N 
ATOM     37  C   UNL A   1      39.653  22.021  26.094  1.00  0.00     0.251 C 
ATOM     38  H   UNL A   1      38.679  21.322  24.513  1.00  0.00     0.163 HD
ATOM     39  O   UNL A   1      40.659  21.343  25.870  1.00  0.00    -0.269 OA
BRANCH  37  40
ATOM     40  C   UNL A   1      39.779  23.237  26.941  1.00  0.00     0.039 A 
ATOM     41  C   UNL A   1      38.979  24.364  26.784  1.00  0.00     0.014 A 
ATOM     42  C   UNL A   1      40.887  23.303  27.808  1.00  0.00     0.014 A 
ATOM     43  C   UNL A   1      39.339  25.566  27.380  1.00  0.00     0.010 A 
ATOM     44  C   UNL A   1      41.244  24.501  28.421  1.00  0.00     0.010 A 
ATOM     45  C   UNL A   1      40.499  25.645  28.155  1.00  0.00    -0.014 A 
BRANCH  45  46
ATOM     46  C   UNL A   1      40.845  26.952  28.699  1.00  0.00     0.031 A 
ATOM     47  C   UNL A   1      42.137  27.518  28.219  1.00  0.00     0.074 A 
ATOM     48  C   UNL A   1      40.049  27.650  29.533  1.00  0.00     0.049 A 
ATOM     49  N   UNL A   1      43.210  27.755  28.905  1.00  0.00    -0.248 NA
ATOM     50  C   UNL A   1      42.281  27.739  26.774  1.00  0.00     0.031 C 
ATOM     51  C   UNL A   1      38.656  27.388  29.898  1.00  0.00     0.029 A 
ATOM     52  N   UNL A   1      40.309  28.841  30.142  1.00  0.00    -0.354 N 
ATOM     53  C   UNL A   1      44.109  28.329  28.008  1.00  0.00     0.074 A 
ATOM     54  C   UNL A   1      43.539  28.173  26.694  1.00  0.00     0.031 C 
ATOM     55  C   UNL A   1      38.127  28.506  30.445  1.00  0.00     0.029 A 
ATOM     56  C   UNL A   1      39.172  29.504  30.587  1.00  0.00     0.049 A 
ATOM     57  H   UNL A   1      41.219  29.198  30.256  1.00  0.00     0.167 HD
ATOM     58  C   UNL A   1      45.187  29.060  28.407  1.00  0.00     0.034 A 
ATOM     59  C   UNL A   1      39.103  30.808  30.953  1.00  0.00     0.034 A 
ATOM     60  C   UNL A   1      45.489  28.893  29.798  1.00  0.00     0.049 A 
ATOM     61  C   UNL A   1      40.482  31.234  31.298  1.00  0.00     0.074 A 
ATOM     62  C   UNL A   1      45.858  27.829  30.596  1.00  0.00     0.029 A 
ATOM     63  N   UNL A   1      45.082  29.885  30.658  1.00  0.00    -0.354 N 
ATOM     64  N   UNL A   1      41.144  30.780  32.327  1.00  0.00    -0.248 NA
ATOM     65  C   UNL A   1      41.287  31.867  30.265  1.00  0.00     0.031 C 
ATOM     66  C   UNL A   1      45.188  28.055  31.833  1.00  0.00     0.029 A 
ATOM     67  C   UNL A   1      44.486  29.257  31.719  1.00  0.00     0.049 A 
ATOM     68  H   UNL A   1      45.195  30.855  30.534  1.00  0.00     0.167 HD
ATOM     69  C   UNL A   1      42.457  30.686  31.885  1.00  0.00     0.074 A 
ATOM     70  C   UNL A   1      42.501  31.464  30.650  1.00  0.00     0.031 C 
ATOM     71  C   UNL A   1      43.316  29.759  32.403  1.00  0.00     0.034 A 
BRANCH  58  72
ATOM     72  C   UNL A   1      45.799  30.165  27.596  1.00  0.00     0.023 A 
ATOM     73  C   UNL A   1      47.204  30.271  27.544  1.00  0.00     0.012 A 
ATOM     74  C   UNL A   1      45.045  31.249  27.094  1.00  0.00     0.148 A 
ATOM     75  C   UNL A   1      47.829  31.407  27.015  1.00  0.00     0.002 A 
ATOM     76  C   UNL A   1      45.668  32.341  26.504  1.00  0.00     0.091 A 
ATOM     77  F   UNL A   1      43.724  31.285  27.303  1.00  0.00    -0.205 F 
ATOM     78  C   UNL A   1      47.061  32.435  26.480  1.00  0.00     0.022 A 
BRANCH  76  79
ATOM     79  S   UNL A   1      44.709  33.665  25.764  1.00  0.00     0.127 S 
ATOM     80  O   UNL A   1      44.123  34.297  26.950  1.00  0.00    -0.237 OA
ATOM     81  O   UNL A   1      45.749  34.455  25.098  1.00  0.00    -0.237 OA
ATOM     82  O   UNL A   1      43.787  33.010  24.858  1.00  0.00    -0.744 OA
ENDBRANCH  76  79
ENDBRANCH  58  72
BRANCH  59  83
ATOM     83  C   UNL A   1      37.996  31.782  30.790  1.00  0.00     0.023 A 
ATOM     84  C   UNL A   1      37.473  32.027  29.504  1.00  0.00     0.012 A 
ATOM     85  C   UNL A   1      37.267  32.269  31.899  1.00  0.00     0.148 A 
ATOM     86  C   UNL A   1      36.252  32.692  29.328  1.00  0.00     0.002 A 
ATOM     87  C   UNL A   1      36.062  32.946  31.721  1.00  0.00     0.091 A 
ATOM     88  F   UNL A   1      37.695  31.987  33.136  1.00  0.00    -0.205 F 
ATOM     89  C   UNL A   1      35.543  33.145  30.436  1.00  0.00     0.022 A 
BRANCH  87  90
ATOM     90  S   UNL A   1      35.099  33.556  33.111  1.00  0.00     0.127 S 
ATOM     91  O   UNL A   1      35.342  34.997  33.046  1.00  0.00    -0.237 OA
ATOM     92  O   UNL A   1      33.745  33.146  32.747  1.00  0.00    -0.237 OA
ATOM     93  O   UNL A   1      35.662  32.911  34.292  1.00  0.00    -0.744 OA
ENDBRANCH  87  90
ENDBRANCH  59  83
BRANCH  71  94
ATOM     94  C   UNL A   1      42.872  28.965  33.604  1.00  0.00     0.023 A 
ATOM     95  C   UNL A   1      41.891  27.957  33.494  1.00  0.00     0.012 A 
ATOM     96  C   UNL A   1      43.611  29.071  34.794  1.00  0.00     0.148 A 
ATOM     97  C   UNL A   1      41.647  27.077  34.550  1.00  0.00     0.002 A 
ATOM     98  C   UNL A   1      43.393  28.168  35.828  1.00  0.00     0.091 A 
ATOM     99  F   UNL A   1      44.553  30.023  34.870  1.00  0.00    -0.205 F 
ATOM    100  C   UNL A   1      42.409  27.172  35.711  1.00  0.00     0.022 A 
BRANCH  98 101
ATOM    101  S   UNL A   1      44.416  28.145  37.302  1.00  0.00     0.127 S 
ATOM    102  O   UNL A   1      44.188  29.480  37.852  1.00  0.00    -0.237 OA
ATOM    103  O   UNL A   1      43.819  27.055  38.076  1.00  0.00    -0.237 OA
ATOM    104  O   UNL A   1      45.777  27.883  36.849  1.00  0.00    -0.744 OA
ENDBRANCH  98 101
ENDBRANCH  71  94
ENDBRANCH  45  46
ENDBRANCH  37  40
ENDBRANCH  35  36
ENDBRANCH   1  35
TORSDOF 18
ENDMDL
