MODEL 1
REMARK VINA RESULT:     -12.8      0.000      0.000
REMARK SMILES O=C(CC1(NC(=O)C2(c3ccccc3)CC2)CCC1)NCCCNC(=O)c1ccc(-c2c3nc(c(-c4cccc(S(=O)(=O)[O-])c4F)c4ccc([nH]4)c(-c4cccc(S(=O)(=O)[O-])c4F)c4nc(c(-c5cccc(S(=O)(=O)[O-])c5F)c5ccc2[nH]5)C=C4)C=C3)cc1
REMARK SMILES IDX 21 1 20 2 1 3 2 4 3 6 4 7 17 8 19 9 18 10 5 11 6 12 7 14
REMARK SMILES IDX 8 15 15 16 16 17 9 18 10 19 14 20 11 21 13 22 12 23 22 24
REMARK SMILES IDX 23 25 24 26 25 27 26 29 27 30 28 31 89 32 29 33 88 34 30 35
REMARK SMILES IDX 31 36 32 37 82 38 33 39 87 40 81 41 83 42 34 43 86 44 80 45
REMARK SMILES IDX 79 46 35 48 67 49 47 50 66 51 48 52 51 53 65 54 84 55 49 56
REMARK SMILES IDX 50 57 64 59 85 60 52 61 36 62 37 63 45 64 38 65 40 66 46 67
REMARK SMILES IDX 39 68 41 69 42 70 43 71 44 72 68 73 69 74 77 75 70 76 72 77
REMARK SMILES IDX 78 78 71 79 73 80 74 81 75 82 76 83 53 84 54 85 62 86 55 87
REMARK SMILES IDX 57 88 63 89 56 90 58 91 59 92 60 93 61 94
REMARK H PARENT 20 5 5 13 24 28 83 47 51 58
REMARK Flexibility Score: inf
ROOT
ATOM      1  C   UNL A   1      31.746  28.204  26.740  1.00  0.00     0.117 C 
ENDROOT
BRANCH   1   2
ATOM      2  N   UNL A   1      32.562  27.849  25.583  1.00  0.00    -0.356 N 
ATOM      3  O   UNL A   1      34.356  27.808  26.647  1.00  0.00    -0.275 OA
ATOM      4  C   UNL A   1      33.803  27.080  25.752  1.00  0.00     0.222 C 
ATOM      5  H   UNL A   1      32.279  28.126  24.683  1.00  0.00     0.163 HD
BRANCH   4   6
ATOM      6  C   UNL A   1      34.482  25.222  24.812  1.00  0.00     0.128 C 
BRANCH   6   7
ATOM      7  C   UNL A   1      35.037  23.680  25.488  1.00  0.00     0.049 C 
ATOM      8  C   UNL A   1      35.620  22.477  24.625  1.00  0.00     0.029 C 
ATOM      9  C   UNL A   1      36.546  23.927  25.940  1.00  0.00     0.029 C 
ATOM     10  C   UNL A   1      37.049  22.905  24.928  1.00  0.00     0.005 C 
BRANCH   7  11
ATOM     11  N   UNL A   1      34.339  23.145  26.732  1.00  0.00    -0.349 N 
ATOM     12  C   UNL A   1      33.112  22.599  27.029  1.00  0.00     0.231 C 
ATOM     13  H   UNL A   1      34.914  23.207  27.529  1.00  0.00     0.164 HD
ATOM     14  O   UNL A   1      32.878  22.304  28.201  1.00  0.00    -0.274 OA
BRANCH  12  15
ATOM     15  C   UNL A   1      32.092  22.355  25.956  1.00  0.00     0.074 C 
ATOM     16  C   UNL A   1      30.619  22.450  26.315  1.00  0.00     0.023 C 
ATOM     17  C   UNL A   1      31.248  23.536  25.496  1.00  0.00     0.023 C 
BRANCH  15  18
ATOM     18  C   UNL A   1      32.514  21.318  24.967  1.00  0.00    -0.032 A 
ATOM     19  C   UNL A   1      32.217  21.687  23.201  1.00  0.00     0.005 A 
ATOM     20  C   UNL A   1      32.809  19.604  25.474  1.00  0.00     0.005 A 
ATOM     21  C   UNL A   1      32.036  20.336  22.024  1.00  0.00     0.000 A 
ATOM     22  C   UNL A   1      32.576  18.278  24.290  1.00  0.00     0.000 A 
ATOM     23  C   UNL A   1      32.172  18.631  22.560  1.00  0.00     0.000 A 
ENDBRANCH  15  18
ENDBRANCH  12  15
ENDBRANCH   7  11
ENDBRANCH   6   7
ENDBRANCH   4   6
ENDBRANCH   1   2
BRANCH   1  24
ATOM     24  C   UNL A   1      31.443  29.691  26.858  1.00  0.00     0.042 C 
BRANCH  24  25
ATOM     25  C   UNL A   1      32.580  30.638  26.498  1.00  0.00     0.118 C 
BRANCH  25  26
ATOM     26  N   UNL A   1      32.405  32.028  26.896  1.00  0.00    -0.352 N 
ATOM     27  C   UNL A   1      33.316  32.802  27.590  1.00  0.00     0.251 C 
ATOM     28  H   UNL A   1      31.555  32.458  26.646  1.00  0.00     0.163 HD
ATOM     29  O   UNL A   1      33.056  33.955  27.915  1.00  0.00    -0.269 OA
BRANCH  27  30
ATOM     30  C   UNL A   1      34.609  32.183  27.971  1.00  0.00     0.039 A 
ATOM     31  C   UNL A   1      35.762  32.968  27.984  1.00  0.00     0.014 A 
ATOM     32  C   UNL A   1      34.640  30.870  28.450  1.00  0.00     0.014 A 
ATOM     33  C   UNL A   1      36.933  32.455  28.550  1.00  0.00     0.010 A 
ATOM     34  C   UNL A   1      35.779  30.401  29.098  1.00  0.00     0.010 A 
ATOM     35  C   UNL A   1      36.942  31.183  29.152  1.00  0.00    -0.014 A 
BRANCH  35  36
ATOM     36  C   UNL A   1      38.159  30.675  29.844  1.00  0.00     0.031 A 
ATOM     37  C   UNL A   1      38.502  31.149  31.232  1.00  0.00     0.074 A 
ATOM     38  C   UNL A   1      38.986  29.822  29.206  1.00  0.00     0.049 A 
ATOM     39  N   UNL A   1      39.492  30.782  32.005  1.00  0.00    -0.248 NA
ATOM     40  C   UNL A   1      37.643  32.189  31.820  1.00  0.00     0.031 C 
ATOM     41  C   UNL A   1      38.830  29.363  27.823  1.00  0.00     0.029 A 
ATOM     42  N   UNL A   1      40.131  29.194  29.631  1.00  0.00    -0.354 N 
ATOM     43  C   UNL A   1      39.387  31.558  33.153  1.00  0.00     0.074 A 
ATOM     44  C   UNL A   1      38.271  32.455  32.955  1.00  0.00     0.031 C 
ATOM     45  C   UNL A   1      39.821  28.507  27.526  1.00  0.00     0.029 A 
ATOM     46  C   UNL A   1      40.700  28.373  28.684  1.00  0.00     0.049 A 
ATOM     47  H   UNL A   1      40.510  29.319  30.531  1.00  0.00     0.167 HD
ATOM     48  C   UNL A   1      40.125  31.507  34.287  1.00  0.00     0.034 A 
ATOM     49  C   UNL A   1      41.798  27.593  28.742  1.00  0.00     0.034 A 
ATOM     50  C   UNL A   1      41.215  30.593  34.498  1.00  0.00     0.049 A 
ATOM     51  C   UNL A   1      42.573  27.519  30.031  1.00  0.00     0.074 A 
ATOM     52  C   UNL A   1      41.968  30.403  35.643  1.00  0.00     0.029 A 
ATOM     53  N   UNL A   1      41.715  29.724  33.540  1.00  0.00    -0.354 N 
ATOM     54  N   UNL A   1      42.351  28.134  31.166  1.00  0.00    -0.248 NA
ATOM     55  C   UNL A   1      43.728  26.607  30.059  1.00  0.00     0.031 C 
ATOM     56  C   UNL A   1      42.947  29.443  35.366  1.00  0.00     0.029 A 
ATOM     57  C   UNL A   1      42.775  29.004  34.063  1.00  0.00     0.049 A 
ATOM     58  H   UNL A   1      41.367  29.633  32.624  1.00  0.00     0.167 HD
ATOM     59  C   UNL A   1      43.309  27.658  32.053  1.00  0.00     0.074 A 
ATOM     60  C   UNL A   1      44.099  26.684  31.329  1.00  0.00     0.031 C 
ATOM     61  C   UNL A   1      43.526  28.005  33.346  1.00  0.00     0.034 A 
BRANCH  48  62
ATOM     62  C   UNL A   1      39.746  32.439  35.410  1.00  0.00     0.023 A 
ATOM     63  C   UNL A   1      38.966  31.958  36.483  1.00  0.00     0.012 A 
ATOM     64  C   UNL A   1      40.200  33.772  35.432  1.00  0.00     0.148 A 
ATOM     65  C   UNL A   1      38.612  32.797  37.539  1.00  0.00     0.002 A 
ATOM     66  C   UNL A   1      39.885  34.588  36.512  1.00  0.00     0.091 A 
ATOM     67  F   UNL A   1      40.922  34.218  34.394  1.00  0.00    -0.205 F 
ATOM     68  C   UNL A   1      39.081  34.108  37.558  1.00  0.00     0.022 A 
BRANCH  66  69
ATOM     69  S   UNL A   1      40.506  36.266  36.674  1.00  0.00     0.127 S 
ATOM     70  O   UNL A   1      39.965  36.897  35.471  1.00  0.00    -0.237 OA
ATOM     71  O   UNL A   1      39.885  36.703  37.924  1.00  0.00    -0.237 OA
ATOM     72  O   UNL A   1      41.957  36.156  36.720  1.00  0.00    -0.744 OA
ENDBRANCH  66  69
ENDBRANCH  48  62
BRANCH  49  73
ATOM     73  C   UNL A   1      42.193  26.764  27.567  1.00  0.00     0.023 A 
ATOM     74  C   UNL A   1      42.923  27.351  26.514  1.00  0.00     0.012 A 
ATOM     75  C   UNL A   1      41.859  25.399  27.490  1.00  0.00     0.148 A 
ATOM     76  C   UNL A   1      43.279  26.604  25.391  1.00  0.00     0.002 A 
ATOM     77  C   UNL A   1      42.267  24.646  26.396  1.00  0.00     0.091 A 
ATOM     78  F   UNL A   1      41.155  24.862  28.497  1.00  0.00    -0.205 F 
ATOM     79  C   UNL A   1      42.959  25.250  25.335  1.00  0.00     0.022 A 
BRANCH  77  80
ATOM     80  S   UNL A   1      42.014  22.871  26.301  1.00  0.00     0.127 S 
ATOM     81  O   UNL A   1      42.634  22.548  25.018  1.00  0.00    -0.237 OA
ATOM     82  O   UNL A   1      42.749  22.401  27.477  1.00  0.00    -0.237 OA
ATOM     83  O   UNL A   1      40.573  22.673  26.376  1.00  0.00    -0.744 OA
ENDBRANCH  77  80
ENDBRANCH  49  73
BRANCH  61  84
ATOM     84  C   UNL A   1      44.634  27.297  34.082  1.00  0.00     0.023 A 
ATOM     85  C   UNL A   1      45.949  27.803  34.039  1.00  0.00     0.012 A 
ATOM     86  C   UNL A   1      44.359  26.157  34.864  1.00  0.00     0.148 A 
ATOM     87  C   UNL A   1      46.980  27.159  34.722  1.00  0.00     0.002 A 
ATOM     88  C   UNL A   1      45.381  25.553  35.587  1.00  0.00     0.091 A 
ATOM     89  F   UNL A   1      43.106  25.680  34.881  1.00  0.00    -0.205 F 
ATOM     90  C   UNL A   1      46.694  26.043  35.504  1.00  0.00     0.022 A 
BRANCH  88  91
ATOM     91  S   UNL A   1      45.086  24.175  36.699  1.00  0.00     0.127 S 
ATOM     92  O   UNL A   1      46.437  23.882  37.175  1.00  0.00    -0.237 OA
ATOM     93  O   UNL A   1      44.201  24.769  37.702  1.00  0.00    -0.237 OA
ATOM     94  O   UNL A   1      44.467  23.132  35.891  1.00  0.00    -0.744 OA
ENDBRANCH  88  91
ENDBRANCH  61  84
ENDBRANCH  35  36
ENDBRANCH  27  30
ENDBRANCH  25  26
ENDBRANCH  24  25
ENDBRANCH   1  24
TORSDOF 17
ENDMDL
MODEL 2
REMARK VINA RESULT:     -12.5      2.593      8.188
REMARK SMILES O=C(CC1(NC(=O)C2(c3ccccc3)CC2)CCC1)NCCCNC(=O)c1ccc(-c2c3nc(c(-c4cccc(S(=O)(=O)[O-])c4F)c4ccc([nH]4)c(-c4cccc(S(=O)(=O)[O-])c4F)c4nc(c(-c5cccc(S(=O)(=O)[O-])c5F)c5ccc2[nH]5)C=C4)C=C3)cc1
REMARK SMILES IDX 21 1 20 2 1 3 2 4 3 6 4 7 17 8 19 9 18 10 5 11 6 12 7 14
REMARK SMILES IDX 8 15 15 16 16 17 9 18 10 19 14 20 11 21 13 22 12 23 22 24
REMARK SMILES IDX 23 25 24 26 25 27 26 29 27 30 28 31 89 32 29 33 88 34 30 35
REMARK SMILES IDX 31 36 32 37 82 38 33 39 87 40 81 41 83 42 34 43 86 44 80 45
REMARK SMILES IDX 79 46 35 48 67 49 47 50 66 51 48 52 51 53 65 54 84 55 49 56
REMARK SMILES IDX 50 57 64 59 85 60 52 61 36 62 37 63 45 64 38 65 40 66 46 67
REMARK SMILES IDX 39 68 41 69 42 70 43 71 44 72 68 73 69 74 77 75 70 76 72 77
REMARK SMILES IDX 78 78 71 79 73 80 74 81 75 82 76 83 53 84 54 85 62 86 55 87
REMARK SMILES IDX 57 88 63 89 56 90 58 91 59 92 60 93 61 94
REMARK H PARENT 20 5 5 13 24 28 83 47 51 58
REMARK Flexibility Score: inf
ROOT
ATOM      1  C   UNL A   1      32.724  30.236  26.942  1.00  0.00     0.117 C 
ENDROOT
BRANCH   1   2
ATOM      2  N   UNL A   1      33.243  29.740  25.672  1.00  0.00    -0.356 N 
ATOM      3  O   UNL A   1      34.400  28.234  26.536  1.00  0.00    -0.275 OA
ATOM      4  C   UNL A   1      33.628  28.329  25.521  1.00  0.00     0.222 C 
ATOM      5  H   UNL A   1      33.337  30.355  24.909  1.00  0.00     0.163 HD
BRANCH   4   6
ATOM      6  C   UNL A   1      33.022  26.824  24.050  1.00  0.00     0.128 C 
BRANCH   6   7
ATOM      7  C   UNL A   1      31.458  26.071  23.693  1.00  0.00     0.049 C 
ATOM      8  C   UNL A   1      30.109  26.382  24.479  1.00  0.00     0.029 C 
ATOM      9  C   UNL A   1      30.825  26.931  22.509  1.00  0.00     0.029 C 
ATOM     10  C   UNL A   1      29.667  27.363  23.400  1.00  0.00     0.005 C 
BRANCH   7  11
ATOM     11  N   UNL A   1      31.448  24.636  23.182  1.00  0.00    -0.349 N 
ATOM     12  C   UNL A   1      31.932  23.422  23.611  1.00  0.00     0.231 C 
ATOM     13  H   UNL A   1      30.974  24.558  22.322  1.00  0.00     0.164 HD
ATOM     14  O   UNL A   1      31.757  22.441  22.887  1.00  0.00    -0.274 OA
BRANCH  12  15
ATOM     15  C   UNL A   1      32.640  23.290  24.927  1.00  0.00     0.074 C 
ATOM     16  C   UNL A   1      32.128  24.088  26.113  1.00  0.00     0.023 C 
ATOM     17  C   UNL A   1      31.898  22.608  26.068  1.00  0.00     0.023 C 
BRANCH  15  18
ATOM     18  C   UNL A   1      34.115  23.100  24.785  1.00  0.00    -0.032 A 
ATOM     19  C   UNL A   1      34.709  21.389  24.534  1.00  0.00     0.005 A 
ATOM     20  C   UNL A   1      35.282  24.368  25.342  1.00  0.00     0.005 A 
ATOM     21  C   UNL A   1      36.387  20.946  25.019  1.00  0.00     0.000 A 
ATOM     22  C   UNL A   1      36.930  23.888  25.861  1.00  0.00     0.000 A 
ATOM     23  C   UNL A   1      37.491  22.172  25.720  1.00  0.00     0.000 A 
ENDBRANCH  15  18
ENDBRANCH  12  15
ENDBRANCH   7  11
ENDBRANCH   6   7
ENDBRANCH   4   6
ENDBRANCH   1   2
BRANCH   1  24
ATOM     24  C   UNL A   1      32.264  31.687  26.905  1.00  0.00     0.042 C 
BRANCH  24  25
ATOM     25  C   UNL A   1      33.233  32.713  27.478  1.00  0.00     0.118 C 
BRANCH  25  26
ATOM     26  N   UNL A   1      32.686  34.040  27.725  1.00  0.00    -0.352 N 
ATOM     27  C   UNL A   1      33.120  34.940  28.680  1.00  0.00     0.251 C 
ATOM     28  H   UNL A   1      31.934  34.323  27.156  1.00  0.00     0.163 HD
ATOM     29  O   UNL A   1      32.564  36.021  28.837  1.00  0.00    -0.269 OA
BRANCH  27  30
ATOM     30  C   UNL A   1      34.258  34.543  29.545  1.00  0.00     0.039 A 
ATOM     31  C   UNL A   1      34.000  34.007  30.806  1.00  0.00     0.014 A 
ATOM     32  C   UNL A   1      35.561  34.573  29.041  1.00  0.00     0.014 A 
ATOM     33  C   UNL A   1      35.045  33.430  31.532  1.00  0.00     0.010 A 
ATOM     34  C   UNL A   1      36.578  33.913  29.724  1.00  0.00     0.010 A 
ATOM     35  C   UNL A   1      36.336  33.337  30.981  1.00  0.00    -0.014 A 
BRANCH  35  36
ATOM     36  C   UNL A   1      37.428  32.635  31.709  1.00  0.00     0.031 A 
ATOM     37  C   UNL A   1      38.139  31.466  31.078  1.00  0.00     0.074 A 
ATOM     38  C   UNL A   1      37.753  33.015  32.962  1.00  0.00     0.049 A 
ATOM     39  N   UNL A   1      39.142  30.765  31.542  1.00  0.00    -0.248 NA
ATOM     40  C   UNL A   1      37.646  31.004  29.770  1.00  0.00     0.031 C 
ATOM     41  C   UNL A   1      37.076  34.062  33.732  1.00  0.00     0.029 A 
ATOM     42  N   UNL A   1      38.727  32.560  33.816  1.00  0.00    -0.354 N 
ATOM     43  C   UNL A   1      39.381  29.772  30.599  1.00  0.00     0.074 A 
ATOM     44  C   UNL A   1      38.385  29.926  29.563  1.00  0.00     0.031 C 
ATOM     45  C   UNL A   1      37.673  34.188  34.928  1.00  0.00     0.029 A 
ATOM     46  C   UNL A   1      38.758  33.216  35.025  1.00  0.00     0.049 A 
ATOM     47  H   UNL A   1      39.347  31.830  33.584  1.00  0.00     0.167 HD
ATOM     48  C   UNL A   1      40.362  28.838  30.574  1.00  0.00     0.034 A 
ATOM     49  C   UNL A   1      39.573  33.062  36.088  1.00  0.00     0.034 A 
ATOM     50  C   UNL A   1      41.372  28.705  31.588  1.00  0.00     0.049 A 
ATOM     51  C   UNL A   1      40.685  32.049  36.015  1.00  0.00     0.074 A 
ATOM     52  C   UNL A   1      42.460  27.851  31.611  1.00  0.00     0.029 A 
ATOM     53  N   UNL A   1      41.415  29.439  32.764  1.00  0.00    -0.354 N 
ATOM     54  N   UNL A   1      41.000  31.237  35.036  1.00  0.00    -0.248 NA
ATOM     55  C   UNL A   1      41.581  31.963  37.178  1.00  0.00     0.031 C 
ATOM     56  C   UNL A   1      43.140  28.042  32.818  1.00  0.00     0.029 A 
ATOM     57  C   UNL A   1      42.502  29.047  33.526  1.00  0.00     0.049 A 
ATOM     58  H   UNL A   1      40.767  30.135  33.018  1.00  0.00     0.167 HD
ATOM     59  C   UNL A   1      42.150  30.573  35.446  1.00  0.00     0.074 A 
ATOM     60  C   UNL A   1      42.489  31.096  36.753  1.00  0.00     0.031 C 
ATOM     61  C   UNL A   1      42.854  29.606  34.806  1.00  0.00     0.034 A 
BRANCH  48  62
ATOM     62  C   UNL A   1      40.417  27.916  29.383  1.00  0.00     0.023 A 
ATOM     63  C   UNL A   1      39.538  26.814  29.312  1.00  0.00     0.012 A 
ATOM     64  C   UNL A   1      41.297  28.165  28.312  1.00  0.00     0.148 A 
ATOM     65  C   UNL A   1      39.562  25.953  28.215  1.00  0.00     0.002 A 
ATOM     66  C   UNL A   1      41.280  27.331  27.200  1.00  0.00     0.091 A 
ATOM     67  F   UNL A   1      42.139  29.204  28.406  1.00  0.00    -0.205 F 
ATOM     68  C   UNL A   1      40.425  26.218  27.156  1.00  0.00     0.022 A 
BRANCH  66  69
ATOM     69  S   UNL A   1      42.292  27.632  25.747  1.00  0.00     0.127 S 
ATOM     70  O   UNL A   1      41.892  26.528  24.876  1.00  0.00    -0.237 OA
ATOM     71  O   UNL A   1      41.825  28.950  25.316  1.00  0.00    -0.237 OA
ATOM     72  O   UNL A   1      43.674  27.595  26.203  1.00  0.00    -0.744 OA
ENDBRANCH  66  69
ENDBRANCH  48  62
BRANCH  49  73
ATOM     73  C   UNL A   1      39.414  33.932  37.289  1.00  0.00     0.023 A 
ATOM     74  C   UNL A   1      39.892  35.257  37.258  1.00  0.00     0.012 A 
ATOM     75  C   UNL A   1      38.785  33.459  38.456  1.00  0.00     0.148 A 
ATOM     76  C   UNL A   1      39.781  36.081  38.378  1.00  0.00     0.002 A 
ATOM     77  C   UNL A   1      38.624  34.303  39.548  1.00  0.00     0.091 A 
ATOM     78  F   UNL A   1      38.346  32.192  38.469  1.00  0.00    -0.205 F 
ATOM     79  C   UNL A   1      39.140  35.608  39.519  1.00  0.00     0.022 A 
BRANCH  77  80
ATOM     80  S   UNL A   1      37.697  33.821  41.009  1.00  0.00     0.127 S 
ATOM     81  O   UNL A   1      36.516  33.194  40.420  1.00  0.00    -0.237 OA
ATOM     82  O   UNL A   1      38.626  32.898  41.662  1.00  0.00    -0.237 OA
ATOM     83  O   UNL A   1      37.458  35.054  41.747  1.00  0.00    -0.744 OA
ENDBRANCH  77  80
ENDBRANCH  49  73
BRANCH  61  84
ATOM     84  C   UNL A   1      44.091  29.079  35.486  1.00  0.00     0.023 A 
ATOM     85  C   UNL A   1      45.341  29.687  35.253  1.00  0.00     0.012 A 
ATOM     86  C   UNL A   1      44.004  28.011  36.402  1.00  0.00     0.148 A 
ATOM     87  C   UNL A   1      46.491  29.210  35.882  1.00  0.00     0.002 A 
ATOM     88  C   UNL A   1      45.144  27.578  37.068  1.00  0.00     0.091 A 
ATOM     89  F   UNL A   1      42.810  27.434  36.600  1.00  0.00    -0.205 F 
ATOM     90  C   UNL A   1      46.391  28.165  36.798  1.00  0.00     0.022 A 
BRANCH  88  91
ATOM     91  S   UNL A   1      45.091  26.309  38.337  1.00  0.00     0.127 S 
ATOM     92  O   UNL A   1      44.800  25.112  37.549  1.00  0.00    -0.237 OA
ATOM     93  O   UNL A   1      46.446  26.362  38.886  1.00  0.00    -0.237 OA
ATOM     94  O   UNL A   1      44.047  26.714  39.268  1.00  0.00    -0.744 OA
ENDBRANCH  88  91
ENDBRANCH  61  84
ENDBRANCH  35  36
ENDBRANCH  27  30
ENDBRANCH  25  26
ENDBRANCH  24  25
ENDBRANCH   1  24
TORSDOF 17
ENDMDL
MODEL 3
REMARK VINA RESULT:     -12.3      5.618      9.342
REMARK SMILES O=C(CC1(NC(=O)C2(c3ccccc3)CC2)CCC1)NCCCNC(=O)c1ccc(-c2c3nc(c(-c4cccc(S(=O)(=O)[O-])c4F)c4ccc([nH]4)c(-c4cccc(S(=O)(=O)[O-])c4F)c4nc(c(-c5cccc(S(=O)(=O)[O-])c5F)c5ccc2[nH]5)C=C4)C=C3)cc1
REMARK SMILES IDX 21 1 20 2 1 3 2 4 3 6 4 7 17 8 19 9 18 10 5 11 6 12 7 14
REMARK SMILES IDX 8 15 15 16 16 17 9 18 10 19 14 20 11 21 13 22 12 23 22 24
REMARK SMILES IDX 23 25 24 26 25 27 26 29 27 30 28 31 89 32 29 33 88 34 30 35
REMARK SMILES IDX 31 36 32 37 82 38 33 39 87 40 81 41 83 42 34 43 86 44 80 45
REMARK SMILES IDX 79 46 35 48 67 49 47 50 66 51 48 52 51 53 65 54 84 55 49 56
REMARK SMILES IDX 50 57 64 59 85 60 52 61 36 62 37 63 45 64 38 65 40 66 46 67
REMARK SMILES IDX 39 68 41 69 42 70 43 71 44 72 68 73 69 74 77 75 70 76 72 77
REMARK SMILES IDX 78 78 71 79 73 80 74 81 75 82 76 83 53 84 54 85 62 86 55 87
REMARK SMILES IDX 57 88 63 89 56 90 58 91 59 92 60 93 61 94
REMARK H PARENT 20 5 5 13 24 28 83 47 51 58
REMARK Flexibility Score: inf
ROOT
ATOM      1  C   UNL A   1      37.837  21.779  25.132  1.00  0.00     0.117 C 
ENDROOT
BRANCH   1   2
ATOM      2  N   UNL A   1      36.565  21.939  25.830  1.00  0.00    -0.356 N 
ATOM      3  O   UNL A   1      36.912  23.926  26.363  1.00  0.00    -0.275 OA
ATOM      4  C   UNL A   1      35.919  23.257  25.914  1.00  0.00     0.222 C 
ATOM      5  H   UNL A   1      36.136  21.158  26.248  1.00  0.00     0.163 HD
BRANCH   4   6
ATOM      6  C   UNL A   1      33.896  23.902  25.377  1.00  0.00     0.128 C 
BRANCH   6   7
ATOM      7  C   UNL A   1      32.377  23.010  25.173  1.00  0.00     0.049 C 
ATOM      8  C   UNL A   1      31.887  22.371  23.800  1.00  0.00     0.029 C 
ATOM      9  C   UNL A   1      32.695  21.512  25.617  1.00  0.00     0.029 C 
ATOM     10  C   UNL A   1      32.413  21.001  24.210  1.00  0.00     0.005 C 
BRANCH   7  11
ATOM     11  N   UNL A   1      31.179  23.422  26.018  1.00  0.00    -0.349 N 
ATOM     12  C   UNL A   1      30.346  24.514  26.100  1.00  0.00     0.231 C 
ATOM     13  H   UNL A   1      30.941  22.730  26.677  1.00  0.00     0.164 HD
ATOM     14  O   UNL A   1      29.471  24.510  26.966  1.00  0.00    -0.274 OA
BRANCH  12  15
ATOM     15  C   UNL A   1      30.486  25.669  25.152  1.00  0.00     0.074 C 
ATOM     16  C   UNL A   1      30.252  25.429  23.671  1.00  0.00     0.023 C 
ATOM     17  C   UNL A   1      29.227  26.181  24.465  1.00  0.00     0.023 C 
BRANCH  15  18
ATOM     18  C   UNL A   1      31.554  26.633  25.554  1.00  0.00    -0.032 A 
ATOM     19  C   UNL A   1      31.244  27.635  27.052  1.00  0.00     0.005 A 
ATOM     20  C   UNL A   1      32.824  27.168  24.379  1.00  0.00     0.005 A 
ATOM     21  C   UNL A   1      32.065  29.227  27.246  1.00  0.00     0.000 A 
ATOM     22  C   UNL A   1      33.590  28.778  24.576  1.00  0.00     0.000 A 
ATOM     23  C   UNL A   1      33.206  29.827  26.000  1.00  0.00     0.000 A 
ENDBRANCH  15  18
ENDBRANCH  12  15
ENDBRANCH   7  11
ENDBRANCH   6   7
ENDBRANCH   4   6
ENDBRANCH   1   2
BRANCH   1  24
ATOM     24  C   UNL A   1      38.474  20.407  25.302  1.00  0.00     0.042 C 
BRANCH  24  25
ATOM     25  C   UNL A   1      39.714  20.347  26.184  1.00  0.00     0.118 C 
BRANCH  25  26
ATOM     26  N   UNL A   1      40.549  19.163  26.034  1.00  0.00    -0.352 N 
ATOM     27  C   UNL A   1      41.929  19.120  26.108  1.00  0.00     0.251 C 
ATOM     28  H   UNL A   1      40.085  18.312  25.863  1.00  0.00     0.163 HD
ATOM     29  O   UNL A   1      42.544  18.076  25.926  1.00  0.00    -0.269 OA
BRANCH  27  30
ATOM     30  C   UNL A   1      42.653  20.387  26.374  1.00  0.00     0.039 A 
ATOM     31  C   UNL A   1      43.248  21.066  25.311  1.00  0.00     0.014 A 
ATOM     32  C   UNL A   1      42.610  20.961  27.648  1.00  0.00     0.014 A 
ATOM     33  C   UNL A   1      43.737  22.360  25.513  1.00  0.00     0.010 A 
ATOM     34  C   UNL A   1      43.010  22.283  27.819  1.00  0.00     0.010 A 
ATOM     35  C   UNL A   1      43.583  22.999  26.758  1.00  0.00    -0.014 A 
BRANCH  35  36
ATOM     36  C   UNL A   1      44.012  24.412  26.948  1.00  0.00     0.031 A 
ATOM     37  C   UNL A   1      43.045  25.439  27.474  1.00  0.00     0.074 A 
ATOM     38  C   UNL A   1      45.261  24.787  26.602  1.00  0.00     0.049 A 
ATOM     39  N   UNL A   1      43.253  26.703  27.747  1.00  0.00    -0.248 NA
ATOM     40  C   UNL A   1      41.656  25.005  27.696  1.00  0.00     0.031 C 
ATOM     41  C   UNL A   1      46.267  23.918  25.984  1.00  0.00     0.029 A 
ATOM     42  N   UNL A   1      45.898  25.999  26.711  1.00  0.00    -0.354 N 
ATOM     43  C   UNL A   1      42.025  27.213  28.148  1.00  0.00     0.074 A 
ATOM     44  C   UNL A   1      41.063  26.141  28.032  1.00  0.00     0.031 C 
ATOM     45  C   UNL A   1      47.399  24.616  25.797  1.00  0.00     0.029 A 
ATOM     46  C   UNL A   1      47.197  25.986  26.255  1.00  0.00     0.049 A 
ATOM     47  H   UNL A   1      45.466  26.802  27.080  1.00  0.00     0.167 HD
ATOM     48  C   UNL A   1      41.726  28.451  28.609  1.00  0.00     0.034 A 
ATOM     49  C   UNL A   1      48.125  26.964  26.219  1.00  0.00     0.034 A 
ATOM     50  C   UNL A   1      42.688  29.509  28.757  1.00  0.00     0.049 A 
ATOM     51  C   UNL A   1      47.781  28.318  26.782  1.00  0.00     0.074 A 
ATOM     52  C   UNL A   1      42.504  30.770  29.296  1.00  0.00     0.029 A 
ATOM     53  N   UNL A   1      44.013  29.436  28.353  1.00  0.00    -0.354 N 
ATOM     54  N   UNL A   1      46.658  28.729  27.319  1.00  0.00    -0.248 NA
ATOM     55  C   UNL A   1      48.848  29.331  26.772  1.00  0.00     0.031 C 
ATOM     56  C   UNL A   1      43.709  31.472  29.187  1.00  0.00     0.029 A 
ATOM     57  C   UNL A   1      44.655  30.633  28.620  1.00  0.00     0.049 A 
ATOM     58  H   UNL A   1      44.433  28.648  27.939  1.00  0.00     0.167 HD
ATOM     59  C   UNL A   1      46.894  30.031  27.746  1.00  0.00     0.074 A 
ATOM     60  C   UNL A   1      48.274  30.330  27.426  1.00  0.00     0.031 C 
ATOM     61  C   UNL A   1      46.041  30.905  28.337  1.00  0.00     0.034 A 
BRANCH  48  62
ATOM     62  C   UNL A   1      40.304  28.713  29.035  1.00  0.00     0.023 A 
ATOM     63  C   UNL A   1      39.310  28.926  28.056  1.00  0.00     0.012 A 
ATOM     64  C   UNL A   1      39.939  28.698  30.395  1.00  0.00     0.148 A 
ATOM     65  C   UNL A   1      37.985  29.158  28.424  1.00  0.00     0.002 A 
ATOM     66  C   UNL A   1      38.608  28.880  30.752  1.00  0.00     0.091 A 
ATOM     67  F   UNL A   1      40.899  28.514  31.312  1.00  0.00    -0.205 F 
ATOM     68  C   UNL A   1      37.633  29.125  29.771  1.00  0.00     0.022 A 
BRANCH  66  69
ATOM     69  S   UNL A   1      38.036  28.773  32.451  1.00  0.00     0.127 S 
ATOM     70  O   UNL A   1      36.656  29.242  32.327  1.00  0.00    -0.237 OA
ATOM     71  O   UNL A   1      38.171  27.344  32.731  1.00  0.00    -0.237 OA
ATOM     72  O   UNL A   1      38.918  29.632  33.228  1.00  0.00    -0.744 OA
ENDBRANCH  66  69
ENDBRANCH  48  62
BRANCH  49  73
ATOM     73  C   UNL A   1      49.492  26.683  25.693  1.00  0.00     0.023 A 
ATOM     74  C   UNL A   1      50.421  25.995  26.498  1.00  0.00     0.012 A 
ATOM     75  C   UNL A   1      49.872  27.086  24.398  1.00  0.00     0.148 A 
ATOM     76  C   UNL A   1      51.715  25.747  26.038  1.00  0.00     0.002 A 
ATOM     77  C   UNL A   1      51.143  26.783  23.924  1.00  0.00     0.091 A 
ATOM     78  F   UNL A   1      48.977  27.748  23.652  1.00  0.00    -0.205 F 
ATOM     79  C   UNL A   1      52.073  26.132  24.749  1.00  0.00     0.022 A 
BRANCH  77  80
ATOM     80  S   UNL A   1      51.647  27.124  22.235  1.00  0.00     0.127 S 
ATOM     81  O   UNL A   1      50.485  26.664  21.478  1.00  0.00    -0.237 OA
ATOM     82  O   UNL A   1      51.828  28.576  22.264  1.00  0.00    -0.237 OA
ATOM     83  O   UNL A   1      52.875  26.369  22.030  1.00  0.00    -0.744 OA
ENDBRANCH  77  80
ENDBRANCH  49  73
BRANCH  61  84
ATOM     84  C   UNL A   1      46.584  32.257  28.720  1.00  0.00     0.023 A 
ATOM     85  C   UNL A   1      47.147  32.459  29.996  1.00  0.00     0.012 A 
ATOM     86  C   UNL A   1      46.586  33.317  27.790  1.00  0.00     0.148 A 
ATOM     87  C   UNL A   1      47.658  33.705  30.358  1.00  0.00     0.002 A 
ATOM     88  C   UNL A   1      47.147  34.540  28.139  1.00  0.00     0.091 A 
ATOM     89  F   UNL A   1      46.032  33.113  26.587  1.00  0.00    -0.205 F 
ATOM     90  C   UNL A   1      47.669  34.740  29.427  1.00  0.00     0.022 A 
BRANCH  88  91
ATOM     91  S   UNL A   1      47.297  35.895  26.971  1.00  0.00     0.127 S 
ATOM     92  O   UNL A   1      45.896  36.254  26.750  1.00  0.00    -0.237 OA
ATOM     93  O   UNL A   1      48.065  36.879  27.734  1.00  0.00    -0.237 OA
ATOM     94  O   UNL A   1      47.994  35.352  25.813  1.00  0.00    -0.744 OA
ENDBRANCH  88  91
ENDBRANCH  61  84
ENDBRANCH  35  36
ENDBRANCH  27  30
ENDBRANCH  25  26
ENDBRANCH  24  25
ENDBRANCH   1  24
TORSDOF 17
ENDMDL
