MODEL 1
REMARK VINA RESULT:     -10.2      0.000      0.000
REMARK SMILES O=C(/C=C/c1ccc(C(=O)NC2CC2)cc1)NC1(C(=O)NCCCNC(=O)c2ccc(-c3c4nc(c(-c5cccc(S(=O)(=O)[O-])c5F)c5ccc([nH]5)c(-c5cccc(S(=O)(=O)[O-])c5F)c5nc(c(-c6cccc(S(=O)(=O)[O-])c6F)c6ccc3[nH]6)C=C5)C=C4)cc2)CCCC1
REMARK SMILES IDX 22 1 21 2 19 3 20 4 18 6 91 7 94 8 92 9 93 10 17 11 1 12
REMARK SMILES IDX 2 13 3 15 4 16 5 17 6 18 16 19 7 20 15 21 8 22 9 23 10 24
REMARK SMILES IDX 11 25 12 27 13 28 14 29 23 30 24 31 25 32 26 33 27 35 28 36
REMARK SMILES IDX 29 37 90 38 30 39 89 40 31 41 32 42 33 43 83 44 34 45 88 46
REMARK SMILES IDX 82 47 84 48 35 49 87 50 81 51 80 52 36 54 68 55 48 56 67 57
REMARK SMILES IDX 49 58 52 59 66 60 85 61 50 62 51 63 65 65 86 66 53 67 37 68
REMARK SMILES IDX 38 69 46 70 39 71 41 72 47 73 40 74 42 75 43 76 44 77 45 78
REMARK SMILES IDX 69 79 70 80 78 81 71 82 73 83 79 84 72 85 74 86 75 87 76 88
REMARK SMILES IDX 77 89 54 90 55 91 63 92 56 93 58 94 64 95 57 96 59 97 60 98
REMARK SMILES IDX 61 99 62 100
REMARK H PARENT 21 5 17 14 11 26 25 34 84 53 52 64
REMARK Flexibility Score: inf
ROOT
ATOM      1  C   UNL A   1      36.166  34.232  30.389  1.00  0.00     0.117 C 
ENDROOT
BRANCH   1   2
ATOM      2  N   UNL A   1      35.779  34.841  31.641  1.00  0.00    -0.354 N 
ATOM      3  C   UNL A   1      36.314  34.765  32.888  1.00  0.00     0.245 C 
ATOM      4  O   UNL A   1      35.696  35.399  33.756  1.00  0.00    -0.272 OA
ATOM      5  H   UNL A   1      34.984  35.416  31.578  1.00  0.00     0.163 HD
BRANCH   3   6
ATOM      6  C   UNL A   1      37.548  33.864  33.268  1.00  0.00     0.119 C 
ATOM      7  C   UNL A   1      37.259  32.385  33.578  1.00  0.00     0.038 C 
ATOM      8  C   UNL A   1      38.263  34.410  34.517  1.00  0.00     0.038 C 
ATOM      9  C   UNL A   1      37.566  32.121  35.048  1.00  0.00     0.003 C 
ATOM     10  C   UNL A   1      38.064  33.418  35.652  1.00  0.00     0.003 C 
BRANCH   6  11
ATOM     11  N   UNL A   1      38.477  34.014  32.119  1.00  0.00    -0.338 N 
ATOM     12  O   UNL A   1      40.308  34.809  33.269  1.00  0.00    -0.270 OA
ATOM     13  C   UNL A   1      39.784  34.389  32.241  1.00  0.00     0.244 C 
ATOM     14  H   UNL A   1      38.130  33.831  31.216  1.00  0.00     0.164 HD
BRANCH  13  15
ATOM     15  C   UNL A   1      40.618  34.301  31.021  1.00  0.00     0.072 C 
ATOM     16  C   UNL A   1      41.954  34.200  30.926  1.00  0.00     0.014 C 
BRANCH  16  17
ATOM     17  C   UNL A   1      42.585  34.313  29.607  1.00  0.00    -0.025 A 
ATOM     18  C   UNL A   1      43.391  33.300  29.086  1.00  0.00     0.009 A 
ATOM     19  C   UNL A   1      42.390  35.474  28.852  1.00  0.00     0.009 A 
ATOM     20  C   UNL A   1      43.902  33.413  27.784  1.00  0.00     0.014 A 
ATOM     21  C   UNL A   1      42.918  35.592  27.567  1.00  0.00     0.014 A 
ATOM     22  C   UNL A   1      43.631  34.543  26.990  1.00  0.00     0.039 A 
BRANCH  22  23
ATOM     23  C   UNL A   1      44.137  34.547  25.584  1.00  0.00     0.251 C 
ATOM     24  O   UNL A   1      43.357  34.289  24.665  1.00  0.00    -0.269 OA
ATOM     25  N   UNL A   1      45.438  34.873  25.251  1.00  0.00    -0.349 N 
ATOM     26  H   UNL A   1      45.627  34.862  24.285  1.00  0.00     0.164 HD
BRANCH  25  27
ATOM     27  C   UNL A   1      46.551  35.220  26.066  1.00  0.00     0.082 C 
ATOM     28  C   UNL A   1      47.957  35.129  25.536  1.00  0.00     0.027 C 
ATOM     29  C   UNL A   1      47.353  36.470  25.821  1.00  0.00     0.027 C 
ENDBRANCH  25  27
ENDBRANCH  22  23
ENDBRANCH  16  17
ENDBRANCH  13  15
ENDBRANCH   6  11
ENDBRANCH   3   6
ENDBRANCH   1   2
BRANCH   1  30
ATOM     30  C   UNL A   1      35.096  33.303  29.831  1.00  0.00     0.042 C 
BRANCH  30  31
ATOM     31  C   UNL A   1      35.081  33.242  28.308  1.00  0.00     0.118 C 
BRANCH  31  32
ATOM     32  N   UNL A   1      34.219  32.174  27.808  1.00  0.00    -0.352 N 
ATOM     33  C   UNL A   1      34.480  30.849  27.568  1.00  0.00     0.251 C 
ATOM     34  H   UNL A   1      33.296  32.451  27.611  1.00  0.00     0.163 HD
ATOM     35  O   UNL A   1      33.661  30.188  26.926  1.00  0.00    -0.269 OA
BRANCH  33  36
ATOM     36  C   UNL A   1      35.719  30.214  28.060  1.00  0.00     0.039 A 
ATOM     37  C   UNL A   1      36.867  30.265  27.266  1.00  0.00     0.014 A 
ATOM     38  C   UNL A   1      35.747  29.539  29.281  1.00  0.00     0.014 A 
ATOM     39  C   UNL A   1      38.054  29.694  27.726  1.00  0.00     0.010 A 
ATOM     40  C   UNL A   1      36.952  29.064  29.784  1.00  0.00     0.010 A 
ATOM     41  C   UNL A   1      38.117  29.122  29.008  1.00  0.00    -0.014 A 
BRANCH  41  42
ATOM     42  C   UNL A   1      39.395  28.603  29.555  1.00  0.00     0.031 A 
ATOM     43  C   UNL A   1      40.055  29.270  30.731  1.00  0.00     0.074 A 
ATOM     44  C   UNL A   1      40.010  27.581  28.929  1.00  0.00     0.049 A 
ATOM     45  N   UNL A   1      41.180  28.967  31.324  1.00  0.00    -0.248 NA
ATOM     46  C   UNL A   1      39.382  30.452  31.294  1.00  0.00     0.031 C 
ATOM     47  C   UNL A   1      39.523  26.920  27.716  1.00  0.00     0.029 A 
ATOM     48  N   UNL A   1      41.186  26.933  29.211  1.00  0.00    -0.354 N 
ATOM     49  C   UNL A   1      41.370  29.939  32.299  1.00  0.00     0.074 A 
ATOM     50  C   UNL A   1      40.267  30.867  32.188  1.00  0.00     0.031 C 
ATOM     51  C   UNL A   1      40.386  25.955  27.365  1.00  0.00     0.029 A 
ATOM     52  C   UNL A   1      41.501  25.948  28.306  1.00  0.00     0.049 A 
ATOM     53  H   UNL A   1      41.750  27.154  29.987  1.00  0.00     0.167 HD
ATOM     54  C   UNL A   1      42.357  30.036  33.223  1.00  0.00     0.034 A 
ATOM     55  C   UNL A   1      42.572  25.134  28.234  1.00  0.00     0.034 A 
ATOM     56  C   UNL A   1      43.433  29.091  33.347  1.00  0.00     0.049 A 
ATOM     57  C   UNL A   1      43.624  25.219  29.302  1.00  0.00     0.074 A 
ATOM     58  C   UNL A   1      44.422  29.032  34.313  1.00  0.00     0.029 A 
ATOM     59  N   UNL A   1      43.677  28.048  32.464  1.00  0.00    -0.354 N 
ATOM     60  N   UNL A   1      43.692  26.033  30.328  1.00  0.00    -0.248 NA
ATOM     61  C   UNL A   1      44.727  24.252  29.225  1.00  0.00     0.031 C 
ATOM     62  C   UNL A   1      45.285  27.978  33.991  1.00  0.00     0.029 A 
ATOM     63  C   UNL A   1      44.812  27.354  32.847  1.00  0.00     0.049 A 
ATOM     64  H   UNL A   1      43.123  27.833  31.679  1.00  0.00     0.167 HD
ATOM     65  C   UNL A   1      44.831  25.662  31.033  1.00  0.00     0.074 A 
ATOM     66  C   UNL A   1      45.405  24.532  30.330  1.00  0.00     0.031 C 
ATOM     67  C   UNL A   1      45.361  26.215  32.153  1.00  0.00     0.034 A 
BRANCH  54  68
ATOM     68  C   UNL A   1      42.289  31.189  34.193  1.00  0.00     0.023 A 
ATOM     69  C   UNL A   1      41.447  31.109  35.323  1.00  0.00     0.012 A 
ATOM     70  C   UNL A   1      43.072  32.345  34.000  1.00  0.00     0.148 A 
ATOM     71  C   UNL A   1      41.344  32.178  36.212  1.00  0.00     0.002 A 
ATOM     72  C   UNL A   1      43.002  33.385  34.920  1.00  0.00     0.091 A 
ATOM     73  F   UNL A   1      43.850  32.418  32.910  1.00  0.00    -0.205 F 
ATOM     74  C   UNL A   1      42.127  33.312  36.016  1.00  0.00     0.022 A 
BRANCH  72  75
ATOM     75  S   UNL A   1      44.033  34.851  34.799  1.00  0.00     0.127 S 
ATOM     76  O   UNL A   1      45.362  34.264  34.631  1.00  0.00    -0.237 OA
ATOM     77  O   UNL A   1      43.500  35.505  33.603  1.00  0.00    -0.237 OA
ATOM     78  O   UNL A   1      43.824  35.590  36.036  1.00  0.00    -0.744 OA
ENDBRANCH  72  75
ENDBRANCH  54  68
BRANCH  55  79
ATOM     79  C   UNL A   1      42.652  24.130  27.136  1.00  0.00     0.023 A 
ATOM     80  C   UNL A   1      43.430  24.407  25.996  1.00  0.00     0.012 A 
ATOM     81  C   UNL A   1      42.028  22.874  27.257  1.00  0.00     0.148 A 
ATOM     82  C   UNL A   1      43.566  23.457  24.983  1.00  0.00     0.002 A 
ATOM     83  C   UNL A   1      42.216  21.912  26.273  1.00  0.00     0.091 A 
ATOM     84  F   UNL A   1      41.291  22.635  28.351  1.00  0.00    -0.205 F 
ATOM     85  C   UNL A   1      42.971  22.206  25.127  1.00  0.00     0.022 A 
BRANCH  83  86
ATOM     86  S   UNL A   1      41.612  20.229  26.441  1.00  0.00     0.127 S 
ATOM     87  O   UNL A   1      42.129  19.855  27.755  1.00  0.00    -0.237 OA
ATOM     88  O   UNL A   1      40.163  20.425  26.381  1.00  0.00    -0.237 OA
ATOM     89  O   UNL A   1      42.168  19.491  25.314  1.00  0.00    -0.744 OA
ENDBRANCH  83  86
ENDBRANCH  55  79
BRANCH  67  90
ATOM     90  C   UNL A   1      46.620  25.597  32.703  1.00  0.00     0.023 A 
ATOM     91  C   UNL A   1      47.878  26.073  32.281  1.00  0.00     0.012 A 
ATOM     92  C   UNL A   1      46.557  24.584  33.680  1.00  0.00     0.148 A 
ATOM     93  C   UNL A   1      49.053  25.522  32.792  1.00  0.00     0.002 A 
ATOM     94  C   UNL A   1      47.732  24.078  34.224  1.00  0.00     0.091 A 
ATOM     95  F   UNL A   1      45.353  24.132  34.056  1.00  0.00    -0.205 F 
ATOM     96  C   UNL A   1      48.979  24.533  33.771  1.00  0.00     0.022 A 
BRANCH  94  97
ATOM     97  S   UNL A   1      47.733  22.874  35.557  1.00  0.00     0.127 S 
ATOM     98  O   UNL A   1      49.156  22.786  35.878  1.00  0.00    -0.237 OA
ATOM     99  O   UNL A   1      46.917  23.538  36.575  1.00  0.00    -0.237 OA
ATOM    100  O   UNL A   1      47.140  21.663  35.006  1.00  0.00    -0.744 OA
ENDBRANCH  94  97
ENDBRANCH  67  90
ENDBRANCH  41  42
ENDBRANCH  33  36
ENDBRANCH  31  32
ENDBRANCH  30  31
ENDBRANCH   1  30
TORSDOF 18
ENDMDL
MODEL 2
REMARK VINA RESULT:     -10.0      5.613     12.629
REMARK SMILES O=C(/C=C/c1ccc(C(=O)NC2CC2)cc1)NC1(C(=O)NCCCNC(=O)c2ccc(-c3c4nc(c(-c5cccc(S(=O)(=O)[O-])c5F)c5ccc([nH]5)c(-c5cccc(S(=O)(=O)[O-])c5F)c5nc(c(-c6cccc(S(=O)(=O)[O-])c6F)c6ccc3[nH]6)C=C5)C=C4)cc2)CCCC1
REMARK SMILES IDX 22 1 21 2 19 3 20 4 18 6 91 7 94 8 92 9 93 10 17 11 1 12
REMARK SMILES IDX 2 13 3 15 4 16 5 17 6 18 16 19 7 20 15 21 8 22 9 23 10 24
REMARK SMILES IDX 11 25 12 27 13 28 14 29 23 30 24 31 25 32 26 33 27 35 28 36
REMARK SMILES IDX 29 37 90 38 30 39 89 40 31 41 32 42 33 43 83 44 34 45 88 46
REMARK SMILES IDX 82 47 84 48 35 49 87 50 81 51 80 52 36 54 68 55 48 56 67 57
REMARK SMILES IDX 49 58 52 59 66 60 85 61 50 62 51 63 65 65 86 66 53 67 37 68
REMARK SMILES IDX 38 69 46 70 39 71 41 72 47 73 40 74 42 75 43 76 44 77 45 78
REMARK SMILES IDX 69 79 70 80 78 81 71 82 73 83 79 84 72 85 74 86 75 87 76 88
REMARK SMILES IDX 77 89 54 90 55 91 63 92 56 93 58 94 64 95 57 96 59 97 60 98
REMARK SMILES IDX 61 99 62 100
REMARK H PARENT 21 5 17 14 11 26 25 34 84 53 52 64
REMARK Flexibility Score: inf
ROOT
ATOM      1  C   UNL A   1      35.950  21.178  24.602  1.00  0.00     0.117 C 
ENDROOT
BRANCH   1   2
ATOM      2  N   UNL A   1      36.334  19.807  24.852  1.00  0.00    -0.354 N 
ATOM      3  C   UNL A   1      35.627  18.647  24.806  1.00  0.00     0.245 C 
ATOM      4  O   UNL A   1      36.273  17.635  25.121  1.00  0.00    -0.272 OA
ATOM      5  H   UNL A   1      37.279  19.694  25.100  1.00  0.00     0.163 HD
BRANCH   3   6
ATOM      6  C   UNL A   1      34.086  18.561  24.499  1.00  0.00     0.119 C 
ATOM      7  C   UNL A   1      33.178  18.061  25.637  1.00  0.00     0.038 C 
ATOM      8  C   UNL A   1      33.813  17.616  23.315  1.00  0.00     0.038 C 
ATOM      9  C   UNL A   1      32.571  16.723  25.230  1.00  0.00     0.003 C 
ATOM     10  C   UNL A   1      33.076  16.394  23.840  1.00  0.00     0.003 C 
BRANCH   6  11
ATOM     11  N   UNL A   1      33.723  19.935  24.068  1.00  0.00    -0.338 N 
ATOM     12  O   UNL A   1      31.715  20.117  25.184  1.00  0.00    -0.270 OA
ATOM     13  C   UNL A   1      32.622  20.607  24.516  1.00  0.00     0.244 C 
ATOM     14  H   UNL A   1      34.311  20.388  23.422  1.00  0.00     0.164 HD
BRANCH  13  15
ATOM     15  C   UNL A   1      32.513  22.034  24.137  1.00  0.00     0.072 C 
ATOM     16  C   UNL A   1      32.985  22.647  23.039  1.00  0.00     0.014 C 
BRANCH  16  17
ATOM     17  C   UNL A   1      32.923  24.110  22.957  1.00  0.00    -0.025 A 
ATOM     18  C   UNL A   1      32.974  24.915  24.095  1.00  0.00     0.009 A 
ATOM     19  C   UNL A   1      32.794  24.721  21.705  1.00  0.00     0.009 A 
ATOM     20  C   UNL A   1      33.000  26.312  23.964  1.00  0.00     0.014 A 
ATOM     21  C   UNL A   1      32.798  26.110  21.580  1.00  0.00     0.014 A 
ATOM     22  C   UNL A   1      32.960  26.925  22.698  1.00  0.00     0.039 A 
BRANCH  22  23
ATOM     23  C   UNL A   1      33.081  28.414  22.639  1.00  0.00     0.251 C 
ATOM     24  O   UNL A   1      34.196  28.929  22.744  1.00  0.00    -0.269 OA
ATOM     25  N   UNL A   1      32.004  29.251  22.424  1.00  0.00    -0.349 N 
ATOM     26  H   UNL A   1      32.232  30.207  22.380  1.00  0.00     0.164 HD
BRANCH  25  27
ATOM     27  C   UNL A   1      30.620  28.967  22.257  1.00  0.00     0.082 C 
ATOM     28  C   UNL A   1      29.920  27.977  23.148  1.00  0.00     0.027 C 
ATOM     29  C   UNL A   1      29.590  29.435  23.250  1.00  0.00     0.027 C 
ENDBRANCH  25  27
ENDBRANCH  22  23
ENDBRANCH  16  17
ENDBRANCH  13  15
ENDBRANCH   6  11
ENDBRANCH   3   6
ENDBRANCH   1   2
BRANCH   1  30
ATOM     30  C   UNL A   1      36.136  22.072  25.820  1.00  0.00     0.042 C 
BRANCH  30  31
ATOM     31  C   UNL A   1      37.414  22.900  25.775  1.00  0.00     0.118 C 
BRANCH  31  32
ATOM     32  N   UNL A   1      38.599  22.101  26.082  1.00  0.00    -0.352 N 
ATOM     33  C   UNL A   1      39.855  22.478  26.482  1.00  0.00     0.251 C 
ATOM     34  H   UNL A   1      38.474  21.130  25.986  1.00  0.00     0.163 HD
ATOM     35  O   UNL A   1      40.763  21.643  26.458  1.00  0.00    -0.269 OA
BRANCH  33  36
ATOM     36  C   UNL A   1      40.132  23.857  26.931  1.00  0.00     0.039 A 
ATOM     37  C   UNL A   1      40.423  24.083  28.279  1.00  0.00     0.014 A 
ATOM     38  C   UNL A   1      40.073  24.931  26.042  1.00  0.00     0.014 A 
ATOM     39  C   UNL A   1      40.714  25.376  28.717  1.00  0.00     0.010 A 
ATOM     40  C   UNL A   1      40.466  26.198  26.456  1.00  0.00     0.010 A 
ATOM     41  C   UNL A   1      40.777  26.440  27.801  1.00  0.00    -0.014 A 
BRANCH  41  42
ATOM     42  C   UNL A   1      41.185  27.799  28.231  1.00  0.00     0.031 A 
ATOM     43  C   UNL A   1      42.635  28.203  28.227  1.00  0.00     0.074 A 
ATOM     44  C   UNL A   1      40.254  28.643  28.715  1.00  0.00     0.049 A 
ATOM     45  N   UNL A   1      43.174  29.339  28.589  1.00  0.00    -0.248 NA
ATOM     46  C   UNL A   1      43.611  27.191  27.791  1.00  0.00     0.031 C 
ATOM     47  C   UNL A   1      38.831  28.329  28.871  1.00  0.00     0.029 A 
ATOM     48  N   UNL A   1      40.364  29.926  29.187  1.00  0.00    -0.354 N 
ATOM     49  C   UNL A   1      44.547  29.164  28.465  1.00  0.00     0.074 A 
ATOM     50  C   UNL A   1      44.761  27.800  28.035  1.00  0.00     0.031 C 
ATOM     51  C   UNL A   1      38.201  29.392  29.390  1.00  0.00     0.029 A 
ATOM     52  C   UNL A   1      39.174  30.451  29.634  1.00  0.00     0.049 A 
ATOM     53  H   UNL A   1      41.214  30.423  29.206  1.00  0.00     0.167 HD
ATOM     54  C   UNL A   1      45.540  30.065  28.660  1.00  0.00     0.034 A 
ATOM     55  C   UNL A   1      38.897  31.647  30.187  1.00  0.00     0.034 A 
ATOM     56  C   UNL A   1      45.317  31.430  29.056  1.00  0.00     0.049 A 
ATOM     57  C   UNL A   1      40.002  32.652  30.341  1.00  0.00     0.074 A 
ATOM     58  C   UNL A   1      46.239  32.454  29.177  1.00  0.00     0.029 A 
ATOM     59  N   UNL A   1      44.085  31.957  29.418  1.00  0.00    -0.354 N 
ATOM     60  N   UNL A   1      41.274  32.530  30.043  1.00  0.00    -0.248 NA
ATOM     61  C   UNL A   1      39.631  33.972  30.868  1.00  0.00     0.031 C 
ATOM     62  C   UNL A   1      45.571  33.590  29.649  1.00  0.00     0.029 A 
ATOM     63  C   UNL A   1      44.225  33.286  29.784  1.00  0.00     0.049 A 
ATOM     64  H   UNL A   1      43.236  31.460  29.415  1.00  0.00     0.167 HD
ATOM     65  C   UNL A   1      41.852  33.762  30.326  1.00  0.00     0.074 A 
ATOM     66  C   UNL A   1      40.783  34.624  30.791  1.00  0.00     0.031 C 
ATOM     67  C   UNL A   1      43.150  34.141  30.223  1.00  0.00     0.034 A 
BRANCH  54  68
ATOM     68  C   UNL A   1      46.955  29.605  28.411  1.00  0.00     0.023 A 
ATOM     69  C   UNL A   1      47.553  29.820  27.151  1.00  0.00     0.012 A 
ATOM     70  C   UNL A   1      47.702  28.977  29.427  1.00  0.00     0.148 A 
ATOM     71  C   UNL A   1      48.846  29.371  26.889  1.00  0.00     0.002 A 
ATOM     72  C   UNL A   1      49.010  28.579  29.174  1.00  0.00     0.091 A 
ATOM     73  F   UNL A   1      47.115  28.758  30.613  1.00  0.00    -0.205 F 
ATOM     74  C   UNL A   1      49.578  28.759  27.903  1.00  0.00     0.022 A 
BRANCH  72  75
ATOM     75  S   UNL A   1      50.061  27.858  30.439  1.00  0.00     0.127 S 
ATOM     76  O   UNL A   1      51.331  27.724  29.727  1.00  0.00    -0.237 OA
ATOM     77  O   UNL A   1      50.050  28.893  31.475  1.00  0.00    -0.237 OA
ATOM     78  O   UNL A   1      49.422  26.608  30.827  1.00  0.00    -0.744 OA
ENDBRANCH  72  75
ENDBRANCH  54  68
BRANCH  55  79
ATOM     79  C   UNL A   1      37.493  31.966  30.572  1.00  0.00     0.023 A 
ATOM     80  C   UNL A   1      37.055  31.704  31.884  1.00  0.00     0.012 A 
ATOM     81  C   UNL A   1      36.620  32.599  29.666  1.00  0.00     0.148 A 
ATOM     82  C   UNL A   1      35.763  32.048  32.282  1.00  0.00     0.002 A 
ATOM     83  C   UNL A   1      35.356  32.992  30.086  1.00  0.00     0.091 A 
ATOM     84  F   UNL A   1      37.060  32.834  28.422  1.00  0.00    -0.205 F 
ATOM     85  C   UNL A   1      34.919  32.703  31.388  1.00  0.00     0.022 A 
BRANCH  83  86
ATOM     86  S   UNL A   1      34.256  33.967  29.054  1.00  0.00     0.127 S 
ATOM     87  O   UNL A   1      35.136  35.049  28.620  1.00  0.00    -0.237 OA
ATOM     88  O   UNL A   1      33.898  33.007  28.010  1.00  0.00    -0.237 OA
ATOM     89  O   UNL A   1      33.150  34.363  29.914  1.00  0.00    -0.744 OA
ENDBRANCH  83  86
ENDBRANCH  55  79
BRANCH  67  90
ATOM     90  C   UNL A   1      43.491  35.559  30.605  1.00  0.00     0.023 A 
ATOM     91  C   UNL A   1      43.930  35.847  31.912  1.00  0.00     0.012 A 
ATOM     92  C   UNL A   1      43.432  36.594  29.652  1.00  0.00     0.148 A 
ATOM     93  C   UNL A   1      44.265  37.151  32.277  1.00  0.00     0.002 A 
ATOM     94  C   UNL A   1      43.818  37.881  30.008  1.00  0.00     0.091 A 
ATOM     95  F   UNL A   1      42.995  36.304  28.418  1.00  0.00    -0.205 F 
ATOM     96  C   UNL A   1      44.220  38.164  31.322  1.00  0.00     0.022 A 
BRANCH  94  97
ATOM     97  S   UNL A   1      43.886  39.228  28.822  1.00  0.00     0.127 S 
ATOM     98  O   UNL A   1      44.534  40.279  29.601  1.00  0.00    -0.237 OA
ATOM     99  O   UNL A   1      44.712  38.660  27.756  1.00  0.00    -0.237 OA
ATOM    100  O   UNL A   1      42.506  39.495  28.437  1.00  0.00    -0.744 OA
ENDBRANCH  94  97
ENDBRANCH  67  90
ENDBRANCH  41  42
ENDBRANCH  33  36
ENDBRANCH  31  32
ENDBRANCH  30  31
ENDBRANCH   1  30
TORSDOF 18
ENDMDL
MODEL 3
REMARK VINA RESULT:     -10.0      3.379      9.796
REMARK SMILES O=C(/C=C/c1ccc(C(=O)NC2CC2)cc1)NC1(C(=O)NCCCNC(=O)c2ccc(-c3c4nc(c(-c5cccc(S(=O)(=O)[O-])c5F)c5ccc([nH]5)c(-c5cccc(S(=O)(=O)[O-])c5F)c5nc(c(-c6cccc(S(=O)(=O)[O-])c6F)c6ccc3[nH]6)C=C5)C=C4)cc2)CCCC1
REMARK SMILES IDX 22 1 21 2 19 3 20 4 18 6 91 7 94 8 92 9 93 10 17 11 1 12
REMARK SMILES IDX 2 13 3 15 4 16 5 17 6 18 16 19 7 20 15 21 8 22 9 23 10 24
REMARK SMILES IDX 11 25 12 27 13 28 14 29 23 30 24 31 25 32 26 33 27 35 28 36
REMARK SMILES IDX 29 37 90 38 30 39 89 40 31 41 32 42 33 43 83 44 34 45 88 46
REMARK SMILES IDX 82 47 84 48 35 49 87 50 81 51 80 52 36 54 68 55 48 56 67 57
REMARK SMILES IDX 49 58 52 59 66 60 85 61 50 62 51 63 65 65 86 66 53 67 37 68
REMARK SMILES IDX 38 69 46 70 39 71 41 72 47 73 40 74 42 75 43 76 44 77 45 78
REMARK SMILES IDX 69 79 70 80 78 81 71 82 73 83 79 84 72 85 74 86 75 87 76 88
REMARK SMILES IDX 77 89 54 90 55 91 63 92 56 93 58 94 64 95 57 96 59 97 60 98
REMARK SMILES IDX 61 99 62 100
REMARK H PARENT 21 5 17 14 11 26 25 34 84 53 52 64
REMARK Flexibility Score: inf
ROOT
ATOM      1  C   UNL A   1      43.390  23.131  25.377  1.00  0.00     0.117 C 
ENDROOT
BRANCH   1   2
ATOM      2  N   UNL A   1      42.766  24.377  24.996  1.00  0.00    -0.354 N 
ATOM      3  C   UNL A   1      41.897  25.192  25.651  1.00  0.00     0.245 C 
ATOM      4  O   UNL A   1      41.528  26.183  25.002  1.00  0.00    -0.272 OA
ATOM      5  H   UNL A   1      43.016  24.693  24.099  1.00  0.00     0.163 HD
BRANCH   3   6
ATOM      6  C   UNL A   1      41.293  24.882  27.071  1.00  0.00     0.119 C 
ATOM      7  C   UNL A   1      42.283  24.461  28.171  1.00  0.00     0.038 C 
ATOM      8  C   UNL A   1      40.261  23.742  26.992  1.00  0.00     0.038 C 
ATOM      9  C   UNL A   1      41.999  23.015  28.562  1.00  0.00     0.003 C 
ATOM     10  C   UNL A   1      40.826  22.537  27.730  1.00  0.00     0.003 C 
BRANCH   6  11
ATOM     11  N   UNL A   1      40.561  26.122  27.434  1.00  0.00    -0.338 N 
ATOM     12  O   UNL A   1      39.246  25.256  29.116  1.00  0.00    -0.270 OA
ATOM     13  C   UNL A   1      39.675  26.208  28.470  1.00  0.00     0.244 C 
ATOM     14  H   UNL A   1      40.724  26.930  26.897  1.00  0.00     0.164 HD
BRANCH  13  15
ATOM     15  C   UNL A   1      39.183  27.561  28.815  1.00  0.00     0.072 C 
ATOM     16  C   UNL A   1      39.365  28.713  28.149  1.00  0.00     0.014 C 
BRANCH  16  17
ATOM     17  C   UNL A   1      38.943  29.971  28.773  1.00  0.00    -0.025 A 
ATOM     18  C   UNL A   1      39.676  30.568  29.799  1.00  0.00     0.009 A 
ATOM     19  C   UNL A   1      37.763  30.587  28.342  1.00  0.00     0.009 A 
ATOM     20  C   UNL A   1      39.281  31.816  30.306  1.00  0.00     0.014 A 
ATOM     21  C   UNL A   1      37.362  31.816  28.863  1.00  0.00     0.014 A 
ATOM     22  C   UNL A   1      38.144  32.478  29.809  1.00  0.00     0.039 A 
BRANCH  22  23
ATOM     23  C   UNL A   1      37.842  33.842  30.338  1.00  0.00     0.251 C 
ATOM     24  O   UNL A   1      38.497  34.803  29.928  1.00  0.00    -0.269 OA
ATOM     25  N   UNL A   1      36.825  34.095  31.238  1.00  0.00    -0.349 N 
ATOM     26  H   UNL A   1      36.720  35.043  31.480  1.00  0.00     0.164 HD
BRANCH  25  27
ATOM     27  C   UNL A   1      35.904  33.219  31.876  1.00  0.00     0.082 C 
ATOM     28  C   UNL A   1      36.376  32.188  32.866  1.00  0.00     0.027 C 
ATOM     29  C   UNL A   1      35.563  33.354  33.336  1.00  0.00     0.027 C 
ENDBRANCH  25  27
ENDBRANCH  22  23
ENDBRANCH  16  17
ENDBRANCH  13  15
ENDBRANCH   6  11
ENDBRANCH   3   6
ENDBRANCH   1   2
BRANCH   1  30
ATOM     30  C   UNL A   1      44.868  23.079  25.015  1.00  0.00     0.042 C 
BRANCH  30  31
ATOM     31  C   UNL A   1      45.736  23.986  25.880  1.00  0.00     0.118 C 
BRANCH  31  32
ATOM     32  N   UNL A   1      46.540  24.906  25.079  1.00  0.00    -0.352 N 
ATOM     33  C   UNL A   1      46.590  26.276  25.067  1.00  0.00     0.251 C 
ATOM     34  H   UNL A   1      47.150  24.469  24.442  1.00  0.00     0.163 HD
ATOM     35  O   UNL A   1      47.177  26.843  24.143  1.00  0.00    -0.269 OA
BRANCH  33  36
ATOM     36  C   UNL A   1      45.951  27.073  26.134  1.00  0.00     0.039 A 
ATOM     37  C   UNL A   1      44.582  27.339  26.051  1.00  0.00     0.014 A 
ATOM     38  C   UNL A   1      46.697  27.587  27.195  1.00  0.00     0.014 A 
ATOM     39  C   UNL A   1      43.955  28.067  27.063  1.00  0.00     0.010 A 
ATOM     40  C   UNL A   1      46.055  28.219  28.253  1.00  0.00     0.010 A 
ATOM     41  C   UNL A   1      44.680  28.480  28.195  1.00  0.00    -0.014 A 
BRANCH  41  42
ATOM     42  C   UNL A   1      44.009  29.164  29.328  1.00  0.00     0.031 A 
ATOM     43  C   UNL A   1      43.685  30.632  29.256  1.00  0.00     0.074 A 
ATOM     44  C   UNL A   1      43.775  28.478  30.463  1.00  0.00     0.049 A 
ATOM     45  N   UNL A   1      43.123  31.395  30.156  1.00  0.00    -0.248 NA
ATOM     46  C   UNL A   1      44.072  31.343  28.027  1.00  0.00     0.031 C 
ATOM     47  C   UNL A   1      44.142  27.079  30.693  1.00  0.00     0.029 A 
ATOM     48  N   UNL A   1      43.196  28.868  31.643  1.00  0.00    -0.354 N 
ATOM     49  C   UNL A   1      43.126  32.679  29.623  1.00  0.00     0.074 A 
ATOM     50  C   UNL A   1      43.785  32.598  28.338  1.00  0.00     0.031 C 
ATOM     51  C   UNL A   1      43.769  26.725  31.932  1.00  0.00     0.029 A 
ATOM     52  C   UNL A   1      43.167  27.877  32.595  1.00  0.00     0.049 A 
ATOM     53  H   UNL A   1      42.836  29.772  31.795  1.00  0.00     0.167 HD
ATOM     54  C   UNL A   1      42.601  33.816  30.140  1.00  0.00     0.034 A 
ATOM     55  C   UNL A   1      42.715  27.893  33.864  1.00  0.00     0.034 A 
ATOM     56  C   UNL A   1      41.918  33.880  31.404  1.00  0.00     0.049 A 
ATOM     57  C   UNL A   1      42.085  29.147  34.397  1.00  0.00     0.074 A 
ATOM     58  C   UNL A   1      41.255  34.954  31.971  1.00  0.00     0.029 A 
ATOM     59  N   UNL A   1      41.829  32.833  32.309  1.00  0.00    -0.354 N 
ATOM     60  N   UNL A   1      41.931  30.307  33.805  1.00  0.00    -0.248 NA
ATOM     61  C   UNL A   1      41.530  29.086  35.756  1.00  0.00     0.031 C 
ATOM     62  C   UNL A   1      40.799  34.566  33.236  1.00  0.00     0.029 A 
ATOM     63  C   UNL A   1      41.142  33.238  33.441  1.00  0.00     0.049 A 
ATOM     64  H   UNL A   1      42.200  31.932  32.168  1.00  0.00     0.167 HD
ATOM     65  C   UNL A   1      41.243  31.109  34.709  1.00  0.00     0.074 A 
ATOM     66  C   UNL A   1      40.986  30.289  35.876  1.00  0.00     0.031 C 
ATOM     67  C   UNL A   1      40.870  32.407  34.588  1.00  0.00     0.034 A 
BRANCH  54  68
ATOM     68  C   UNL A   1      42.718  35.072  29.314  1.00  0.00     0.023 A 
ATOM     69  C   UNL A   1      41.727  35.379  28.356  1.00  0.00     0.012 A 
ATOM     70  C   UNL A   1      43.795  35.962  29.496  1.00  0.00     0.148 A 
ATOM     71  C   UNL A   1      41.835  36.517  27.558  1.00  0.00     0.002 A 
ATOM     72  C   UNL A   1      43.867  37.121  28.732  1.00  0.00     0.091 A 
ATOM     73  F   UNL A   1      44.741  35.648  30.393  1.00  0.00    -0.205 F 
ATOM     74  C   UNL A   1      42.899  37.392  27.752  1.00  0.00     0.022 A 
BRANCH  72  75
ATOM     75  S   UNL A   1      45.154  38.352  28.966  1.00  0.00     0.127 S 
ATOM     76  O   UNL A   1      46.336  37.640  28.482  1.00  0.00    -0.237 OA
ATOM     77  O   UNL A   1      44.701  39.440  28.098  1.00  0.00    -0.237 OA
ATOM     78  O   UNL A   1      45.149  38.671  30.387  1.00  0.00    -0.744 OA
ENDBRANCH  72  75
ENDBRANCH  54  68
BRANCH  55  79
ATOM     79  C   UNL A   1      42.795  26.651  34.682  1.00  0.00     0.023 A 
ATOM     80  C   UNL A   1      41.667  25.815  34.789  1.00  0.00     0.012 A 
ATOM     81  C   UNL A   1      44.004  26.257  35.287  1.00  0.00     0.148 A 
ATOM     82  C   UNL A   1      41.737  24.618  35.503  1.00  0.00     0.002 A 
ATOM     83  C   UNL A   1      44.083  25.037  35.945  1.00  0.00     0.091 A 
ATOM     84  F   UNL A   1      45.063  27.072  35.173  1.00  0.00    -0.205 F 
ATOM     85  C   UNL A   1      42.947  24.223  36.069  1.00  0.00     0.022 A 
BRANCH  83  86
ATOM     86  S   UNL A   1      45.630  24.380  36.577  1.00  0.00     0.127 S 
ATOM     87  O   UNL A   1      45.279  22.986  36.837  1.00  0.00    -0.237 OA
ATOM     88  O   UNL A   1      46.528  24.588  35.441  1.00  0.00    -0.237 OA
ATOM     89  O   UNL A   1      45.950  25.177  37.753  1.00  0.00    -0.744 OA
ENDBRANCH  83  86
ENDBRANCH  55  79
BRANCH  67  90
ATOM     90  C   UNL A   1      40.127  33.025  35.744  1.00  0.00     0.023 A 
ATOM     91  C   UNL A   1      38.723  32.921  35.812  1.00  0.00     0.012 A 
ATOM     92  C   UNL A   1      40.824  33.658  36.792  1.00  0.00     0.148 A 
ATOM     93  C   UNL A   1      38.022  33.473  36.884  1.00  0.00     0.002 A 
ATOM     94  C   UNL A   1      40.122  34.159  37.882  1.00  0.00     0.091 A 
ATOM     95  F   UNL A   1      42.157  33.763  36.701  1.00  0.00    -0.205 F 
ATOM     96  C   UNL A   1      38.722  34.081  37.922  1.00  0.00     0.022 A 
BRANCH  94  97
ATOM     97  S   UNL A   1      40.946  34.870  39.311  1.00  0.00     0.127 S 
ATOM     98  O   UNL A   1      41.448  36.131  38.768  1.00  0.00    -0.237 OA
ATOM     99  O   UNL A   1      39.845  35.011  40.265  1.00  0.00    -0.237 OA
ATOM    100  O   UNL A   1      41.967  33.910  39.706  1.00  0.00    -0.744 OA
ENDBRANCH  94  97
ENDBRANCH  67  90
ENDBRANCH  41  42
ENDBRANCH  33  36
ENDBRANCH  31  32
ENDBRANCH  30  31
ENDBRANCH   1  30
TORSDOF 18
ENDMDL
