MODEL 1
REMARK VINA RESULT:     -13.0      0.000      0.000
REMARK SMILES CC[C@H](C)N1C(=O)c2ccccc2[C@@H](C(=O)NCCCNC(=O)c2ccc(-c3c4nc(c(-c5cccc(S(=O)(=O)[O-])c5F)c5ccc([nH]5)c(-c5cccc(S(=O)(=O)[O-])c5F)c5nc(c(-c6cccc(S(=O)(=O)[O-])c6F)c6ccc3[nH]6)C=C5)C=C4)cc2)C12CCCCC2
REMARK SMILES IDX 19 1 18 2 17 3 15 4 16 5 14 7 5 8 6 9 87 10 7 11 8 12 88 13
REMARK SMILES IDX 92 14 9 15 13 16 89 17 91 18 10 19 12 20 90 21 11 22 3 23
REMARK SMILES IDX 4 24 2 25 1 26 20 27 21 28 22 29 23 31 24 32 25 33 86 34
REMARK SMILES IDX 26 35 85 36 27 37 28 38 29 39 79 40 30 41 84 42 78 43 80 44
REMARK SMILES IDX 31 45 83 46 77 47 76 48 32 50 64 51 44 52 63 53 45 54 48 55
REMARK SMILES IDX 62 56 81 57 46 58 47 59 61 61 82 62 49 63 33 64 34 65 42 66
REMARK SMILES IDX 35 67 37 68 43 69 36 70 38 71 39 72 40 73 41 74 65 75 66 76
REMARK SMILES IDX 74 77 67 78 69 79 75 80 68 81 70 82 71 83 72 84 73 85 50 86
REMARK SMILES IDX 51 87 59 88 52 89 54 90 60 91 53 92 55 93 56 94 57 95 58 96
REMARK H PARENT 17 6 21 30 80 49 48 60
REMARK Flexibility Score: inf
ROOT
ATOM      1  C   UNL A   1      35.356  22.401  25.196  1.00  0.00     0.042 C 
ENDROOT
BRANCH   1   2
ATOM      2  C   UNL A   1      34.935  23.841  25.483  1.00  0.00     0.117 C 
BRANCH   2   3
ATOM      3  N   UNL A   1      33.858  23.972  26.461  1.00  0.00    -0.355 N 
ATOM      4  C   UNL A   1      32.564  24.396  26.397  1.00  0.00     0.229 C 
ATOM      5  O   UNL A   1      31.916  24.309  27.447  1.00  0.00    -0.274 OA
ATOM      6  H   UNL A   1      34.126  23.693  27.367  1.00  0.00     0.163 HD
BRANCH   4   7
ATOM      7  C   UNL A   1      31.882  24.888  25.105  1.00  0.00     0.135 C 
ATOM      8  N   UNL A   1      32.097  26.450  23.110  1.00  0.00    -0.329 N 
ATOM      9  C   UNL A   1      32.767  25.460  22.369  1.00  0.00     0.254 C 
ATOM     10  C   UNL A   1      32.168  26.389  24.638  1.00  0.00     0.059 C 
ATOM     11  O   UNL A   1      33.377  25.667  21.325  1.00  0.00    -0.269 OA
ATOM     12  C   UNL A   1      32.574  24.069  22.810  1.00  0.00     0.044 A 
ATOM     13  C   UNL A   1      33.550  26.968  25.038  1.00  0.00     0.030 C 
ATOM     14  C   UNL A   1      31.124  27.344  25.309  1.00  0.00     0.030 C 
ATOM     15  C   UNL A   1      32.910  23.019  21.942  1.00  0.00     0.014 A 
ATOM     16  C   UNL A   1      32.017  23.796  24.054  1.00  0.00    -0.020 A 
ATOM     17  C   UNL A   1      33.806  27.222  26.525  1.00  0.00     0.002 C 
ATOM     18  C   UNL A   1      31.293  27.510  26.822  1.00  0.00     0.002 C 
ATOM     19  C   UNL A   1      32.651  21.696  22.298  1.00  0.00     0.001 A 
ATOM     20  C   UNL A   1      31.691  22.461  24.373  1.00  0.00     0.005 A 
ATOM     21  C   UNL A   1      32.687  28.006  27.196  1.00  0.00     0.000 C 
ATOM     22  C   UNL A   1      32.018  21.420  23.505  1.00  0.00     0.000 A 
BRANCH   8  23
ATOM     23  C   UNL A   1      31.772  27.692  22.348  1.00  0.00     0.082 C 
ATOM     24  C   UNL A   1      30.265  27.991  22.341  1.00  0.00     0.031 C 
BRANCH  23  25
ATOM     25  C   UNL A   1      32.697  28.861  22.810  1.00  0.00     0.021 C 
ATOM     26  C   UNL A   1      34.156  28.775  22.393  1.00  0.00     0.006 C 
ENDBRANCH  23  25
ENDBRANCH   8  23
ENDBRANCH   4   7
ENDBRANCH   2   3
ENDBRANCH   1   2
BRANCH   1  27
ATOM     27  C   UNL A   1      36.723  22.247  24.555  1.00  0.00     0.118 C 
BRANCH  27  28
ATOM     28  N   UNL A   1      37.394  21.047  25.014  1.00  0.00    -0.352 N 
ATOM     29  C   UNL A   1      38.586  20.955  25.694  1.00  0.00     0.251 C 
ATOM     30  H   UNL A   1      36.943  20.195  24.814  1.00  0.00     0.163 HD
ATOM     31  O   UNL A   1      39.165  19.874  25.767  1.00  0.00    -0.269 OA
BRANCH  29  32
ATOM     32  C   UNL A   1      39.172  22.172  26.302  1.00  0.00     0.039 A 
ATOM     33  C   UNL A   1      38.619  23.431  26.047  1.00  0.00     0.014 A 
ATOM     34  C   UNL A   1      40.305  22.057  27.110  1.00  0.00     0.014 A 
ATOM     35  C   UNL A   1      39.286  24.580  26.463  1.00  0.00     0.010 A 
ATOM     36  C   UNL A   1      40.924  23.211  27.599  1.00  0.00     0.010 A 
ATOM     37  C   UNL A   1      40.447  24.485  27.245  1.00  0.00    -0.014 A 
BRANCH  37  38
ATOM     38  C   UNL A   1      41.157  25.712  27.696  1.00  0.00     0.031 A 
ATOM     39  C   UNL A   1      40.431  26.771  28.483  1.00  0.00     0.074 A 
ATOM     40  C   UNL A   1      42.456  25.888  27.379  1.00  0.00     0.049 A 
ATOM     41  N   UNL A   1      40.847  27.960  28.840  1.00  0.00    -0.248 NA
ATOM     42  C   UNL A   1      39.061  26.463  28.926  1.00  0.00     0.031 C 
ATOM     43  C   UNL A   1      43.277  24.943  26.619  1.00  0.00     0.029 A 
ATOM     44  N   UNL A   1      43.305  26.937  27.632  1.00  0.00    -0.354 N 
ATOM     45  C   UNL A   1      39.781  28.558  29.500  1.00  0.00     0.074 A 
ATOM     46  C   UNL A   1      38.697  27.600  29.508  1.00  0.00     0.031 C 
ATOM     47  C   UNL A   1      44.505  25.458  26.456  1.00  0.00     0.029 A 
ATOM     48  C   UNL A   1      44.541  26.793  27.044  1.00  0.00     0.049 A 
ATOM     49  H   UNL A   1      43.055  27.716  28.180  1.00  0.00     0.167 HD
ATOM     50  C   UNL A   1      39.716  29.789  30.057  1.00  0.00     0.034 A 
ATOM     51  C   UNL A   1      45.573  27.651  26.942  1.00  0.00     0.034 A 
ATOM     52  C   UNL A   1      40.809  30.724  30.098  1.00  0.00     0.049 A 
ATOM     53  C   UNL A   1      45.469  29.014  27.564  1.00  0.00     0.074 A 
ATOM     54  C   UNL A   1      40.840  31.975  30.691  1.00  0.00     0.029 A 
ATOM     55  N   UNL A   1      42.054  30.519  29.530  1.00  0.00    -0.354 N 
ATOM     56  N   UNL A   1      44.476  29.533  28.242  1.00  0.00    -0.248 NA
ATOM     57  C   UNL A   1      46.633  29.901  27.423  1.00  0.00     0.031 C 
ATOM     58  C   UNL A   1      42.100  32.533  30.468  1.00  0.00     0.029 A 
ATOM     59  C   UNL A   1      42.859  31.621  29.753  1.00  0.00     0.049 A 
ATOM     60  H   UNL A   1      42.326  29.709  29.040  1.00  0.00     0.167 HD
ATOM     61  C   UNL A   1      44.895  30.804  28.613  1.00  0.00     0.074 A 
ATOM     62  C   UNL A   1      46.245  30.966  28.114  1.00  0.00     0.031 C 
ATOM     63  C   UNL A   1      44.213  31.758  29.289  1.00  0.00     0.034 A 
BRANCH  50  64
ATOM     64  C   UNL A   1      38.436  30.216  30.720  1.00  0.00     0.023 A 
ATOM     65  C   UNL A   1      38.281  30.022  32.106  1.00  0.00     0.012 A 
ATOM     66  C   UNL A   1      37.474  30.959  30.007  1.00  0.00     0.148 A 
ATOM     67  C   UNL A   1      37.190  30.571  32.777  1.00  0.00     0.002 A 
ATOM     68  C   UNL A   1      36.406  31.527  30.688  1.00  0.00     0.091 A 
ATOM     69  F   UNL A   1      37.647  31.123  28.689  1.00  0.00    -0.205 F 
ATOM     70  C   UNL A   1      36.262  31.334  32.073  1.00  0.00     0.022 A 
BRANCH  68  71
ATOM     71  S   UNL A   1      35.187  32.579  29.889  1.00  0.00     0.127 S 
ATOM     72  O   UNL A   1      34.654  31.683  28.861  1.00  0.00    -0.237 OA
ATOM     73  O   UNL A   1      34.265  32.864  30.987  1.00  0.00    -0.237 OA
ATOM     74  O   UNL A   1      35.919  33.729  29.378  1.00  0.00    -0.744 OA
ENDBRANCH  68  71
ENDBRANCH  50  64
BRANCH  51  75
ATOM     75  C   UNL A   1      46.794  27.241  26.197  1.00  0.00     0.023 A 
ATOM     76  C   UNL A   1      46.915  27.557  24.831  1.00  0.00     0.012 A 
ATOM     77  C   UNL A   1      47.851  26.579  26.853  1.00  0.00     0.148 A 
ATOM     78  C   UNL A   1      48.067  27.208  24.126  1.00  0.00     0.002 A 
ATOM     79  C   UNL A   1      49.012  26.276  26.156  1.00  0.00     0.091 A 
ATOM     80  F   UNL A   1      47.704  26.284  28.152  1.00  0.00    -0.205 F 
ATOM     81  C   UNL A   1      49.119  26.579  24.790  1.00  0.00     0.022 A 
BRANCH  79  82
ATOM     82  S   UNL A   1      50.457  25.561  26.948  1.00  0.00     0.127 S 
ATOM     83  O   UNL A   1      51.359  25.380  25.812  1.00  0.00    -0.237 OA
ATOM     84  O   UNL A   1      50.842  26.622  27.878  1.00  0.00    -0.237 OA
ATOM     85  O   UNL A   1      49.996  24.336  27.584  1.00  0.00    -0.744 OA
ENDBRANCH  79  82
ENDBRANCH  51  75
BRANCH  63  86
ATOM     86  C   UNL A   1      44.904  33.070  29.544  1.00  0.00     0.023 A 
ATOM     87  C   UNL A   1      45.688  33.223  30.703  1.00  0.00     0.012 A 
ATOM     88  C   UNL A   1      44.853  34.108  28.595  1.00  0.00     0.148 A 
ATOM     89  C   UNL A   1      46.397  34.403  30.925  1.00  0.00     0.002 A 
ATOM     90  C   UNL A   1      45.590  35.267  28.805  1.00  0.00     0.091 A 
ATOM     91  F   UNL A   1      44.093  33.939  27.503  1.00  0.00    -0.205 F 
ATOM     92  C   UNL A   1      46.357  35.418  29.972  1.00  0.00     0.022 A 
BRANCH  90  93
ATOM     93  S   UNL A   1      45.652  36.604  27.607  1.00  0.00     0.127 S 
ATOM     94  O   UNL A   1      46.150  35.913  26.418  1.00  0.00    -0.237 OA
ATOM     95  O   UNL A   1      44.250  37.015  27.531  1.00  0.00    -0.237 OA
ATOM     96  O   UNL A   1      46.550  37.606  28.165  1.00  0.00    -0.744 OA
ENDBRANCH  90  93
ENDBRANCH  63  86
ENDBRANCH  37  38
ENDBRANCH  29  32
ENDBRANCH  27  28
ENDBRANCH   1  27
TORSDOF 15
ENDMDL
MODEL 2
REMARK VINA RESULT:     -12.7      4.566      9.609
REMARK SMILES CC[C@H](C)N1C(=O)c2ccccc2[C@@H](C(=O)NCCCNC(=O)c2ccc(-c3c4nc(c(-c5cccc(S(=O)(=O)[O-])c5F)c5ccc([nH]5)c(-c5cccc(S(=O)(=O)[O-])c5F)c5nc(c(-c6cccc(S(=O)(=O)[O-])c6F)c6ccc3[nH]6)C=C5)C=C4)cc2)C12CCCCC2
REMARK SMILES IDX 19 1 18 2 17 3 15 4 16 5 14 7 5 8 6 9 87 10 7 11 8 12 88 13
REMARK SMILES IDX 92 14 9 15 13 16 89 17 91 18 10 19 12 20 90 21 11 22 3 23
REMARK SMILES IDX 4 24 2 25 1 26 20 27 21 28 22 29 23 31 24 32 25 33 86 34
REMARK SMILES IDX 26 35 85 36 27 37 28 38 29 39 79 40 30 41 84 42 78 43 80 44
REMARK SMILES IDX 31 45 83 46 77 47 76 48 32 50 64 51 44 52 63 53 45 54 48 55
REMARK SMILES IDX 62 56 81 57 46 58 47 59 61 61 82 62 49 63 33 64 34 65 42 66
REMARK SMILES IDX 35 67 37 68 43 69 36 70 38 71 39 72 40 73 41 74 65 75 66 76
REMARK SMILES IDX 74 77 67 78 69 79 75 80 68 81 70 82 71 83 72 84 73 85 50 86
REMARK SMILES IDX 51 87 59 88 52 89 54 90 60 91 53 92 55 93 56 94 57 95 58 96
REMARK H PARENT 17 6 21 30 80 49 48 60
REMARK Flexibility Score: inf
ROOT
ATOM      1  C   UNL A   1      32.508  28.381  25.644  1.00  0.00     0.042 C 
ENDROOT
BRANCH   1   2
ATOM      2  C   UNL A   1      33.407  27.149  25.570  1.00  0.00     0.117 C 
BRANCH   2   3
ATOM      3  N   UNL A   1      33.886  26.830  24.227  1.00  0.00    -0.355 N 
ATOM      4  C   UNL A   1      33.702  25.780  23.377  1.00  0.00     0.229 C 
ATOM      5  O   UNL A   1      34.233  25.886  22.266  1.00  0.00    -0.274 OA
ATOM      6  H   UNL A   1      34.472  27.528  23.853  1.00  0.00     0.163 HD
BRANCH   4   7
ATOM      7  C   UNL A   1      32.833  24.550  23.706  1.00  0.00     0.135 C 
ATOM      8  N   UNL A   1      32.338  22.762  25.445  1.00  0.00    -0.329 N 
ATOM      9  C   UNL A   1      31.387  23.589  26.067  1.00  0.00     0.254 C 
ATOM     10  C   UNL A   1      33.464  23.422  24.644  1.00  0.00     0.059 C 
ATOM     11  O   UNL A   1      30.907  23.383  27.178  1.00  0.00    -0.269 OA
ATOM     12  C   UNL A   1      30.829  24.678  25.248  1.00  0.00     0.044 A 
ATOM     13  C   UNL A   1      34.510  23.913  25.679  1.00  0.00     0.030 C 
ATOM     14  C   UNL A   1      34.234  22.386  23.757  1.00  0.00     0.030 C 
ATOM     15  C   UNL A   1      29.650  25.315  25.663  1.00  0.00     0.014 A 
ATOM     16  C   UNL A   1      31.434  25.038  24.051  1.00  0.00    -0.020 A 
ATOM     17  C   UNL A   1      35.848  24.427  25.142  1.00  0.00     0.002 C 
ATOM     18  C   UNL A   1      35.513  22.926  23.112  1.00  0.00     0.002 C 
ATOM     19  C   UNL A   1      29.050  26.285  24.861  1.00  0.00     0.001 A 
ATOM     20  C   UNL A   1      30.779  25.965  23.213  1.00  0.00     0.005 A 
ATOM     21  C   UNL A   1      36.493  23.477  24.144  1.00  0.00     0.000 C 
ATOM     22  C   UNL A   1      29.603  26.591  23.622  1.00  0.00     0.000 A 
BRANCH   8  23
ATOM     23  C   UNL A   1      32.418  21.374  25.990  1.00  0.00     0.082 C 
ATOM     24  C   UNL A   1      32.148  20.311  24.914  1.00  0.00     0.031 C 
BRANCH  23  25
ATOM     25  C   UNL A   1      33.733  21.196  26.810  1.00  0.00     0.021 C 
ATOM     26  C   UNL A   1      33.846  22.004  28.092  1.00  0.00     0.006 C 
ENDBRANCH  23  25
ENDBRANCH   8  23
ENDBRANCH   4   7
ENDBRANCH   2   3
ENDBRANCH   1   2
BRANCH   1  27
ATOM     27  C   UNL A   1      33.148  29.672  25.168  1.00  0.00     0.118 C 
BRANCH  27  28
ATOM     28  N   UNL A   1      32.582  30.826  25.838  1.00  0.00    -0.352 N 
ATOM     29  C   UNL A   1      33.003  31.411  27.009  1.00  0.00     0.251 C 
ATOM     30  H   UNL A   1      31.802  31.240  25.403  1.00  0.00     0.163 HD
ATOM     31  O   UNL A   1      32.265  32.197  27.599  1.00  0.00    -0.269 OA
BRANCH  29  32
ATOM     32  C   UNL A   1      34.331  31.058  27.563  1.00  0.00     0.039 A 
ATOM     33  C   UNL A   1      34.595  29.756  28.000  1.00  0.00     0.014 A 
ATOM     34  C   UNL A   1      35.311  32.045  27.676  1.00  0.00     0.014 A 
ATOM     35  C   UNL A   1      35.771  29.481  28.692  1.00  0.00     0.010 A 
ATOM     36  C   UNL A   1      36.527  31.743  28.294  1.00  0.00     0.010 A 
ATOM     37  C   UNL A   1      36.753  30.470  28.847  1.00  0.00    -0.014 A 
BRANCH  37  38
ATOM     38  C   UNL A   1      38.014  30.176  29.580  1.00  0.00     0.031 A 
ATOM     39  C   UNL A   1      39.042  29.244  28.992  1.00  0.00     0.074 A 
ATOM     40  C   UNL A   1      38.229  30.729  30.790  1.00  0.00     0.049 A 
ATOM     41  N   UNL A   1      40.128  28.767  29.543  1.00  0.00    -0.248 NA
ATOM     42  C   UNL A   1      38.825  28.786  27.609  1.00  0.00     0.031 C 
ATOM     43  C   UNL A   1      37.316  31.646  31.477  1.00  0.00     0.029 A 
ATOM     44  N   UNL A   1      39.272  30.579  31.671  1.00  0.00    -0.354 N 
ATOM     45  C   UNL A   1      40.694  27.916  28.601  1.00  0.00     0.074 A 
ATOM     46  C   UNL A   1      39.841  27.948  27.434  1.00  0.00     0.031 C 
ATOM     47  C   UNL A   1      37.829  31.965  32.674  1.00  0.00     0.029 A 
ATOM     48  C   UNL A   1      39.075  31.231  32.866  1.00  0.00     0.049 A 
ATOM     49  H   UNL A   1      40.081  30.056  31.468  1.00  0.00     0.167 HD
ATOM     50  C   UNL A   1      41.828  27.185  28.698  1.00  0.00     0.034 A 
ATOM     51  C   UNL A   1      39.785  31.207  34.011  1.00  0.00     0.034 A 
ATOM     52  C   UNL A   1      42.709  27.191  29.836  1.00  0.00     0.049 A 
ATOM     53  C   UNL A   1      41.035  30.380  34.090  1.00  0.00     0.074 A 
ATOM     54  C   UNL A   1      43.907  26.516  29.992  1.00  0.00     0.029 A 
ATOM     55  N   UNL A   1      42.493  27.900  31.005  1.00  0.00    -0.354 N 
ATOM     56  N   UNL A   1      41.588  29.637  33.164  1.00  0.00    -0.248 NA
ATOM     57  C   UNL A   1      41.769  30.401  35.364  1.00  0.00     0.031 C 
ATOM     58  C   UNL A   1      44.410  26.805  31.262  1.00  0.00     0.029 A 
ATOM     59  C   UNL A   1      43.533  27.674  31.889  1.00  0.00     0.049 A 
ATOM     60  H   UNL A   1      41.716  28.479  31.181  1.00  0.00     0.167 HD
ATOM     61  C   UNL A   1      42.736  29.106  33.740  1.00  0.00     0.074 A 
ATOM     62  C   UNL A   1      42.818  29.639  35.084  1.00  0.00     0.031 C 
ATOM     63  C   UNL A   1      43.628  28.239  33.208  1.00  0.00     0.034 A 
BRANCH  50  64
ATOM     64  C   UNL A   1      42.237  26.329  27.532  1.00  0.00     0.023 A 
ATOM     65  C   UNL A   1      43.155  26.838  26.593  1.00  0.00     0.012 A 
ATOM     66  C   UNL A   1      41.851  24.975  27.468  1.00  0.00     0.148 A 
ATOM     67  C   UNL A   1      43.692  26.008  25.611  1.00  0.00     0.002 A 
ATOM     68  C   UNL A   1      42.413  24.148  26.504  1.00  0.00     0.091 A 
ATOM     69  F   UNL A   1      40.974  24.520  28.373  1.00  0.00    -0.205 F 
ATOM     70  C   UNL A   1      43.333  24.662  25.575  1.00  0.00     0.022 A 
BRANCH  68  71
ATOM     71  S   UNL A   1      42.068  22.387  26.407  1.00  0.00     0.127 S 
ATOM     72  O   UNL A   1      42.538  21.922  27.713  1.00  0.00    -0.237 OA
ATOM     73  O   UNL A   1      40.616  22.371  26.240  1.00  0.00    -0.237 OA
ATOM     74  O   UNL A   1      42.829  21.888  25.271  1.00  0.00    -0.744 OA
ENDBRANCH  68  71
ENDBRANCH  50  64
BRANCH  51  75
ATOM     75  C   UNL A   1      39.307  31.987  35.184  1.00  0.00     0.023 A 
ATOM     76  C   UNL A   1      38.438  31.386  36.113  1.00  0.00     0.012 A 
ATOM     77  C   UNL A   1      39.750  33.307  35.401  1.00  0.00     0.148 A 
ATOM     78  C   UNL A   1      38.007  32.093  37.235  1.00  0.00     0.002 A 
ATOM     79  C   UNL A   1      39.353  33.988  36.544  1.00  0.00     0.091 A 
ATOM     80  F   UNL A   1      40.572  33.856  34.495  1.00  0.00    -0.205 F 
ATOM     81  C   UNL A   1      38.473  33.387  37.457  1.00  0.00     0.022 A 
BRANCH  79  82
ATOM     82  S   UNL A   1      39.980  35.616  36.966  1.00  0.00     0.127 S 
ATOM     83  O   UNL A   1      39.288  35.885  38.225  1.00  0.00    -0.237 OA
ATOM     84  O   UNL A   1      41.415  35.359  37.095  1.00  0.00    -0.237 OA
ATOM     85  O   UNL A   1      39.619  36.483  35.854  1.00  0.00    -0.744 OA
ENDBRANCH  79  82
ENDBRANCH  51  75
BRANCH  63  86
ATOM     86  C   UNL A   1      44.785  27.805  34.066  1.00  0.00     0.023 A 
ATOM     87  C   UNL A   1      45.953  28.590  34.098  1.00  0.00     0.012 A 
ATOM     88  C   UNL A   1      44.678  26.680  34.905  1.00  0.00     0.148 A 
ATOM     89  C   UNL A   1      47.010  28.248  34.941  1.00  0.00     0.002 A 
ATOM     90  C   UNL A   1      45.721  26.366  35.769  1.00  0.00     0.091 A 
ATOM     91  F   UNL A   1      43.557  25.946  34.851  1.00  0.00    -0.205 F 
ATOM     92  C   UNL A   1      46.889  27.145  35.782  1.00  0.00     0.022 A 
BRANCH  90  93
ATOM     93  S   UNL A   1      45.632  25.003  36.935  1.00  0.00     0.127 S 
ATOM     94  O   UNL A   1      47.017  24.915  37.395  1.00  0.00    -0.237 OA
ATOM     95  O   UNL A   1      44.690  25.511  37.933  1.00  0.00    -0.237 OA
ATOM     96  O   UNL A   1      45.155  23.854  36.178  1.00  0.00    -0.744 OA
ENDBRANCH  90  93
ENDBRANCH  63  86
ENDBRANCH  37  38
ENDBRANCH  29  32
ENDBRANCH  27  28
ENDBRANCH   1  27
TORSDOF 15
ENDMDL
MODEL 3
REMARK VINA RESULT:     -12.6      3.958      7.307
REMARK SMILES CC[C@H](C)N1C(=O)c2ccccc2[C@@H](C(=O)NCCCNC(=O)c2ccc(-c3c4nc(c(-c5cccc(S(=O)(=O)[O-])c5F)c5ccc([nH]5)c(-c5cccc(S(=O)(=O)[O-])c5F)c5nc(c(-c6cccc(S(=O)(=O)[O-])c6F)c6ccc3[nH]6)C=C5)C=C4)cc2)C12CCCCC2
REMARK SMILES IDX 19 1 18 2 17 3 15 4 16 5 14 7 5 8 6 9 87 10 7 11 8 12 88 13
REMARK SMILES IDX 92 14 9 15 13 16 89 17 91 18 10 19 12 20 90 21 11 22 3 23
REMARK SMILES IDX 4 24 2 25 1 26 20 27 21 28 22 29 23 31 24 32 25 33 86 34
REMARK SMILES IDX 26 35 85 36 27 37 28 38 29 39 79 40 30 41 84 42 78 43 80 44
REMARK SMILES IDX 31 45 83 46 77 47 76 48 32 50 64 51 44 52 63 53 45 54 48 55
REMARK SMILES IDX 62 56 81 57 46 58 47 59 61 61 82 62 49 63 33 64 34 65 42 66
REMARK SMILES IDX 35 67 37 68 43 69 36 70 38 71 39 72 40 73 41 74 65 75 66 76
REMARK SMILES IDX 74 77 67 78 69 79 75 80 68 81 70 82 71 83 72 84 73 85 50 86
REMARK SMILES IDX 51 87 59 88 52 89 54 90 60 91 53 92 55 93 56 94 57 95 58 96
REMARK H PARENT 17 6 21 30 80 49 48 60
REMARK Flexibility Score: inf
ROOT
ATOM      1  C   UNL A   1      32.844  28.085  26.425  1.00  0.00     0.042 C 
ENDROOT
BRANCH   1   2
ATOM      2  C   UNL A   1      33.064  26.580  26.286  1.00  0.00     0.117 C 
BRANCH   2   3
ATOM      3  N   UNL A   1      33.701  26.176  25.035  1.00  0.00    -0.355 N 
ATOM      4  C   UNL A   1      34.110  24.981  24.521  1.00  0.00     0.229 C 
ATOM      5  O   UNL A   1      34.567  25.016  23.373  1.00  0.00    -0.274 OA
ATOM      6  H   UNL A   1      33.873  26.933  24.429  1.00  0.00     0.163 HD
BRANCH   4   7
ATOM      7  C   UNL A   1      33.962  23.633  25.255  1.00  0.00     0.135 C 
ATOM      8  N   UNL A   1      33.410  21.167  24.974  1.00  0.00    -0.329 N 
ATOM      9  C   UNL A   1      34.757  20.865  24.709  1.00  0.00     0.254 C 
ATOM     10  C   UNL A   1      32.908  22.582  24.675  1.00  0.00     0.059 C 
ATOM     11  O   UNL A   1      35.153  19.800  24.243  1.00  0.00    -0.269 OA
ATOM     12  C   UNL A   1      35.753  21.844  25.176  1.00  0.00     0.044 A 
ATOM     13  C   UNL A   1      32.662  22.647  23.145  1.00  0.00     0.030 C 
ATOM     14  C   UNL A   1      31.506  22.852  25.318  1.00  0.00     0.030 C 
ATOM     15  C   UNL A   1      37.101  21.465  25.265  1.00  0.00     0.014 A 
ATOM     16  C   UNL A   1      35.356  23.114  25.575  1.00  0.00    -0.020 A 
ATOM     17  C   UNL A   1      31.955  23.888  22.595  1.00  0.00     0.002 C 
ATOM     18  C   UNL A   1      30.840  24.155  24.869  1.00  0.00     0.002 C 
ATOM     19  C   UNL A   1      38.049  22.341  25.791  1.00  0.00     0.001 A 
ATOM     20  C   UNL A   1      36.309  23.964  26.175  1.00  0.00     0.005 A 
ATOM     21  C   UNL A   1      30.681  24.231  23.353  1.00  0.00     0.000 C 
ATOM     22  C   UNL A   1      37.647  23.583  26.270  1.00  0.00     0.000 A 
BRANCH   8  23
ATOM     23  C   UNL A   1      32.511  19.980  25.090  1.00  0.00     0.082 C 
ATOM     24  C   UNL A   1      32.137  19.399  23.718  1.00  0.00     0.031 C 
BRANCH  23  25
ATOM     25  C   UNL A   1      33.092  18.967  26.124  1.00  0.00     0.021 C 
ATOM     26  C   UNL A   1      32.854  17.493  25.836  1.00  0.00     0.006 C 
ENDBRANCH  23  25
ENDBRANCH   8  23
ENDBRANCH   4   7
ENDBRANCH   2   3
ENDBRANCH   1   2
BRANCH   1  27
ATOM     27  C   UNL A   1      34.040  28.945  26.062  1.00  0.00     0.118 C 
BRANCH  27  28
ATOM     28  N   UNL A   1      33.934  30.273  26.633  1.00  0.00    -0.352 N 
ATOM     29  C   UNL A   1      34.685  30.815  27.651  1.00  0.00     0.251 C 
ATOM     30  H   UNL A   1      33.243  30.856  26.248  1.00  0.00     0.163 HD
ATOM     31  O   UNL A   1      34.300  31.837  28.215  1.00  0.00    -0.269 OA
BRANCH  29  32
ATOM     32  C   UNL A   1      35.932  30.138  28.076  1.00  0.00     0.039 A 
ATOM     33  C   UNL A   1      35.981  29.431  29.281  1.00  0.00     0.014 A 
ATOM     34  C   UNL A   1      37.072  30.237  27.277  1.00  0.00     0.014 A 
ATOM     35  C   UNL A   1      37.201  28.963  29.763  1.00  0.00     0.010 A 
ATOM     36  C   UNL A   1      38.278  29.690  27.724  1.00  0.00     0.010 A 
ATOM     37  C   UNL A   1      38.365  29.086  28.990  1.00  0.00    -0.014 A 
BRANCH  37  38
ATOM     38  C   UNL A   1      39.668  28.581  29.500  1.00  0.00     0.031 A 
ATOM     39  C   UNL A   1      40.401  29.318  30.591  1.00  0.00     0.074 A 
ATOM     40  C   UNL A   1      40.209  27.467  28.966  1.00  0.00     0.049 A 
ATOM     41  N   UNL A   1      41.603  29.105  31.062  1.00  0.00    -0.248 NA
ATOM     42  C   UNL A   1      39.699  30.440  31.237  1.00  0.00     0.031 C 
ATOM     43  C   UNL A   1      39.607  26.660  27.903  1.00  0.00     0.029 A 
ATOM     44  N   UNL A   1      41.401  26.838  29.227  1.00  0.00    -0.354 N 
ATOM     45  C   UNL A   1      41.822  30.090  32.016  1.00  0.00     0.074 A 
ATOM     46  C   UNL A   1      40.625  30.900  32.071  1.00  0.00     0.031 C 
ATOM     47  C   UNL A   1      40.436  25.652  27.592  1.00  0.00     0.029 A 
ATOM     48  C   UNL A   1      41.652  25.777  28.388  1.00  0.00     0.049 A 
ATOM     49  H   UNL A   1      42.017  27.119  29.942  1.00  0.00     0.167 HD
ATOM     50  C   UNL A   1      42.917  30.294  32.784  1.00  0.00     0.034 A 
ATOM     51  C   UNL A   1      42.753  25.015  28.236  1.00  0.00     0.034 A 
ATOM     52  C   UNL A   1      44.089  29.459  32.771  1.00  0.00     0.049 A 
ATOM     53  C   UNL A   1      43.956  25.270  29.097  1.00  0.00     0.074 A 
ATOM     54  C   UNL A   1      45.223  29.568  33.557  1.00  0.00     0.029 A 
ATOM     55  N   UNL A   1      44.281  28.370  31.939  1.00  0.00    -0.354 N 
ATOM     56  N   UNL A   1      44.116  26.165  30.040  1.00  0.00    -0.248 NA
ATOM     57  C   UNL A   1      45.123  24.401  28.886  1.00  0.00     0.031 C 
ATOM     58  C   UNL A   1      46.109  28.553  33.190  1.00  0.00     0.029 A 
ATOM     59  C   UNL A   1      45.517  27.801  32.188  1.00  0.00     0.049 A 
ATOM     60  H   UNL A   1      43.635  28.048  31.269  1.00  0.00     0.167 HD
ATOM     61  C   UNL A   1      45.396  25.964  30.539  1.00  0.00     0.074 A 
ATOM     62  C   UNL A   1      45.959  24.841  29.817  1.00  0.00     0.031 C 
ATOM     63  C   UNL A   1      46.053  26.662  31.495  1.00  0.00     0.034 A 
BRANCH  50  64
ATOM     64  C   UNL A   1      42.916  31.443  33.754  1.00  0.00     0.023 A 
ATOM     65  C   UNL A   1      43.339  32.712  33.317  1.00  0.00     0.012 A 
ATOM     66  C   UNL A   1      42.337  31.300  35.031  1.00  0.00     0.148 A 
ATOM     67  C   UNL A   1      43.175  33.830  34.134  1.00  0.00     0.002 A 
ATOM     68  C   UNL A   1      42.150  32.423  35.827  1.00  0.00     0.091 A 
ATOM     69  F   UNL A   1      41.947  30.079  35.420  1.00  0.00    -0.205 F 
ATOM     70  C   UNL A   1      42.569  33.687  35.380  1.00  0.00     0.022 A 
BRANCH  68  71
ATOM     71  S   UNL A   1      41.325  32.362  37.422  1.00  0.00     0.127 S 
ATOM     72  O   UNL A   1      40.027  31.793  37.060  1.00  0.00    -0.237 OA
ATOM     73  O   UNL A   1      42.195  31.465  38.180  1.00  0.00    -0.237 OA
ATOM     74  O   UNL A   1      41.278  33.735  37.905  1.00  0.00    -0.744 OA
ENDBRANCH  68  71
ENDBRANCH  50  64
BRANCH  51  75
ATOM     75  C   UNL A   1      42.764  23.946  27.201  1.00  0.00     0.023 A 
ATOM     76  C   UNL A   1      43.394  24.179  25.965  1.00  0.00     0.012 A 
ATOM     77  C   UNL A   1      42.191  22.685  27.461  1.00  0.00     0.148 A 
ATOM     78  C   UNL A   1      43.441  23.176  24.997  1.00  0.00     0.002 A 
ATOM     79  C   UNL A   1      42.283  21.678  26.511  1.00  0.00     0.091 A 
ATOM     80  F   UNL A   1      41.592  22.494  28.645  1.00  0.00    -0.205 F 
ATOM     81  C   UNL A   1      42.897  21.924  25.274  1.00  0.00     0.022 A 
BRANCH  79  82
ATOM     82  S   UNL A   1      41.704  20.005  26.816  1.00  0.00     0.127 S 
ATOM     83  O   UNL A   1      40.345  20.244  27.297  1.00  0.00    -0.237 OA
ATOM     84  O   UNL A   1      41.791  19.413  25.482  1.00  0.00    -0.237 OA
ATOM     85  O   UNL A   1      42.624  19.438  27.792  1.00  0.00    -0.744 OA
ENDBRANCH  79  82
ENDBRANCH  51  75
BRANCH  63  86
ATOM     86  C   UNL A   1      47.456  26.240  31.834  1.00  0.00     0.023 A 
ATOM     87  C   UNL A   1      47.675  25.391  32.936  1.00  0.00     0.012 A 
ATOM     88  C   UNL A   1      48.538  26.606  31.012  1.00  0.00     0.148 A 
ATOM     89  C   UNL A   1      48.957  24.927  33.227  1.00  0.00     0.002 A 
ATOM     90  C   UNL A   1      49.808  26.112  31.287  1.00  0.00     0.091 A 
ATOM     91  F   UNL A   1      48.305  27.421  29.973  1.00  0.00    -0.205 F 
ATOM     92  C   UNL A   1      50.019  25.278  32.397  1.00  0.00     0.022 A 
BRANCH  90  93
ATOM     93  S   UNL A   1      51.227  26.456  30.240  1.00  0.00     0.127 S 
ATOM     94  O   UNL A   1      52.319  25.882  31.024  1.00  0.00    -0.237 OA
ATOM     95  O   UNL A   1      50.897  25.717  29.021  1.00  0.00    -0.237 OA
ATOM     96  O   UNL A   1      51.269  27.903  30.081  1.00  0.00    -0.744 OA
ENDBRANCH  90  93
ENDBRANCH  63  86
ENDBRANCH  37  38
ENDBRANCH  29  32
ENDBRANCH  27  28
ENDBRANCH   1  27
TORSDOF 15
ENDMDL
