MODEL 1
REMARK VINA RESULT:     -10.0      0.000      0.000
REMARK SMILES C[C@@](O)(c1ccc(Cl)cc1Cl)[C@@H](F)C(=O)NCCCNC(=O)c1ccc(-c2c3nc(c(-c4cccc(S(=O)(=O)[O-])c4F)c4ccc([nH]4)c(-c4cccc(S(=O)(=O)[O-])c4F)c4nc(c(-c5cccc(S(=O)(=O)[O-])c5F)c5ccc2[nH]5)C=C4)C=C3)cc1
REMARK SMILES IDX 18 1 17 2 16 3 14 4 15 5 12 7 13 8 2 9 1 10 3 11 4 13 5 14
REMARK SMILES IDX 10 15 6 16 9 17 11 18 7 19 8 20 19 21 20 22 21 23 22 25
REMARK SMILES IDX 23 26 24 27 85 28 25 29 84 30 26 31 27 32 28 33 78 34 29 35
REMARK SMILES IDX 83 36 77 37 79 38 30 39 82 40 76 41 75 42 31 44 63 45 43 46
REMARK SMILES IDX 62 47 44 48 47 49 61 50 80 51 45 52 46 53 60 55 81 56 48 57
REMARK SMILES IDX 32 58 33 59 41 60 34 61 36 62 42 63 35 64 37 65 38 66 39 67
REMARK SMILES IDX 40 68 64 69 65 70 73 71 66 72 68 73 74 74 67 75 69 76 70 77
REMARK SMILES IDX 71 78 72 79 49 80 50 81 58 82 51 83 53 84 59 85 52 86 54 87
REMARK SMILES IDX 55 88 56 89 57 90
REMARK H PARENT 16 6 3 12 20 24 79 43 47 54
REMARK Flexibility Score: inf
ROOT
ATOM      1  C   UNL A   1      41.760  20.202  26.159  1.00  0.00     0.042 C 
ENDROOT
BRANCH   1   2
ATOM      2  C   UNL A   1      43.285  20.315  26.127  1.00  0.00     0.117 C 
BRANCH   2   3
ATOM      3  N   UNL A   1      43.780  20.860  24.867  1.00  0.00    -0.353 N 
ATOM      4  C   UNL A   1      44.039  22.139  24.465  1.00  0.00     0.257 C 
ATOM      5  O   UNL A   1      44.418  22.279  23.297  1.00  0.00    -0.272 OA
ATOM      6  H   UNL A   1      43.961  20.179  24.180  1.00  0.00     0.163 HD
BRANCH   4   7
ATOM      7  C   UNL A   1      43.841  23.356  25.375  1.00  0.00     0.291 C 
ATOM      8  F   UNL A   1      43.280  24.407  24.704  1.00  0.00    -0.233 F 
BRANCH   7   9
ATOM      9  C   UNL A   1      45.148  23.809  26.112  1.00  0.00     0.128 C 
ATOM     10  C   UNL A   1      45.627  25.122  25.475  1.00  0.00     0.051 C 
BRANCH   9  11
ATOM     11  O   UNL A   1      46.133  22.780  25.950  1.00  0.00    -0.382 OA
ATOM     12  H   UNL A   1      45.770  22.069  25.399  1.00  0.00     0.212 HD
ENDBRANCH   9  11
BRANCH   9  13
ATOM     13  C   UNL A   1      45.008  23.995  27.639  1.00  0.00     0.005 A 
ATOM     14  C   UNL A   1      43.835  23.594  28.316  1.00  0.00     0.010 A 
ATOM     15  C   UNL A   1      46.025  24.581  28.438  1.00  0.00     0.048 A 
ATOM     16  C   UNL A   1      43.655  23.825  29.684  1.00  0.00     0.021 A 
ATOM     17  C   UNL A   1      45.825  24.846  29.800  1.00  0.00     0.041 A 
ATOM     18  Cl  UNL A   1      47.609  24.973  27.850  1.00  0.00    -0.084 Cl
ATOM     19  C   UNL A   1      44.640  24.474  30.414  1.00  0.00     0.042 A 
ATOM     20  Cl  UNL A   1      44.395  24.796  32.085  1.00  0.00    -0.084 Cl
ENDBRANCH   9  13
ENDBRANCH   7   9
ENDBRANCH   4   7
ENDBRANCH   2   3
ENDBRANCH   1   2
BRANCH   1  21
ATOM     21  C   UNL A   1      41.052  21.433  26.708  1.00  0.00     0.118 C 
BRANCH  21  22
ATOM     22  N   UNL A   1      39.719  21.581  26.148  1.00  0.00    -0.352 N 
ATOM     23  C   UNL A   1      38.841  22.633  26.256  1.00  0.00     0.251 C 
ATOM     24  H   UNL A   1      39.400  20.818  25.614  1.00  0.00     0.163 HD
ATOM     25  O   UNL A   1      37.665  22.463  25.940  1.00  0.00    -0.269 OA
BRANCH  23  26
ATOM     26  C   UNL A   1      39.289  23.957  26.753  1.00  0.00     0.039 A 
ATOM     27  C   UNL A   1      39.949  24.821  25.873  1.00  0.00     0.014 A 
ATOM     28  C   UNL A   1      39.120  24.331  28.090  1.00  0.00     0.014 A 
ATOM     29  C   UNL A   1      40.402  26.067  26.323  1.00  0.00     0.010 A 
ATOM     30  C   UNL A   1      39.495  25.606  28.514  1.00  0.00     0.010 A 
ATOM     31  C   UNL A   1      40.163  26.480  27.644  1.00  0.00    -0.014 A 
BRANCH  31  32
ATOM     32  C   UNL A   1      40.626  27.805  28.138  1.00  0.00     0.031 A 
ATOM     33  C   UNL A   1      42.099  28.126  28.186  1.00  0.00     0.074 A 
ATOM     34  C   UNL A   1      39.734  28.696  28.612  1.00  0.00     0.049 A 
ATOM     35  N   UNL A   1      42.696  29.204  28.627  1.00  0.00    -0.248 NA
ATOM     36  C   UNL A   1      43.026  27.088  27.702  1.00  0.00     0.031 C 
ATOM     37  C   UNL A   1      38.288  28.483  28.696  1.00  0.00     0.029 A 
ATOM     38  N   UNL A   1      39.913  29.953  29.137  1.00  0.00    -0.354 N 
ATOM     39  C   UNL A   1      44.061  28.960  28.511  1.00  0.00     0.074 A 
ATOM     40  C   UNL A   1      44.205  27.618  27.993  1.00  0.00     0.031 C 
ATOM     41  C   UNL A   1      37.712  29.570  29.234  1.00  0.00     0.029 A 
ATOM     42  C   UNL A   1      38.746  30.548  29.558  1.00  0.00     0.049 A 
ATOM     43  H   UNL A   1      40.795  30.388  29.205  1.00  0.00     0.167 HD
ATOM     44  C   UNL A   1      45.100  29.786  28.780  1.00  0.00     0.034 A 
ATOM     45  C   UNL A   1      38.532  31.744  30.144  1.00  0.00     0.034 A 
ATOM     46  C   UNL A   1      44.955  31.141  29.239  1.00  0.00     0.049 A 
ATOM     47  C   UNL A   1      39.699  32.663  30.387  1.00  0.00     0.074 A 
ATOM     48  C   UNL A   1      45.940  32.091  29.441  1.00  0.00     0.029 A 
ATOM     49  N   UNL A   1      43.750  31.739  29.571  1.00  0.00    -0.354 N 
ATOM     50  N   UNL A   1      40.968  32.475  30.113  1.00  0.00    -0.248 NA
ATOM     51  C   UNL A   1      39.403  33.972  30.985  1.00  0.00     0.031 C 
ATOM     52  C   UNL A   1      45.333  33.258  29.915  1.00  0.00     0.029 A 
ATOM     53  C   UNL A   1      43.966  33.041  29.988  1.00  0.00     0.049 A 
ATOM     54  H   UNL A   1      42.868  31.302  29.519  1.00  0.00     0.167 HD
ATOM     55  C   UNL A   1      41.615  33.651  30.475  1.00  0.00     0.074 A 
ATOM     56  C   UNL A   1      40.594  34.554  30.966  1.00  0.00     0.031 C 
ATOM     57  C   UNL A   1      42.936  33.950  30.424  1.00  0.00     0.034 A 
BRANCH  44  58
ATOM     58  C   UNL A   1      46.492  29.269  28.522  1.00  0.00     0.023 A 
ATOM     59  C   UNL A   1      47.091  29.487  27.264  1.00  0.00     0.012 A 
ATOM     60  C   UNL A   1      47.228  28.623  29.534  1.00  0.00     0.148 A 
ATOM     61  C   UNL A   1      48.384  29.038  27.004  1.00  0.00     0.002 A 
ATOM     62  C   UNL A   1      48.535  28.218  29.282  1.00  0.00     0.091 A 
ATOM     63  F   UNL A   1      46.637  28.407  30.717  1.00  0.00    -0.205 F 
ATOM     64  C   UNL A   1      49.109  28.414  28.015  1.00  0.00     0.022 A 
BRANCH  62  65
ATOM     65  S   UNL A   1      49.579  27.475  30.541  1.00  0.00     0.127 S 
ATOM     66  O   UNL A   1      48.898  26.202  30.773  1.00  0.00    -0.237 OA
ATOM     67  O   UNL A   1      50.863  27.361  29.849  1.00  0.00    -0.237 OA
ATOM     68  O   UNL A   1      49.575  28.402  31.664  1.00  0.00    -0.744 OA
ENDBRANCH  62  65
ENDBRANCH  44  58
BRANCH  45  69
ATOM     69  C   UNL A   1      37.143  32.170  30.478  1.00  0.00     0.023 A 
ATOM     70  C   UNL A   1      36.656  31.972  31.785  1.00  0.00     0.012 A 
ATOM     71  C   UNL A   1      36.315  32.792  29.523  1.00  0.00     0.148 A 
ATOM     72  C   UNL A   1      35.360  32.359  32.128  1.00  0.00     0.002 A 
ATOM     73  C   UNL A   1      35.045  33.226  29.888  1.00  0.00     0.091 A 
ATOM     74  F   UNL A   1      36.791  32.958  28.281  1.00  0.00    -0.205 F 
ATOM     75  C   UNL A   1      34.560  32.995  31.184  1.00  0.00     0.022 A 
BRANCH  73  76
ATOM     76  S   UNL A   1      34.000  34.173  28.775  1.00  0.00     0.127 S 
ATOM     77  O   UNL A   1      33.641  33.169  27.776  1.00  0.00    -0.237 OA
ATOM     78  O   UNL A   1      32.906  34.579  29.661  1.00  0.00    -0.237 OA
ATOM     79  O   UNL A   1      34.826  35.273  28.303  1.00  0.00    -0.744 OA
ENDBRANCH  73  76
ENDBRANCH  45  69
BRANCH  57  80
ATOM     80  C   UNL A   1      43.365  35.318  30.885  1.00  0.00     0.023 A 
ATOM     81  C   UNL A   1      43.779  35.507  32.218  1.00  0.00     0.012 A 
ATOM     82  C   UNL A   1      43.432  36.395  29.980  1.00  0.00     0.148 A 
ATOM     83  C   UNL A   1      44.229  36.753  32.650  1.00  0.00     0.002 A 
ATOM     84  C   UNL A   1      43.926  37.623  30.407  1.00  0.00     0.091 A 
ATOM     85  F   UNL A   1      43.015  36.201  28.721  1.00  0.00    -0.205 F 
ATOM     86  C   UNL A   1      44.314  37.807  31.743  1.00  0.00     0.022 A 
BRANCH  84  87
ATOM     87  S   UNL A   1      44.161  39.009  29.286  1.00  0.00     0.127 S 
ATOM     88  O   UNL A   1      45.064  38.436  28.290  1.00  0.00    -0.237 OA
ATOM     89  O   UNL A   1      42.800  39.255  28.808  1.00  0.00    -0.237 OA
ATOM     90  O   UNL A   1      44.721  40.085  30.092  1.00  0.00    -0.744 OA
ENDBRANCH  84  87
ENDBRANCH  57  80
ENDBRANCH  31  32
ENDBRANCH  23  26
ENDBRANCH  21  22
ENDBRANCH   1  21
TORSDOF 16
ENDMDL
MODEL 2
REMARK VINA RESULT:      -9.9      5.376     10.927
REMARK SMILES C[C@@](O)(c1ccc(Cl)cc1Cl)[C@@H](F)C(=O)NCCCNC(=O)c1ccc(-c2c3nc(c(-c4cccc(S(=O)(=O)[O-])c4F)c4ccc([nH]4)c(-c4cccc(S(=O)(=O)[O-])c4F)c4nc(c(-c5cccc(S(=O)(=O)[O-])c5F)c5ccc2[nH]5)C=C4)C=C3)cc1
REMARK SMILES IDX 18 1 17 2 16 3 14 4 15 5 12 7 13 8 2 9 1 10 3 11 4 13 5 14
REMARK SMILES IDX 10 15 6 16 9 17 11 18 7 19 8 20 19 21 20 22 21 23 22 25
REMARK SMILES IDX 23 26 24 27 85 28 25 29 84 30 26 31 27 32 28 33 78 34 29 35
REMARK SMILES IDX 83 36 77 37 79 38 30 39 82 40 76 41 75 42 31 44 63 45 43 46
REMARK SMILES IDX 62 47 44 48 47 49 61 50 80 51 45 52 46 53 60 55 81 56 48 57
REMARK SMILES IDX 32 58 33 59 41 60 34 61 36 62 42 63 35 64 37 65 38 66 39 67
REMARK SMILES IDX 40 68 64 69 65 70 73 71 66 72 68 73 74 74 67 75 69 76 70 77
REMARK SMILES IDX 71 78 72 79 49 80 50 81 58 82 51 83 53 84 59 85 52 86 54 87
REMARK SMILES IDX 55 88 56 89 57 90
REMARK H PARENT 16 6 3 12 20 24 79 43 47 54
REMARK Flexibility Score: inf
ROOT
ATOM      1  C   UNL A   1      32.133  27.919  27.210  1.00  0.00     0.042 C 
ENDROOT
BRANCH   1   2
ATOM      2  C   UNL A   1      31.691  26.883  26.175  1.00  0.00     0.117 C 
BRANCH   2   3
ATOM      3  N   UNL A   1      31.298  25.616  26.782  1.00  0.00    -0.353 N 
ATOM      4  C   UNL A   1      31.890  24.386  26.793  1.00  0.00     0.257 C 
ATOM      5  O   UNL A   1      31.272  23.486  27.373  1.00  0.00    -0.272 OA
ATOM      6  H   UNL A   1      30.447  25.656  27.276  1.00  0.00     0.163 HD
BRANCH   4   7
ATOM      7  C   UNL A   1      33.225  24.096  26.098  1.00  0.00     0.291 C 
ATOM      8  F   UNL A   1      34.041  25.192  26.086  1.00  0.00    -0.233 F 
BRANCH   7   9
ATOM      9  C   UNL A   1      33.067  23.512  24.652  1.00  0.00     0.128 C 
ATOM     10  C   UNL A   1      33.995  24.297  23.713  1.00  0.00     0.051 C 
BRANCH   9  11
ATOM     11  O   UNL A   1      31.697  23.668  24.254  1.00  0.00    -0.382 OA
ATOM     12  H   UNL A   1      31.350  24.500  24.610  1.00  0.00     0.212 HD
ENDBRANCH   9  11
BRANCH   9  13
ATOM     13  C   UNL A   1      33.355  22.001  24.521  1.00  0.00     0.005 A 
ATOM     14  C   UNL A   1      32.387  21.120  23.989  1.00  0.00     0.010 A 
ATOM     15  C   UNL A   1      34.581  21.414  24.930  1.00  0.00     0.048 A 
ATOM     16  C   UNL A   1      32.596  19.737  23.935  1.00  0.00     0.021 A 
ATOM     17  C   UNL A   1      34.772  20.025  24.910  1.00  0.00     0.041 A 
ATOM     18  Cl  UNL A   1      35.968  22.327  25.435  1.00  0.00    -0.084 Cl
ATOM     19  C   UNL A   1      33.777  19.194  24.420  1.00  0.00     0.042 A 
ATOM     20  Cl  UNL A   1      34.011  17.491  24.393  1.00  0.00    -0.084 Cl
ENDBRANCH   9  13
ENDBRANCH   7   9
ENDBRANCH   4   7
ENDBRANCH   2   3
ENDBRANCH   1   2
BRANCH   1  21
ATOM     21  C   UNL A   1      33.522  28.494  26.969  1.00  0.00     0.118 C 
BRANCH  21  22
ATOM     22  N   UNL A   1      33.529  29.943  27.073  1.00  0.00    -0.352 N 
ATOM     23  C   UNL A   1      34.410  30.765  27.735  1.00  0.00     0.251 C 
ATOM     24  H   UNL A   1      32.797  30.403  26.600  1.00  0.00     0.163 HD
ATOM     25  O   UNL A   1      34.101  31.938  27.931  1.00  0.00    -0.269 OA
BRANCH  23  26
ATOM     26  C   UNL A   1      35.716  30.254  28.220  1.00  0.00     0.039 A 
ATOM     27  C   UNL A   1      36.823  30.310  27.366  1.00  0.00     0.014 A 
ATOM     28  C   UNL A   1      35.848  29.668  29.482  1.00  0.00     0.014 A 
ATOM     29  C   UNL A   1      38.061  29.814  27.792  1.00  0.00     0.010 A 
ATOM     30  C   UNL A   1      37.101  29.253  29.936  1.00  0.00     0.010 A 
ATOM     31  C   UNL A   1      38.218  29.298  29.088  1.00  0.00    -0.014 A 
BRANCH  31  32
ATOM     32  C   UNL A   1      39.528  28.777  29.563  1.00  0.00     0.031 A 
ATOM     33  C   UNL A   1      40.263  29.472  30.681  1.00  0.00     0.074 A 
ATOM     34  C   UNL A   1      40.096  27.722  28.946  1.00  0.00     0.049 A 
ATOM     35  N   UNL A   1      41.434  29.196  31.198  1.00  0.00    -0.248 NA
ATOM     36  C   UNL A   1      39.612  30.651  31.279  1.00  0.00     0.031 C 
ATOM     37  C   UNL A   1      39.529  27.006  27.801  1.00  0.00     0.029 A 
ATOM     38  N   UNL A   1      41.290  27.083  29.177  1.00  0.00    -0.354 N 
ATOM     39  C   UNL A   1      41.675  30.183  32.147  1.00  0.00     0.074 A 
ATOM     40  C   UNL A   1      40.547  31.087  32.110  1.00  0.00     0.031 C 
ATOM     41  C   UNL A   1      40.370  26.026  27.435  1.00  0.00     0.029 A 
ATOM     42  C   UNL A   1      41.547  26.057  28.297  1.00  0.00     0.049 A 
ATOM     43  H   UNL A   1      41.904  27.336  29.905  1.00  0.00     0.167 HD
ATOM     44  C   UNL A   1      42.723  30.311  32.996  1.00  0.00     0.034 A 
ATOM     45  C   UNL A   1      42.613  25.237  28.193  1.00  0.00     0.034 A 
ATOM     46  C   UNL A   1      43.816  29.380  33.074  1.00  0.00     0.049 A 
ATOM     47  C   UNL A   1      43.741  25.369  29.180  1.00  0.00     0.074 A 
ATOM     48  C   UNL A   1      44.871  29.365  33.968  1.00  0.00     0.029 A 
ATOM     49  N   UNL A   1      43.998  28.301  32.223  1.00  0.00    -0.354 N 
ATOM     50  N   UNL A   1      43.869  26.209  30.180  1.00  0.00    -0.248 NA
ATOM     51  C   UNL A   1      44.855  24.420  29.049  1.00  0.00     0.031 C 
ATOM     52  C   UNL A   1      45.703  28.287  33.647  1.00  0.00     0.029 A 
ATOM     53  C   UNL A   1      45.153  27.619  32.564  1.00  0.00     0.049 A 
ATOM     54  H   UNL A   1      43.394  28.055  31.485  1.00  0.00     0.167 HD
ATOM     55  C   UNL A   1      45.058  25.869  30.814  1.00  0.00     0.074 A 
ATOM     56  C   UNL A   1      45.601  24.731  30.100  1.00  0.00     0.031 C 
ATOM     57  C   UNL A   1      45.656  26.456  31.879  1.00  0.00     0.034 A 
BRANCH  44  58
ATOM     58  C   UNL A   1      42.708  31.470  33.960  1.00  0.00     0.023 A 
ATOM     59  C   UNL A   1      43.277  32.701  33.575  1.00  0.00     0.012 A 
ATOM     60  C   UNL A   1      42.083  31.362  35.218  1.00  0.00     0.148 A 
ATOM     61  C   UNL A   1      43.260  33.795  34.437  1.00  0.00     0.002 A 
ATOM     62  C   UNL A   1      42.029  32.472  36.056  1.00  0.00     0.091 A 
ATOM     63  F   UNL A   1      41.564  30.181  35.577  1.00  0.00    -0.205 F 
ATOM     64  C   UNL A   1      42.627  33.684  35.672  1.00  0.00     0.022 A 
BRANCH  62  65
ATOM     65  S   UNL A   1      41.170  32.454  37.634  1.00  0.00     0.127 S 
ATOM     66  O   UNL A   1      42.031  31.578  38.427  1.00  0.00    -0.237 OA
ATOM     67  O   UNL A   1      41.212  33.864  38.023  1.00  0.00    -0.237 OA
ATOM     68  O   UNL A   1      39.836  31.940  37.359  1.00  0.00    -0.744 OA
ENDBRANCH  62  65
ENDBRANCH  44  58
BRANCH  45  69
ATOM     69  C   UNL A   1      42.629  24.169  27.153  1.00  0.00     0.023 A 
ATOM     70  C   UNL A   1      43.319  24.393  25.946  1.00  0.00     0.012 A 
ATOM     71  C   UNL A   1      41.995  22.929  27.362  1.00  0.00     0.148 A 
ATOM     72  C   UNL A   1      43.352  23.413  24.953  1.00  0.00     0.002 A 
ATOM     73  C   UNL A   1      42.079  21.937  26.391  1.00  0.00     0.091 A 
ATOM     74  F   UNL A   1      41.331  22.741  28.512  1.00  0.00    -0.205 F 
ATOM     75  C   UNL A   1      42.743  22.183  25.180  1.00  0.00     0.022 A 
BRANCH  73  76
ATOM     76  S   UNL A   1      41.440  20.279  26.657  1.00  0.00     0.127 S 
ATOM     77  O   UNL A   1      42.152  19.876  27.868  1.00  0.00    -0.237 OA
ATOM     78  O   UNL A   1      40.009  20.533  26.840  1.00  0.00    -0.237 OA
ATOM     79  O   UNL A   1      41.766  19.536  25.450  1.00  0.00    -0.744 OA
ENDBRANCH  73  76
ENDBRANCH  45  69
BRANCH  57  80
ATOM     80  C   UNL A   1      46.957  25.871  32.364  1.00  0.00     0.023 A 
ATOM     81  C   UNL A   1      48.174  26.328  31.820  1.00  0.00     0.012 A 
ATOM     82  C   UNL A   1      46.978  24.930  33.413  1.00  0.00     0.148 A 
ATOM     83  C   UNL A   1      49.390  25.837  32.292  1.00  0.00     0.002 A 
ATOM     84  C   UNL A   1      48.196  24.481  33.910  1.00  0.00     0.091 A 
ATOM     85  F   UNL A   1      45.810  24.494  33.905  1.00  0.00    -0.205 F 
ATOM     86  C   UNL A   1      49.402  24.924  33.344  1.00  0.00     0.022 A 
BRANCH  84  87
ATOM     87  S   UNL A   1      48.311  23.378  35.325  1.00  0.00     0.127 S 
ATOM     88  O   UNL A   1      48.064  22.076  34.708  1.00  0.00    -0.237 OA
ATOM     89  O   UNL A   1      49.687  23.591  35.774  1.00  0.00    -0.237 OA
ATOM     90  O   UNL A   1      47.293  23.827  36.266  1.00  0.00    -0.744 OA
ENDBRANCH  84  87
ENDBRANCH  57  80
ENDBRANCH  31  32
ENDBRANCH  23  26
ENDBRANCH  21  22
ENDBRANCH   1  21
TORSDOF 16
ENDMDL
MODEL 3
REMARK VINA RESULT:      -9.7      1.240      1.618
REMARK SMILES C[C@@](O)(c1ccc(Cl)cc1Cl)[C@@H](F)C(=O)NCCCNC(=O)c1ccc(-c2c3nc(c(-c4cccc(S(=O)(=O)[O-])c4F)c4ccc([nH]4)c(-c4cccc(S(=O)(=O)[O-])c4F)c4nc(c(-c5cccc(S(=O)(=O)[O-])c5F)c5ccc2[nH]5)C=C4)C=C3)cc1
REMARK SMILES IDX 18 1 17 2 16 3 14 4 15 5 12 7 13 8 2 9 1 10 3 11 4 13 5 14
REMARK SMILES IDX 10 15 6 16 9 17 11 18 7 19 8 20 19 21 20 22 21 23 22 25
REMARK SMILES IDX 23 26 24 27 85 28 25 29 84 30 26 31 27 32 28 33 78 34 29 35
REMARK SMILES IDX 83 36 77 37 79 38 30 39 82 40 76 41 75 42 31 44 63 45 43 46
REMARK SMILES IDX 62 47 44 48 47 49 61 50 80 51 45 52 46 53 60 55 81 56 48 57
REMARK SMILES IDX 32 58 33 59 41 60 34 61 36 62 42 63 35 64 37 65 38 66 39 67
REMARK SMILES IDX 40 68 64 69 65 70 73 71 66 72 68 73 74 74 67 75 69 76 70 77
REMARK SMILES IDX 71 78 72 79 49 80 50 81 58 82 51 83 53 84 59 85 52 86 54 87
REMARK SMILES IDX 55 88 56 89 57 90
REMARK H PARENT 16 6 3 12 20 24 79 43 47 54
REMARK Flexibility Score: inf
ROOT
ATOM      1  C   UNL A   1      41.849  20.184  27.183  1.00  0.00     0.042 C 
ENDROOT
BRANCH   1   2
ATOM      2  C   UNL A   1      42.443  20.327  25.781  1.00  0.00     0.117 C 
BRANCH   2   3
ATOM      3  N   UNL A   1      43.901  20.281  25.782  1.00  0.00    -0.353 N 
ATOM      4  C   UNL A   1      44.845  21.226  25.500  1.00  0.00     0.257 C 
ATOM      5  O   UNL A   1      46.023  20.856  25.552  1.00  0.00    -0.272 OA
ATOM      6  H   UNL A   1      44.274  19.405  26.033  1.00  0.00     0.163 HD
BRANCH   4   7
ATOM      7  C   UNL A   1      44.493  22.663  25.097  1.00  0.00     0.291 C 
ATOM      8  F   UNL A   1      44.574  22.847  23.745  1.00  0.00    -0.233 F 
BRANCH   7   9
ATOM      9  C   UNL A   1      45.332  23.750  25.851  1.00  0.00     0.128 C 
ATOM     10  C   UNL A   1      45.034  25.115  25.213  1.00  0.00     0.051 C 
BRANCH   9  11
ATOM     11  O   UNL A   1      46.721  23.420  25.712  1.00  0.00    -0.382 OA
ATOM     12  H   UNL A   1      46.808  22.486  25.466  1.00  0.00     0.212 HD
ENDBRANCH   9  11
BRANCH   9  13
ATOM     13  C   UNL A   1      45.087  23.826  27.375  1.00  0.00     0.005 A 
ATOM     14  C   UNL A   1      43.923  23.274  27.953  1.00  0.00     0.010 A 
ATOM     15  C   UNL A   1      45.995  24.455  28.268  1.00  0.00     0.048 A 
ATOM     16  C   UNL A   1      43.643  23.402  29.318  1.00  0.00     0.021 A 
ATOM     17  C   UNL A   1      45.692  24.615  29.627  1.00  0.00     0.041 A 
ATOM     18  Cl  UNL A   1      47.563  25.032  27.803  1.00  0.00    -0.084 Cl
ATOM     19  C   UNL A   1      44.516  24.094  30.143  1.00  0.00     0.042 A 
ATOM     20  Cl  UNL A   1      44.146  24.287  31.811  1.00  0.00    -0.084 Cl
ENDBRANCH   9  13
ENDBRANCH   7   9
ENDBRANCH   4   7
ENDBRANCH   2   3
ENDBRANCH   1   2
BRANCH   1  21
ATOM     21  C   UNL A   1      40.920  21.321  27.589  1.00  0.00     0.118 C 
BRANCH  21  22
ATOM     22  N   UNL A   1      39.870  21.532  26.607  1.00  0.00    -0.352 N 
ATOM     23  C   UNL A   1      39.146  22.670  26.336  1.00  0.00     0.251 C 
ATOM     24  H   UNL A   1      39.645  20.748  26.055  1.00  0.00     0.163 HD
ATOM     25  O   UNL A   1      38.124  22.580  25.660  1.00  0.00    -0.269 OA
BRANCH  23  26
ATOM     26  C   UNL A   1      39.576  23.992  26.855  1.00  0.00     0.039 A 
ATOM     27  C   UNL A   1      39.309  24.313  28.190  1.00  0.00     0.014 A 
ATOM     28  C   UNL A   1      40.186  24.939  26.027  1.00  0.00     0.014 A 
ATOM     29  C   UNL A   1      39.684  25.562  28.699  1.00  0.00     0.010 A 
ATOM     30  C   UNL A   1      40.636  26.148  26.558  1.00  0.00     0.010 A 
ATOM     31  C   UNL A   1      40.369  26.486  27.893  1.00  0.00    -0.014 A 
BRANCH  31  32
ATOM     32  C   UNL A   1      40.787  27.813  28.418  1.00  0.00     0.031 A 
ATOM     33  C   UNL A   1      42.249  28.140  28.585  1.00  0.00     0.074 A 
ATOM     34  C   UNL A   1      39.855  28.704  28.813  1.00  0.00     0.049 A 
ATOM     35  N   UNL A   1      42.805  29.222  29.069  1.00  0.00    -0.248 NA
ATOM     36  C   UNL A   1      43.216  27.104  28.183  1.00  0.00     0.031 C 
ATOM     37  C   UNL A   1      38.408  28.486  28.779  1.00  0.00     0.029 A 
ATOM     38  N   UNL A   1      39.987  29.963  29.346  1.00  0.00    -0.354 N 
ATOM     39  C   UNL A   1      44.175  28.982  29.067  1.00  0.00     0.074 A 
ATOM     40  C   UNL A   1      44.366  27.639  28.568  1.00  0.00     0.031 C 
ATOM     41  C   UNL A   1      37.786  29.572  29.263  1.00  0.00     0.029 A 
ATOM     42  C   UNL A   1      38.787  30.555  29.667  1.00  0.00     0.049 A 
ATOM     43  H   UNL A   1      40.858  30.401  29.485  1.00  0.00     0.167 HD
ATOM     44  C   UNL A   1      45.186  29.813  29.417  1.00  0.00     0.034 A 
ATOM     45  C   UNL A   1      38.522  31.753  30.229  1.00  0.00     0.034 A 
ATOM     46  C   UNL A   1      44.999  31.170  29.856  1.00  0.00     0.049 A 
ATOM     47  C   UNL A   1      39.662  32.677  30.563  1.00  0.00     0.074 A 
ATOM     48  C   UNL A   1      45.962  32.123  30.135  1.00  0.00     0.029 A 
ATOM     49  N   UNL A   1      43.769  31.765  30.087  1.00  0.00    -0.354 N 
ATOM     50  N   UNL A   1      40.950  32.492  30.395  1.00  0.00    -0.248 NA
ATOM     51  C   UNL A   1      39.313  33.987  31.130  1.00  0.00     0.031 C 
ATOM     52  C   UNL A   1      45.313  33.291  30.553  1.00  0.00     0.029 A 
ATOM     53  C   UNL A   1      43.946  33.069  30.514  1.00  0.00     0.049 A 
ATOM     54  H   UNL A   1      42.896  31.324  29.964  1.00  0.00     0.167 HD
ATOM     55  C   UNL A   1      41.561  33.672  30.804  1.00  0.00     0.074 A 
ATOM     56  C   UNL A   1      40.500  34.573  31.206  1.00  0.00     0.031 C 
ATOM     57  C   UNL A   1      42.881  33.975  30.860  1.00  0.00     0.034 A 
BRANCH  44  58
ATOM     58  C   UNL A   1      46.596  29.300  29.276  1.00  0.00     0.023 A 
ATOM     59  C   UNL A   1      47.223  28.682  30.377  1.00  0.00     0.012 A 
ATOM     60  C   UNL A   1      47.279  29.376  28.046  1.00  0.00     0.148 A 
ATOM     61  C   UNL A   1      48.518  28.181  30.271  1.00  0.00     0.002 A 
ATOM     62  C   UNL A   1      48.556  28.833  27.934  1.00  0.00     0.091 A 
ATOM     63  F   UNL A   1      46.677  29.984  27.015  1.00  0.00    -0.205 F 
ATOM     64  C   UNL A   1      49.179  28.246  29.047  1.00  0.00     0.022 A 
BRANCH  62  65
ATOM     65  S   UNL A   1      49.461  28.798  26.383  1.00  0.00     0.127 S 
ATOM     66  O   UNL A   1      50.453  27.757  26.645  1.00  0.00    -0.237 OA
ATOM     67  O   UNL A   1      48.420  28.419  25.427  1.00  0.00    -0.237 OA
ATOM     68  O   UNL A   1      49.994  30.140  26.199  1.00  0.00    -0.744 OA
ENDBRANCH  62  65
ENDBRANCH  44  58
BRANCH  45  69
ATOM     69  C   UNL A   1      37.109  32.175  30.445  1.00  0.00     0.023 A 
ATOM     70  C   UNL A   1      36.505  31.945  31.697  1.00  0.00     0.012 A 
ATOM     71  C   UNL A   1      36.372  32.824  29.436  1.00  0.00     0.148 A 
ATOM     72  C   UNL A   1      35.183  32.328  31.931  1.00  0.00     0.002 A 
ATOM     73  C   UNL A   1      35.075  33.253  29.695  1.00  0.00     0.091 A 
ATOM     74  F   UNL A   1      36.960  33.021  28.247  1.00  0.00    -0.205 F 
ATOM     75  C   UNL A   1      34.473  32.991  30.934  1.00  0.00     0.022 A 
BRANCH  73  76
ATOM     76  S   UNL A   1      34.136  34.233  28.517  1.00  0.00     0.127 S 
ATOM     77  O   UNL A   1      34.038  33.319  27.380  1.00  0.00    -0.237 OA
ATOM     78  O   UNL A   1      32.882  34.453  29.239  1.00  0.00    -0.237 OA
ATOM     79  O   UNL A   1      34.920  35.438  28.297  1.00  0.00    -0.744 OA
ENDBRANCH  73  76
ENDBRANCH  45  69
BRANCH  57  80
ATOM     80  C   UNL A   1      43.265  35.347  31.350  1.00  0.00     0.023 A 
ATOM     81  C   UNL A   1      43.485  35.561  32.725  1.00  0.00     0.012 A 
ATOM     82  C   UNL A   1      43.487  36.400  30.441  1.00  0.00     0.148 A 
ATOM     83  C   UNL A   1      43.892  36.810  33.191  1.00  0.00     0.002 A 
ATOM     84  C   UNL A   1      43.938  37.630  30.909  1.00  0.00     0.091 A 
ATOM     85  F   UNL A   1      43.255  36.182  29.139  1.00  0.00    -0.205 F 
ATOM     86  C   UNL A   1      44.131  37.839  32.284  1.00  0.00     0.022 A 
BRANCH  84  87
ATOM     87  S   UNL A   1      44.363  38.983  29.805  1.00  0.00     0.127 S 
ATOM     88  O   UNL A   1      44.823  40.002  30.747  1.00  0.00    -0.237 OA
ATOM     89  O   UNL A   1      45.418  38.393  28.981  1.00  0.00    -0.237 OA
ATOM     90  O   UNL A   1      43.142  39.307  29.080  1.00  0.00    -0.744 OA
ENDBRANCH  84  87
ENDBRANCH  57  80
ENDBRANCH  31  32
ENDBRANCH  23  26
ENDBRANCH  21  22
ENDBRANCH   1  21
TORSDOF 16
ENDMDL
