MODEL 1
REMARK VINA RESULT:     -12.4      0.000      0.000
REMARK SMILES O=C(NCCCNC(=O)c1c(S(=O)(=O)N2CCO[C@@H](CCO)C2)sc2c1CC[NH2+]C2)c1ccc(-c2c3nc(c(-c4cccc(S(=O)(=O)[O-])c4F)c4ccc([nH]4)c(-c4cccc(S(=O)(=O)[O-])c4F)c4nc(c(-c5cccc(S(=O)(=O)[O-])c5F)c5ccc2[nH]5)C=C4)C=C3)cc1
REMARK SMILES IDX 6 1 5 2 4 3 3 4 1 5 2 6 31 8 32 9 93 10 33 11 92 12 34 13
REMARK SMILES IDX 35 14 36 15 86 16 37 17 91 18 85 19 87 20 38 21 90 22 84 23
REMARK SMILES IDX 83 24 39 26 71 27 51 28 70 29 52 30 55 31 69 32 88 33 53 34
REMARK SMILES IDX 54 35 68 37 89 38 56 39 40 40 41 41 49 42 42 43 44 44 50 45
REMARK SMILES IDX 43 46 45 47 46 48 47 49 48 50 72 51 73 52 81 53 74 54 76 55
REMARK SMILES IDX 82 56 75 57 77 58 78 59 79 60 80 61 57 62 58 63 66 64 59 65
REMARK SMILES IDX 61 66 67 67 60 68 62 69 63 70 64 71 65 72 7 73 8 74 9 76
REMARK SMILES IDX 10 77 11 78 26 79 24 80 25 81 27 82 30 83 28 84 29 85 12 88
REMARK SMILES IDX 13 89 14 90 15 91 16 92 23 93 17 94 19 95 18 96 20 97 21 98
REMARK SMILES IDX 22 99
REMARK H PARENT 3 7 87 25 55 36 7 75 29 86 29 87 22 100
REMARK Flexibility Score: inf
ROOT
ATOM      1  C   UNL A   1      32.167  30.174  25.854  1.00  0.00     0.118 C 
ENDROOT
BRANCH   1   2
ATOM      2  C   UNL A   1      32.961  30.115  27.149  1.00  0.00     0.042 C 
BRANCH   2   3
ATOM      3  C   UNL A   1      33.967  31.238  27.389  1.00  0.00     0.118 C 
BRANCH   3   4
ATOM      4  N   UNL A   1      33.965  31.811  28.720  1.00  0.00    -0.352 N 
ATOM      5  O   UNL A   1      34.511  32.677  30.663  1.00  0.00    -0.269 OA
ATOM      6  C   UNL A   1      34.878  31.958  29.730  1.00  0.00     0.251 C 
ATOM      7  H   UNL A   1      33.088  32.188  28.958  1.00  0.00     0.163 HD
BRANCH   6   8
ATOM      8  C   UNL A   1      36.225  31.320  29.801  1.00  0.00     0.039 A 
ATOM      9  C   UNL A   1      37.448  31.990  29.785  1.00  0.00     0.014 A 
ATOM     10  C   UNL A   1      36.249  29.911  29.849  1.00  0.00     0.014 A 
ATOM     11  C   UNL A   1      38.653  31.281  29.755  1.00  0.00     0.010 A 
ATOM     12  C   UNL A   1      37.451  29.199  29.846  1.00  0.00     0.010 A 
ATOM     13  C   UNL A   1      38.663  29.884  29.770  1.00  0.00    -0.014 A 
BRANCH  13  14
ATOM     14  C   UNL A   1      39.961  29.197  29.769  1.00  0.00     0.031 A 
ATOM     15  C   UNL A   1      40.630  28.977  31.088  1.00  0.00     0.074 A 
ATOM     16  C   UNL A   1      40.506  28.588  28.696  1.00  0.00     0.049 A 
ATOM     17  N   UNL A   1      41.820  29.335  31.458  1.00  0.00    -0.248 NA
ATOM     18  C   UNL A   1      39.872  28.255  32.117  1.00  0.00     0.031 C 
ATOM     19  C   UNL A   1      39.871  28.319  27.405  1.00  0.00     0.029 A 
ATOM     20  N   UNL A   1      41.712  27.946  28.600  1.00  0.00    -0.354 N 
ATOM     21  C   UNL A   1      42.030  28.740  32.704  1.00  0.00     0.074 A 
ATOM     22  C   UNL A   1      40.770  28.159  33.097  1.00  0.00     0.031 C 
ATOM     23  C   UNL A   1      40.582  27.366  26.762  1.00  0.00     0.029 A 
ATOM     24  C   UNL A   1      41.783  27.073  27.526  1.00  0.00     0.049 A 
ATOM     25  H   UNL A   1      42.454  28.089  29.232  1.00  0.00     0.167 HD
ATOM     26  C   UNL A   1      43.257  28.626  33.282  1.00  0.00     0.034 A 
ATOM     27  C   UNL A   1      42.721  26.125  27.307  1.00  0.00     0.034 A 
ATOM     28  C   UNL A   1      44.260  29.429  32.644  1.00  0.00     0.049 A 
ATOM     29  C   UNL A   1      43.922  26.435  28.111  1.00  0.00     0.074 A 
ATOM     30  C   UNL A   1      44.477  30.773  32.433  1.00  0.00     0.029 A 
ATOM     31  N   UNL A   1      45.198  28.770  31.893  1.00  0.00    -0.354 N 
ATOM     32  N   UNL A   1      44.734  27.430  27.881  1.00  0.00    -0.248 NA
ATOM     33  C   UNL A   1      44.132  25.735  29.369  1.00  0.00     0.031 C 
ATOM     34  C   UNL A   1      45.271  30.849  31.251  1.00  0.00     0.029 A 
ATOM     35  C   UNL A   1      45.456  29.542  30.794  1.00  0.00     0.049 A 
ATOM     36  H   UNL A   1      45.610  27.901  32.105  1.00  0.00     0.167 HD
ATOM     37  C   UNL A   1      45.282  27.729  29.120  1.00  0.00     0.074 A 
ATOM     38  C   UNL A   1      45.015  26.556  29.939  1.00  0.00     0.031 C 
ATOM     39  C   UNL A   1      45.622  29.010  29.455  1.00  0.00     0.034 A 
BRANCH  26  40
ATOM     40  C   UNL A   1      43.655  27.589  34.305  1.00  0.00     0.023 A 
ATOM     41  C   UNL A   1      44.165  28.044  35.544  1.00  0.00     0.012 A 
ATOM     42  C   UNL A   1      43.788  26.214  34.023  1.00  0.00     0.148 A 
ATOM     43  C   UNL A   1      44.790  27.179  36.448  1.00  0.00     0.002 A 
ATOM     44  C   UNL A   1      44.339  25.343  34.962  1.00  0.00     0.091 A 
ATOM     45  F   UNL A   1      43.492  25.753  32.801  1.00  0.00    -0.205 F 
ATOM     46  C   UNL A   1      44.864  25.822  36.164  1.00  0.00     0.022 A 
BRANCH  44  47
ATOM     47  S   UNL A   1      44.362  23.574  34.655  1.00  0.00     0.127 S 
ATOM     48  O   UNL A   1      44.871  23.056  35.920  1.00  0.00    -0.237 OA
ATOM     49  O   UNL A   1      42.951  23.280  34.390  1.00  0.00    -0.237 OA
ATOM     50  O   UNL A   1      45.224  23.429  33.487  1.00  0.00    -0.744 OA
ENDBRANCH  44  47
ENDBRANCH  26  40
BRANCH  27  51
ATOM     51  C   UNL A   1      42.607  24.866  26.538  1.00  0.00     0.023 A 
ATOM     52  C   UNL A   1      43.549  24.572  25.534  1.00  0.00     0.012 A 
ATOM     53  C   UNL A   1      41.709  23.848  26.931  1.00  0.00     0.148 A 
ATOM     54  C   UNL A   1      43.601  23.305  24.944  1.00  0.00     0.002 A 
ATOM     55  C   UNL A   1      41.751  22.595  26.328  1.00  0.00     0.091 A 
ATOM     56  F   UNL A   1      40.876  24.081  27.954  1.00  0.00    -0.205 F 
ATOM     57  C   UNL A   1      42.703  22.316  25.339  1.00  0.00     0.022 A 
BRANCH  55  58
ATOM     58  S   UNL A   1      40.607  21.285  26.783  1.00  0.00     0.127 S 
ATOM     59  O   UNL A   1      40.810  21.187  28.230  1.00  0.00    -0.237 OA
ATOM     60  O   UNL A   1      39.323  21.850  26.383  1.00  0.00    -0.237 OA
ATOM     61  O   UNL A   1      41.051  20.110  26.044  1.00  0.00    -0.744 OA
ENDBRANCH  55  58
ENDBRANCH  27  51
BRANCH  39  62
ATOM     62  C   UNL A   1      45.782  30.030  28.355  1.00  0.00     0.023 A 
ATOM     63  C   UNL A   1      44.664  30.673  27.787  1.00  0.00     0.012 A 
ATOM     64  C   UNL A   1      47.070  30.498  28.034  1.00  0.00     0.148 A 
ATOM     65  C   UNL A   1      44.823  31.737  26.897  1.00  0.00     0.002 A 
ATOM     66  C   UNL A   1      47.223  31.593  27.188  1.00  0.00     0.091 A 
ATOM     67  F   UNL A   1      48.128  29.888  28.591  1.00  0.00    -0.205 F 
ATOM     68  C   UNL A   1      46.101  32.206  26.610  1.00  0.00     0.022 A 
BRANCH  66  69
ATOM     69  S   UNL A   1      48.826  32.348  26.898  1.00  0.00     0.127 S 
ATOM     70  O   UNL A   1      48.514  33.357  25.889  1.00  0.00    -0.237 OA
ATOM     71  O   UNL A   1      49.166  32.889  28.217  1.00  0.00    -0.237 OA
ATOM     72  O   UNL A   1      49.701  31.267  26.460  1.00  0.00    -0.744 OA
ENDBRANCH  66  69
ENDBRANCH  39  62
ENDBRANCH  13  14
ENDBRANCH   6   8
ENDBRANCH   3   4
ENDBRANCH   2   3
ENDBRANCH   1   2
BRANCH   1  73
ATOM     73  N   UNL A   1      32.866  29.730  24.661  1.00  0.00    -0.352 N 
ATOM     74  C   UNL A   1      32.421  28.955  23.617  1.00  0.00     0.253 C 
ATOM     75  H   UNL A   1      33.801  30.031  24.590  1.00  0.00     0.163 HD
ATOM     76  O   UNL A   1      33.200  28.710  22.696  1.00  0.00    -0.269 OA
BRANCH  74  77
ATOM     77  C   UNL A   1      31.105  28.325  23.684  1.00  0.00     0.074 A 
ATOM     78  C   UNL A   1      30.810  27.122  24.332  1.00  0.00     0.148 A 
ATOM     79  C   UNL A   1      29.875  28.946  23.227  1.00  0.00    -0.009 A 
ATOM     80  S   UNL A   1      29.273  26.560  23.840  1.00  0.00    -0.120 S 
ATOM     81  C   UNL A   1      28.793  28.104  23.370  1.00  0.00     0.064 A 
ATOM     82  C   UNL A   1      29.672  30.318  22.648  1.00  0.00     0.099 C 
ATOM     83  C   UNL A   1      27.363  28.474  23.131  1.00  0.00     0.308 C 
ATOM     84  C   UNL A   1      28.171  30.708  22.648  1.00  0.00     0.265 C 
ATOM     85  N   UNL A   1      27.269  29.621  22.211  1.00  0.00    -0.342 N 
ATOM     86  H   UNL A   1      27.535  29.322  21.272  1.00  0.00     0.346 HD
ATOM     87  H   UNL A   1      26.310  29.968  22.209  1.00  0.00     0.346 HD
BRANCH  78  88
ATOM     88  S   UNL A   1      31.714  26.074  25.467  1.00  0.00     0.253 S 
ATOM     89  O   UNL A   1      33.013  26.715  25.612  1.00  0.00    -0.206 OA
ATOM     90  O   UNL A   1      30.816  25.940  26.583  1.00  0.00    -0.206 OA
BRANCH  88  91
ATOM     91  N   UNL A   1      32.002  24.542  24.843  1.00  0.00    -0.192 NA
ATOM     92  C   UNL A   1      31.108  23.393  25.116  1.00  0.00     0.131 C 
ATOM     93  C   UNL A   1      33.339  24.154  24.368  1.00  0.00     0.134 C 
ATOM     94  C   UNL A   1      31.822  22.236  25.844  1.00  0.00     0.177 C 
ATOM     95  C   UNL A   1      33.963  23.173  25.365  1.00  0.00     0.135 C 
ATOM     96  O   UNL A   1      33.161  21.974  25.388  1.00  0.00    -0.375 OA
BRANCH  95  97
ATOM     97  C   UNL A   1      35.409  22.784  25.046  1.00  0.00     0.061 C 
BRANCH  97  98
ATOM     98  C   UNL A   1      36.451  23.699  25.677  1.00  0.00     0.159 C 
BRANCH  98  99
ATOM     99  O   UNL A   1      37.624  23.730  24.876  1.00  0.00    -0.396 OA
ATOM    100  H   UNL A   1      38.095  24.565  25.021  1.00  0.00     0.210 HD
ENDBRANCH  98  99
ENDBRANCH  97  98
ENDBRANCH  95  97
ENDBRANCH  88  91
ENDBRANCH  78  88
ENDBRANCH  74  77
ENDBRANCH   1  73
TORSDOF 18
ENDMDL
MODEL 2
REMARK VINA RESULT:     -12.1      3.280      8.676
REMARK SMILES O=C(NCCCNC(=O)c1c(S(=O)(=O)N2CCO[C@@H](CCO)C2)sc2c1CC[NH2+]C2)c1ccc(-c2c3nc(c(-c4cccc(S(=O)(=O)[O-])c4F)c4ccc([nH]4)c(-c4cccc(S(=O)(=O)[O-])c4F)c4nc(c(-c5cccc(S(=O)(=O)[O-])c5F)c5ccc2[nH]5)C=C4)C=C3)cc1
REMARK SMILES IDX 6 1 5 2 4 3 3 4 1 5 2 6 31 8 32 9 93 10 33 11 92 12 34 13
REMARK SMILES IDX 35 14 36 15 86 16 37 17 91 18 85 19 87 20 38 21 90 22 84 23
REMARK SMILES IDX 83 24 39 26 71 27 51 28 70 29 52 30 55 31 69 32 88 33 53 34
REMARK SMILES IDX 54 35 68 37 89 38 56 39 40 40 41 41 49 42 42 43 44 44 50 45
REMARK SMILES IDX 43 46 45 47 46 48 47 49 48 50 72 51 73 52 81 53 74 54 76 55
REMARK SMILES IDX 82 56 75 57 77 58 78 59 79 60 80 61 57 62 58 63 66 64 59 65
REMARK SMILES IDX 61 66 67 67 60 68 62 69 63 70 64 71 65 72 7 73 8 74 9 76
REMARK SMILES IDX 10 77 11 78 26 79 24 80 25 81 27 82 30 83 28 84 29 85 12 88
REMARK SMILES IDX 13 89 14 90 15 91 16 92 23 93 17 94 19 95 18 96 20 97 21 98
REMARK SMILES IDX 22 99
REMARK H PARENT 3 7 87 25 55 36 7 75 29 86 29 87 22 100
REMARK Flexibility Score: inf
ROOT
ATOM      1  C   UNL A   1      36.692  24.017  25.023  1.00  0.00     0.118 C 
ENDROOT
BRANCH   1   2
ATOM      2  C   UNL A   1      37.565  22.792  24.804  1.00  0.00     0.042 C 
BRANCH   2   3
ATOM      3  C   UNL A   1      38.209  22.179  26.044  1.00  0.00     0.118 C 
BRANCH   3   4
ATOM      4  N   UNL A   1      39.648  22.013  25.990  1.00  0.00    -0.352 N 
ATOM      5  O   UNL A   1      41.813  22.084  26.358  1.00  0.00    -0.269 OA
ATOM      6  C   UNL A   1      40.734  22.667  26.508  1.00  0.00     0.251 C 
ATOM      7  H   UNL A   1      39.910  21.238  25.444  1.00  0.00     0.163 HD
BRANCH   6   8
ATOM      8  C   UNL A   1      40.723  23.993  27.192  1.00  0.00     0.039 A 
ATOM      9  C   UNL A   1      39.780  25.002  27.001  1.00  0.00     0.014 A 
ATOM     10  C   UNL A   1      41.789  24.248  28.079  1.00  0.00     0.014 A 
ATOM     11  C   UNL A   1      39.927  26.246  27.624  1.00  0.00     0.010 A 
ATOM     12  C   UNL A   1      41.924  25.480  28.724  1.00  0.00     0.010 A 
ATOM     13  C   UNL A   1      41.005  26.498  28.476  1.00  0.00    -0.014 A 
BRANCH  13  14
ATOM     14  C   UNL A   1      41.087  27.813  29.124  1.00  0.00     0.031 A 
ATOM     15  C   UNL A   1      42.073  28.795  28.579  1.00  0.00     0.074 A 
ATOM     16  C   UNL A   1      40.218  28.267  30.051  1.00  0.00     0.049 A 
ATOM     17  N   UNL A   1      43.026  29.415  29.205  1.00  0.00    -0.248 NA
ATOM     18  C   UNL A   1      41.972  29.133  27.154  1.00  0.00     0.031 C 
ATOM     19  C   UNL A   1      38.949  27.661  30.456  1.00  0.00     0.029 A 
ATOM     20  N   UNL A   1      40.230  29.463  30.718  1.00  0.00    -0.354 N 
ATOM     21  C   UNL A   1      43.537  30.347  28.299  1.00  0.00     0.074 A 
ATOM     22  C   UNL A   1      42.910  30.072  27.030  1.00  0.00     0.031 C 
ATOM     23  C   UNL A   1      38.205  28.595  31.090  1.00  0.00     0.029 A 
ATOM     24  C   UNL A   1      38.999  29.801  31.257  1.00  0.00     0.049 A 
ATOM     25  H   UNL A   1      41.032  30.027  30.805  1.00  0.00     0.167 HD
ATOM     26  C   UNL A   1      44.335  31.387  28.666  1.00  0.00     0.034 A 
ATOM     27  C   UNL A   1      38.624  31.004  31.746  1.00  0.00     0.034 A 
ATOM     28  C   UNL A   1      44.842  31.267  30.002  1.00  0.00     0.049 A 
ATOM     29  C   UNL A   1      39.832  31.796  32.062  1.00  0.00     0.074 A 
ATOM     30  C   UNL A   1      45.657  30.391  30.686  1.00  0.00     0.029 A 
ATOM     31  N   UNL A   1      44.309  32.106  30.947  1.00  0.00    -0.354 N 
ATOM     32  N   UNL A   1      40.651  31.541  33.045  1.00  0.00    -0.248 NA
ATOM     33  C   UNL A   1      40.284  32.806  31.117  1.00  0.00     0.031 C 
ATOM     34  C   UNL A   1      45.259  30.488  32.051  1.00  0.00     0.029 A 
ATOM     35  C   UNL A   1      44.195  31.392  32.108  1.00  0.00     0.049 A 
ATOM     36  H   UNL A   1      44.054  33.048  30.813  1.00  0.00     0.167 HD
ATOM     37  C   UNL A   1      41.870  32.055  32.629  1.00  0.00     0.074 A 
ATOM     38  C   UNL A   1      41.540  32.963  31.539  1.00  0.00     0.031 C 
ATOM     39  C   UNL A   1      43.049  31.469  32.993  1.00  0.00     0.034 A 
BRANCH  26  40
ATOM     40  C   UNL A   1      44.494  32.684  27.909  1.00  0.00     0.023 A 
ATOM     41  C   UNL A   1      45.679  32.872  27.160  1.00  0.00     0.012 A 
ATOM     42  C   UNL A   1      43.667  33.812  28.096  1.00  0.00     0.148 A 
ATOM     43  C   UNL A   1      46.032  34.120  26.637  1.00  0.00     0.002 A 
ATOM     44  C   UNL A   1      43.985  35.034  27.505  1.00  0.00     0.091 A 
ATOM     45  F   UNL A   1      42.631  33.745  28.942  1.00  0.00    -0.205 F 
ATOM     46  C   UNL A   1      45.176  35.201  26.797  1.00  0.00     0.022 A 
BRANCH  44  47
ATOM     47  S   UNL A   1      42.848  36.419  27.621  1.00  0.00     0.127 S 
ATOM     48  O   UNL A   1      43.482  37.402  26.749  1.00  0.00    -0.237 OA
ATOM     49  O   UNL A   1      41.601  35.850  27.106  1.00  0.00    -0.237 OA
ATOM     50  O   UNL A   1      42.811  36.728  29.046  1.00  0.00    -0.744 OA
ENDBRANCH  44  47
ENDBRANCH  26  40
BRANCH  27  51
ATOM     51  C   UNL A   1      37.268  31.588  31.838  1.00  0.00     0.023 A 
ATOM     52  C   UNL A   1      36.697  31.833  33.101  1.00  0.00     0.012 A 
ATOM     53  C   UNL A   1      36.618  32.111  30.697  1.00  0.00     0.148 A 
ATOM     54  C   UNL A   1      35.520  32.580  33.226  1.00  0.00     0.002 A 
ATOM     55  C   UNL A   1      35.438  32.837  30.825  1.00  0.00     0.091 A 
ATOM     56  F   UNL A   1      37.204  31.974  29.500  1.00  0.00    -0.205 F 
ATOM     57  C   UNL A   1      34.890  33.081  32.090  1.00  0.00     0.022 A 
BRANCH  55  58
ATOM     58  S   UNL A   1      34.570  33.493  29.394  1.00  0.00     0.127 S 
ATOM     59  O   UNL A   1      35.603  34.311  28.754  1.00  0.00    -0.237 OA
ATOM     60  O   UNL A   1      34.216  32.278  28.668  1.00  0.00    -0.237 OA
ATOM     61  O   UNL A   1      33.458  34.264  29.936  1.00  0.00    -0.744 OA
ENDBRANCH  55  58
ENDBRANCH  27  51
BRANCH  39  62
ATOM     62  C   UNL A   1      43.055  30.517  34.164  1.00  0.00     0.023 A 
ATOM     63  C   UNL A   1      43.309  30.972  35.473  1.00  0.00     0.012 A 
ATOM     64  C   UNL A   1      42.600  29.198  33.980  1.00  0.00     0.148 A 
ATOM     65  C   UNL A   1      43.144  30.127  36.572  1.00  0.00     0.002 A 
ATOM     66  C   UNL A   1      42.386  28.375  35.081  1.00  0.00     0.091 A 
ATOM     67  F   UNL A   1      42.348  28.778  32.730  1.00  0.00    -0.205 F 
ATOM     68  C   UNL A   1      42.668  28.834  36.377  1.00  0.00     0.022 A 
BRANCH  66  69
ATOM     69  S   UNL A   1      41.628  26.755  34.919  1.00  0.00     0.127 S 
ATOM     70  O   UNL A   1      40.515  27.024  34.011  1.00  0.00    -0.237 OA
ATOM     71  O   UNL A   1      42.710  25.956  34.337  1.00  0.00    -0.237 OA
ATOM     72  O   UNL A   1      41.258  26.352  36.270  1.00  0.00    -0.744 OA
ENDBRANCH  66  69
ENDBRANCH  39  62
ENDBRANCH  13  14
ENDBRANCH   6   8
ENDBRANCH   3   4
ENDBRANCH   2   3
ENDBRANCH   1   2
BRANCH   1  73
ATOM     73  N   UNL A   1      35.557  23.837  25.910  1.00  0.00    -0.352 N 
ATOM     74  C   UNL A   1      34.296  24.381  25.848  1.00  0.00     0.253 C 
ATOM     75  H   UNL A   1      35.715  23.233  26.671  1.00  0.00     0.163 HD
ATOM     76  O   UNL A   1      33.483  24.073  26.719  1.00  0.00    -0.269 OA
BRANCH  74  77
ATOM     77  C   UNL A   1      33.991  25.407  24.854  1.00  0.00     0.074 A 
ATOM     78  C   UNL A   1      33.780  25.182  23.491  1.00  0.00     0.148 A 
ATOM     79  C   UNL A   1      33.699  26.793  25.170  1.00  0.00    -0.009 A 
ATOM     80  S   UNL A   1      33.846  26.663  22.642  1.00  0.00    -0.120 S 
ATOM     81  C   UNL A   1      33.495  27.545  24.032  1.00  0.00     0.064 A 
ATOM     82  C   UNL A   1      33.607  27.452  26.518  1.00  0.00     0.099 C 
ATOM     83  C   UNL A   1      33.037  28.969  23.999  1.00  0.00     0.308 C 
ATOM     84  C   UNL A   1      32.911  28.835  26.416  1.00  0.00     0.265 C 
ATOM     85  N   UNL A   1      33.360  29.649  25.266  1.00  0.00    -0.342 N 
ATOM     86  H   UNL A   1      34.369  29.788  25.326  1.00  0.00     0.346 HD
ATOM     87  H   UNL A   1      32.880  30.548  25.291  1.00  0.00     0.346 HD
BRANCH  78  88
ATOM     88  S   UNL A   1      33.534  23.709  22.503  1.00  0.00     0.253 S 
ATOM     89  O   UNL A   1      33.155  24.202  21.187  1.00  0.00    -0.206 OA
ATOM     90  O   UNL A   1      34.751  22.968  22.704  1.00  0.00    -0.206 OA
BRANCH  88  91
ATOM     91  N   UNL A   1      32.255  22.770  23.050  1.00  0.00    -0.192 NA
ATOM     92  C   UNL A   1      31.369  23.202  24.156  1.00  0.00     0.131 C 
ATOM     93  C   UNL A   1      32.200  21.326  22.775  1.00  0.00     0.134 C 
ATOM     94  C   UNL A   1      31.400  22.239  25.361  1.00  0.00     0.177 C 
ATOM     95  C   UNL A   1      32.489  20.556  24.068  1.00  0.00     0.135 C 
ATOM     96  O   UNL A   1      31.439  20.843  25.014  1.00  0.00    -0.375 OA
BRANCH  95  97
ATOM     97  C   UNL A   1      32.581  19.038  23.889  1.00  0.00     0.061 C 
BRANCH  97  98
ATOM     98  C   UNL A   1      32.694  18.265  25.198  1.00  0.00     0.159 C 
BRANCH  98  99
ATOM     99  O   UNL A   1      31.836  17.132  25.171  1.00  0.00    -0.396 OA
ATOM    100  H   UNL A   1      31.288  17.160  24.372  1.00  0.00     0.210 HD
ENDBRANCH  98  99
ENDBRANCH  97  98
ENDBRANCH  95  97
ENDBRANCH  88  91
ENDBRANCH  78  88
ENDBRANCH  74  77
ENDBRANCH   1  73
TORSDOF 18
ENDMDL
MODEL 3
REMARK VINA RESULT:     -12.0      2.119      2.611
REMARK SMILES O=C(NCCCNC(=O)c1c(S(=O)(=O)N2CCO[C@@H](CCO)C2)sc2c1CC[NH2+]C2)c1ccc(-c2c3nc(c(-c4cccc(S(=O)(=O)[O-])c4F)c4ccc([nH]4)c(-c4cccc(S(=O)(=O)[O-])c4F)c4nc(c(-c5cccc(S(=O)(=O)[O-])c5F)c5ccc2[nH]5)C=C4)C=C3)cc1
REMARK SMILES IDX 6 1 5 2 4 3 3 4 1 5 2 6 31 8 32 9 93 10 33 11 92 12 34 13
REMARK SMILES IDX 35 14 36 15 86 16 37 17 91 18 85 19 87 20 38 21 90 22 84 23
REMARK SMILES IDX 83 24 39 26 71 27 51 28 70 29 52 30 55 31 69 32 88 33 53 34
REMARK SMILES IDX 54 35 68 37 89 38 56 39 40 40 41 41 49 42 42 43 44 44 50 45
REMARK SMILES IDX 43 46 45 47 46 48 47 49 48 50 72 51 73 52 81 53 74 54 76 55
REMARK SMILES IDX 82 56 75 57 77 58 78 59 79 60 80 61 57 62 58 63 66 64 59 65
REMARK SMILES IDX 61 66 67 67 60 68 62 69 63 70 64 71 65 72 7 73 8 74 9 76
REMARK SMILES IDX 10 77 11 78 26 79 24 80 25 81 27 82 30 83 28 84 29 85 12 88
REMARK SMILES IDX 13 89 14 90 15 91 16 92 23 93 17 94 19 95 18 96 20 97 21 98
REMARK SMILES IDX 22 99
REMARK H PARENT 3 7 87 25 55 36 7 75 29 86 29 87 22 100
REMARK Flexibility Score: inf
ROOT
ATOM      1  C   UNL A   1      33.958  29.761  26.727  1.00  0.00     0.118 C 
ENDROOT
BRANCH   1   2
ATOM      2  C   UNL A   1      35.116  30.298  27.553  1.00  0.00     0.042 C 
BRANCH   2   3
ATOM      3  C   UNL A   1      35.004  31.742  28.033  1.00  0.00     0.118 C 
BRANCH   3   4
ATOM      4  N   UNL A   1      34.938  31.925  29.469  1.00  0.00    -0.352 N 
ATOM      5  O   UNL A   1      35.387  32.134  31.610  1.00  0.00    -0.269 OA
ATOM      6  C   UNL A   1      35.752  31.647  30.536  1.00  0.00     0.251 C 
ATOM      7  H   UNL A   1      34.099  32.356  29.749  1.00  0.00     0.163 HD
BRANCH   6   8
ATOM      8  C   UNL A   1      36.988  30.811  30.509  1.00  0.00     0.039 A 
ATOM      9  C   UNL A   1      37.040  29.427  30.664  1.00  0.00     0.014 A 
ATOM     10  C   UNL A   1      38.207  31.502  30.352  1.00  0.00     0.014 A 
ATOM     11  C   UNL A   1      38.268  28.758  30.722  1.00  0.00     0.010 A 
ATOM     12  C   UNL A   1      39.434  30.835  30.382  1.00  0.00     0.010 A 
ATOM     13  C   UNL A   1      39.470  29.458  30.597  1.00  0.00    -0.014 A 
BRANCH  13  14
ATOM     14  C   UNL A   1      40.725  28.696  30.635  1.00  0.00     0.031 A 
ATOM     15  C   UNL A   1      41.363  28.476  31.969  1.00  0.00     0.074 A 
ATOM     16  C   UNL A   1      41.249  28.026  29.587  1.00  0.00     0.049 A 
ATOM     17  N   UNL A   1      42.567  28.774  32.347  1.00  0.00    -0.248 NA
ATOM     18  C   UNL A   1      40.550  27.830  33.007  1.00  0.00     0.031 C 
ATOM     19  C   UNL A   1      40.616  27.758  28.295  1.00  0.00     0.029 A 
ATOM     20  N   UNL A   1      42.415  27.312  29.528  1.00  0.00    -0.354 N 
ATOM     21  C   UNL A   1      42.724  28.204  33.612  1.00  0.00     0.074 A 
ATOM     22  C   UNL A   1      41.427  27.710  34.003  1.00  0.00     0.031 C 
ATOM     23  C   UNL A   1      41.278  26.746  27.690  1.00  0.00     0.029 A 
ATOM     24  C   UNL A   1      42.449  26.406  28.480  1.00  0.00     0.049 A 
ATOM     25  H   UNL A   1      43.156  27.430  30.167  1.00  0.00     0.167 HD
ATOM     26  C   UNL A   1      43.935  28.034  34.212  1.00  0.00     0.034 A 
ATOM     27  C   UNL A   1      43.332  25.398  28.301  1.00  0.00     0.034 A 
ATOM     28  C   UNL A   1      44.992  28.758  33.567  1.00  0.00     0.049 A 
ATOM     29  C   UNL A   1      44.539  25.661  29.115  1.00  0.00     0.074 A 
ATOM     30  C   UNL A   1      45.291  30.081  33.321  1.00  0.00     0.029 A 
ATOM     31  N   UNL A   1      45.900  28.024  32.849  1.00  0.00    -0.354 N 
ATOM     32  N   UNL A   1      45.410  26.599  28.870  1.00  0.00    -0.248 NA
ATOM     33  C   UNL A   1      44.689  24.986  30.395  1.00  0.00     0.031 C 
ATOM     34  C   UNL A   1      46.104  30.076  32.151  1.00  0.00     0.029 A 
ATOM     35  C   UNL A   1      46.217  28.748  31.732  1.00  0.00     0.049 A 
ATOM     36  H   UNL A   1      46.257  27.139  33.092  1.00  0.00     0.167 HD
ATOM     37  C   UNL A   1      45.959  26.901  30.107  1.00  0.00     0.074 A 
ATOM     38  C   UNL A   1      45.612  25.769  30.955  1.00  0.00     0.031 C 
ATOM     39  C   UNL A   1      46.369  28.168  30.412  1.00  0.00     0.034 A 
BRANCH  26  40
ATOM     40  C   UNL A   1      44.258  27.007  35.270  1.00  0.00     0.023 A 
ATOM     41  C   UNL A   1      44.603  27.471  36.560  1.00  0.00     0.012 A 
ATOM     42  C   UNL A   1      44.479  25.640  34.999  1.00  0.00     0.148 A 
ATOM     43  C   UNL A   1      45.156  26.624  37.526  1.00  0.00     0.002 A 
ATOM     44  C   UNL A   1      44.956  24.785  35.991  1.00  0.00     0.091 A 
ATOM     45  F   UNL A   1      44.345  25.178  33.749  1.00  0.00    -0.205 F 
ATOM     46  C   UNL A   1      45.320  25.274  37.247  1.00  0.00     0.022 A 
BRANCH  44  47
ATOM     47  S   UNL A   1      45.089  23.021  35.681  1.00  0.00     0.127 S 
ATOM     48  O   UNL A   1      43.759  22.705  35.171  1.00  0.00    -0.237 OA
ATOM     49  O   UNL A   1      46.163  22.953  34.687  1.00  0.00    -0.237 OA
ATOM     50  O   UNL A   1      45.449  22.460  36.978  1.00  0.00    -0.744 OA
ENDBRANCH  44  47
ENDBRANCH  26  40
BRANCH  27  51
ATOM     51  C   UNL A   1      43.154  24.127  27.566  1.00  0.00     0.023 A 
ATOM     52  C   UNL A   1      41.921  23.451  27.627  1.00  0.00     0.012 A 
ATOM     53  C   UNL A   1      44.114  23.684  26.628  1.00  0.00     0.148 A 
ATOM     54  C   UNL A   1      41.648  22.374  26.777  1.00  0.00     0.002 A 
ATOM     55  C   UNL A   1      43.846  22.600  25.799  1.00  0.00     0.091 A 
ATOM     56  F   UNL A   1      45.251  24.380  26.489  1.00  0.00    -0.205 F 
ATOM     57  C   UNL A   1      42.609  21.947  25.864  1.00  0.00     0.022 A 
BRANCH  55  58
ATOM     58  S   UNL A   1      45.053  21.993  24.613  1.00  0.00     0.127 S 
ATOM     59  O   UNL A   1      44.461  20.721  24.193  1.00  0.00    -0.237 OA
ATOM     60  O   UNL A   1      45.036  23.040  23.597  1.00  0.00    -0.237 OA
ATOM     61  O   UNL A   1      46.293  21.847  25.364  1.00  0.00    -0.744 OA
ENDBRANCH  55  58
ENDBRANCH  27  51
BRANCH  39  62
ATOM     62  C   UNL A   1      46.605  29.145  29.286  1.00  0.00     0.023 A 
ATOM     63  C   UNL A   1      47.847  29.212  28.625  1.00  0.00     0.012 A 
ATOM     64  C   UNL A   1      45.512  29.854  28.751  1.00  0.00     0.148 A 
ATOM     65  C   UNL A   1      48.009  29.988  27.476  1.00  0.00     0.002 A 
ATOM     66  C   UNL A   1      45.664  30.585  27.577  1.00  0.00     0.091 A 
ATOM     67  F   UNL A   1      44.329  29.773  29.380  1.00  0.00    -0.205 F 
ATOM     68  C   UNL A   1      46.914  30.662  26.944  1.00  0.00     0.022 A 
BRANCH  66  69
ATOM     69  S   UNL A   1      44.264  31.348  26.750  1.00  0.00     0.127 S 
ATOM     70  O   UNL A   1      43.779  32.282  27.763  1.00  0.00    -0.237 OA
ATOM     71  O   UNL A   1      44.890  31.982  25.586  1.00  0.00    -0.237 OA
ATOM     72  O   UNL A   1      43.359  30.256  26.412  1.00  0.00    -0.744 OA
ENDBRANCH  66  69
ENDBRANCH  39  62
ENDBRANCH  13  14
ENDBRANCH   6   8
ENDBRANCH   3   4
ENDBRANCH   2   3
ENDBRANCH   1   2
BRANCH   1  73
ATOM     73  N   UNL A   1      32.848  29.204  27.479  1.00  0.00    -0.352 N 
ATOM     74  C   UNL A   1      31.862  28.334  27.079  1.00  0.00     0.253 C 
ATOM     75  H   UNL A   1      32.794  29.494  28.418  1.00  0.00     0.163 HD
ATOM     76  O   UNL A   1      31.017  27.988  27.904  1.00  0.00    -0.269 OA
BRANCH  74  77
ATOM     77  C   UNL A   1      31.749  27.955  25.672  1.00  0.00     0.074 A 
ATOM     78  C   UNL A   1      32.038  26.693  25.144  1.00  0.00     0.148 A 
ATOM     79  C   UNL A   1      31.160  28.791  24.643  1.00  0.00    -0.009 A 
ATOM     80  S   UNL A   1      32.153  26.790  23.442  1.00  0.00    -0.120 S 
ATOM     81  C   UNL A   1      31.231  28.198  23.400  1.00  0.00     0.064 A 
ATOM     82  C   UNL A   1      30.527  30.148  24.780  1.00  0.00     0.099 C 
ATOM     83  C   UNL A   1      30.596  28.719  22.149  1.00  0.00     0.308 C 
ATOM     84  C   UNL A   1      29.700  30.508  23.518  1.00  0.00     0.265 C 
ATOM     85  N   UNL A   1      30.372  30.173  22.245  1.00  0.00    -0.342 N 
ATOM     86  H   UNL A   1      31.271  30.655  22.203  1.00  0.00     0.346 HD
ATOM     87  H   UNL A   1      29.780  30.468  21.470  1.00  0.00     0.346 HD
BRANCH  78  88
ATOM     88  S   UNL A   1      32.362  25.091  25.873  1.00  0.00     0.253 S 
ATOM     89  O   UNL A   1      33.656  25.234  26.525  1.00  0.00    -0.206 OA
ATOM     90  O   UNL A   1      31.168  24.822  26.629  1.00  0.00    -0.206 OA
BRANCH  88  91
ATOM     91  N   UNL A   1      32.535  23.880  24.723  1.00  0.00    -0.192 NA
ATOM     92  C   UNL A   1      31.525  22.814  24.535  1.00  0.00     0.131 C 
ATOM     93  C   UNL A   1      33.852  23.558  24.151  1.00  0.00     0.134 C 
ATOM     94  C   UNL A   1      32.090  21.400  24.783  1.00  0.00     0.177 C 
ATOM     95  C   UNL A   1      34.330  22.216  24.713  1.00  0.00     0.135 C 
ATOM     96  O   UNL A   1      33.419  21.187  24.276  1.00  0.00    -0.375 OA
BRANCH  95  97
ATOM     97  C   UNL A   1      35.748  21.824  24.286  1.00  0.00     0.061 C 
BRANCH  97  98
ATOM     98  C   UNL A   1      36.342  20.675  25.091  1.00  0.00     0.159 C 
BRANCH  98  99
ATOM     99  O   UNL A   1      35.461  19.560  25.074  1.00  0.00    -0.396 OA
ATOM    100  H   UNL A   1      34.894  19.584  25.861  1.00  0.00     0.210 HD
ENDBRANCH  98  99
ENDBRANCH  97  98
ENDBRANCH  95  97
ENDBRANCH  88  91
ENDBRANCH  78  88
ENDBRANCH  74  77
ENDBRANCH   1  73
TORSDOF 18
ENDMDL
