MODEL 1
REMARK VINA RESULT:     -12.2      0.000      0.000
REMARK SMILES CCOC(=O)c1cccc(Nc2c(-c3ccc(C(=O)NCCCNC(=O)c4ccc(-c5c6nc(c(-c7cccc(S(=O)(=O)[O-])c7F)c7ccc([nH]7)c(-c7cccc(S(=O)(=O)[O-])c7F)c7nc(c(-c8cccc(S(=O)(=O)[O-])c8F)c8ccc5[nH]8)C=C7)C=C6)cc4)cc3)nc3cnccn23)c1
REMARK SMILES IDX 18 1 19 2 20 3 17 5 14 6 15 7 91 8 16 9 90 10 13 11 12 12
REMARK SMILES IDX 98 13 92 14 93 15 97 16 94 17 96 18 95 19 11 20 10 22 6 23
REMARK SMILES IDX 7 24 99 25 8 26 9 27 4 28 5 29 3 30 2 31 1 32 21 33 22 34
REMARK SMILES IDX 23 35 24 36 25 37 26 39 27 40 28 41 89 42 29 43 88 44 30 45
REMARK SMILES IDX 31 46 32 47 82 48 33 49 87 50 81 51 83 52 34 53 86 54 80 55
REMARK SMILES IDX 79 56 35 58 67 59 47 60 66 61 48 62 51 63 65 64 84 65 49 66
REMARK SMILES IDX 50 67 64 69 85 70 52 71 36 72 37 73 45 74 38 75 40 76 46 77
REMARK SMILES IDX 39 78 41 79 42 80 43 81 44 82 68 83 69 84 77 85 70 86 72 87
REMARK SMILES IDX 78 88 71 89 73 90 74 91 75 92 76 93 53 94 54 95 62 96 55 97
REMARK SMILES IDX 57 98 63 99 56 100 58 101 59 102 60 103 61 104
REMARK H PARENT 20 4 11 21 24 38 83 57 51 68
REMARK Flexibility Score: inf
ROOT
ATOM      1  C   UNL A   1      30.324  25.428  26.395  1.00  0.00     0.251 C 
ATOM      2  O   UNL A   1      29.111  25.470  26.602  1.00  0.00    -0.269 OA
ATOM      3  N   UNL A   1      31.020  26.610  26.428  1.00  0.00    -0.352 N 
ATOM      4  H   UNL A   1      30.452  27.408  26.517  1.00  0.00     0.163 HD
ENDROOT
BRANCH   1   5
ATOM      5  C   UNL A   1      30.970  24.106  26.173  1.00  0.00     0.039 A 
ATOM      6  C   UNL A   1      32.144  21.618  25.580  1.00  0.00     0.004 A 
ATOM      7  C   UNL A   1      31.317  22.242  24.642  1.00  0.00     0.011 A 
ATOM      8  C   UNL A   1      32.399  22.245  26.801  1.00  0.00     0.011 A 
ATOM      9  C   UNL A   1      30.732  23.477  24.940  1.00  0.00     0.014 A 
ATOM     10  C   UNL A   1      31.839  23.495  27.081  1.00  0.00     0.014 A 
BRANCH   6  11
ATOM     11  C   UNL A   1      32.759  20.341  25.297  1.00  0.00     0.114 A 
ATOM     12  C   UNL A   1      34.000  20.171  24.696  1.00  0.00     0.143 A 
ATOM     13  N   UNL A   1      34.186  18.803  24.699  1.00  0.00    -0.283 N 
ATOM     14  N   UNL A   1      32.153  19.139  25.583  1.00  0.00    -0.225 NA
ATOM     15  C   UNL A   1      33.032  18.246  25.190  1.00  0.00     0.157 A 
ATOM     16  C   UNL A   1      35.245  17.984  24.340  1.00  0.00     0.115 A 
ATOM     17  C   UNL A   1      32.933  16.814  25.244  1.00  0.00     0.158 A 
ATOM     18  C   UNL A   1      35.083  16.653  24.439  1.00  0.00     0.129 A 
ATOM     19  N   UNL A   1      33.917  16.039  24.871  1.00  0.00    -0.259 NA
BRANCH  12  20
ATOM     20  N   UNL A   1      34.921  21.069  24.252  1.00  0.00    -0.339 N 
ATOM     21  H   UNL A   1      35.729  20.715  23.816  1.00  0.00     0.168 HD
BRANCH  20  22
ATOM     22  C   UNL A   1      34.802  22.478  24.373  1.00  0.00     0.040 A 
ATOM     23  C   UNL A   1      34.014  24.586  23.440  1.00  0.00     0.062 A 
ATOM     24  C   UNL A   1      34.587  25.286  24.505  1.00  0.00     0.016 A 
ATOM     25  C   UNL A   1      34.098  23.187  23.386  1.00  0.00     0.041 A 
ATOM     26  C   UNL A   1      35.236  24.591  25.518  1.00  0.00     0.003 A 
ATOM     27  C   UNL A   1      35.345  23.200  25.447  1.00  0.00     0.026 A 
BRANCH  23  28
ATOM     28  C   UNL A   1      33.413  25.372  22.343  1.00  0.00     0.338 C 
ATOM     29  O   UNL A   1      34.028  26.227  21.730  1.00  0.00    -0.246 OA
BRANCH  28  30
ATOM     30  O   UNL A   1      32.108  25.039  22.188  1.00  0.00    -0.462 OA
BRANCH  30  31
ATOM     31  C   UNL A   1      31.260  26.100  21.722  1.00  0.00     0.230 C 
ATOM     32  C   UNL A   1      30.653  26.887  22.872  1.00  0.00     0.049 C 
ENDBRANCH  30  31
ENDBRANCH  28  30
ENDBRANCH  23  28
ENDBRANCH  20  22
ENDBRANCH  12  20
ENDBRANCH   6  11
ENDBRANCH   1   5
BRANCH   3  33
ATOM     33  C   UNL A   1      32.441  26.900  26.356  1.00  0.00     0.118 C 
BRANCH  33  34
ATOM     34  C   UNL A   1      32.711  28.231  25.656  1.00  0.00     0.042 C 
BRANCH  34  35
ATOM     35  C   UNL A   1      34.060  28.851  26.013  1.00  0.00     0.118 C 
BRANCH  35  36
ATOM     36  N   UNL A   1      33.919  30.199  26.542  1.00  0.00    -0.352 N 
ATOM     37  C   UNL A   1      34.618  30.828  27.543  1.00  0.00     0.251 C 
ATOM     38  H   UNL A   1      33.215  30.742  26.118  1.00  0.00     0.163 HD
ATOM     39  O   UNL A   1      34.203  31.899  27.980  1.00  0.00    -0.269 OA
BRANCH  37  40
ATOM     40  C   UNL A   1      35.852  30.231  28.102  1.00  0.00     0.039 A 
ATOM     41  C   UNL A   1      37.035  30.317  27.358  1.00  0.00     0.014 A 
ATOM     42  C   UNL A   1      35.843  29.541  29.317  1.00  0.00     0.014 A 
ATOM     43  C   UNL A   1      38.214  29.752  27.854  1.00  0.00     0.010 A 
ATOM     44  C   UNL A   1      37.031  29.029  29.838  1.00  0.00     0.010 A 
ATOM     45  C   UNL A   1      38.226  29.121  29.108  1.00  0.00    -0.014 A 
BRANCH  45  46
ATOM     46  C   UNL A   1      39.477  28.552  29.673  1.00  0.00     0.031 A 
ATOM     47  C   UNL A   1      40.115  29.179  30.883  1.00  0.00     0.074 A 
ATOM     48  C   UNL A   1      40.084  27.526  29.046  1.00  0.00     0.049 A 
ATOM     49  N   UNL A   1      41.241  28.870  31.475  1.00  0.00    -0.248 NA
ATOM     50  C   UNL A   1      39.411  30.317  31.496  1.00  0.00     0.031 C 
ATOM     51  C   UNL A   1      39.603  26.880  27.822  1.00  0.00     0.029 A 
ATOM     52  N   UNL A   1      41.252  26.865  29.333  1.00  0.00    -0.354 N 
ATOM     53  C   UNL A   1      41.398  29.793  32.502  1.00  0.00     0.074 A 
ATOM     54  C   UNL A   1      40.265  30.690  32.440  1.00  0.00     0.031 C 
ATOM     55  C   UNL A   1      40.471  25.923  27.460  1.00  0.00     0.029 A 
ATOM     56  C   UNL A   1      41.579  25.898  28.410  1.00  0.00     0.049 A 
ATOM     57  H   UNL A   1      41.804  27.064  30.122  1.00  0.00     0.167 HD
ATOM     58  C   UNL A   1      42.380  29.869  33.432  1.00  0.00     0.034 A 
ATOM     59  C   UNL A   1      42.653  25.086  28.335  1.00  0.00     0.034 A 
ATOM     60  C   UNL A   1      43.475  28.942  33.526  1.00  0.00     0.049 A 
ATOM     61  C   UNL A   1      43.698  25.154  29.416  1.00  0.00     0.074 A 
ATOM     62  C   UNL A   1      44.474  28.886  34.483  1.00  0.00     0.029 A 
ATOM     63  N   UNL A   1      43.713  27.906  32.639  1.00  0.00    -0.354 N 
ATOM     64  N   UNL A   1      43.745  25.934  30.468  1.00  0.00    -0.248 NA
ATOM     65  C   UNL A   1      44.816  24.204  29.322  1.00  0.00     0.031 C 
ATOM     66  C   UNL A   1      45.319  27.816  34.169  1.00  0.00     0.029 A 
ATOM     67  C   UNL A   1      44.841  27.202  33.023  1.00  0.00     0.049 A 
ATOM     68  H   UNL A   1      43.161  27.700  31.850  1.00  0.00     0.167 HD
ATOM     69  C   UNL A   1      44.876  25.548  31.179  1.00  0.00     0.074 A 
ATOM     70  C   UNL A   1      45.473  24.449  30.447  1.00  0.00     0.031 C 
ATOM     71  C   UNL A   1      45.385  26.069  32.321  1.00  0.00     0.034 A 
BRANCH  58  72
ATOM     72  C   UNL A   1      42.278  30.953  34.473  1.00  0.00     0.023 A 
ATOM     73  C   UNL A   1      41.671  30.660  35.712  1.00  0.00     0.012 A 
ATOM     74  C   UNL A   1      42.839  32.226  34.262  1.00  0.00     0.148 A 
ATOM     75  C   UNL A   1      41.601  31.625  36.715  1.00  0.00     0.002 A 
ATOM     76  C   UNL A   1      42.798  33.173  35.281  1.00  0.00     0.091 A 
ATOM     77  F   UNL A   1      43.393  32.492  33.070  1.00  0.00    -0.205 F 
ATOM     78  C   UNL A   1      42.173  32.877  36.503  1.00  0.00     0.022 A 
BRANCH  76  79
ATOM     79  S   UNL A   1      43.569  34.789  35.133  1.00  0.00     0.127 S 
ATOM     80  O   UNL A   1      43.270  35.378  36.438  1.00  0.00    -0.237 OA
ATOM     81  O   UNL A   1      44.976  34.444  34.930  1.00  0.00    -0.237 OA
ATOM     82  O   UNL A   1      42.933  35.435  33.994  1.00  0.00    -0.744 OA
ENDBRANCH  76  79
ENDBRANCH  58  72
BRANCH  59  83
ATOM     83  C   UNL A   1      42.751  24.084  27.237  1.00  0.00     0.023 A 
ATOM     84  C   UNL A   1      43.525  24.385  26.099  1.00  0.00     0.012 A 
ATOM     85  C   UNL A   1      42.117  22.830  27.324  1.00  0.00     0.148 A 
ATOM     86  C   UNL A   1      43.641  23.468  25.054  1.00  0.00     0.002 A 
ATOM     87  C   UNL A   1      42.280  21.899  26.303  1.00  0.00     0.091 A 
ATOM     88  F   UNL A   1      41.370  22.566  28.405  1.00  0.00    -0.205 F 
ATOM     89  C   UNL A   1      43.029  22.221  25.160  1.00  0.00     0.022 A 
BRANCH  87  90
ATOM     90  S   UNL A   1      41.637  20.226  26.433  1.00  0.00     0.127 S 
ATOM     91  O   UNL A   1      42.054  19.847  27.779  1.00  0.00    -0.237 OA
ATOM     92  O   UNL A   1      40.197  20.434  26.269  1.00  0.00    -0.237 OA
ATOM     93  O   UNL A   1      42.258  19.493  25.337  1.00  0.00    -0.744 OA
ENDBRANCH  87  90
ENDBRANCH  59  83
BRANCH  71  94
ATOM     94  C   UNL A   1      46.638  25.445  32.876  1.00  0.00     0.023 A 
ATOM     95  C   UNL A   1      47.894  25.972  32.516  1.00  0.00     0.012 A 
ATOM     96  C   UNL A   1      46.569  24.393  33.811  1.00  0.00     0.148 A 
ATOM     97  C   UNL A   1      49.064  25.445  33.060  1.00  0.00     0.002 A 
ATOM     98  C   UNL A   1      47.738  23.902  34.380  1.00  0.00     0.091 A 
ATOM     99  F   UNL A   1      45.365  23.891  34.122  1.00  0.00    -0.205 F 
ATOM    100  C   UNL A   1      48.986  24.419  33.999  1.00  0.00     0.022 A 
BRANCH  98 101
ATOM    101  S   UNL A   1      47.719  22.643  35.662  1.00  0.00     0.127 S 
ATOM    102  O   UNL A   1      47.030  21.543  34.991  1.00  0.00    -0.237 OA
ATOM    103  O   UNL A   1      49.145  22.414  35.899  1.00  0.00    -0.237 OA
ATOM    104  O   UNL A   1      47.011  23.235  36.789  1.00  0.00    -0.744 OA
ENDBRANCH  98 101
ENDBRANCH  71  94
ENDBRANCH  45  46
ENDBRANCH  37  40
ENDBRANCH  35  36
ENDBRANCH  34  35
ENDBRANCH  33  34
ENDBRANCH   3  33
TORSDOF 19
ENDMDL
MODEL 2
REMARK VINA RESULT:     -11.9      3.720      8.661
REMARK SMILES CCOC(=O)c1cccc(Nc2c(-c3ccc(C(=O)NCCCNC(=O)c4ccc(-c5c6nc(c(-c7cccc(S(=O)(=O)[O-])c7F)c7ccc([nH]7)c(-c7cccc(S(=O)(=O)[O-])c7F)c7nc(c(-c8cccc(S(=O)(=O)[O-])c8F)c8ccc5[nH]8)C=C7)C=C6)cc4)cc3)nc3cnccn23)c1
REMARK SMILES IDX 18 1 19 2 20 3 17 5 14 6 15 7 91 8 16 9 90 10 13 11 12 12
REMARK SMILES IDX 98 13 92 14 93 15 97 16 94 17 96 18 95 19 11 20 10 22 6 23
REMARK SMILES IDX 7 24 99 25 8 26 9 27 4 28 5 29 3 30 2 31 1 32 21 33 22 34
REMARK SMILES IDX 23 35 24 36 25 37 26 39 27 40 28 41 89 42 29 43 88 44 30 45
REMARK SMILES IDX 31 46 32 47 82 48 33 49 87 50 81 51 83 52 34 53 86 54 80 55
REMARK SMILES IDX 79 56 35 58 67 59 47 60 66 61 48 62 51 63 65 64 84 65 49 66
REMARK SMILES IDX 50 67 64 69 85 70 52 71 36 72 37 73 45 74 38 75 40 76 46 77
REMARK SMILES IDX 39 78 41 79 42 80 43 81 44 82 68 83 69 84 77 85 70 86 72 87
REMARK SMILES IDX 78 88 71 89 73 90 74 91 75 92 76 93 53 94 54 95 62 96 55 97
REMARK SMILES IDX 57 98 63 99 56 100 58 101 59 102 60 103 61 104
REMARK H PARENT 20 4 11 21 24 38 83 57 51 68
REMARK Flexibility Score: inf
ROOT
ATOM      1  C   UNL A   1      31.084  29.075  24.393  1.00  0.00     0.251 C 
ATOM      2  O   UNL A   1      30.243  28.979  23.499  1.00  0.00    -0.269 OA
ATOM      3  N   UNL A   1      31.116  30.239  25.119  1.00  0.00    -0.352 N 
ATOM      4  H   UNL A   1      30.515  30.940  24.780  1.00  0.00     0.163 HD
ENDROOT
BRANCH   1   5
ATOM      5  C   UNL A   1      31.977  27.916  24.668  1.00  0.00     0.039 A 
ATOM      6  C   UNL A   1      33.733  25.747  25.024  1.00  0.00     0.004 A 
ATOM      7  C   UNL A   1      33.564  26.309  23.756  1.00  0.00     0.011 A 
ATOM      8  C   UNL A   1      33.041  26.280  26.113  1.00  0.00     0.011 A 
ATOM      9  C   UNL A   1      32.689  27.385  23.581  1.00  0.00     0.014 A 
ATOM     10  C   UNL A   1      32.193  27.378  25.939  1.00  0.00     0.014 A 
BRANCH   6  11
ATOM     11  C   UNL A   1      34.631  24.633  25.231  1.00  0.00     0.114 A 
ATOM     12  C   UNL A   1      34.246  23.300  25.287  1.00  0.00     0.143 A 
ATOM     13  N   UNL A   1      35.436  22.615  25.430  1.00  0.00    -0.283 N 
ATOM     14  N   UNL A   1      35.985  24.789  25.419  1.00  0.00    -0.225 NA
ATOM     15  C   UNL A   1      36.425  23.559  25.554  1.00  0.00     0.157 A 
ATOM     16  C   UNL A   1      35.766  21.269  25.449  1.00  0.00     0.115 A 
ATOM     17  C   UNL A   1      37.771  23.114  25.779  1.00  0.00     0.158 A 
ATOM     18  C   UNL A   1      37.053  20.931  25.642  1.00  0.00     0.129 A 
ATOM     19  N   UNL A   1      38.079  21.844  25.833  1.00  0.00    -0.259 NA
BRANCH  12  20
ATOM     20  N   UNL A   1      33.029  22.703  25.161  1.00  0.00    -0.339 N 
ATOM     21  H   UNL A   1      32.352  22.898  25.848  1.00  0.00     0.168 HD
BRANCH  20  22
ATOM     22  C   UNL A   1      32.665  21.821  24.111  1.00  0.00     0.040 A 
ATOM     23  C   UNL A   1      32.487  19.537  23.282  1.00  0.00     0.062 A 
ATOM     24  C   UNL A   1      32.033  20.007  22.046  1.00  0.00     0.016 A 
ATOM     25  C   UNL A   1      32.778  20.436  24.319  1.00  0.00     0.041 A 
ATOM     26  C   UNL A   1      31.863  21.371  21.848  1.00  0.00     0.003 A 
ATOM     27  C   UNL A   1      32.181  22.267  22.871  1.00  0.00     0.026 A 
BRANCH  23  28
ATOM     28  C   UNL A   1      32.738  18.087  23.417  1.00  0.00     0.338 C 
ATOM     29  O   UNL A   1      32.306  17.266  22.626  1.00  0.00    -0.246 OA
BRANCH  28  30
ATOM     30  O   UNL A   1      33.440  17.837  24.548  1.00  0.00    -0.462 OA
BRANCH  30  31
ATOM     31  C   UNL A   1      33.515  16.453  24.926  1.00  0.00     0.230 C 
ATOM     32  C   UNL A   1      34.952  15.995  25.115  1.00  0.00     0.049 C 
ENDBRANCH  30  31
ENDBRANCH  28  30
ENDBRANCH  23  28
ENDBRANCH  20  22
ENDBRANCH  12  20
ENDBRANCH   6  11
ENDBRANCH   1   5
BRANCH   3  33
ATOM     33  C   UNL A   1      31.874  30.626  26.296  1.00  0.00     0.118 C 
BRANCH  33  34
ATOM     34  C   UNL A   1      31.616  32.083  26.679  1.00  0.00     0.042 C 
BRANCH  34  35
ATOM     35  C   UNL A   1      32.886  32.871  26.991  1.00  0.00     0.118 C 
BRANCH  35  36
ATOM     36  N   UNL A   1      32.596  34.149  27.622  1.00  0.00    -0.352 N 
ATOM     37  C   UNL A   1      33.103  34.695  28.776  1.00  0.00     0.251 C 
ATOM     38  H   UNL A   1      31.935  34.707  27.151  1.00  0.00     0.163 HD
ATOM     39  O   UNL A   1      32.571  35.698  29.247  1.00  0.00    -0.269 OA
BRANCH  37  40
ATOM     40  C   UNL A   1      34.271  34.091  29.456  1.00  0.00     0.039 A 
ATOM     41  C   UNL A   1      35.555  34.442  29.024  1.00  0.00     0.014 A 
ATOM     42  C   UNL A   1      34.113  33.143  30.471  1.00  0.00     0.014 A 
ATOM     43  C   UNL A   1      36.677  33.878  29.639  1.00  0.00     0.010 A 
ATOM     44  C   UNL A   1      35.233  32.625  31.122  1.00  0.00     0.010 A 
ATOM     45  C   UNL A   1      36.525  32.980  30.706  1.00  0.00    -0.014 A 
BRANCH  45  46
ATOM     46  C   UNL A   1      37.704  32.402  31.403  1.00  0.00     0.031 A 
ATOM     47  C   UNL A   1      38.460  31.255  30.788  1.00  0.00     0.074 A 
ATOM     48  C   UNL A   1      38.039  32.852  32.628  1.00  0.00     0.049 A 
ATOM     49  N   UNL A   1      39.465  30.574  31.277  1.00  0.00    -0.248 NA
ATOM     50  C   UNL A   1      38.017  30.797  29.462  1.00  0.00     0.031 C 
ATOM     51  C   UNL A   1      37.337  33.908  33.361  1.00  0.00     0.029 A 
ATOM     52  N   UNL A   1      39.035  32.457  33.486  1.00  0.00    -0.354 N 
ATOM     53  C   UNL A   1      39.750  29.588  30.340  1.00  0.00     0.074 A 
ATOM     54  C   UNL A   1      38.796  29.742  29.263  1.00  0.00     0.031 C 
ATOM     55  C   UNL A   1      37.919  34.073  34.559  1.00  0.00     0.029 A 
ATOM     56  C   UNL A   1      39.020  33.123  34.690  1.00  0.00     0.049 A 
ATOM     57  H   UNL A   1      39.696  31.764  33.262  1.00  0.00     0.167 HD
ATOM     58  C   UNL A   1      40.734  28.658  30.359  1.00  0.00     0.034 A 
ATOM     59  C   UNL A   1      39.801  32.980  35.779  1.00  0.00     0.034 A 
ATOM     60  C   UNL A   1      41.716  28.544  31.404  1.00  0.00     0.049 A 
ATOM     61  C   UNL A   1      40.925  31.979  35.747  1.00  0.00     0.074 A 
ATOM     62  C   UNL A   1      42.801  27.688  31.473  1.00  0.00     0.029 A 
ATOM     63  N   UNL A   1      41.736  29.309  32.557  1.00  0.00    -0.354 N 
ATOM     64  N   UNL A   1      41.273  31.162  34.783  1.00  0.00    -0.248 NA
ATOM     65  C   UNL A   1      41.787  31.907  36.935  1.00  0.00     0.031 C 
ATOM     66  C   UNL A   1      43.477  27.936  32.673  1.00  0.00     0.029 A 
ATOM     67  C   UNL A   1      42.815  28.950  33.346  1.00  0.00     0.049 A 
ATOM     68  H   UNL A   1      41.079  30.007  32.784  1.00  0.00     0.167 HD
ATOM     69  C   UNL A   1      42.412  30.504  35.233  1.00  0.00     0.074 A 
ATOM     70  C   UNL A   1      42.708  31.035  36.548  1.00  0.00     0.031 C 
ATOM     71  C   UNL A   1      43.134  29.534  34.623  1.00  0.00     0.034 A 
BRANCH  58  72
ATOM     72  C   UNL A   1      40.847  27.731  29.177  1.00  0.00     0.023 A 
ATOM     73  C   UNL A   1      40.037  26.578  29.130  1.00  0.00     0.012 A 
ATOM     74  C   UNL A   1      41.689  28.031  28.089  1.00  0.00     0.148 A 
ATOM     75  C   UNL A   1      40.082  25.723  28.029  1.00  0.00     0.002 A 
ATOM     76  C   UNL A   1      41.701  27.193  26.978  1.00  0.00     0.091 A 
ATOM     77  F   UNL A   1      42.466  29.121  28.163  1.00  0.00    -0.205 F 
ATOM     78  C   UNL A   1      40.906  26.036  26.951  1.00  0.00     0.022 A 
BRANCH  76  79
ATOM     79  S   UNL A   1      42.672  27.546  25.509  1.00  0.00     0.127 S 
ATOM     80  O   UNL A   1      42.367  26.388  24.669  1.00  0.00    -0.237 OA
ATOM     81  O   UNL A   1      42.087  28.804  25.046  1.00  0.00    -0.237 OA
ATOM     82  O   UNL A   1      44.054  27.649  25.956  1.00  0.00    -0.744 OA
ENDBRANCH  76  79
ENDBRANCH  58  72
BRANCH  59  83
ATOM     83  C   UNL A   1      39.599  33.865  36.961  1.00  0.00     0.023 A 
ATOM     84  C   UNL A   1      39.960  35.224  36.871  1.00  0.00     0.012 A 
ATOM     85  C   UNL A   1      39.023  33.385  38.153  1.00  0.00     0.148 A 
ATOM     86  C   UNL A   1      39.780  36.081  37.958  1.00  0.00     0.002 A 
ATOM     87  C   UNL A   1      38.798  34.256  39.213  1.00  0.00     0.091 A 
ATOM     88  F   UNL A   1      38.702  32.086  38.228  1.00  0.00    -0.205 F 
ATOM     89  C   UNL A   1      39.189  35.601  39.124  1.00  0.00     0.022 A 
BRANCH  87  90
ATOM     90  S   UNL A   1      37.918  33.741  40.693  1.00  0.00     0.127 S 
ATOM     91  O   UNL A   1      37.675  35.018  41.358  1.00  0.00    -0.237 OA
ATOM     92  O   UNL A   1      36.725  33.099  40.137  1.00  0.00    -0.237 OA
ATOM     93  O   UNL A   1      38.822  32.823  41.374  1.00  0.00    -0.744 OA
ENDBRANCH  87  90
ENDBRANCH  59  83
BRANCH  71  94
ATOM     94  C   UNL A   1      44.337  28.996  35.351  1.00  0.00     0.023 A 
ATOM     95  C   UNL A   1      45.601  29.576  35.127  1.00  0.00     0.012 A 
ATOM     96  C   UNL A   1      44.203  27.974  36.312  1.00  0.00     0.148 A 
ATOM     97  C   UNL A   1      46.719  29.130  35.830  1.00  0.00     0.002 A 
ATOM     98  C   UNL A   1      45.315  27.564  37.038  1.00  0.00     0.091 A 
ATOM     99  F   UNL A   1      42.996  27.420  36.493  1.00  0.00    -0.205 F 
ATOM    100  C   UNL A   1      46.575  28.134  36.793  1.00  0.00     0.022 A 
BRANCH  98 101
ATOM    101  S   UNL A   1      45.198  26.350  38.358  1.00  0.00     0.127 S 
ATOM    102  O   UNL A   1      46.605  26.041  38.604  1.00  0.00    -0.237 OA
ATOM    103  O   UNL A   1      44.545  27.108  39.426  1.00  0.00    -0.237 OA
ATOM    104  O   UNL A   1      44.398  25.258  37.822  1.00  0.00    -0.744 OA
ENDBRANCH  98 101
ENDBRANCH  71  94
ENDBRANCH  45  46
ENDBRANCH  37  40
ENDBRANCH  35  36
ENDBRANCH  34  35
ENDBRANCH  33  34
ENDBRANCH   3  33
TORSDOF 19
ENDMDL
MODEL 3
REMARK VINA RESULT:     -11.5      4.982      8.690
REMARK SMILES CCOC(=O)c1cccc(Nc2c(-c3ccc(C(=O)NCCCNC(=O)c4ccc(-c5c6nc(c(-c7cccc(S(=O)(=O)[O-])c7F)c7ccc([nH]7)c(-c7cccc(S(=O)(=O)[O-])c7F)c7nc(c(-c8cccc(S(=O)(=O)[O-])c8F)c8ccc5[nH]8)C=C7)C=C6)cc4)cc3)nc3cnccn23)c1
REMARK SMILES IDX 18 1 19 2 20 3 17 5 14 6 15 7 91 8 16 9 90 10 13 11 12 12
REMARK SMILES IDX 98 13 92 14 93 15 97 16 94 17 96 18 95 19 11 20 10 22 6 23
REMARK SMILES IDX 7 24 99 25 8 26 9 27 4 28 5 29 3 30 2 31 1 32 21 33 22 34
REMARK SMILES IDX 23 35 24 36 25 37 26 39 27 40 28 41 89 42 29 43 88 44 30 45
REMARK SMILES IDX 31 46 32 47 82 48 33 49 87 50 81 51 83 52 34 53 86 54 80 55
REMARK SMILES IDX 79 56 35 58 67 59 47 60 66 61 48 62 51 63 65 64 84 65 49 66
REMARK SMILES IDX 50 67 64 69 85 70 52 71 36 72 37 73 45 74 38 75 40 76 46 77
REMARK SMILES IDX 39 78 41 79 42 80 43 81 44 82 68 83 69 84 77 85 70 86 72 87
REMARK SMILES IDX 78 88 71 89 73 90 74 91 75 92 76 93 53 94 54 95 62 96 55 97
REMARK SMILES IDX 57 98 63 99 56 100 58 101 59 102 60 103 61 104
REMARK H PARENT 20 4 11 21 24 38 83 57 51 68
REMARK Flexibility Score: inf
ROOT
ATOM      1  C   UNL A   1      37.217  23.673  25.773  1.00  0.00     0.251 C 
ATOM      2  O   UNL A   1      38.150  24.395  26.126  1.00  0.00    -0.269 OA
ATOM      3  N   UNL A   1      37.419  22.316  25.783  1.00  0.00    -0.352 N 
ATOM      4  H   UNL A   1      38.345  22.049  25.980  1.00  0.00     0.163 HD
ENDROOT
BRANCH   1   5
ATOM      5  C   UNL A   1      35.919  24.302  25.407  1.00  0.00     0.039 A 
ATOM      6  C   UNL A   1      33.454  25.377  24.577  1.00  0.00     0.004 A 
ATOM      7  C   UNL A   1      34.141  24.482  23.751  1.00  0.00     0.011 A 
ATOM      8  C   UNL A   1      33.988  25.716  25.821  1.00  0.00     0.011 A 
ATOM      9  C   UNL A   1      35.367  23.952  24.164  1.00  0.00     0.014 A 
ATOM     10  C   UNL A   1      35.198  25.157  26.244  1.00  0.00     0.014 A 
BRANCH   6  11
ATOM     11  C   UNL A   1      32.186  25.940  24.173  1.00  0.00     0.114 A 
ATOM     12  C   UNL A   1      30.941  25.424  24.512  1.00  0.00     0.143 A 
ATOM     13  N   UNL A   1      30.048  26.323  23.964  1.00  0.00    -0.283 N 
ATOM     14  N   UNL A   1      32.084  27.057  23.377  1.00  0.00    -0.225 NA
ATOM     15  C   UNL A   1      30.789  27.240  23.260  1.00  0.00     0.157 A 
ATOM     16  C   UNL A   1      28.669  26.450  24.017  1.00  0.00     0.115 A 
ATOM     17  C   UNL A   1      30.095  28.265  22.532  1.00  0.00     0.158 A 
ATOM     18  C   UNL A   1      28.093  27.449  23.326  1.00  0.00     0.129 A 
ATOM     19  N   UNL A   1      28.791  28.364  22.551  1.00  0.00    -0.259 NA
BRANCH  12  20
ATOM     20  N   UNL A   1      30.582  24.348  25.264  1.00  0.00    -0.339 N 
ATOM     21  H   UNL A   1      29.643  24.286  25.552  1.00  0.00     0.168 HD
BRANCH  20  22
ATOM     22  C   UNL A   1      31.462  23.309  25.662  1.00  0.00     0.040 A 
ATOM     23  C   UNL A   1      32.559  21.197  25.139  1.00  0.00     0.062 A 
ATOM     24  C   UNL A   1      33.142  21.171  26.409  1.00  0.00     0.016 A 
ATOM     25  C   UNL A   1      31.744  22.273  24.756  1.00  0.00     0.041 A 
ATOM     26  C   UNL A   1      32.918  22.218  27.292  1.00  0.00     0.003 A 
ATOM     27  C   UNL A   1      32.081  23.274  26.921  1.00  0.00     0.026 A 
BRANCH  23  28
ATOM     28  C   UNL A   1      32.753  20.020  24.267  1.00  0.00     0.338 C 
ATOM     29  O   UNL A   1      32.238  19.921  23.167  1.00  0.00    -0.246 OA
BRANCH  28  30
ATOM     30  O   UNL A   1      33.512  19.091  24.897  1.00  0.00    -0.462 OA
BRANCH  30  31
ATOM     31  C   UNL A   1      34.061  18.073  24.045  1.00  0.00     0.230 C 
ATOM     32  C   UNL A   1      34.523  16.861  24.838  1.00  0.00     0.049 C 
ENDBRANCH  30  31
ENDBRANCH  28  30
ENDBRANCH  23  28
ENDBRANCH  20  22
ENDBRANCH  12  20
ENDBRANCH   6  11
ENDBRANCH   1   5
BRANCH   3  33
ATOM     33  C   UNL A   1      36.518  21.200  25.555  1.00  0.00     0.118 C 
BRANCH  33  34
ATOM     34  C   UNL A   1      37.268  19.955  25.085  1.00  0.00     0.042 C 
BRANCH  34  35
ATOM     35  C   UNL A   1      38.760  20.186  24.852  1.00  0.00     0.118 C 
BRANCH  35  36
ATOM     36  N   UNL A   1      39.583  19.270  25.627  1.00  0.00    -0.352 N 
ATOM     37  C   UNL A   1      40.742  19.506  26.324  1.00  0.00     0.251 C 
ATOM     38  H   UNL A   1      39.260  18.340  25.654  1.00  0.00     0.163 HD
ATOM     39  O   UNL A   1      41.395  18.551  26.739  1.00  0.00    -0.269 OA
BRANCH  37  40
ATOM     40  C   UNL A   1      41.214  20.887  26.575  1.00  0.00     0.039 A 
ATOM     41  C   UNL A   1      40.934  21.477  27.812  1.00  0.00     0.014 A 
ATOM     42  C   UNL A   1      41.874  21.622  25.587  1.00  0.00     0.014 A 
ATOM     43  C   UNL A   1      41.355  22.784  28.074  1.00  0.00     0.010 A 
ATOM     44  C   UNL A   1      42.345  22.904  25.869  1.00  0.00     0.010 A 
ATOM     45  C   UNL A   1      42.082  23.502  27.111  1.00  0.00    -0.014 A 
BRANCH  45  46
ATOM     46  C   UNL A   1      42.577  24.876  27.383  1.00  0.00     0.031 A 
ATOM     47  C   UNL A   1      41.674  25.894  28.026  1.00  0.00     0.074 A 
ATOM     48  C   UNL A   1      43.810  25.232  26.972  1.00  0.00     0.049 A 
ATOM     49  N   UNL A   1      41.902  27.158  28.275  1.00  0.00    -0.248 NA
ATOM     50  C   UNL A   1      40.330  25.440  28.420  1.00  0.00     0.031 C 
ATOM     51  C   UNL A   1      44.752  24.357  26.271  1.00  0.00     0.029 A 
ATOM     52  N   UNL A   1      44.471  26.432  27.056  1.00  0.00    -0.354 N 
ATOM     53  C   UNL A   1      40.725  27.659  28.819  1.00  0.00     0.074 A 
ATOM     54  C   UNL A   1      39.774  26.568  28.841  1.00  0.00     0.031 C 
ATOM     55  C   UNL A   1      45.865  25.050  25.982  1.00  0.00     0.029 A 
ATOM     56  C   UNL A   1      45.709  26.422  26.458  1.00  0.00     0.049 A 
ATOM     57  H   UNL A   1      44.094  27.225  27.501  1.00  0.00     0.167 HD
ATOM     58  C   UNL A   1      40.468  28.904  29.285  1.00  0.00     0.034 A 
ATOM     59  C   UNL A   1      46.617  27.407  26.305  1.00  0.00     0.034 A 
ATOM     60  C   UNL A   1      41.433  29.970  29.314  1.00  0.00     0.049 A 
ATOM     61  C   UNL A   1      46.326  28.765  26.887  1.00  0.00     0.074 A 
ATOM     62  C   UNL A   1      41.293  31.242  29.842  1.00  0.00     0.029 A 
ATOM     63  N   UNL A   1      42.716  29.889  28.799  1.00  0.00    -0.354 N 
ATOM     64  N   UNL A   1      45.264  29.173  27.537  1.00  0.00    -0.248 NA
ATOM     65  C   UNL A   1      47.375  29.787  26.749  1.00  0.00     0.031 C 
ATOM     66  C   UNL A   1      42.494  31.932  29.643  1.00  0.00     0.029 A 
ATOM     67  C   UNL A   1      43.382  31.086  28.997  1.00  0.00     0.049 A 
ATOM     68  H   UNL A   1      43.098  29.097  28.357  1.00  0.00     0.167 HD
ATOM     69  C   UNL A   1      45.528  30.484  27.916  1.00  0.00     0.074 A 
ATOM     70  C   UNL A   1      46.861  30.795  27.440  1.00  0.00     0.031 C 
ATOM     71  C   UNL A   1      44.732  31.358  28.577  1.00  0.00     0.034 A 
BRANCH  58  72
ATOM     72  C   UNL A   1      39.106  29.166  29.873  1.00  0.00     0.023 A 
ATOM     73  C   UNL A   1      38.814  28.686  31.167  1.00  0.00     0.012 A 
ATOM     74  C   UNL A   1      38.149  29.938  29.188  1.00  0.00     0.148 A 
ATOM     75  C   UNL A   1      37.580  28.950  31.760  1.00  0.00     0.002 A 
ATOM     76  C   UNL A   1      36.933  30.228  29.802  1.00  0.00     0.091 A 
ATOM     77  F   UNL A   1      38.438  30.367  27.952  1.00  0.00    -0.205 F 
ATOM     78  C   UNL A   1      36.645  29.728  31.082  1.00  0.00     0.022 A 
BRANCH  76  79
ATOM     79  S   UNL A   1      35.692  31.282  29.042  1.00  0.00     0.127 S 
ATOM     80  O   UNL A   1      36.523  32.307  28.411  1.00  0.00    -0.237 OA
ATOM     81  O   UNL A   1      35.040  30.366  28.106  1.00  0.00    -0.237 OA
ATOM     82  O   UNL A   1      34.842  31.747  30.127  1.00  0.00    -0.744 OA
ENDBRANCH  76  79
ENDBRANCH  58  72
BRANCH  59  83
ATOM     83  C   UNL A   1      47.920  27.122  25.641  1.00  0.00     0.023 A 
ATOM     84  C   UNL A   1      48.950  26.513  26.385  1.00  0.00     0.012 A 
ATOM     85  C   UNL A   1      48.135  27.414  24.281  1.00  0.00     0.148 A 
ATOM     86  C   UNL A   1      50.182  26.229  25.793  1.00  0.00     0.002 A 
ATOM     87  C   UNL A   1      49.345  27.080  23.684  1.00  0.00     0.091 A 
ATOM     88  F   UNL A   1      47.151  28.010  23.593  1.00  0.00    -0.205 F 
ATOM     89  C   UNL A   1      50.376  26.501  24.441  1.00  0.00     0.022 A 
BRANCH  87  90
ATOM     90  S   UNL A   1      49.618  27.275  21.918  1.00  0.00     0.127 S 
ATOM     91  O   UNL A   1      51.011  26.862  21.781  1.00  0.00    -0.237 OA
ATOM     92  O   UNL A   1      48.640  26.345  21.348  1.00  0.00    -0.237 OA
ATOM     93  O   UNL A   1      49.333  28.677  21.641  1.00  0.00    -0.744 OA
ENDBRANCH  87  90
ENDBRANCH  59  83
BRANCH  71  94
ATOM     94  C   UNL A   1      45.283  32.731  28.857  1.00  0.00     0.023 A 
ATOM     95  C   UNL A   1      46.104  32.933  29.984  1.00  0.00     0.012 A 
ATOM     96  C   UNL A   1      45.054  33.797  27.965  1.00  0.00     0.148 A 
ATOM     97  C   UNL A   1      46.669  34.182  30.232  1.00  0.00     0.002 A 
ATOM     98  C   UNL A   1      45.656  35.029  28.198  1.00  0.00     0.091 A 
ATOM     99  F   UNL A   1      44.251  33.591  26.912  1.00  0.00    -0.205 F 
ATOM    100  C   UNL A   1      46.455  35.226  29.336  1.00  0.00     0.022 A 
BRANCH  98 101
ATOM    101  S   UNL A   1      45.503  36.399  27.046  1.00  0.00     0.127 S 
ATOM    102  O   UNL A   1      46.090  37.498  27.810  1.00  0.00    -0.237 OA
ATOM    103  O   UNL A   1      46.309  35.947  25.911  1.00  0.00    -0.237 OA
ATOM    104  O   UNL A   1      44.080  36.520  26.761  1.00  0.00    -0.744 OA
ENDBRANCH  98 101
ENDBRANCH  71  94
ENDBRANCH  45  46
ENDBRANCH  37  40
ENDBRANCH  35  36
ENDBRANCH  34  35
ENDBRANCH  33  34
ENDBRANCH   3  33
TORSDOF 19
ENDMDL
