MODEL 1
REMARK VINA RESULT:     -11.7      0.000      0.000
REMARK SMILES O=C(NCCCNC(=O)c1ccc(C[NH2+]Cc2cc(F)ccc2F)nc1)c1ccc(-c2c3nc(c(-c4cccc(S(=O)(=O)[O-])c4F)c4ccc([nH]4)c(-c4cccc(S(=O)(=O)[O-])c4F)c4nc(c(-c5cccc(S(=O)(=O)[O-])c5F)c5ccc2[nH]5)C=C4)C=C3)cc1
REMARK SMILES IDX 5 1 4 2 3 3 1 4 2 5 27 7 28 8 89 9 29 10 88 11 30 12 31 13
REMARK SMILES IDX 32 14 82 15 33 16 87 17 81 18 83 19 34 20 86 21 80 22 79 23
REMARK SMILES IDX 35 25 67 26 47 27 66 28 48 29 51 30 65 31 84 32 49 33 50 34
REMARK SMILES IDX 64 36 85 37 52 38 36 39 37 40 45 41 38 42 40 43 46 44 39 45
REMARK SMILES IDX 41 46 42 47 43 48 44 49 68 50 69 51 77 52 70 53 72 54 78 55
REMARK SMILES IDX 71 56 73 57 74 58 75 59 76 60 53 61 54 62 62 63 55 64 57 65
REMARK SMILES IDX 63 66 56 67 58 68 59 69 60 70 61 71 6 72 7 73 8 74 9 76
REMARK SMILES IDX 10 77 11 78 26 79 12 80 25 81 13 82 14 83 15 84 16 87 17 88
REMARK SMILES IDX 18 89 23 90 19 91 22 92 24 93 20 94 21 95
REMARK H PARENT 3 6 83 24 51 35 7 75 15 85 15 86
REMARK Flexibility Score: inf
ROOT
ATOM      1  C   UNL A   1      37.830  19.336  24.712  1.00  0.00     0.042 C 
ENDROOT
BRANCH   1   2
ATOM      2  C   UNL A   1      38.812  20.080  25.604  1.00  0.00     0.118 C 
BRANCH   2   3
ATOM      3  N   UNL A   1      39.973  19.267  25.935  1.00  0.00    -0.352 N 
ATOM      4  O   UNL A   1      42.144  18.811  26.268  1.00  0.00    -0.269 OA
ATOM      5  C   UNL A   1      41.247  19.649  26.274  1.00  0.00     0.251 C 
ATOM      6  H   UNL A   1      39.822  18.295  25.913  1.00  0.00     0.163 HD
BRANCH   5   7
ATOM      7  C   UNL A   1      41.534  21.055  26.633  1.00  0.00     0.039 A 
ATOM      8  C   UNL A   1      42.104  21.373  27.869  1.00  0.00     0.014 A 
ATOM      9  C   UNL A   1      41.281  22.065  25.700  1.00  0.00     0.014 A 
ATOM     10  C   UNL A   1      42.302  22.701  28.223  1.00  0.00     0.010 A 
ATOM     11  C   UNL A   1      41.571  23.394  26.020  1.00  0.00     0.010 A 
ATOM     12  C   UNL A   1      42.071  23.722  27.289  1.00  0.00    -0.014 A 
BRANCH  12  13
ATOM     13  C   UNL A   1      42.502  25.105  27.611  1.00  0.00     0.031 A 
ATOM     14  C   UNL A   1      41.563  26.094  28.234  1.00  0.00     0.074 A 
ATOM     15  C   UNL A   1      43.762  25.462  27.290  1.00  0.00     0.049 A 
ATOM     16  N   UNL A   1      41.793  27.339  28.565  1.00  0.00    -0.248 NA
ATOM     17  C   UNL A   1      40.191  25.643  28.519  1.00  0.00     0.031 C 
ATOM     18  C   UNL A   1      44.737  24.592  26.623  1.00  0.00     0.029 A 
ATOM     19  N   UNL A   1      44.434  26.643  27.459  1.00  0.00    -0.354 N 
ATOM     20  C   UNL A   1      40.590  27.834  29.052  1.00  0.00     0.074 A 
ATOM     21  C   UNL A   1      39.630  26.754  28.983  1.00  0.00     0.031 C 
ATOM     22  C   UNL A   1      45.880  25.267  26.443  1.00  0.00     0.029 A 
ATOM     23  C   UNL A   1      45.704  26.629  26.929  1.00  0.00     0.049 A 
ATOM     24  H   UNL A   1      44.048  27.426  27.913  1.00  0.00     0.167 HD
ATOM     25  C   UNL A   1      40.323  29.075  29.521  1.00  0.00     0.034 A 
ATOM     26  C   UNL A   1      46.617  27.611  26.813  1.00  0.00     0.034 A 
ATOM     27  C   UNL A   1      41.301  30.125  29.631  1.00  0.00     0.049 A 
ATOM     28  C   UNL A   1      46.290  28.968  27.363  1.00  0.00     0.074 A 
ATOM     29  C   UNL A   1      41.159  31.372  30.214  1.00  0.00     0.029 A 
ATOM     30  N   UNL A   1      42.591  30.062  29.129  1.00  0.00    -0.354 N 
ATOM     31  N   UNL A   1      45.209  29.361  27.992  1.00  0.00    -0.248 NA
ATOM     32  C   UNL A   1      47.310  30.013  27.204  1.00  0.00     0.031 C 
ATOM     33  C   UNL A   1      42.355  32.076  30.037  1.00  0.00     0.029 A 
ATOM     34  C   UNL A   1      43.245  31.262  29.356  1.00  0.00     0.049 A 
ATOM     35  H   UNL A   1      42.984  29.282  28.677  1.00  0.00     0.167 HD
ATOM     36  C   UNL A   1      45.421  30.695  28.311  1.00  0.00     0.074 A 
ATOM     37  C   UNL A   1      46.749  31.032  27.842  1.00  0.00     0.031 C 
ATOM     38  C   UNL A   1      44.581  31.570  28.915  1.00  0.00     0.034 A 
BRANCH  25  39
ATOM     39  C   UNL A   1      38.927  29.376  29.998  1.00  0.00     0.023 A 
ATOM     40  C   UNL A   1      38.561  29.060  31.321  1.00  0.00     0.012 A 
ATOM     41  C   UNL A   1      38.025  30.081  29.177  1.00  0.00     0.148 A 
ATOM     42  C   UNL A   1      37.313  29.435  31.818  1.00  0.00     0.002 A 
ATOM     43  C   UNL A   1      36.795  30.480  29.690  1.00  0.00     0.091 A 
ATOM     44  F   UNL A   1      38.389  30.355  27.916  1.00  0.00    -0.205 F 
ATOM     45  C   UNL A   1      36.437  30.154  31.009  1.00  0.00     0.022 A 
BRANCH  43  46
ATOM     46  S   UNL A   1      35.624  31.468  28.753  1.00  0.00     0.127 S 
ATOM     47  O   UNL A   1      34.700  31.900  29.800  1.00  0.00    -0.237 OA
ATOM     48  O   UNL A   1      36.477  32.529  28.216  1.00  0.00    -0.237 OA
ATOM     49  O   UNL A   1      35.056  30.578  27.751  1.00  0.00    -0.744 OA
ENDBRANCH  43  46
ENDBRANCH  25  39
BRANCH  26  50
ATOM     50  C   UNL A   1      47.925  27.332  26.158  1.00  0.00     0.023 A 
ATOM     51  C   UNL A   1      48.997  26.840  26.924  1.00  0.00     0.012 A 
ATOM     52  C   UNL A   1      48.094  27.506  24.771  1.00  0.00     0.148 A 
ATOM     53  C   UNL A   1      50.222  26.549  26.324  1.00  0.00     0.002 A 
ATOM     54  C   UNL A   1      49.298  27.156  24.170  1.00  0.00     0.091 A 
ATOM     55  F   UNL A   1      47.071  27.998  24.057  1.00  0.00    -0.205 F 
ATOM     56  C   UNL A   1      50.370  26.694  24.947  1.00  0.00     0.022 A 
BRANCH  54  57
ATOM     57  S   UNL A   1      49.493  27.174  22.384  1.00  0.00     0.127 S 
ATOM     58  O   UNL A   1      50.922  26.913  22.234  1.00  0.00    -0.237 OA
ATOM     59  O   UNL A   1      48.620  26.077  21.963  1.00  0.00    -0.237 OA
ATOM     60  O   UNL A   1      49.030  28.491  21.967  1.00  0.00    -0.744 OA
ENDBRANCH  54  57
ENDBRANCH  26  50
BRANCH  38  61
ATOM     61  C   UNL A   1      45.067  32.981  29.092  1.00  0.00     0.023 A 
ATOM     62  C   UNL A   1      45.822  33.311  30.235  1.00  0.00     0.012 A 
ATOM     63  C   UNL A   1      44.842  33.957  28.103  1.00  0.00     0.148 A 
ATOM     64  C   UNL A   1      46.324  34.599  30.404  1.00  0.00     0.002 A 
ATOM     65  C   UNL A   1      45.384  35.228  28.258  1.00  0.00     0.091 A 
ATOM     66  F   UNL A   1      44.107  33.626  27.032  1.00  0.00    -0.205 F 
ATOM     67  C   UNL A   1      46.115  35.553  29.411  1.00  0.00     0.022 A 
BRANCH  65  68
ATOM     68  S   UNL A   1      45.242  36.496  26.993  1.00  0.00     0.127 S 
ATOM     69  O   UNL A   1      43.798  36.531  26.768  1.00  0.00    -0.237 OA
ATOM     70  O   UNL A   1      45.782  37.674  27.674  1.00  0.00    -0.237 OA
ATOM     71  O   UNL A   1      46.038  36.031  25.866  1.00  0.00    -0.744 OA
ENDBRANCH  65  68
ENDBRANCH  38  61
ENDBRANCH  12  13
ENDBRANCH   5   7
ENDBRANCH   2   3
ENDBRANCH   1   2
BRANCH   1  72
ATOM     72  C   UNL A   1      36.377  19.691  24.994  1.00  0.00     0.118 C 
BRANCH  72  73
ATOM     73  N   UNL A   1      35.478  18.575  24.722  1.00  0.00    -0.352 N 
ATOM     74  C   UNL A   1      34.103  18.535  24.754  1.00  0.00     0.252 C 
ATOM     75  H   UNL A   1      35.918  17.728  24.482  1.00  0.00     0.163 HD
ATOM     76  O   UNL A   1      33.508  17.469  24.728  1.00  0.00    -0.269 OA
BRANCH  74  77
ATOM     77  C   UNL A   1      33.351  19.795  24.815  1.00  0.00     0.058 A 
ATOM     78  C   UNL A   1      32.686  20.288  23.700  1.00  0.00     0.017 A 
ATOM     79  C   UNL A   1      33.286  20.512  25.998  1.00  0.00     0.125 A 
ATOM     80  C   UNL A   1      32.079  21.530  23.778  1.00  0.00     0.030 A 
ATOM     81  N   UNL A   1      32.671  21.717  26.108  1.00  0.00    -0.255 NA
ATOM     82  C   UNL A   1      32.088  22.223  24.990  1.00  0.00     0.094 A 
BRANCH  82  83
ATOM     83  C   UNL A   1      31.400  23.576  25.079  1.00  0.00     0.318 C 
BRANCH  83  84
ATOM     84  N   UNL A   1      31.808  24.472  23.988  1.00  0.00    -0.337 N 
ATOM     85  H   UNL A   1      31.052  25.134  23.811  1.00  0.00     0.346 HD
ATOM     86  H   UNL A   1      32.003  23.895  23.170  1.00  0.00     0.346 HD
BRANCH  84  87
ATOM     87  C   UNL A   1      33.020  25.221  24.300  1.00  0.00     0.300 C 
BRANCH  87  88
ATOM     88  C   UNL A   1      34.337  24.473  24.243  1.00  0.00     0.045 A 
ATOM     89  C   UNL A   1      35.190  24.564  25.357  1.00  0.00     0.051 A 
ATOM     90  C   UNL A   1      34.774  23.683  23.173  1.00  0.00     0.132 A 
ATOM     91  C   UNL A   1      36.413  23.894  25.376  1.00  0.00     0.123 A 
ATOM     92  C   UNL A   1      35.992  23.002  23.196  1.00  0.00     0.043 A 
ATOM     93  F   UNL A   1      34.039  23.566  22.063  1.00  0.00    -0.206 F 
ATOM     94  F   UNL A   1      37.211  24.012  26.445  1.00  0.00    -0.207 F 
ATOM     95  C   UNL A   1      36.820  23.108  24.306  1.00  0.00     0.042 A 
ENDBRANCH  87  88
ENDBRANCH  84  87
ENDBRANCH  83  84
ENDBRANCH  82  83
ENDBRANCH  74  77
ENDBRANCH  72  73
ENDBRANCH   1  72
TORSDOF 17
ENDMDL
MODEL 2
REMARK VINA RESULT:     -11.6      5.972     11.272
REMARK SMILES O=C(NCCCNC(=O)c1ccc(C[NH2+]Cc2cc(F)ccc2F)nc1)c1ccc(-c2c3nc(c(-c4cccc(S(=O)(=O)[O-])c4F)c4ccc([nH]4)c(-c4cccc(S(=O)(=O)[O-])c4F)c4nc(c(-c5cccc(S(=O)(=O)[O-])c5F)c5ccc2[nH]5)C=C4)C=C3)cc1
REMARK SMILES IDX 5 1 4 2 3 3 1 4 2 5 27 7 28 8 89 9 29 10 88 11 30 12 31 13
REMARK SMILES IDX 32 14 82 15 33 16 87 17 81 18 83 19 34 20 86 21 80 22 79 23
REMARK SMILES IDX 35 25 67 26 47 27 66 28 48 29 51 30 65 31 84 32 49 33 50 34
REMARK SMILES IDX 64 36 85 37 52 38 36 39 37 40 45 41 38 42 40 43 46 44 39 45
REMARK SMILES IDX 41 46 42 47 43 48 44 49 68 50 69 51 77 52 70 53 72 54 78 55
REMARK SMILES IDX 71 56 73 57 74 58 75 59 76 60 53 61 54 62 62 63 55 64 57 65
REMARK SMILES IDX 63 66 56 67 58 68 59 69 60 70 61 71 6 72 7 73 8 74 9 76
REMARK SMILES IDX 10 77 11 78 26 79 12 80 25 81 13 82 14 83 15 84 16 87 17 88
REMARK SMILES IDX 18 89 23 90 19 91 22 92 24 93 20 94 21 95
REMARK H PARENT 3 6 83 24 51 35 7 75 15 85 15 86
REMARK Flexibility Score: inf
ROOT
ATOM      1  C   UNL A   1      31.081  31.565  26.451  1.00  0.00     0.042 C 
ENDROOT
BRANCH   1   2
ATOM      2  C   UNL A   1      32.418  32.121  26.915  1.00  0.00     0.118 C 
BRANCH   2   3
ATOM      3  N   UNL A   1      32.342  33.543  27.219  1.00  0.00    -0.352 N 
ATOM      4  O   UNL A   1      32.630  35.413  28.424  1.00  0.00    -0.269 OA
ATOM      5  C   UNL A   1      33.021  34.280  28.157  1.00  0.00     0.251 C 
ATOM      6  H   UNL A   1      31.708  34.054  26.667  1.00  0.00     0.163 HD
BRANCH   5   7
ATOM      7  C   UNL A   1      34.202  33.711  28.840  1.00  0.00     0.039 A 
ATOM      8  C   UNL A   1      34.057  32.692  29.785  1.00  0.00     0.014 A 
ATOM      9  C   UNL A   1      35.479  34.164  28.492  1.00  0.00     0.014 A 
ATOM     10  C   UNL A   1      35.166  32.215  30.471  1.00  0.00     0.010 A 
ATOM     11  C   UNL A   1      36.603  33.615  29.114  1.00  0.00     0.010 A 
ATOM     12  C   UNL A   1      36.453  32.646  30.118  1.00  0.00    -0.014 A 
BRANCH  12  13
ATOM     13  C   UNL A   1      37.630  31.961  30.706  1.00  0.00     0.031 A 
ATOM     14  C   UNL A   1      38.379  30.901  29.954  1.00  0.00     0.074 A 
ATOM     15  C   UNL A   1      37.990  32.294  31.962  1.00  0.00     0.049 A 
ATOM     16  N   UNL A   1      39.419  30.208  30.339  1.00  0.00    -0.248 NA
ATOM     17  C   UNL A   1      37.903  30.563  28.602  1.00  0.00     0.031 C 
ATOM     18  C   UNL A   1      37.290  33.270  32.805  1.00  0.00     0.029 A 
ATOM     19  N   UNL A   1      39.010  31.844  32.757  1.00  0.00    -0.354 N 
ATOM     20  C   UNL A   1      39.696  29.324  29.305  1.00  0.00     0.074 A 
ATOM     21  C   UNL A   1      38.719  29.570  28.267  1.00  0.00     0.031 C 
ATOM     22  C   UNL A   1      37.902  33.347  33.993  1.00  0.00     0.029 A 
ATOM     23  C   UNL A   1      39.001  32.390  34.020  1.00  0.00     0.049 A 
ATOM     24  H   UNL A   1      39.685  31.193  32.455  1.00  0.00     0.167 HD
ATOM     25  C   UNL A   1      40.683  28.401  29.233  1.00  0.00     0.034 A 
ATOM     26  C   UNL A   1      39.767  32.128  35.094  1.00  0.00     0.034 A 
ATOM     27  C   UNL A   1      41.679  28.202  30.252  1.00  0.00     0.049 A 
ATOM     28  C   UNL A   1      40.864  31.112  34.968  1.00  0.00     0.074 A 
ATOM     29  C   UNL A   1      42.795  27.385  30.213  1.00  0.00     0.029 A 
ATOM     30  N   UNL A   1      41.669  28.806  31.500  1.00  0.00    -0.354 N 
ATOM     31  N   UNL A   1      41.226  30.422  33.914  1.00  0.00    -0.248 NA
ATOM     32  C   UNL A   1      41.668  30.849  36.169  1.00  0.00     0.031 C 
ATOM     33  C   UNL A   1      43.443  27.471  31.450  1.00  0.00     0.029 A 
ATOM     34  C   UNL A   1      42.738  28.352  32.253  1.00  0.00     0.049 A 
ATOM     35  H   UNL A   1      41.000  29.460  31.805  1.00  0.00     0.167 HD
ATOM     36  C   UNL A   1      42.304  29.648  34.321  1.00  0.00     0.074 A 
ATOM     37  C   UNL A   1      42.561  29.985  35.706  1.00  0.00     0.031 C 
ATOM     38  C   UNL A   1      43.002  28.723  33.619  1.00  0.00     0.034 A 
BRANCH  25  39
ATOM     39  C   UNL A   1      40.780  27.550  27.995  1.00  0.00     0.023 A 
ATOM     40  C   UNL A   1      41.420  28.060  26.848  1.00  0.00     0.012 A 
ATOM     41  C   UNL A   1      40.348  26.209  28.011  1.00  0.00     0.148 A 
ATOM     42  C   UNL A   1      41.622  27.250  25.732  1.00  0.00     0.002 A 
ATOM     43  C   UNL A   1      40.583  25.398  26.906  1.00  0.00     0.091 A 
ATOM     44  F   UNL A   1      39.725  25.751  29.106  1.00  0.00    -0.205 F 
ATOM     45  C   UNL A   1      41.216  25.917  25.765  1.00  0.00     0.022 A 
BRANCH  43  46
ATOM     46  S   UNL A   1      40.160  23.652  26.873  1.00  0.00     0.127 S 
ATOM     47  O   UNL A   1      38.728  23.703  26.581  1.00  0.00    -0.237 OA
ATOM     48  O   UNL A   1      40.989  23.155  25.775  1.00  0.00    -0.237 OA
ATOM     49  O   UNL A   1      40.508  23.128  28.185  1.00  0.00    -0.744 OA
ENDBRANCH  43  46
ENDBRANCH  25  39
BRANCH  26  50
ATOM     50  C   UNL A   1      39.522  32.853  36.372  1.00  0.00     0.023 A 
ATOM     51  C   UNL A   1      40.151  34.089  36.604  1.00  0.00     0.012 A 
ATOM     52  C   UNL A   1      38.630  32.343  37.336  1.00  0.00     0.148 A 
ATOM     53  C   UNL A   1      39.914  34.794  37.784  1.00  0.00     0.002 A 
ATOM     54  C   UNL A   1      38.352  33.081  38.481  1.00  0.00     0.091 A 
ATOM     55  F   UNL A   1      38.056  31.153  37.111  1.00  0.00    -0.205 F 
ATOM     56  C   UNL A   1      39.005  34.298  38.716  1.00  0.00     0.022 A 
BRANCH  54  57
ATOM     57  S   UNL A   1      37.077  32.567  39.639  1.00  0.00     0.127 S 
ATOM     58  O   UNL A   1      37.549  31.246  40.041  1.00  0.00    -0.237 OA
ATOM     59  O   UNL A   1      37.166  33.596  40.677  1.00  0.00    -0.237 OA
ATOM     60  O   UNL A   1      35.836  32.605  38.875  1.00  0.00    -0.744 OA
ENDBRANCH  54  57
ENDBRANCH  26  50
BRANCH  38  61
ATOM     61  C   UNL A   1      44.103  27.999  34.340  1.00  0.00     0.023 A 
ATOM     62  C   UNL A   1      45.404  28.540  34.333  1.00  0.00     0.012 A 
ATOM     63  C   UNL A   1      43.843  26.830  35.080  1.00  0.00     0.148 A 
ATOM     64  C   UNL A   1      46.436  27.915  35.029  1.00  0.00     0.002 A 
ATOM     65  C   UNL A   1      44.867  26.236  35.809  1.00  0.00     0.091 A 
ATOM     66  F   UNL A   1      42.602  26.323  35.058  1.00  0.00    -0.205 F 
ATOM     67  C   UNL A   1      46.164  26.770  35.776  1.00  0.00     0.022 A 
BRANCH  65  68
ATOM     68  S   UNL A   1      44.594  24.811  36.868  1.00  0.00     0.127 S 
ATOM     69  O   UNL A   1      44.246  23.778  35.894  1.00  0.00    -0.237 OA
ATOM     70  O   UNL A   1      45.903  24.639  37.499  1.00  0.00    -0.237 OA
ATOM     71  O   UNL A   1      43.527  25.190  37.784  1.00  0.00    -0.744 OA
ENDBRANCH  65  68
ENDBRANCH  38  61
ENDBRANCH  12  13
ENDBRANCH   5   7
ENDBRANCH   2   3
ENDBRANCH   1   2
BRANCH   1  72
ATOM     72  C   UNL A   1      31.211  30.574  25.303  1.00  0.00     0.118 C 
BRANCH  72  73
ATOM     73  N   UNL A   1      30.257  30.845  24.234  1.00  0.00    -0.352 N 
ATOM     74  C   UNL A   1      29.863  30.039  23.192  1.00  0.00     0.252 C 
ATOM     75  H   UNL A   1      29.834  31.734  24.262  1.00  0.00     0.163 HD
ATOM     76  O   UNL A   1      29.231  30.496  22.251  1.00  0.00    -0.269 OA
BRANCH  74  77
ATOM     77  C   UNL A   1      30.206  28.611  23.221  1.00  0.00     0.058 A 
ATOM     78  C   UNL A   1      31.408  28.152  22.697  1.00  0.00     0.017 A 
ATOM     79  C   UNL A   1      29.332  27.695  23.782  1.00  0.00     0.125 A 
ATOM     80  C   UNL A   1      31.639  26.787  22.652  1.00  0.00     0.030 A 
ATOM     81  N   UNL A   1      29.552  26.356  23.778  1.00  0.00    -0.255 NA
ATOM     82  C   UNL A   1      30.697  25.913  23.196  1.00  0.00     0.094 A 
BRANCH  82  83
ATOM     83  C   UNL A   1      30.965  24.417  23.166  1.00  0.00     0.318 C 
BRANCH  83  84
ATOM     84  N   UNL A   1      32.168  24.058  23.931  1.00  0.00    -0.337 N 
ATOM     85  H   UNL A   1      32.949  24.619  23.591  1.00  0.00     0.346 HD
ATOM     86  H   UNL A   1      32.333  23.061  23.797  1.00  0.00     0.346 HD
BRANCH  84  87
ATOM     87  C   UNL A   1      32.014  24.292  25.361  1.00  0.00     0.300 C 
BRANCH  87  88
ATOM     88  C   UNL A   1      32.447  25.641  25.900  1.00  0.00     0.045 A 
ATOM     89  C   UNL A   1      31.532  26.353  26.696  1.00  0.00     0.051 A 
ATOM     90  C   UNL A   1      33.695  26.237  25.682  1.00  0.00     0.132 A 
ATOM     91  C   UNL A   1      31.868  27.595  27.233  1.00  0.00     0.123 A 
ATOM     92  C   UNL A   1      34.037  27.475  26.228  1.00  0.00     0.043 A 
ATOM     93  F   UNL A   1      34.612  25.644  24.912  1.00  0.00    -0.206 F 
ATOM     94  F   UNL A   1      30.971  28.256  27.975  1.00  0.00    -0.207 F 
ATOM     95  C   UNL A   1      33.117  28.161  27.010  1.00  0.00     0.042 A 
ENDBRANCH  87  88
ENDBRANCH  84  87
ENDBRANCH  83  84
ENDBRANCH  82  83
ENDBRANCH  74  77
ENDBRANCH  72  73
ENDBRANCH   1  72
TORSDOF 17
ENDMDL
MODEL 3
REMARK VINA RESULT:     -11.6      1.372      2.042
REMARK SMILES O=C(NCCCNC(=O)c1ccc(C[NH2+]Cc2cc(F)ccc2F)nc1)c1ccc(-c2c3nc(c(-c4cccc(S(=O)(=O)[O-])c4F)c4ccc([nH]4)c(-c4cccc(S(=O)(=O)[O-])c4F)c4nc(c(-c5cccc(S(=O)(=O)[O-])c5F)c5ccc2[nH]5)C=C4)C=C3)cc1
REMARK SMILES IDX 5 1 4 2 3 3 1 4 2 5 27 7 28 8 89 9 29 10 88 11 30 12 31 13
REMARK SMILES IDX 32 14 82 15 33 16 87 17 81 18 83 19 34 20 86 21 80 22 79 23
REMARK SMILES IDX 35 25 67 26 47 27 66 28 48 29 51 30 65 31 84 32 49 33 50 34
REMARK SMILES IDX 64 36 85 37 52 38 36 39 37 40 45 41 38 42 40 43 46 44 39 45
REMARK SMILES IDX 41 46 42 47 43 48 44 49 68 50 69 51 77 52 70 53 72 54 78 55
REMARK SMILES IDX 71 56 73 57 74 58 75 59 76 60 53 61 54 62 62 63 55 64 57 65
REMARK SMILES IDX 63 66 56 67 58 68 59 69 60 70 61 71 6 72 7 73 8 74 9 76
REMARK SMILES IDX 10 77 11 78 26 79 12 80 25 81 13 82 14 83 15 84 16 87 17 88
REMARK SMILES IDX 18 89 23 90 19 91 22 92 24 93 20 94 21 95
REMARK H PARENT 3 6 83 24 51 35 7 75 15 85 15 86
REMARK Flexibility Score: inf
ROOT
ATOM      1  C   UNL A   1      37.005  20.232  24.680  1.00  0.00     0.042 C 
ENDROOT
BRANCH   1   2
ATOM      2  C   UNL A   1      38.187  20.782  25.463  1.00  0.00     0.118 C 
BRANCH   2   3
ATOM      3  N   UNL A   1      39.161  19.748  25.782  1.00  0.00    -0.352 N 
ATOM      4  O   UNL A   1      41.195  18.858  26.103  1.00  0.00    -0.269 OA
ATOM      5  C   UNL A   1      40.486  19.860  26.121  1.00  0.00     0.251 C 
ATOM      6  H   UNL A   1      38.816  18.826  25.749  1.00  0.00     0.163 HD
BRANCH   5   7
ATOM      7  C   UNL A   1      41.051  21.175  26.495  1.00  0.00     0.039 A 
ATOM      8  C   UNL A   1      41.575  22.029  25.521  1.00  0.00     0.014 A 
ATOM      9  C   UNL A   1      41.005  21.585  27.831  1.00  0.00     0.014 A 
ATOM     10  C   UNL A   1      42.166  23.230  25.893  1.00  0.00     0.010 A 
ATOM     11  C   UNL A   1      41.513  22.835  28.192  1.00  0.00     0.010 A 
ATOM     12  C   UNL A   1      42.109  23.661  27.227  1.00  0.00    -0.014 A 
BRANCH  12  13
ATOM     13  C   UNL A   1      42.544  25.040  27.558  1.00  0.00     0.031 A 
ATOM     14  C   UNL A   1      41.610  26.027  28.191  1.00  0.00     0.074 A 
ATOM     15  C   UNL A   1      43.805  25.395  27.237  1.00  0.00     0.049 A 
ATOM     16  N   UNL A   1      41.844  27.269  28.530  1.00  0.00    -0.248 NA
ATOM     17  C   UNL A   1      40.237  25.578  28.475  1.00  0.00     0.031 C 
ATOM     18  C   UNL A   1      44.776  24.528  26.562  1.00  0.00     0.029 A 
ATOM     19  N   UNL A   1      44.481  26.574  27.413  1.00  0.00    -0.354 N 
ATOM     20  C   UNL A   1      40.644  27.764  29.023  1.00  0.00     0.074 A 
ATOM     21  C   UNL A   1      39.680  26.687  28.949  1.00  0.00     0.031 C 
ATOM     22  C   UNL A   1      45.920  25.201  26.384  1.00  0.00     0.029 A 
ATOM     23  C   UNL A   1      45.750  26.560  26.881  1.00  0.00     0.049 A 
ATOM     24  H   UNL A   1      44.098  27.354  27.875  1.00  0.00     0.167 HD
ATOM     25  C   UNL A   1      40.381  29.002  29.502  1.00  0.00     0.034 A 
ATOM     26  C   UNL A   1      46.665  27.540  26.770  1.00  0.00     0.034 A 
ATOM     27  C   UNL A   1      41.363  30.049  29.618  1.00  0.00     0.049 A 
ATOM     28  C   UNL A   1      46.343  28.894  27.330  1.00  0.00     0.074 A 
ATOM     29  C   UNL A   1      41.225  31.291  30.210  1.00  0.00     0.029 A 
ATOM     30  N   UNL A   1      42.651  29.986  29.112  1.00  0.00    -0.354 N 
ATOM     31  N   UNL A   1      45.264  29.285  27.964  1.00  0.00    -0.248 NA
ATOM     32  C   UNL A   1      47.366  29.937  27.177  1.00  0.00     0.031 C 
ATOM     33  C   UNL A   1      42.423  31.993  30.036  1.00  0.00     0.029 A 
ATOM     34  C   UNL A   1      43.309  31.182  29.347  1.00  0.00     0.049 A 
ATOM     35  H   UNL A   1      43.041  29.207  28.654  1.00  0.00     0.167 HD
ATOM     36  C   UNL A   1      45.481  30.616  28.293  1.00  0.00     0.074 A 
ATOM     37  C   UNL A   1      46.809  30.953  27.823  1.00  0.00     0.031 C 
ATOM     38  C   UNL A   1      44.645  31.489  28.905  1.00  0.00     0.034 A 
BRANCH  25  39
ATOM     39  C   UNL A   1      38.987  29.304  29.984  1.00  0.00     0.023 A 
ATOM     40  C   UNL A   1      38.622  28.976  31.305  1.00  0.00     0.012 A 
ATOM     41  C   UNL A   1      38.086  30.021  29.172  1.00  0.00     0.148 A 
ATOM     42  C   UNL A   1      37.376  29.350  31.807  1.00  0.00     0.002 A 
ATOM     43  C   UNL A   1      36.859  30.419  29.691  1.00  0.00     0.091 A 
ATOM     44  F   UNL A   1      38.449  30.305  27.913  1.00  0.00    -0.205 F 
ATOM     45  C   UNL A   1      36.501  30.081  31.007  1.00  0.00     0.022 A 
BRANCH  43  46
ATOM     46  S   UNL A   1      35.690  31.420  28.765  1.00  0.00     0.127 S 
ATOM     47  O   UNL A   1      36.549  32.499  28.278  1.00  0.00    -0.237 OA
ATOM     48  O   UNL A   1      35.237  30.488  27.732  1.00  0.00    -0.237 OA
ATOM     49  O   UNL A   1      34.663  31.823  29.714  1.00  0.00    -0.744 OA
ENDBRANCH  43  46
ENDBRANCH  25  39
BRANCH  26  50
ATOM     50  C   UNL A   1      47.970  27.262  26.111  1.00  0.00     0.023 A 
ATOM     51  C   UNL A   1      49.033  26.731  26.864  1.00  0.00     0.012 A 
ATOM     52  C   UNL A   1      48.147  27.477  24.730  1.00  0.00     0.148 A 
ATOM     53  C   UNL A   1      50.256  26.440  26.258  1.00  0.00     0.002 A 
ATOM     54  C   UNL A   1      49.347  27.127  24.122  1.00  0.00     0.091 A 
ATOM     55  F   UNL A   1      47.134  28.005  24.029  1.00  0.00    -0.205 F 
ATOM     56  C   UNL A   1      50.410  26.625  24.886  1.00  0.00     0.022 A 
BRANCH  54  57
ATOM     57  S   UNL A   1      49.549  27.197  22.338  1.00  0.00     0.127 S 
ATOM     58  O   UNL A   1      50.952  26.828  22.178  1.00  0.00    -0.237 OA
ATOM     59  O   UNL A   1      48.590  26.192  21.875  1.00  0.00    -0.237 OA
ATOM     60  O   UNL A   1      49.195  28.563  21.971  1.00  0.00    -0.744 OA
ENDBRANCH  54  57
ENDBRANCH  26  50
BRANCH  38  61
ATOM     61  C   UNL A   1      45.136  32.897  29.092  1.00  0.00     0.023 A 
ATOM     62  C   UNL A   1      45.806  33.241  30.282  1.00  0.00     0.012 A 
ATOM     63  C   UNL A   1      45.000  33.856  28.070  1.00  0.00     0.148 A 
ATOM     64  C   UNL A   1      46.311  34.526  30.465  1.00  0.00     0.002 A 
ATOM     65  C   UNL A   1      45.546  35.123  28.241  1.00  0.00     0.091 A 
ATOM     66  F   UNL A   1      44.344  33.512  26.953  1.00  0.00    -0.205 F 
ATOM     67  C   UNL A   1      46.192  35.462  29.440  1.00  0.00     0.022 A 
BRANCH  65  68
ATOM     68  S   UNL A   1      45.518  36.367  26.945  1.00  0.00     0.127 S 
ATOM     69  O   UNL A   1      44.089  36.656  26.841  1.00  0.00    -0.237 OA
ATOM     70  O   UNL A   1      46.318  37.443  27.531  1.00  0.00    -0.237 OA
ATOM     71  O   UNL A   1      46.115  35.740  25.774  1.00  0.00    -0.744 OA
ENDBRANCH  65  68
ENDBRANCH  38  61
ENDBRANCH  12  13
ENDBRANCH   5   7
ENDBRANCH   2   3
ENDBRANCH   1   2
BRANCH   1  72
ATOM     72  C   UNL A   1      35.665  20.765  25.166  1.00  0.00     0.118 C 
BRANCH  72  73
ATOM     73  N   UNL A   1      34.651  19.718  25.233  1.00  0.00    -0.352 N 
ATOM     74  C   UNL A   1      33.281  19.826  25.177  1.00  0.00     0.252 C 
ATOM     75  H   UNL A   1      34.998  18.802  25.334  1.00  0.00     0.163 HD
ATOM     76  O   UNL A   1      32.566  18.883  25.479  1.00  0.00    -0.269 OA
BRANCH  74  77
ATOM     77  C   UNL A   1      32.680  21.093  24.742  1.00  0.00     0.058 A 
ATOM     78  C   UNL A   1      32.065  21.944  25.652  1.00  0.00     0.017 A 
ATOM     79  C   UNL A   1      32.724  21.465  23.409  1.00  0.00     0.125 A 
ATOM     80  C   UNL A   1      31.421  23.076  25.179  1.00  0.00     0.030 A 
ATOM     81  N   UNL A   1      32.126  22.585  22.927  1.00  0.00    -0.255 NA
ATOM     82  C   UNL A   1      31.465  23.370  23.816  1.00  0.00     0.094 A 
BRANCH  82  83
ATOM     83  C   UNL A   1      30.776  24.626  23.303  1.00  0.00     0.318 C 
BRANCH  83  84
ATOM     84  N   UNL A   1      29.792  25.144  24.264  1.00  0.00    -0.337 N 
ATOM     85  H   UNL A   1      29.927  24.670  25.157  1.00  0.00     0.346 HD
ATOM     86  H   UNL A   1      28.863  24.969  23.880  1.00  0.00     0.346 HD
BRANCH  84  87
ATOM     87  C   UNL A   1      29.918  26.581  24.475  1.00  0.00     0.300 C 
BRANCH  87  88
ATOM     88  C   UNL A   1      31.303  27.128  24.759  1.00  0.00     0.045 A 
ATOM     89  C   UNL A   1      31.853  28.032  23.834  1.00  0.00     0.051 A 
ATOM     90  C   UNL A   1      32.081  26.817  25.881  1.00  0.00     0.132 A 
ATOM     91  C   UNL A   1      33.119  28.581  24.038  1.00  0.00     0.123 A 
ATOM     92  C   UNL A   1      33.342  27.375  26.093  1.00  0.00     0.043 A 
ATOM     93  F   UNL A   1      31.648  25.944  26.795  1.00  0.00    -0.206 F 
ATOM     94  F   UNL A   1      33.622  29.428  23.132  1.00  0.00    -0.207 F 
ATOM     95  C   UNL A   1      33.867  28.265  25.164  1.00  0.00     0.042 A 
ENDBRANCH  87  88
ENDBRANCH  84  87
ENDBRANCH  83  84
ENDBRANCH  82  83
ENDBRANCH  74  77
ENDBRANCH  72  73
ENDBRANCH   1  72
TORSDOF 17
ENDMDL
