MODEL 1
REMARK VINA RESULT:     -12.3      0.000      0.000
REMARK SMILES CC(=O)N[C@H](CSCC(=O)Nc1ccc2c(c1)N1CC[NH+]=C1S2)C(=O)NCCCNC(=O)c1ccc(-c2c3nc(c(-c4cccc(S(=O)(=O)[O-])c4F)c4ccc([nH]4)c(-c4cccc(S(=O)(=O)[O-])c4F)c4nc(c(-c5cccc(S(=O)(=O)[O-])c5F)c5ccc2[nH]5)C=C4)C=C3)cc1
REMARK SMILES IDX 27 1 26 2 24 3 25 4 5 6 4 7 1 8 2 9 3 10 6 12 7 13 8 14 9 15
REMARK SMILES IDX 10 16 11 17 12 19 13 20 17 21 14 22 16 23 15 24 18 25 23 26
REMARK SMILES IDX 19 27 22 28 20 29 21 30 28 32 29 33 30 34 31 35 32 37 33 38
REMARK SMILES IDX 34 39 95 40 35 41 94 42 36 43 37 44 38 45 88 46 39 47 93 48
REMARK SMILES IDX 87 49 89 50 40 51 92 52 86 53 85 54 41 56 73 57 53 58 72 59
REMARK SMILES IDX 54 60 57 61 71 62 90 63 55 64 56 65 70 67 91 68 58 69 42 70
REMARK SMILES IDX 43 71 51 72 44 73 46 74 52 75 45 76 47 77 48 78 49 79 50 80
REMARK SMILES IDX 74 81 75 82 83 83 76 84 78 85 84 86 77 87 79 88 80 89 81 90
REMARK SMILES IDX 82 91 59 92 60 93 68 94 61 95 63 96 69 97 62 98 64 99 65 100
REMARK SMILES IDX 66 101 67 102
REMARK H PARENT 26 5 4 11 11 18 21 31 30 36 89 55 57 66
REMARK Flexibility Score: inf
ROOT
ATOM      1  C   UNL A   1      31.715  29.524  24.890  1.00  0.00     0.117 C 
ENDROOT
BRANCH   1   2
ATOM      2  N   UNL A   1      31.020  29.482  23.608  1.00  0.00    -0.354 N 
ATOM      3  C   UNL A   1      30.635  28.498  22.750  1.00  0.00     0.243 C 
ATOM      4  O   UNL A   1      29.955  28.879  21.785  1.00  0.00    -0.273 OA
ATOM      5  H   UNL A   1      30.772  30.379  23.286  1.00  0.00     0.163 HD
BRANCH   3   6
ATOM      6  C   UNL A   1      31.100  27.021  22.772  1.00  0.00     0.181 C 
BRANCH   6   7
ATOM      7  N   UNL A   1      31.560  26.479  21.495  1.00  0.00    -0.344 N 
ATOM      8  C   UNL A   1      33.609  25.443  22.428  1.00  0.00     0.114 C 
ATOM      9  C   UNL A   1      32.733  25.818  21.257  1.00  0.00     0.217 C 
ATOM     10  O   UNL A   1      33.036  25.510  20.105  1.00  0.00    -0.275 OA
ATOM     11  H   UNL A   1      30.960  26.603  20.724  1.00  0.00     0.164 HD
ENDBRANCH   6   7
BRANCH   6  12
ATOM     12  C   UNL A   1      30.192  26.055  23.550  1.00  0.00     0.105 C 
BRANCH  12  13
ATOM     13  S   UNL A   1      30.606  25.776  25.284  1.00  0.00    -0.149 SA
BRANCH  13  14
ATOM     14  C   UNL A   1      31.202  24.064  25.220  1.00  0.00     0.169 C 
BRANCH  14  15
ATOM     15  C   UNL A   1      31.105  23.217  26.484  1.00  0.00     0.234 C 
ATOM     16  O   UNL A   1      30.205  23.457  27.300  1.00  0.00    -0.274 OA
ATOM     17  N   UNL A   1      31.793  22.040  26.621  1.00  0.00    -0.325 N 
ATOM     18  H   UNL A   1      31.426  21.405  27.278  1.00  0.00     0.169 HD
BRANCH  17  19
ATOM     19  C   UNL A   1      32.945  21.618  25.953  1.00  0.00     0.045 A 
ATOM     20  C   UNL A   1      33.148  20.263  25.635  1.00  0.00     0.027 A 
ATOM     21  C   UNL A   1      33.899  22.571  25.626  1.00  0.00     0.079 A 
ATOM     22  C   UNL A   1      34.363  19.815  25.109  1.00  0.00     0.022 A 
ATOM     23  C   UNL A   1      35.134  22.115  25.193  1.00  0.00     0.144 A 
ATOM     24  C   UNL A   1      35.354  20.750  24.911  1.00  0.00     0.067 A 
ATOM     25  N   UNL A   1      36.305  22.840  25.175  1.00  0.00    -0.216 N 
ATOM     26  S   UNL A   1      37.097  20.455  24.558  1.00  0.00     0.002 SA
ATOM     27  C   UNL A   1      36.572  24.029  25.904  1.00  0.00     0.289 C 
ATOM     28  C   UNL A   1      37.429  22.077  25.121  1.00  0.00     0.316 C 
ATOM     29  C   UNL A   1      38.041  23.795  26.311  1.00  0.00     0.280 C 
ATOM     30  N   UNL A   1      38.519  22.517  25.674  1.00  0.00    -0.264 N 
ATOM     31  H   UNL A   1      39.420  22.120  25.676  1.00  0.00     0.305 HD
ENDBRANCH  17  19
ENDBRANCH  14  15
ENDBRANCH  13  14
ENDBRANCH  12  13
ENDBRANCH   6  12
ENDBRANCH   3   6
ENDBRANCH   1   2
BRANCH   1  32
ATOM     32  C   UNL A   1      33.104  28.849  24.940  1.00  0.00     0.042 C 
BRANCH  32  33
ATOM     33  C   UNL A   1      33.964  28.990  26.208  1.00  0.00     0.118 C 
BRANCH  33  34
ATOM     34  N   UNL A   1      33.931  30.313  26.808  1.00  0.00    -0.352 N 
ATOM     35  C   UNL A   1      34.768  30.941  27.709  1.00  0.00     0.251 C 
ATOM     36  H   UNL A   1      33.169  30.866  26.519  1.00  0.00     0.163 HD
ATOM     37  O   UNL A   1      34.436  32.055  28.116  1.00  0.00    -0.269 OA
BRANCH  35  38
ATOM     38  C   UNL A   1      36.022  30.329  28.244  1.00  0.00     0.039 A 
ATOM     39  C   UNL A   1      36.096  29.686  29.479  1.00  0.00     0.014 A 
ATOM     40  C   UNL A   1      37.167  30.330  27.428  1.00  0.00     0.014 A 
ATOM     41  C   UNL A   1      37.331  29.182  29.938  1.00  0.00     0.010 A 
ATOM     42  C   UNL A   1      38.391  29.789  27.874  1.00  0.00     0.010 A 
ATOM     43  C   UNL A   1      38.511  29.254  29.160  1.00  0.00    -0.014 A 
BRANCH  43  44
ATOM     44  C   UNL A   1      39.804  28.722  29.709  1.00  0.00     0.031 A 
ATOM     45  C   UNL A   1      40.440  27.414  29.279  1.00  0.00     0.074 A 
ATOM     46  C   UNL A   1      40.503  29.484  30.571  1.00  0.00     0.049 A 
ATOM     47  N   UNL A   1      41.714  27.102  29.244  1.00  0.00    -0.248 NA
ATOM     48  C   UNL A   1      39.572  26.348  28.768  1.00  0.00     0.031 C 
ATOM     49  C   UNL A   1      40.039  30.745  31.148  1.00  0.00     0.029 A 
ATOM     50  N   UNL A   1      41.744  29.294  31.122  1.00  0.00    -0.354 N 
ATOM     51  C   UNL A   1      41.798  25.891  28.560  1.00  0.00     0.074 A 
ATOM     52  C   UNL A   1      40.447  25.498  28.237  1.00  0.00     0.031 C 
ATOM     53  C   UNL A   1      40.973  31.204  31.992  1.00  0.00     0.029 A 
ATOM     54  C   UNL A   1      42.087  30.260  32.032  1.00  0.00     0.049 A 
ATOM     55  H   UNL A   1      42.329  28.538  30.887  1.00  0.00     0.167 HD
ATOM     56  C   UNL A   1      42.896  25.162  28.245  1.00  0.00     0.034 A 
ATOM     57  C   UNL A   1      43.160  30.358  32.838  1.00  0.00     0.034 A 
ATOM     58  C   UNL A   1      44.180  25.348  28.859  1.00  0.00     0.049 A 
ATOM     59  C   UNL A   1      44.264  29.348  32.735  1.00  0.00     0.074 A 
ATOM     60  C   UNL A   1      45.331  24.594  28.699  1.00  0.00     0.029 A 
ATOM     61  N   UNL A   1      44.439  26.270  29.859  1.00  0.00    -0.354 N 
ATOM     62  N   UNL A   1      44.419  28.393  31.853  1.00  0.00    -0.248 NA
ATOM     63  C   UNL A   1      45.350  29.439  33.722  1.00  0.00     0.031 C 
ATOM     64  C   UNL A   1      46.250  25.001  29.673  1.00  0.00     0.029 A 
ATOM     65  C   UNL A   1      45.690  26.041  30.399  1.00  0.00     0.049 A 
ATOM     66  H   UNL A   1      43.823  26.983  30.144  1.00  0.00     0.167 HD
ATOM     67  C   UNL A   1      45.630  27.784  32.158  1.00  0.00     0.074 A 
ATOM     68  C   UNL A   1      46.168  28.477  33.310  1.00  0.00     0.031 C 
ATOM     69  C   UNL A   1      46.235  26.747  31.532  1.00  0.00     0.034 A 
BRANCH  56  70
ATOM     70  C   UNL A   1      42.763  24.087  27.198  1.00  0.00     0.023 A 
ATOM     71  C   UNL A   1      43.267  24.361  25.909  1.00  0.00     0.012 A 
ATOM     72  C   UNL A   1      42.249  22.810  27.481  1.00  0.00     0.148 A 
ATOM     73  C   UNL A   1      43.251  23.384  24.914  1.00  0.00     0.002 A 
ATOM     74  C   UNL A   1      42.233  21.840  26.483  1.00  0.00     0.091 A 
ATOM     75  F   UNL A   1      41.796  22.567  28.719  1.00  0.00    -0.205 F 
ATOM     76  C   UNL A   1      42.733  22.124  25.200  1.00  0.00     0.022 A 
BRANCH  74  77
ATOM     77  S   UNL A   1      41.571  20.188  26.732  1.00  0.00     0.127 S 
ATOM     78  O   UNL A   1      40.166  20.470  27.023  1.00  0.00    -0.237 OA
ATOM     79  O   UNL A   1      41.813  19.561  25.436  1.00  0.00    -0.237 OA
ATOM     80  O   UNL A   1      42.320  19.621  27.849  1.00  0.00    -0.744 OA
ENDBRANCH  74  77
ENDBRANCH  56  70
BRANCH  57  81
ATOM     81  C   UNL A   1      43.195  31.465  33.825  1.00  0.00     0.023 A 
ATOM     82  C   UNL A   1      43.723  32.716  33.461  1.00  0.00     0.012 A 
ATOM     83  C   UNL A   1      42.593  31.301  35.088  1.00  0.00     0.148 A 
ATOM     84  C   UNL A   1      43.639  33.793  34.345  1.00  0.00     0.002 A 
ATOM     85  C   UNL A   1      42.476  32.386  35.943  1.00  0.00     0.091 A 
ATOM     86  F   UNL A   1      42.105  30.092  35.403  1.00  0.00    -0.205 F 
ATOM     87  C   UNL A   1      43.005  33.633  35.576  1.00  0.00     0.022 A 
BRANCH  85  88
ATOM     88  S   UNL A   1      41.578  32.300  37.496  1.00  0.00     0.127 S 
ATOM     89  O   UNL A   1      41.580  33.695  37.918  1.00  0.00    -0.237 OA
ATOM     90  O   UNL A   1      40.280  31.784  37.064  1.00  0.00    -0.237 OA
ATOM     91  O   UNL A   1      42.339  31.386  38.343  1.00  0.00    -0.744 OA
ENDBRANCH  85  88
ENDBRANCH  57  81
BRANCH  69  92
ATOM     92  C   UNL A   1      47.560  26.262  32.051  1.00  0.00     0.023 A 
ATOM     93  C   UNL A   1      48.745  26.891  31.629  1.00  0.00     0.012 A 
ATOM     94  C   UNL A   1      47.605  25.314  33.091  1.00  0.00     0.148 A 
ATOM     95  C   UNL A   1      49.959  26.591  32.248  1.00  0.00     0.002 A 
ATOM     96  C   UNL A   1      48.808  25.055  33.734  1.00  0.00     0.091 A 
ATOM     97  F   UNL A   1      46.462  24.715  33.458  1.00  0.00    -0.205 F 
ATOM     98  C   UNL A   1      49.986  25.691  33.311  1.00  0.00     0.022 A 
BRANCH  96  99
ATOM     99  S   UNL A   1      48.914  23.999  35.182  1.00  0.00     0.127 S 
ATOM    100  O   UNL A   1      50.342  24.063  35.492  1.00  0.00    -0.237 OA
ATOM    101  O   UNL A   1      48.051  24.694  36.137  1.00  0.00    -0.237 OA
ATOM    102  O   UNL A   1      48.426  22.692  34.764  1.00  0.00    -0.744 OA
ENDBRANCH  96  99
ENDBRANCH  69  92
ENDBRANCH  43  44
ENDBRANCH  35  38
ENDBRANCH  33  34
ENDBRANCH  32  33
ENDBRANCH   1  32
TORSDOF 19
ENDMDL
MODEL 2
REMARK VINA RESULT:     -11.9      2.686      7.997
REMARK SMILES CC(=O)N[C@H](CSCC(=O)Nc1ccc2c(c1)N1CC[NH+]=C1S2)C(=O)NCCCNC(=O)c1ccc(-c2c3nc(c(-c4cccc(S(=O)(=O)[O-])c4F)c4ccc([nH]4)c(-c4cccc(S(=O)(=O)[O-])c4F)c4nc(c(-c5cccc(S(=O)(=O)[O-])c5F)c5ccc2[nH]5)C=C4)C=C3)cc1
REMARK SMILES IDX 27 1 26 2 24 3 25 4 5 6 4 7 1 8 2 9 3 10 6 12 7 13 8 14 9 15
REMARK SMILES IDX 10 16 11 17 12 19 13 20 17 21 14 22 16 23 15 24 18 25 23 26
REMARK SMILES IDX 19 27 22 28 20 29 21 30 28 32 29 33 30 34 31 35 32 37 33 38
REMARK SMILES IDX 34 39 95 40 35 41 94 42 36 43 37 44 38 45 88 46 39 47 93 48
REMARK SMILES IDX 87 49 89 50 40 51 92 52 86 53 85 54 41 56 73 57 53 58 72 59
REMARK SMILES IDX 54 60 57 61 71 62 90 63 55 64 56 65 70 67 91 68 58 69 42 70
REMARK SMILES IDX 43 71 51 72 44 73 46 74 52 75 45 76 47 77 48 78 49 79 50 80
REMARK SMILES IDX 74 81 75 82 83 83 76 84 78 85 84 86 77 87 79 88 80 89 81 90
REMARK SMILES IDX 82 91 59 92 60 93 68 94 61 95 63 96 69 97 62 98 64 99 65 100
REMARK SMILES IDX 66 101 67 102
REMARK H PARENT 26 5 4 11 11 18 21 31 30 36 89 55 57 66
REMARK Flexibility Score: inf
ROOT
ATOM      1  C   UNL A   1      33.669  29.700  27.103  1.00  0.00     0.117 C 
ENDROOT
BRANCH   1   2
ATOM      2  N   UNL A   1      32.528  28.905  27.546  1.00  0.00    -0.354 N 
ATOM      3  C   UNL A   1      31.761  27.926  26.992  1.00  0.00     0.243 C 
ATOM      4  O   UNL A   1      30.925  27.419  27.756  1.00  0.00    -0.273 OA
ATOM      5  H   UNL A   1      32.245  29.132  28.461  1.00  0.00     0.163 HD
BRANCH   3   6
ATOM      6  C   UNL A   1      31.717  27.522  25.499  1.00  0.00     0.181 C 
BRANCH   6   7
ATOM      7  N   UNL A   1      30.538  26.767  25.077  1.00  0.00    -0.344 N 
ATOM      8  C   UNL A   1      29.877  28.373  23.308  1.00  0.00     0.114 C 
ATOM      9  C   UNL A   1      29.616  27.139  24.138  1.00  0.00     0.217 C 
ATOM     10  O   UNL A   1      28.614  26.449  23.962  1.00  0.00    -0.275 OA
ATOM     11  H   UNL A   1      30.393  25.898  25.516  1.00  0.00     0.164 HD
ENDBRANCH   6   7
BRANCH   6  12
ATOM     12  C   UNL A   1      33.031  26.966  24.927  1.00  0.00     0.105 C 
BRANCH  12  13
ATOM     13  S   UNL A   1      33.572  27.637  23.342  1.00  0.00    -0.149 SA
BRANCH  13  14
ATOM     14  C   UNL A   1      33.483  26.157  22.297  1.00  0.00     0.169 C 
BRANCH  14  15
ATOM     15  C   UNL A   1      32.109  25.659  21.866  1.00  0.00     0.234 C 
ATOM     16  O   UNL A   1      31.492  26.280  20.990  1.00  0.00    -0.274 OA
ATOM     17  N   UNL A   1      31.652  24.411  22.205  1.00  0.00    -0.325 N 
ATOM     18  H   UNL A   1      30.946  24.044  21.625  1.00  0.00     0.169 HD
BRANCH  17  19
ATOM     19  C   UNL A   1      32.054  23.591  23.261  1.00  0.00     0.045 A 
ATOM     20  C   UNL A   1      31.252  23.436  24.408  1.00  0.00     0.027 A 
ATOM     21  C   UNL A   1      33.277  22.944  23.161  1.00  0.00     0.079 A 
ATOM     22  C   UNL A   1      31.717  22.743  25.529  1.00  0.00     0.022 A 
ATOM     23  C   UNL A   1      33.773  22.339  24.305  1.00  0.00     0.144 A 
ATOM     24  C   UNL A   1      32.987  22.216  25.471  1.00  0.00     0.067 A 
ATOM     25  N   UNL A   1      35.085  21.980  24.528  1.00  0.00    -0.216 N 
ATOM     26  S   UNL A   1      33.976  21.563  26.828  1.00  0.00     0.002 SA
ATOM     27  C   UNL A   1      36.221  22.462  23.827  1.00  0.00     0.289 C 
ATOM     28  C   UNL A   1      35.397  21.808  25.840  1.00  0.00     0.316 C 
ATOM     29  C   UNL A   1      37.239  22.591  24.980  1.00  0.00     0.280 C 
ATOM     30  N   UNL A   1      36.608  22.060  26.239  1.00  0.00    -0.264 N 
ATOM     31  H   UNL A   1      37.008  21.936  27.130  1.00  0.00     0.305 HD
ENDBRANCH  17  19
ENDBRANCH  14  15
ENDBRANCH  13  14
ENDBRANCH  12  13
ENDBRANCH   6  12
ENDBRANCH   3   6
ENDBRANCH   1   2
BRANCH   1  32
ATOM     32  C   UNL A   1      33.352  31.111  26.557  1.00  0.00     0.042 C 
BRANCH  32  33
ATOM     33  C   UNL A   1      32.093  31.843  27.052  1.00  0.00     0.118 C 
BRANCH  33  34
ATOM     34  N   UNL A   1      32.300  33.249  27.355  1.00  0.00    -0.352 N 
ATOM     35  C   UNL A   1      33.296  33.911  28.045  1.00  0.00     0.251 C 
ATOM     36  H   UNL A   1      31.597  33.843  27.002  1.00  0.00     0.163 HD
ATOM     37  O   UNL A   1      33.161  35.121  28.223  1.00  0.00    -0.269 OA
BRANCH  35  38
ATOM     38  C   UNL A   1      34.499  33.233  28.618  1.00  0.00     0.039 A 
ATOM     39  C   UNL A   1      34.441  32.349  29.695  1.00  0.00     0.014 A 
ATOM     40  C   UNL A   1      35.742  33.435  27.993  1.00  0.00     0.014 A 
ATOM     41  C   UNL A   1      35.629  31.793  30.215  1.00  0.00     0.010 A 
ATOM     42  C   UNL A   1      36.923  32.845  28.491  1.00  0.00     0.010 A 
ATOM     43  C   UNL A   1      36.898  32.056  29.644  1.00  0.00    -0.014 A 
BRANCH  43  44
ATOM     44  C   UNL A   1      38.132  31.456  30.255  1.00  0.00     0.031 A 
ATOM     45  C   UNL A   1      38.685  31.841  31.614  1.00  0.00     0.074 A 
ATOM     46  C   UNL A   1      38.747  30.447  29.611  1.00  0.00     0.049 A 
ATOM     47  N   UNL A   1      39.359  31.097  32.458  1.00  0.00    -0.248 NA
ATOM     48  C   UNL A   1      38.407  33.187  32.127  1.00  0.00     0.031 C 
ATOM     49  C   UNL A   1      38.405  29.967  28.273  1.00  0.00     0.029 A 
ATOM     50  N   UNL A   1      39.802  29.660  29.995  1.00  0.00    -0.354 N 
ATOM     51  C   UNL A   1      39.430  31.824  33.645  1.00  0.00     0.074 A 
ATOM     52  C   UNL A   1      38.774  33.087  33.402  1.00  0.00     0.031 C 
ATOM     53  C   UNL A   1      39.250  28.984  27.936  1.00  0.00     0.029 A 
ATOM     54  C   UNL A   1      40.205  28.782  29.022  1.00  0.00     0.049 A 
ATOM     55  H   UNL A   1      40.227  29.720  30.881  1.00  0.00     0.167 HD
ATOM     56  C   UNL A   1      40.004  31.482  34.823  1.00  0.00     0.034 A 
ATOM     57  C   UNL A   1      41.249  27.933  28.991  1.00  0.00     0.034 A 
ATOM     58  C   UNL A   1      40.952  30.413  34.968  1.00  0.00     0.049 A 
ATOM     59  C   UNL A   1      42.120  27.778  30.201  1.00  0.00     0.074 A 
ATOM     60  C   UNL A   1      41.681  30.052  36.089  1.00  0.00     0.029 A 
ATOM     61  N   UNL A   1      41.408  29.630  33.922  1.00  0.00    -0.354 N 
ATOM     62  N   UNL A   1      41.951  28.278  31.400  1.00  0.00    -0.248 NA
ATOM     63  C   UNL A   1      43.312  26.928  30.065  1.00  0.00     0.031 C 
ATOM     64  C   UNL A   1      42.643  29.117  35.693  1.00  0.00     0.029 A 
ATOM     65  C   UNL A   1      42.476  28.860  34.340  1.00  0.00     0.049 A 
ATOM     66  H   UNL A   1      41.028  29.622  33.014  1.00  0.00     0.167 HD
ATOM     67  C   UNL A   1      42.997  27.785  32.171  1.00  0.00     0.074 A 
ATOM     68  C   UNL A   1      43.798  26.948  31.301  1.00  0.00     0.031 C 
ATOM     69  C   UNL A   1      43.260  28.009  33.480  1.00  0.00     0.034 A 
BRANCH  56  70
ATOM     70  C   UNL A   1      39.638  32.272  36.052  1.00  0.00     0.023 A 
ATOM     71  C   UNL A   1      40.318  33.488  36.276  1.00  0.00     0.012 A 
ATOM     72  C   UNL A   1      38.596  31.895  36.917  1.00  0.00     0.148 A 
ATOM     73  C   UNL A   1      39.975  34.310  37.348  1.00  0.00     0.002 A 
ATOM     74  C   UNL A   1      38.260  32.719  37.987  1.00  0.00     0.091 A 
ATOM     75  F   UNL A   1      37.950  30.747  36.671  1.00  0.00    -0.205 F 
ATOM     76  C   UNL A   1      38.948  33.926  38.205  1.00  0.00     0.022 A 
BRANCH  74  77
ATOM     77  S   UNL A   1      36.966  32.315  39.167  1.00  0.00     0.127 S 
ATOM     78  O   UNL A   1      37.153  30.875  39.334  1.00  0.00    -0.237 OA
ATOM     79  O   UNL A   1      37.343  33.120  40.325  1.00  0.00    -0.237 OA
ATOM     80  O   UNL A   1      35.710  32.693  38.527  1.00  0.00    -0.744 OA
ENDBRANCH  74  77
ENDBRANCH  56  70
BRANCH  57  81
ATOM     81  C   UNL A   1      41.511  27.192  27.732  1.00  0.00     0.023 A 
ATOM     82  C   UNL A   1      42.037  27.865  26.616  1.00  0.00     0.012 A 
ATOM     83  C   UNL A   1      41.345  25.794  27.692  1.00  0.00     0.148 A 
ATOM     84  C   UNL A   1      42.403  27.147  25.477  1.00  0.00     0.002 A 
ATOM     85  C   UNL A   1      41.751  25.083  26.573  1.00  0.00     0.091 A 
ATOM     86  F   UNL A   1      40.837  25.186  28.774  1.00  0.00    -0.205 F 
ATOM     87  C   UNL A   1      42.275  25.758  25.460  1.00  0.00     0.022 A 
BRANCH  85  88
ATOM     88  S   UNL A   1      41.728  23.288  26.508  1.00  0.00     0.127 S 
ATOM     89  O   UNL A   1      42.397  23.029  25.239  1.00  0.00    -0.237 OA
ATOM     90  O   UNL A   1      42.496  22.935  27.699  1.00  0.00    -0.237 OA
ATOM     91  O   UNL A   1      40.319  22.909  26.564  1.00  0.00    -0.744 OA
ENDBRANCH  85  88
ENDBRANCH  57  81
BRANCH  69  92
ATOM     92  C   UNL A   1      44.463  27.354  34.098  1.00  0.00     0.023 A 
ATOM     93  C   UNL A   1      45.706  28.012  34.068  1.00  0.00     0.012 A 
ATOM     94  C   UNL A   1      44.313  26.182  34.865  1.00  0.00     0.148 A 
ATOM     95  C   UNL A   1      46.782  27.519  34.806  1.00  0.00     0.002 A 
ATOM     96  C   UNL A   1      45.374  25.723  35.633  1.00  0.00     0.091 A 
ATOM     97  F   UNL A   1      43.123  25.565  34.857  1.00  0.00    -0.205 F 
ATOM     98  C   UNL A   1      46.610  26.388  35.602  1.00  0.00     0.022 A 
BRANCH  96  99
ATOM     99  S   UNL A   1      45.207  24.345  36.773  1.00  0.00     0.127 S 
ATOM    100  O   UNL A   1      44.803  23.264  35.875  1.00  0.00    -0.237 OA
ATOM    101  O   UNL A   1      46.562  24.220  37.308  1.00  0.00    -0.237 OA
ATOM    102  O   UNL A   1      44.205  24.749  37.749  1.00  0.00    -0.744 OA
ENDBRANCH  96  99
ENDBRANCH  69  92
ENDBRANCH  43  44
ENDBRANCH  35  38
ENDBRANCH  33  34
ENDBRANCH  32  33
ENDBRANCH   1  32
TORSDOF 19
ENDMDL
MODEL 3
REMARK VINA RESULT:     -11.8      1.081      7.411
REMARK SMILES CC(=O)N[C@H](CSCC(=O)Nc1ccc2c(c1)N1CC[NH+]=C1S2)C(=O)NCCCNC(=O)c1ccc(-c2c3nc(c(-c4cccc(S(=O)(=O)[O-])c4F)c4ccc([nH]4)c(-c4cccc(S(=O)(=O)[O-])c4F)c4nc(c(-c5cccc(S(=O)(=O)[O-])c5F)c5ccc2[nH]5)C=C4)C=C3)cc1
REMARK SMILES IDX 27 1 26 2 24 3 25 4 5 6 4 7 1 8 2 9 3 10 6 12 7 13 8 14 9 15
REMARK SMILES IDX 10 16 11 17 12 19 13 20 17 21 14 22 16 23 15 24 18 25 23 26
REMARK SMILES IDX 19 27 22 28 20 29 21 30 28 32 29 33 30 34 31 35 32 37 33 38
REMARK SMILES IDX 34 39 95 40 35 41 94 42 36 43 37 44 38 45 88 46 39 47 93 48
REMARK SMILES IDX 87 49 89 50 40 51 92 52 86 53 85 54 41 56 73 57 53 58 72 59
REMARK SMILES IDX 54 60 57 61 71 62 90 63 55 64 56 65 70 67 91 68 58 69 42 70
REMARK SMILES IDX 43 71 51 72 44 73 46 74 52 75 45 76 47 77 48 78 49 79 50 80
REMARK SMILES IDX 74 81 75 82 83 83 76 84 78 85 84 86 77 87 79 88 80 89 81 90
REMARK SMILES IDX 82 91 59 92 60 93 68 94 61 95 63 96 69 97 62 98 64 99 65 100
REMARK SMILES IDX 66 101 67 102
REMARK H PARENT 26 5 4 11 11 18 21 31 30 36 89 55 57 66
REMARK Flexibility Score: inf
ROOT
ATOM      1  C   UNL A   1      31.777  29.394  24.811  1.00  0.00     0.117 C 
ENDROOT
BRANCH   1   2
ATOM      2  N   UNL A   1      31.030  29.385  23.558  1.00  0.00    -0.354 N 
ATOM      3  C   UNL A   1      30.612  28.424  22.689  1.00  0.00     0.243 C 
ATOM      4  O   UNL A   1      29.893  28.829  21.764  1.00  0.00    -0.273 OA
ATOM      5  H   UNL A   1      30.767  30.290  23.272  1.00  0.00     0.163 HD
BRANCH   3   6
ATOM      6  C   UNL A   1      31.082  26.949  22.651  1.00  0.00     0.181 C 
BRANCH   6   7
ATOM      7  N   UNL A   1      31.575  26.471  21.360  1.00  0.00    -0.344 N 
ATOM      8  C   UNL A   1      33.445  25.157  22.320  1.00  0.00     0.114 C 
ATOM      9  C   UNL A   1      32.693  25.715  21.136  1.00  0.00     0.217 C 
ATOM     10  O   UNL A   1      33.044  25.475  19.982  1.00  0.00    -0.275 OA
ATOM     11  H   UNL A   1      31.046  26.719  20.568  1.00  0.00     0.164 HD
ENDBRANCH   6   7
BRANCH   6  12
ATOM     12  C   UNL A   1      30.159  25.944  23.358  1.00  0.00     0.105 C 
BRANCH  12  13
ATOM     13  S   UNL A   1      30.391  25.744  25.136  1.00  0.00    -0.149 SA
BRANCH  13  14
ATOM     14  C   UNL A   1      31.193  24.119  25.194  1.00  0.00     0.169 C 
BRANCH  14  15
ATOM     15  C   UNL A   1      31.166  23.346  26.507  1.00  0.00     0.234 C 
ATOM     16  O   UNL A   1      30.296  23.618  27.346  1.00  0.00    -0.274 OA
ATOM     17  N   UNL A   1      31.882  22.191  26.682  1.00  0.00    -0.325 N 
ATOM     18  H   UNL A   1      31.555  21.589  27.390  1.00  0.00     0.169 HD
BRANCH  17  19
ATOM     19  C   UNL A   1      33.013  21.751  25.991  1.00  0.00     0.045 A 
ATOM     20  C   UNL A   1      33.162  20.402  25.620  1.00  0.00     0.027 A 
ATOM     21  C   UNL A   1      34.001  22.678  25.694  1.00  0.00     0.079 A 
ATOM     22  C   UNL A   1      34.356  19.928  25.069  1.00  0.00     0.022 A 
ATOM     23  C   UNL A   1      35.215  22.192  25.236  1.00  0.00     0.144 A 
ATOM     24  C   UNL A   1      35.381  20.831  24.900  1.00  0.00     0.067 A 
ATOM     25  N   UNL A   1      36.414  22.871  25.238  1.00  0.00    -0.216 N 
ATOM     26  S   UNL A   1      37.109  20.483  24.525  1.00  0.00     0.002 SA
ATOM     27  C   UNL A   1      36.731  24.019  26.010  1.00  0.00     0.289 C 
ATOM     28  C   UNL A   1      37.507  22.068  25.147  1.00  0.00     0.316 C 
ATOM     29  C   UNL A   1      38.192  23.714  26.398  1.00  0.00     0.280 C 
ATOM     30  N   UNL A   1      38.616  22.444  25.710  1.00  0.00    -0.264 N 
ATOM     31  H   UNL A   1      39.501  22.013  25.690  1.00  0.00     0.305 HD
ENDBRANCH  17  19
ENDBRANCH  14  15
ENDBRANCH  13  14
ENDBRANCH  12  13
ENDBRANCH   6  12
ENDBRANCH   3   6
ENDBRANCH   1   2
BRANCH   1  32
ATOM     32  C   UNL A   1      33.111  28.615  24.820  1.00  0.00     0.042 C 
BRANCH  32  33
ATOM     33  C   UNL A   1      34.147  28.910  25.919  1.00  0.00     0.118 C 
BRANCH  33  34
ATOM     34  N   UNL A   1      33.830  30.061  26.746  1.00  0.00    -0.352 N 
ATOM     35  C   UNL A   1      34.523  30.691  27.761  1.00  0.00     0.251 C 
ATOM     36  H   UNL A   1      32.956  30.470  26.546  1.00  0.00     0.163 HD
ATOM     37  O   UNL A   1      33.957  31.608  28.355  1.00  0.00    -0.269 OA
BRANCH  35  38
ATOM     38  C   UNL A   1      35.894  30.292  28.201  1.00  0.00     0.039 A 
ATOM     39  C   UNL A   1      37.045  30.550  27.457  1.00  0.00     0.014 A 
ATOM     40  C   UNL A   1      36.045  29.695  29.466  1.00  0.00     0.014 A 
ATOM     41  C   UNL A   1      38.298  30.092  27.914  1.00  0.00     0.010 A 
ATOM     42  C   UNL A   1      37.305  29.274  29.938  1.00  0.00     0.010 A 
ATOM     43  C   UNL A   1      38.449  29.415  29.148  1.00  0.00    -0.014 A 
BRANCH  43  44
ATOM     44  C   UNL A   1      39.805  28.927  29.573  1.00  0.00     0.031 A 
ATOM     45  C   UNL A   1      40.639  29.571  30.665  1.00  0.00     0.074 A 
ATOM     46  C   UNL A   1      40.287  27.796  29.026  1.00  0.00     0.049 A 
ATOM     47  N   UNL A   1      41.504  29.001  31.470  1.00  0.00    -0.248 NA
ATOM     48  C   UNL A   1      40.447  30.998  30.944  1.00  0.00     0.031 C 
ATOM     49  C   UNL A   1      39.665  27.060  27.926  1.00  0.00     0.029 A 
ATOM     50  N   UNL A   1      41.421  27.082  29.315  1.00  0.00    -0.354 N 
ATOM     51  C   UNL A   1      41.820  29.953  32.437  1.00  0.00     0.074 A 
ATOM     52  C   UNL A   1      41.093  31.153  32.096  1.00  0.00     0.031 C 
ATOM     53  C   UNL A   1      40.439  26.012  27.615  1.00  0.00     0.029 A 
ATOM     54  C   UNL A   1      41.619  26.016  28.476  1.00  0.00     0.049 A 
ATOM     55  H   UNL A   1      42.032  27.314  30.051  1.00  0.00     0.167 HD
ATOM     56  C   UNL A   1      42.653  29.847  33.500  1.00  0.00     0.034 A 
ATOM     57  C   UNL A   1      42.651  25.158  28.383  1.00  0.00     0.034 A 
ATOM     58  C   UNL A   1      43.638  28.811  33.642  1.00  0.00     0.049 A 
ATOM     59  C   UNL A   1      43.776  25.236  29.372  1.00  0.00     0.074 A 
ATOM     60  C   UNL A   1      44.609  28.672  34.619  1.00  0.00     0.029 A 
ATOM     61  N   UNL A   1      43.868  27.822  32.702  1.00  0.00    -0.354 N 
ATOM     62  N   UNL A   1      43.867  25.973  30.451  1.00  0.00    -0.248 NA
ATOM     63  C   UNL A   1      44.929  24.353  29.147  1.00  0.00     0.031 C 
ATOM     64  C   UNL A   1      45.482  27.656  34.215  1.00  0.00     0.029 A 
ATOM     65  C   UNL A   1      45.023  27.133  33.016  1.00  0.00     0.049 A 
ATOM     66  H   UNL A   1      43.294  27.637  31.924  1.00  0.00     0.167 HD
ATOM     67  C   UNL A   1      45.072  25.627  31.050  1.00  0.00     0.074 A 
ATOM     68  C   UNL A   1      45.680  24.615  30.211  1.00  0.00     0.031 C 
ATOM     69  C   UNL A   1      45.616  26.108  32.193  1.00  0.00     0.034 A 
BRANCH  56  70
ATOM     70  C   UNL A   1      42.552  30.879  34.592  1.00  0.00     0.023 A 
ATOM     71  C   UNL A   1      41.700  30.599  35.681  1.00  0.00     0.012 A 
ATOM     72  C   UNL A   1      43.333  32.048  34.610  1.00  0.00     0.148 A 
ATOM     73  C   UNL A   1      41.619  31.471  36.766  1.00  0.00     0.002 A 
ATOM     74  C   UNL A   1      43.245  32.916  35.694  1.00  0.00     0.091 A 
ATOM     75  F   UNL A   1      44.151  32.281  33.574  1.00  0.00    -0.205 F 
ATOM     76  C   UNL A   1      42.390  32.630  36.773  1.00  0.00     0.022 A 
BRANCH  74  77
ATOM     77  S   UNL A   1      44.177  34.448  35.801  1.00  0.00     0.127 S 
ATOM     78  O   UNL A   1      43.773  35.130  34.572  1.00  0.00    -0.237 OA
ATOM     79  O   UNL A   1      43.656  35.041  37.029  1.00  0.00    -0.237 OA
ATOM     80  O   UNL A   1      45.583  34.060  35.843  1.00  0.00    -0.744 OA
ENDBRANCH  74  77
ENDBRANCH  56  70
BRANCH  57  81
ATOM     81  C   UNL A   1      42.644  24.171  27.275  1.00  0.00     0.023 A 
ATOM     82  C   UNL A   1      43.335  24.445  26.083  1.00  0.00     0.012 A 
ATOM     83  C   UNL A   1      42.044  22.910  27.462  1.00  0.00     0.148 A 
ATOM     84  C   UNL A   1      43.436  23.467  25.093  1.00  0.00     0.002 A 
ATOM     85  C   UNL A   1      42.184  21.929  26.492  1.00  0.00     0.091 A 
ATOM     86  F   UNL A   1      41.388  22.685  28.610  1.00  0.00    -0.205 F 
ATOM     87  C   UNL A   1      42.875  22.207  25.303  1.00  0.00     0.022 A 
BRANCH  85  88
ATOM     88  S   UNL A   1      41.594  20.249  26.725  1.00  0.00     0.127 S 
ATOM     89  O   UNL A   1      41.881  19.651  25.426  1.00  0.00    -0.237 OA
ATOM     90  O   UNL A   1      42.438  19.784  27.823  1.00  0.00    -0.237 OA
ATOM     91  O   UNL A   1      40.178  20.371  27.061  1.00  0.00    -0.744 OA
ENDBRANCH  85  88
ENDBRANCH  57  81
BRANCH  69  92
ATOM     92  C   UNL A   1      46.945  25.569  32.644  1.00  0.00     0.023 A 
ATOM     93  C   UNL A   1      48.127  26.228  32.263  1.00  0.00     0.012 A 
ATOM     94  C   UNL A   1      46.998  24.528  33.591  1.00  0.00     0.148 A 
ATOM     95  C   UNL A   1      49.349  25.865  32.832  1.00  0.00     0.002 A 
ATOM     96  C   UNL A   1      48.209  24.204  34.188  1.00  0.00     0.091 A 
ATOM     97  F   UNL A   1      45.857  23.905  33.918  1.00  0.00    -0.205 F 
ATOM     98  C   UNL A   1      49.386  24.870  33.807  1.00  0.00     0.022 A 
BRANCH  96  99
ATOM     99  S   UNL A   1      48.330  23.017  35.530  1.00  0.00     0.127 S 
ATOM    100  O   UNL A   1      47.475  23.629  36.545  1.00  0.00    -0.237 OA
ATOM    101  O   UNL A   1      47.783  21.804  34.921  1.00  0.00    -0.237 OA
ATOM    102  O   UNL A   1      49.744  22.938  35.872  1.00  0.00    -0.744 OA
ENDBRANCH  96  99
ENDBRANCH  69  92
ENDBRANCH  43  44
ENDBRANCH  35  38
ENDBRANCH  33  34
ENDBRANCH  32  33
ENDBRANCH   1  32
TORSDOF 19
ENDMDL
