MODEL 1
REMARK VINA RESULT:     -12.7      0.000      0.000
REMARK SMILES CC1(C)C[C@@H]([C@H](CCNC(=O)c2ccccc2C(=O)NCCCNC(=O)c2ccc(-c3c4nc(c(-c5cccc(S(=O)(=O)[O-])c5F)c5ccc([nH]5)c(-c5cccc(S(=O)(=O)[O-])c5F)c5nc(c(-c6cccc(S(=O)(=O)[O-])c6F)c6ccc3[nH]6)C=C5)C=C4)cc2)c2ccccc2)CCO1
REMARK SMILES IDX 21 1 20 2 18 3 19 4 17 6 12 7 13 8 14 9 16 10 15 11 10 12
REMARK SMILES IDX 9 13 11 15 8 16 7 17 6 18 5 19 1 20 2 21 3 22 4 23 98 24
REMARK SMILES IDX 97 25 96 26 90 27 91 28 95 29 92 30 94 31 93 32 22 33 23 34
REMARK SMILES IDX 24 35 25 36 26 38 27 39 28 40 89 41 29 42 88 43 30 44 31 45
REMARK SMILES IDX 32 46 82 47 33 48 87 49 81 50 83 51 34 52 86 53 80 54 79 55
REMARK SMILES IDX 35 57 67 58 47 59 66 60 48 61 51 62 65 63 84 64 49 65 50 66
REMARK SMILES IDX 64 68 85 69 52 70 36 71 37 72 45 73 38 74 40 75 46 76 39 77
REMARK SMILES IDX 41 78 42 79 43 80 44 81 68 82 69 83 77 84 70 85 72 86 78 87
REMARK SMILES IDX 71 88 73 89 74 90 75 91 76 92 53 93 54 94 62 95 55 96 57 97
REMARK SMILES IDX 63 98 56 99 58 100 59 101 60 102 61 103
REMARK H PARENT 20 5 9 14 24 37 83 56 51 67
REMARK Flexibility Score: inf
ROOT
ATOM      1  C   UNL A   1      36.776  19.189  24.491  1.00  0.00     0.118 C 
ENDROOT
BRANCH   1   2
ATOM      2  N   UNL A   1      35.391  19.130  24.922  1.00  0.00    -0.352 N 
ATOM      3  C   UNL A   1      34.415  20.083  25.044  1.00  0.00     0.252 C 
ATOM      4  O   UNL A   1      33.276  19.669  25.288  1.00  0.00    -0.269 OA
ATOM      5  H   UNL A   1      35.096  18.226  25.175  1.00  0.00     0.163 HD
BRANCH   3   6
ATOM      6  C   UNL A   1      34.596  21.556  24.970  1.00  0.00     0.052 A 
ATOM      7  C   UNL A   1      34.244  22.522  25.910  1.00  0.00     0.052 A 
ATOM      8  C   UNL A   1      34.576  23.881  25.703  1.00  0.00     0.014 A 
ATOM      9  C   UNL A   1      35.292  24.287  24.583  1.00  0.00     0.001 A 
ATOM     10  C   UNL A   1      35.330  21.992  23.841  1.00  0.00     0.014 A 
ATOM     11  C   UNL A   1      35.673  23.337  23.649  1.00  0.00     0.001 A 
BRANCH   7  12
ATOM     12  C   UNL A   1      33.494  22.321  27.147  1.00  0.00     0.252 C 
ATOM     13  N   UNL A   1      32.137  22.391  27.182  1.00  0.00    -0.352 N 
ATOM     14  H   UNL A   1      31.740  21.969  27.976  1.00  0.00     0.163 HD
ATOM     15  O   UNL A   1      34.103  21.953  28.140  1.00  0.00    -0.269 OA
BRANCH  13  16
ATOM     16  C   UNL A   1      31.161  22.966  26.282  1.00  0.00     0.117 C 
BRANCH  16  17
ATOM     17  C   UNL A   1      30.964  24.475  26.526  1.00  0.00     0.030 C 
BRANCH  17  18
ATOM     18  C   UNL A   1      31.645  25.414  25.477  1.00  0.00     0.024 C 
BRANCH  18  19
ATOM     19  C   UNL A   1      30.851  25.439  24.126  1.00  0.00     0.002 C 
ATOM     20  C   UNL A   1      33.472  26.812  22.504  1.00  0.00     0.042 C 
ATOM     21  C   UNL A   1      32.202  26.130  21.981  1.00  0.00     0.063 C 
ATOM     22  C   UNL A   1      32.561  25.507  20.619  1.00  0.00     0.042 C 
ATOM     23  C   UNL A   1      31.680  25.010  22.898  1.00  0.00     0.039 C 
ATOM     24  O   UNL A   1      31.152  27.068  21.711  1.00  0.00    -0.376 OA
ATOM     25  C   UNL A   1      30.583  27.675  22.865  1.00  0.00     0.161 C 
ATOM     26  C   UNL A   1      29.974  26.660  23.826  1.00  0.00     0.033 C 
ENDBRANCH  18  19
BRANCH  18  27
ATOM     27  C   UNL A   1      32.045  26.757  26.061  1.00  0.00    -0.045 A 
ATOM     28  C   UNL A   1      31.247  27.538  26.903  1.00  0.00     0.004 A 
ATOM     29  C   UNL A   1      33.365  27.184  25.865  1.00  0.00     0.004 A 
ATOM     30  C   UNL A   1      31.727  28.739  27.448  1.00  0.00     0.000 A 
ATOM     31  C   UNL A   1      33.867  28.343  26.456  1.00  0.00     0.000 A 
ATOM     32  C   UNL A   1      33.038  29.142  27.224  1.00  0.00     0.000 A 
ENDBRANCH  18  27
ENDBRANCH  17  18
ENDBRANCH  16  17
ENDBRANCH  13  16
ENDBRANCH   7  12
ENDBRANCH   3   6
ENDBRANCH   1   2
BRANCH   1  33
ATOM     33  C   UNL A   1      37.752  19.839  25.486  1.00  0.00     0.042 C 
BRANCH  33  34
ATOM     34  C   UNL A   1      39.261  19.736  25.225  1.00  0.00     0.118 C 
BRANCH  34  35
ATOM     35  N   UNL A   1      40.129  19.324  26.321  1.00  0.00    -0.352 N 
ATOM     36  C   UNL A   1      40.928  19.989  27.227  1.00  0.00     0.251 C 
ATOM     37  H   UNL A   1      40.151  18.347  26.442  1.00  0.00     0.163 HD
ATOM     38  O   UNL A   1      41.473  19.318  28.106  1.00  0.00    -0.269 OA
BRANCH  36  39
ATOM     39  C   UNL A   1      41.227  21.438  27.148  1.00  0.00     0.039 A 
ATOM     40  C   UNL A   1      42.003  22.028  28.169  1.00  0.00     0.014 A 
ATOM     41  C   UNL A   1      40.717  22.242  26.140  1.00  0.00     0.014 A 
ATOM     42  C   UNL A   1      42.321  23.394  28.142  1.00  0.00     0.010 A 
ATOM     43  C   UNL A   1      41.060  23.589  26.089  1.00  0.00     0.010 A 
ATOM     44  C   UNL A   1      41.853  24.180  27.090  1.00  0.00    -0.014 A 
BRANCH  44  45
ATOM     45  C   UNL A   1      42.022  25.650  26.997  1.00  0.00     0.031 A 
ATOM     46  C   UNL A   1      43.341  26.145  26.484  1.00  0.00     0.074 A 
ATOM     47  C   UNL A   1      41.156  26.482  27.601  1.00  0.00     0.049 A 
ATOM     48  N   UNL A   1      43.991  27.236  26.778  1.00  0.00    -0.248 NA
ATOM     49  C   UNL A   1      44.058  25.231  25.578  1.00  0.00     0.031 C 
ATOM     50  C   UNL A   1      39.843  26.113  28.124  1.00  0.00     0.029 A 
ATOM     51  N   UNL A   1      41.307  27.800  27.960  1.00  0.00    -0.354 N 
ATOM     52  C   UNL A   1      45.239  27.092  26.185  1.00  0.00     0.074 A 
ATOM     53  C   UNL A   1      45.241  25.821  25.493  1.00  0.00     0.031 C 
ATOM     54  C   UNL A   1      39.331  27.160  28.793  1.00  0.00     0.029 A 
ATOM     55  C   UNL A   1      40.309  28.245  28.799  1.00  0.00     0.049 A 
ATOM     56  H   UNL A   1      42.050  28.367  27.650  1.00  0.00     0.167 HD
ATOM     57  C   UNL A   1      46.290  27.944  26.234  1.00  0.00     0.034 A 
ATOM     58  C   UNL A   1      40.229  29.372  29.535  1.00  0.00     0.034 A 
ATOM     59  C   UNL A   1      46.230  29.230  26.869  1.00  0.00     0.049 A 
ATOM     60  C   UNL A   1      41.379  30.348  29.505  1.00  0.00     0.074 A 
ATOM     61  C   UNL A   1      47.199  30.215  26.917  1.00  0.00     0.029 A 
ATOM     62  N   UNL A   1      45.126  29.717  27.552  1.00  0.00    -0.354 N 
ATOM     63  N   UNL A   1      42.535  30.243  28.892  1.00  0.00    -0.248 NA
ATOM     64  C   UNL A   1      41.210  31.604  30.251  1.00  0.00     0.031 C 
ATOM     65  C   UNL A   1      46.678  31.301  27.628  1.00  0.00     0.029 A 
ATOM     66  C   UNL A   1      45.379  30.996  28.010  1.00  0.00     0.049 A 
ATOM     67  H   UNL A   1      44.285  29.224  27.692  1.00  0.00     0.167 HD
ATOM     68  C   UNL A   1      43.210  31.432  29.140  1.00  0.00     0.074 A 
ATOM     69  C   UNL A   1      42.333  32.247  29.956  1.00  0.00     0.031 C 
ATOM     70  C   UNL A   1      44.449  31.815  28.744  1.00  0.00     0.034 A 
BRANCH  57  71
ATOM     71  C   UNL A   1      47.570  27.523  25.562  1.00  0.00     0.023 A 
ATOM     72  C   UNL A   1      48.568  26.867  26.310  1.00  0.00     0.012 A 
ATOM     73  C   UNL A   1      47.771  27.741  24.185  1.00  0.00     0.148 A 
ATOM     74  C   UNL A   1      49.764  26.473  25.708  1.00  0.00     0.002 A 
ATOM     75  C   UNL A   1      48.946  27.302  23.581  1.00  0.00     0.091 A 
ATOM     76  F   UNL A   1      46.823  28.388  23.492  1.00  0.00    -0.205 F 
ATOM     77  C   UNL A   1      49.948  26.681  24.345  1.00  0.00     0.022 A 
BRANCH  75  78
ATOM     78  S   UNL A   1      49.241  27.451  21.815  1.00  0.00     0.127 S 
ATOM     79  O   UNL A   1      50.680  27.198  21.734  1.00  0.00    -0.237 OA
ATOM     80  O   UNL A   1      48.404  26.381  21.271  1.00  0.00    -0.237 OA
ATOM     81  O   UNL A   1      48.819  28.795  21.450  1.00  0.00    -0.744 OA
ENDBRANCH  75  78
ENDBRANCH  57  71
BRANCH  58  82
ATOM     82  C   UNL A   1      39.003  29.656  30.335  1.00  0.00     0.023 A 
ATOM     83  C   UNL A   1      38.846  29.020  31.582  1.00  0.00     0.012 A 
ATOM     84  C   UNL A   1      38.018  30.565  29.902  1.00  0.00     0.148 A 
ATOM     85  C   UNL A   1      37.721  29.262  32.371  1.00  0.00     0.002 A 
ATOM     86  C   UNL A   1      36.923  30.840  30.716  1.00  0.00     0.091 A 
ATOM     87  F   UNL A   1      38.175  31.151  28.707  1.00  0.00    -0.205 F 
ATOM     88  C   UNL A   1      36.766  30.179  31.944  1.00  0.00     0.022 A 
BRANCH  86  89
ATOM     89  S   UNL A   1      35.705  32.097  30.308  1.00  0.00     0.127 S 
ATOM     90  O   UNL A   1      35.068  31.524  29.125  1.00  0.00    -0.237 OA
ATOM     91  O   UNL A   1      34.871  32.114  31.509  1.00  0.00    -0.237 OA
ATOM     92  O   UNL A   1      36.466  33.320  30.088  1.00  0.00    -0.744 OA
ENDBRANCH  86  89
ENDBRANCH  58  82
BRANCH  70  93
ATOM     93  C   UNL A   1      44.915  33.197  29.111  1.00  0.00     0.023 A 
ATOM     94  C   UNL A   1      45.630  33.404  30.305  1.00  0.00     0.012 A 
ATOM     95  C   UNL A   1      44.754  34.262  28.202  1.00  0.00     0.148 A 
ATOM     96  C   UNL A   1      46.170  34.657  30.595  1.00  0.00     0.002 A 
ATOM     97  C   UNL A   1      45.331  35.495  28.476  1.00  0.00     0.091 A 
ATOM     98  F   UNL A   1      44.054  34.042  27.079  1.00  0.00    -0.205 F 
ATOM     99  C   UNL A   1      46.034  35.695  29.676  1.00  0.00     0.022 A 
BRANCH  97 100
ATOM    100  S   UNL A   1      45.291  36.859  27.309  1.00  0.00     0.127 S 
ATOM    101  O   UNL A   1      46.132  36.350  26.228  1.00  0.00    -0.237 OA
ATOM    102  O   UNL A   1      43.867  36.948  26.985  1.00  0.00    -0.237 OA
ATOM    103  O   UNL A   1      45.821  38.014  28.022  1.00  0.00    -0.744 OA
ENDBRANCH  97 100
ENDBRANCH  70  93
ENDBRANCH  44  45
ENDBRANCH  36  39
ENDBRANCH  34  35
ENDBRANCH  33  34
ENDBRANCH   1  33
TORSDOF 19
ENDMDL
MODEL 2
REMARK VINA RESULT:     -12.3      1.752      2.489
REMARK SMILES CC1(C)C[C@@H]([C@H](CCNC(=O)c2ccccc2C(=O)NCCCNC(=O)c2ccc(-c3c4nc(c(-c5cccc(S(=O)(=O)[O-])c5F)c5ccc([nH]5)c(-c5cccc(S(=O)(=O)[O-])c5F)c5nc(c(-c6cccc(S(=O)(=O)[O-])c6F)c6ccc3[nH]6)C=C5)C=C4)cc2)c2ccccc2)CCO1
REMARK SMILES IDX 21 1 20 2 18 3 19 4 17 6 12 7 13 8 14 9 16 10 15 11 10 12
REMARK SMILES IDX 9 13 11 15 8 16 7 17 6 18 5 19 1 20 2 21 3 22 4 23 98 24
REMARK SMILES IDX 97 25 96 26 90 27 91 28 95 29 92 30 94 31 93 32 22 33 23 34
REMARK SMILES IDX 24 35 25 36 26 38 27 39 28 40 89 41 29 42 88 43 30 44 31 45
REMARK SMILES IDX 32 46 82 47 33 48 87 49 81 50 83 51 34 52 86 53 80 54 79 55
REMARK SMILES IDX 35 57 67 58 47 59 66 60 48 61 51 62 65 63 84 64 49 65 50 66
REMARK SMILES IDX 64 68 85 69 52 70 36 71 37 72 45 73 38 74 40 75 46 76 39 77
REMARK SMILES IDX 41 78 42 79 43 80 44 81 68 82 69 83 77 84 70 85 72 86 78 87
REMARK SMILES IDX 71 88 73 89 74 90 75 91 76 92 53 93 54 94 62 95 55 96 57 97
REMARK SMILES IDX 63 98 56 99 58 100 59 101 60 102 61 103
REMARK H PARENT 20 5 9 14 24 37 83 56 51 67
REMARK Flexibility Score: inf
ROOT
ATOM      1  C   UNL A   1      37.083  21.139  25.056  1.00  0.00     0.118 C 
ENDROOT
BRANCH   1   2
ATOM      2  N   UNL A   1      36.092  21.339  26.097  1.00  0.00    -0.352 N 
ATOM      3  C   UNL A   1      34.725  21.424  26.075  1.00  0.00     0.252 C 
ATOM      4  O   UNL A   1      34.161  21.436  27.174  1.00  0.00    -0.269 OA
ATOM      5  H   UNL A   1      36.479  21.430  26.998  1.00  0.00     0.163 HD
BRANCH   3   6
ATOM      6  C   UNL A   1      33.863  21.561  24.872  1.00  0.00     0.052 A 
ATOM      7  C   UNL A   1      33.888  22.554  23.894  1.00  0.00     0.052 A 
ATOM      8  C   UNL A   1      33.041  22.472  22.765  1.00  0.00     0.014 A 
ATOM      9  C   UNL A   1      32.191  21.389  22.577  1.00  0.00     0.001 A 
ATOM     10  C   UNL A   1      32.994  20.466  24.656  1.00  0.00     0.014 A 
ATOM     11  C   UNL A   1      32.169  20.379  23.526  1.00  0.00     0.001 A 
BRANCH   7  12
ATOM     12  C   UNL A   1      34.694  23.771  23.890  1.00  0.00     0.252 C 
ATOM     13  N   UNL A   1      34.544  24.733  24.838  1.00  0.00    -0.352 N 
ATOM     14  H   UNL A   1      35.309  25.349  24.901  1.00  0.00     0.163 HD
ATOM     15  O   UNL A   1      35.612  23.855  23.087  1.00  0.00    -0.269 OA
BRANCH  13  16
ATOM     16  C   UNL A   1      33.481  25.033  25.772  1.00  0.00     0.117 C 
BRANCH  16  17
ATOM     17  C   UNL A   1      32.698  26.299  25.373  1.00  0.00     0.030 C 
BRANCH  17  18
ATOM     18  C   UNL A   1      33.575  27.504  24.898  1.00  0.00     0.024 C 
BRANCH  18  19
ATOM     19  C   UNL A   1      33.242  27.911  23.423  1.00  0.00     0.002 C 
ATOM     20  C   UNL A   1      29.944  27.401  23.930  1.00  0.00     0.042 C 
ATOM     21  C   UNL A   1      30.695  28.135  22.812  1.00  0.00     0.063 C 
ATOM     22  C   UNL A   1      29.749  29.229  22.285  1.00  0.00     0.042 C 
ATOM     23  C   UNL A   1      31.996  28.810  23.281  1.00  0.00     0.039 C 
ATOM     24  O   UNL A   1      30.965  27.285  21.689  1.00  0.00    -0.376 OA
ATOM     25  C   UNL A   1      31.927  26.265  21.930  1.00  0.00     0.161 C 
ATOM     26  C   UNL A   1      33.285  26.821  22.346  1.00  0.00     0.033 C 
ENDBRANCH  18  19
BRANCH  18  27
ATOM     27  C   UNL A   1      33.640  28.624  25.922  1.00  0.00    -0.045 A 
ATOM     28  C   UNL A   1      34.760  28.938  26.699  1.00  0.00     0.004 A 
ATOM     29  C   UNL A   1      32.552  29.502  25.995  1.00  0.00     0.004 A 
ATOM     30  C   UNL A   1      34.749  30.033  27.575  1.00  0.00     0.000 A 
ATOM     31  C   UNL A   1      32.560  30.629  26.817  1.00  0.00     0.000 A 
ATOM     32  C   UNL A   1      33.647  30.879  27.635  1.00  0.00     0.000 A 
ENDBRANCH  18  27
ENDBRANCH  17  18
ENDBRANCH  16  17
ENDBRANCH  13  16
ENDBRANCH   7  12
ENDBRANCH   3   6
ENDBRANCH   1   2
BRANCH   1  33
ATOM     33  C   UNL A   1      37.850  19.808  25.119  1.00  0.00     0.042 C 
BRANCH  33  34
ATOM     34  C   UNL A   1      39.385  19.830  25.087  1.00  0.00     0.118 C 
BRANCH  34  35
ATOM     35  N   UNL A   1      40.110  19.478  26.302  1.00  0.00    -0.352 N 
ATOM     36  C   UNL A   1      40.701  20.195  27.320  1.00  0.00     0.251 C 
ATOM     37  H   UNL A   1      40.198  18.505  26.423  1.00  0.00     0.163 HD
ATOM     38  O   UNL A   1      41.163  19.560  28.271  1.00  0.00    -0.269 OA
BRANCH  36  39
ATOM     39  C   UNL A   1      40.881  21.666  27.291  1.00  0.00     0.039 A 
ATOM     40  C   UNL A   1      40.005  22.442  26.502  1.00  0.00     0.014 A 
ATOM     41  C   UNL A   1      41.919  22.295  27.961  1.00  0.00     0.014 A 
ATOM     42  C   UNL A   1      40.125  23.838  26.442  1.00  0.00     0.010 A 
ATOM     43  C   UNL A   1      42.021  23.682  27.932  1.00  0.00     0.010 A 
ATOM     44  C   UNL A   1      41.136  24.465  27.168  1.00  0.00    -0.014 A 
BRANCH  44  45
ATOM     45  C   UNL A   1      41.443  25.914  27.107  1.00  0.00     0.031 A 
ATOM     46  C   UNL A   1      42.818  26.292  26.643  1.00  0.00     0.074 A 
ATOM     47  C   UNL A   1      40.640  26.813  27.700  1.00  0.00     0.049 A 
ATOM     48  N   UNL A   1      43.557  27.313  26.975  1.00  0.00    -0.248 NA
ATOM     49  C   UNL A   1      43.476  25.329  25.742  1.00  0.00     0.031 C 
ATOM     50  C   UNL A   1      39.282  26.560  28.177  1.00  0.00     0.029 A 
ATOM     51  N   UNL A   1      40.901  28.106  28.087  1.00  0.00    -0.354 N 
ATOM     52  C   UNL A   1      44.804  27.063  26.417  1.00  0.00     0.074 A 
ATOM     53  C   UNL A   1      44.710  25.808  25.702  1.00  0.00     0.031 C 
ATOM     54  C   UNL A   1      38.849  27.640  28.850  1.00  0.00     0.029 A 
ATOM     55  C   UNL A   1      39.922  28.629  28.904  1.00  0.00     0.049 A 
ATOM     56  H   UNL A   1      41.702  28.605  27.810  1.00  0.00     0.167 HD
ATOM     57  C   UNL A   1      45.927  27.812  26.513  1.00  0.00     0.034 A 
ATOM     58  C   UNL A   1      39.924  29.746  29.659  1.00  0.00     0.034 A 
ATOM     59  C   UNL A   1      45.967  29.088  27.171  1.00  0.00     0.049 A 
ATOM     60  C   UNL A   1      41.160  30.611  29.681  1.00  0.00     0.074 A 
ATOM     61  C   UNL A   1      47.021  29.978  27.265  1.00  0.00     0.029 A 
ATOM     62  N   UNL A   1      44.892  29.665  27.830  1.00  0.00    -0.354 N 
ATOM     63  N   UNL A   1      42.319  30.409  29.101  1.00  0.00    -0.248 NA
ATOM     64  C   UNL A   1      41.085  31.865  30.445  1.00  0.00     0.031 C 
ATOM     65  C   UNL A   1      46.580  31.096  27.981  1.00  0.00     0.029 A 
ATOM     66  C   UNL A   1      45.248  30.907  28.318  1.00  0.00     0.049 A 
ATOM     67  H   UNL A   1      44.005  29.250  27.935  1.00  0.00     0.167 HD
ATOM     68  C   UNL A   1      43.094  31.526  29.391  1.00  0.00     0.074 A 
ATOM     69  C   UNL A   1      42.271  32.406  30.195  1.00  0.00     0.031 C 
ATOM     70  C   UNL A   1      44.375  31.798  29.040  1.00  0.00     0.034 A 
BRANCH  57  71
ATOM     71  C   UNL A   1      47.183  27.284  25.873  1.00  0.00     0.023 A 
ATOM     72  C   UNL A   1      47.392  27.465  24.491  1.00  0.00     0.012 A 
ATOM     73  C   UNL A   1      48.174  26.643  26.643  1.00  0.00     0.148 A 
ATOM     74  C   UNL A   1      48.547  26.978  23.877  1.00  0.00     0.002 A 
ATOM     75  C   UNL A   1      49.345  26.204  26.032  1.00  0.00     0.091 A 
ATOM     76  F   UNL A   1      47.951  26.458  27.951  1.00  0.00    -0.205 F 
ATOM     77  C   UNL A   1      49.526  26.358  24.648  1.00  0.00     0.022 A 
BRANCH  75  78
ATOM     78  S   UNL A   1      50.700  25.467  26.953  1.00  0.00     0.127 S 
ATOM     79  O   UNL A   1      51.075  26.558  27.852  1.00  0.00    -0.237 OA
ATOM     80  O   UNL A   1      50.047  24.334  27.610  1.00  0.00    -0.237 OA
ATOM     81  O   UNL A   1      51.703  25.097  25.964  1.00  0.00    -0.744 OA
ENDBRANCH  75  78
ENDBRANCH  57  71
BRANCH  58  82
ATOM     82  C   UNL A   1      38.705  30.131  30.427  1.00  0.00     0.023 A 
ATOM     83  C   UNL A   1      38.420  29.452  31.628  1.00  0.00     0.012 A 
ATOM     84  C   UNL A   1      37.852  31.171  30.010  1.00  0.00     0.148 A 
ATOM     85  C   UNL A   1      37.298  29.784  32.387  1.00  0.00     0.002 A 
ATOM     86  C   UNL A   1      36.761  31.530  30.797  1.00  0.00     0.091 A 
ATOM     87  F   UNL A   1      38.129  31.797  28.857  1.00  0.00    -0.205 F 
ATOM     88  C   UNL A   1      36.475  30.829  31.978  1.00  0.00     0.022 A 
BRANCH  86  89
ATOM     89  S   UNL A   1      35.717  32.942  30.416  1.00  0.00     0.127 S 
ATOM     90  O   UNL A   1      36.231  33.952  31.336  1.00  0.00    -0.237 OA
ATOM     91  O   UNL A   1      36.028  33.178  29.006  1.00  0.00    -0.237 OA
ATOM     92  O   UNL A   1      34.352  32.495  30.662  1.00  0.00    -0.744 OA
ENDBRANCH  86  89
ENDBRANCH  58  82
BRANCH  70  93
ATOM     93  C   UNL A   1      44.955  33.125  29.445  1.00  0.00     0.023 A 
ATOM     94  C   UNL A   1      45.687  33.235  30.642  1.00  0.00     0.012 A 
ATOM     95  C   UNL A   1      44.881  34.226  28.569  1.00  0.00     0.148 A 
ATOM     96  C   UNL A   1      46.330  34.429  30.967  1.00  0.00     0.002 A 
ATOM     97  C   UNL A   1      45.560  35.398  28.878  1.00  0.00     0.091 A 
ATOM     98  F   UNL A   1      44.163  34.099  27.443  1.00  0.00    -0.205 F 
ATOM     99  C   UNL A   1      46.279  35.503  30.080  1.00  0.00     0.022 A 
BRANCH  97 100
ATOM    100  S   UNL A   1      45.632  36.795  27.752  1.00  0.00     0.127 S 
ATOM    101  O   UNL A   1      46.580  37.676  28.432  1.00  0.00    -0.237 OA
ATOM    102  O   UNL A   1      46.140  36.180  26.526  1.00  0.00    -0.237 OA
ATOM    103  O   UNL A   1      44.269  37.303  27.654  1.00  0.00    -0.744 OA
ENDBRANCH  97 100
ENDBRANCH  70  93
ENDBRANCH  44  45
ENDBRANCH  36  39
ENDBRANCH  34  35
ENDBRANCH  33  34
ENDBRANCH   1  33
TORSDOF 19
ENDMDL
MODEL 3
REMARK VINA RESULT:     -12.1      1.512      2.804
REMARK SMILES CC1(C)C[C@@H]([C@H](CCNC(=O)c2ccccc2C(=O)NCCCNC(=O)c2ccc(-c3c4nc(c(-c5cccc(S(=O)(=O)[O-])c5F)c5ccc([nH]5)c(-c5cccc(S(=O)(=O)[O-])c5F)c5nc(c(-c6cccc(S(=O)(=O)[O-])c6F)c6ccc3[nH]6)C=C5)C=C4)cc2)c2ccccc2)CCO1
REMARK SMILES IDX 21 1 20 2 18 3 19 4 17 6 12 7 13 8 14 9 16 10 15 11 10 12
REMARK SMILES IDX 9 13 11 15 8 16 7 17 6 18 5 19 1 20 2 21 3 22 4 23 98 24
REMARK SMILES IDX 97 25 96 26 90 27 91 28 95 29 92 30 94 31 93 32 22 33 23 34
REMARK SMILES IDX 24 35 25 36 26 38 27 39 28 40 89 41 29 42 88 43 30 44 31 45
REMARK SMILES IDX 32 46 82 47 33 48 87 49 81 50 83 51 34 52 86 53 80 54 79 55
REMARK SMILES IDX 35 57 67 58 47 59 66 60 48 61 51 62 65 63 84 64 49 65 50 66
REMARK SMILES IDX 64 68 85 69 52 70 36 71 37 72 45 73 38 74 40 75 46 76 39 77
REMARK SMILES IDX 41 78 42 79 43 80 44 81 68 82 69 83 77 84 70 85 72 86 78 87
REMARK SMILES IDX 71 88 73 89 74 90 75 91 76 92 53 93 54 94 62 95 55 96 57 97
REMARK SMILES IDX 63 98 56 99 58 100 59 101 60 102 61 103
REMARK H PARENT 20 5 9 14 24 37 83 56 51 67
REMARK Flexibility Score: inf
ROOT
ATOM      1  C   UNL A   1      35.903  20.585  25.288  1.00  0.00     0.118 C 
ENDROOT
BRANCH   1   2
ATOM      2  N   UNL A   1      36.163  22.011  25.356  1.00  0.00    -0.352 N 
ATOM      3  C   UNL A   1      35.342  23.100  25.473  1.00  0.00     0.252 C 
ATOM      4  O   UNL A   1      35.900  24.186  25.668  1.00  0.00    -0.269 OA
ATOM      5  H   UNL A   1      37.120  22.240  25.309  1.00  0.00     0.163 HD
BRANCH   3   6
ATOM      6  C   UNL A   1      33.863  23.118  25.334  1.00  0.00     0.052 A 
ATOM      7  C   UNL A   1      33.101  23.343  24.188  1.00  0.00     0.052 A 
ATOM      8  C   UNL A   1      31.692  23.233  24.229  1.00  0.00     0.014 A 
ATOM      9  C   UNL A   1      31.030  22.863  25.393  1.00  0.00     0.001 A 
ATOM     10  C   UNL A   1      33.167  22.736  26.505  1.00  0.00     0.014 A 
ATOM     11  C   UNL A   1      31.772  22.610  26.537  1.00  0.00     0.001 A 
BRANCH   7  12
ATOM     12  C   UNL A   1      33.584  23.742  22.869  1.00  0.00     0.252 C 
ATOM     13  N   UNL A   1      33.008  24.756  22.172  1.00  0.00    -0.352 N 
ATOM     14  H   UNL A   1      33.576  25.114  21.453  1.00  0.00     0.163 HD
ATOM     15  O   UNL A   1      34.612  23.232  22.451  1.00  0.00    -0.269 OA
BRANCH  13  16
ATOM     16  C   UNL A   1      31.724  25.414  22.277  1.00  0.00     0.117 C 
BRANCH  16  17
ATOM     17  C   UNL A   1      31.836  26.805  22.932  1.00  0.00     0.030 C 
BRANCH  17  18
ATOM     18  C   UNL A   1      30.614  27.229  23.810  1.00  0.00     0.024 C 
BRANCH  18  19
ATOM     19  C   UNL A   1      31.019  27.403  25.314  1.00  0.00     0.002 C 
ATOM     20  C   UNL A   1      33.715  29.250  24.469  1.00  0.00     0.042 C 
ATOM     21  C   UNL A   1      33.003  29.053  25.813  1.00  0.00     0.063 C 
ATOM     22  C   UNL A   1      33.227  30.340  26.627  1.00  0.00     0.042 C 
ATOM     23  C   UNL A   1      31.486  28.826  25.682  1.00  0.00     0.039 C 
ATOM     24  O   UNL A   1      33.588  27.998  26.589  1.00  0.00    -0.376 OA
ATOM     25  C   UNL A   1      33.383  26.690  26.069  1.00  0.00     0.161 C 
ATOM     26  C   UNL A   1      31.907  26.327  25.951  1.00  0.00     0.033 C 
ENDBRANCH  18  19
BRANCH  18  27
ATOM     27  C   UNL A   1      29.800  28.348  23.185  1.00  0.00    -0.045 A 
ATOM     28  C   UNL A   1      30.291  29.285  22.270  1.00  0.00     0.004 A 
ATOM     29  C   UNL A   1      28.420  28.361  23.427  1.00  0.00     0.004 A 
ATOM     30  C   UNL A   1      29.446  30.247  21.695  1.00  0.00     0.000 A 
ATOM     31  C   UNL A   1      27.566  29.275  22.809  1.00  0.00     0.000 A 
ATOM     32  C   UNL A   1      28.083  30.242  21.965  1.00  0.00     0.000 A 
ENDBRANCH  18  27
ENDBRANCH  17  18
ENDBRANCH  16  17
ENDBRANCH  13  16
ENDBRANCH   7  12
ENDBRANCH   3   6
ENDBRANCH   1   2
BRANCH   1  33
ATOM     33  C   UNL A   1      37.111  19.708  24.918  1.00  0.00     0.042 C 
BRANCH  33  34
ATOM     34  C   UNL A   1      38.519  20.315  24.978  1.00  0.00     0.118 C 
BRANCH  34  35
ATOM     35  N   UNL A   1      39.426  19.863  26.026  1.00  0.00    -0.352 N 
ATOM     36  C   UNL A   1      40.220  20.495  26.960  1.00  0.00     0.251 C 
ATOM     37  H   UNL A   1      39.486  18.882  26.080  1.00  0.00     0.163 HD
ATOM     38  O   UNL A   1      40.808  19.788  27.781  1.00  0.00    -0.269 OA
BRANCH  36  39
ATOM     39  C   UNL A   1      40.464  21.957  26.974  1.00  0.00     0.039 A 
ATOM     40  C   UNL A   1      39.547  22.805  26.317  1.00  0.00     0.014 A 
ATOM     41  C   UNL A   1      41.594  22.510  27.556  1.00  0.00     0.014 A 
ATOM     42  C   UNL A   1      39.725  24.196  26.304  1.00  0.00     0.010 A 
ATOM     43  C   UNL A   1      41.757  23.891  27.577  1.00  0.00     0.010 A 
ATOM     44  C   UNL A   1      40.835  24.745  26.944  1.00  0.00    -0.014 A 
BRANCH  44  45
ATOM     45  C   UNL A   1      41.201  26.182  26.913  1.00  0.00     0.031 A 
ATOM     46  C   UNL A   1      42.566  26.517  26.391  1.00  0.00     0.074 A 
ATOM     47  C   UNL A   1      40.468  27.093  27.575  1.00  0.00     0.049 A 
ATOM     48  N   UNL A   1      43.363  27.495  26.717  1.00  0.00    -0.248 NA
ATOM     49  C   UNL A   1      43.135  25.559  25.428  1.00  0.00     0.031 C 
ATOM     50  C   UNL A   1      39.126  26.881  28.113  1.00  0.00     0.029 A 
ATOM     51  N   UNL A   1      40.803  28.360  27.989  1.00  0.00    -0.354 N 
ATOM     52  C   UNL A   1      44.570  27.212  26.088  1.00  0.00     0.074 A 
ATOM     53  C   UNL A   1      44.385  25.987  25.340  1.00  0.00     0.031 C 
ATOM     54  C   UNL A   1      38.774  27.955  28.841  1.00  0.00     0.029 A 
ATOM     55  C   UNL A   1      39.890  28.896  28.871  1.00  0.00     0.049 A 
ATOM     56  H   UNL A   1      41.611  28.835  27.686  1.00  0.00     0.167 HD
ATOM     57  C   UNL A   1      45.727  27.911  26.149  1.00  0.00     0.034 A 
ATOM     58  C   UNL A   1      39.979  29.987  29.659  1.00  0.00     0.034 A 
ATOM     59  C   UNL A   1      45.855  29.161  26.843  1.00  0.00     0.049 A 
ATOM     60  C   UNL A   1      41.250  30.798  29.644  1.00  0.00     0.074 A 
ATOM     61  C   UNL A   1      46.950  30.003  26.911  1.00  0.00     0.029 A 
ATOM     62  N   UNL A   1      44.840  29.760  27.574  1.00  0.00    -0.354 N 
ATOM     63  N   UNL A   1      42.369  30.567  28.999  1.00  0.00    -0.248 NA
ATOM     64  C   UNL A   1      41.268  32.028  30.450  1.00  0.00     0.031 C 
ATOM     65  C   UNL A   1      46.595  31.114  27.683  1.00  0.00     0.029 A 
ATOM     66  C   UNL A   1      45.274  30.969  28.082  1.00  0.00     0.049 A 
ATOM     67  H   UNL A   1      43.943  29.379  27.712  1.00  0.00     0.167 HD
ATOM     68  C   UNL A   1      43.205  31.641  29.284  1.00  0.00     0.074 A 
ATOM     69  C   UNL A   1      42.463  32.527  30.157  1.00  0.00     0.031 C 
ATOM     70  C   UNL A   1      44.478  31.870  28.876  1.00  0.00     0.034 A 
BRANCH  57  71
ATOM     71  C   UNL A   1      46.925  27.352  25.428  1.00  0.00     0.023 A 
ATOM     72  C   UNL A   1      47.768  26.431  26.083  1.00  0.00     0.012 A 
ATOM     73  C   UNL A   1      47.198  27.709  24.092  1.00  0.00     0.148 A 
ATOM     74  C   UNL A   1      48.887  25.907  25.435  1.00  0.00     0.002 A 
ATOM     75  C   UNL A   1      48.288  27.144  23.437  1.00  0.00     0.091 A 
ATOM     76  F   UNL A   1      46.401  28.604  23.491  1.00  0.00    -0.205 F 
ATOM     77  C   UNL A   1      49.140  26.254  24.111  1.00  0.00     0.022 A 
BRANCH  75  78
ATOM     78  S   UNL A   1      48.650  27.465  21.706  1.00  0.00     0.127 S 
ATOM     79  O   UNL A   1      49.640  28.537  21.806  1.00  0.00    -0.237 OA
ATOM     80  O   UNL A   1      49.187  26.179  21.259  1.00  0.00    -0.237 OA
ATOM     81  O   UNL A   1      47.382  27.838  21.094  1.00  0.00    -0.744 OA
ENDBRANCH  75  78
ENDBRANCH  57  71
BRANCH  58  82
ATOM     82  C   UNL A   1      38.817  30.396  30.500  1.00  0.00     0.023 A 
ATOM     83  C   UNL A   1      38.786  29.995  31.851  1.00  0.00     0.012 A 
ATOM     84  C   UNL A   1      37.773  31.197  30.000  1.00  0.00     0.148 A 
ATOM     85  C   UNL A   1      37.726  30.363  32.680  1.00  0.00     0.002 A 
ATOM     86  C   UNL A   1      36.744  31.602  30.845  1.00  0.00     0.091 A 
ATOM     87  F   UNL A   1      37.811  31.557  28.709  1.00  0.00    -0.205 F 
ATOM     88  C   UNL A   1      36.712  31.174  32.182  1.00  0.00     0.022 A 
BRANCH  86  89
ATOM     89  S   UNL A   1      35.459  32.747  30.327  1.00  0.00     0.127 S 
ATOM     90  O   UNL A   1      36.151  34.030  30.411  1.00  0.00    -0.237 OA
ATOM     91  O   UNL A   1      35.176  32.289  28.967  1.00  0.00    -0.237 OA
ATOM     92  O   UNL A   1      34.363  32.554  31.266  1.00  0.00    -0.744 OA
ENDBRANCH  86  89
ENDBRANCH  58  82
BRANCH  70  93
ATOM     93  C   UNL A   1      45.134  33.158  29.292  1.00  0.00     0.023 A 
ATOM     94  C   UNL A   1      45.953  33.191  30.436  1.00  0.00     0.012 A 
ATOM     95  C   UNL A   1      45.040  34.298  28.470  1.00  0.00     0.148 A 
ATOM     96  C   UNL A   1      46.662  34.347  30.763  1.00  0.00     0.002 A 
ATOM     97  C   UNL A   1      45.783  35.431  28.776  1.00  0.00     0.091 A 
ATOM     98  F   UNL A   1      44.240  34.245  27.394  1.00  0.00    -0.205 F 
ATOM     99  C   UNL A   1      46.588  35.459  29.927  1.00  0.00     0.022 A 
BRANCH  97 100
ATOM    100  S   UNL A   1      45.826  36.873  27.707  1.00  0.00     0.127 S 
ATOM    101  O   UNL A   1      44.596  37.564  28.088  1.00  0.00    -0.237 OA
ATOM    102  O   UNL A   1      47.058  37.538  28.133  1.00  0.00    -0.237 OA
ATOM    103  O   UNL A   1      45.857  36.361  26.342  1.00  0.00    -0.744 OA
ENDBRANCH  97 100
ENDBRANCH  70  93
ENDBRANCH  44  45
ENDBRANCH  36  39
ENDBRANCH  34  35
ENDBRANCH  33  34
ENDBRANCH   1  33
TORSDOF 19
ENDMDL
