MODEL 1
REMARK VINA RESULT:     -15.0      0.000      0.000
REMARK SMILES CC[C@H](C)[C@H](NC(=O)[C@H](C)Oc1ccc2c(C)c(C)c(=O)oc2c1C)C(=O)NCCCNC(=O)c1ccc(-c2c3nc(c(-c4cccc(S(=O)(=O)[O-])c4F)c4ccc([nH]4)c(-c4cccc(S(=O)(=O)[O-])c4F)c4nc(c(-c5cccc(S(=O)(=O)[O-])c5F)c5ccc2[nH]5)C=C4)C=C3)cc1
REMARK SMILES IDX 29 1 28 2 26 3 27 4 5 6 3 7 4 8 2 9 1 10 6 11 7 12 8 14 9 15
REMARK SMILES IDX 10 16 11 17 12 18 13 19 24 20 14 21 23 22 25 23 15 24 22 25
REMARK SMILES IDX 16 26 20 27 17 28 18 29 21 30 19 31 30 32 31 33 32 34 33 35
REMARK SMILES IDX 34 37 35 38 36 39 97 40 37 41 96 42 38 43 39 44 40 45 90 46
REMARK SMILES IDX 41 47 95 48 89 49 91 50 42 51 94 52 88 53 87 54 43 56 75 57
REMARK SMILES IDX 55 58 74 59 56 60 59 61 73 62 92 63 57 64 58 65 72 67 93 68
REMARK SMILES IDX 60 69 44 70 45 71 53 72 46 73 48 74 54 75 47 76 49 77 50 78
REMARK SMILES IDX 51 79 52 80 76 81 77 82 85 83 78 84 80 85 86 86 79 87 81 88
REMARK SMILES IDX 82 89 83 90 84 91 61 92 62 93 70 94 63 95 65 96 71 97 64 98
REMARK SMILES IDX 66 99 67 100 68 101 69 102
REMARK H PARENT 28 5 6 13 32 36 91 55 59 66
REMARK Flexibility Score: inf
ROOT
ATOM      1  C   UNL A   1      33.350  29.794  26.100  1.00  0.00     0.117 C 
ENDROOT
BRANCH   1   2
ATOM      2  N   UNL A   1      33.081  29.557  24.595  1.00  0.00    -0.354 N 
ATOM      3  C   UNL A   1      33.097  28.639  23.566  1.00  0.00     0.242 C 
ATOM      4  O   UNL A   1      33.419  28.994  22.430  1.00  0.00    -0.273 OA
ATOM      5  H   UNL A   1      32.770  30.411  24.217  1.00  0.00     0.163 HD
BRANCH   3   6
ATOM      6  C   UNL A   1      32.652  27.214  23.707  1.00  0.00     0.174 C 
BRANCH   6   7
ATOM      7  C   UNL A   1      33.336  26.405  22.562  1.00  0.00     0.018 C 
ATOM      8  C   UNL A   1      34.246  25.260  23.065  1.00  0.00     0.010 C 
BRANCH   7   9
ATOM      9  C   UNL A   1      32.280  25.825  21.559  1.00  0.00     0.002 C 
ATOM     10  C   UNL A   1      32.706  25.589  20.109  1.00  0.00     0.004 C 
ENDBRANCH   7   9
ENDBRANCH   6   7
BRANCH   6  11
ATOM     11  N   UNL A   1      31.240  27.356  23.774  1.00  0.00    -0.341 N 
ATOM     12  C   UNL A   1      30.557  26.821  24.850  1.00  0.00     0.261 C 
ATOM     13  H   UNL A   1      30.754  27.831  23.062  1.00  0.00     0.164 HD
ATOM     14  O   UNL A   1      29.325  26.816  24.740  1.00  0.00    -0.271 OA
BRANCH  12  15
ATOM     15  C   UNL A   1      31.396  26.207  26.280  1.00  0.00     0.258 C 
ATOM     16  C   UNL A   1      31.130  27.512  27.158  1.00  0.00     0.064 C 
BRANCH  15  17
ATOM     17  O   UNL A   1      32.682  25.152  26.652  1.00  0.00    -0.480 OA
BRANCH  17  18
ATOM     18  C   UNL A   1      33.150  23.764  26.403  1.00  0.00     0.127 A 
ATOM     19  C   UNL A   1      34.496  23.361  26.402  1.00  0.00     0.047 A 
ATOM     20  C   UNL A   1      32.360  22.579  26.232  1.00  0.00     0.035 A 
ATOM     21  C   UNL A   1      35.090  22.155  25.978  1.00  0.00     0.016 A 
ATOM     22  C   UNL A   1      32.962  21.343  25.693  1.00  0.00     0.145 A 
ATOM     23  C   UNL A   1      30.883  22.494  26.494  1.00  0.00     0.052 C 
ATOM     24  C   UNL A   1      34.321  21.137  25.521  1.00  0.00     0.021 A 
ATOM     25  O   UNL A   1      32.113  20.278  25.277  1.00  0.00    -0.422 OA
ATOM     26  C   UNL A   1      34.907  19.919  24.954  1.00  0.00    -0.030 A 
ATOM     27  C   UNL A   1      32.597  19.099  24.690  1.00  0.00     0.339 A 
ATOM     28  C   UNL A   1      36.418  19.836  24.824  1.00  0.00     0.045 C 
ATOM     29  C   UNL A   1      34.073  18.940  24.559  1.00  0.00     0.038 A 
ATOM     30  O   UNL A   1      31.822  18.229  24.304  1.00  0.00    -0.246 OA
ATOM     31  C   UNL A   1      34.583  17.646  23.976  1.00  0.00     0.052 C 
ENDBRANCH  17  18
ENDBRANCH  15  17
ENDBRANCH  12  15
ENDBRANCH   6  11
ENDBRANCH   3   6
ENDBRANCH   1   2
BRANCH   1  32
ATOM     32  C   UNL A   1      33.326  31.230  27.070  1.00  0.00     0.042 C 
BRANCH  32  33
ATOM     33  C   UNL A   1      32.570  32.766  27.327  1.00  0.00     0.118 C 
BRANCH  33  34
ATOM     34  N   UNL A   1      33.286  34.136  27.466  1.00  0.00    -0.352 N 
ATOM     35  C   UNL A   1      34.253  34.759  28.253  1.00  0.00     0.251 C 
ATOM     36  H   UNL A   1      32.953  34.761  26.783  1.00  0.00     0.163 HD
ATOM     37  O   UNL A   1      34.371  35.957  28.287  1.00  0.00    -0.269 OA
BRANCH  35  38
ATOM     38  C   UNL A   1      35.026  33.915  29.151  1.00  0.00     0.039 A 
ATOM     39  C   UNL A   1      34.383  33.031  30.040  1.00  0.00     0.014 A 
ATOM     40  C   UNL A   1      36.375  33.879  28.872  1.00  0.00     0.014 A 
ATOM     41  C   UNL A   1      35.124  31.990  30.583  1.00  0.00     0.010 A 
ATOM     42  C   UNL A   1      37.094  32.838  29.385  1.00  0.00     0.010 A 
ATOM     43  C   UNL A   1      36.473  31.897  30.231  1.00  0.00    -0.014 A 
BRANCH  43  44
ATOM     44  C   UNL A   1      37.410  30.965  30.856  1.00  0.00     0.031 A 
ATOM     45  C   UNL A   1      37.769  31.292  32.269  1.00  0.00     0.074 A 
ATOM     46  C   UNL A   1      38.103  30.107  30.092  1.00  0.00     0.049 A 
ATOM     47  N   UNL A   1      38.844  30.981  32.930  1.00  0.00    -0.248 NA
ATOM     48  C   UNL A   1      36.836  32.181  32.993  1.00  0.00     0.031 C 
ATOM     49  C   UNL A   1      37.838  29.801  28.684  1.00  0.00     0.029 A 
ATOM     50  N   UNL A   1      39.226  29.387  30.389  1.00  0.00    -0.354 N 
ATOM     51  C   UNL A   1      38.749  31.687  34.119  1.00  0.00     0.074 A 
ATOM     52  C   UNL A   1      37.530  32.458  34.086  1.00  0.00     0.031 C 
ATOM     53  C   UNL A   1      38.783  28.955  28.236  1.00  0.00     0.029 A 
ATOM     54  C   UNL A   1      39.738  28.703  29.312  1.00  0.00     0.049 A 
ATOM     55  H   UNL A   1      39.630  29.361  31.286  1.00  0.00     0.167 HD
ATOM     56  C   UNL A   1      39.610  31.670  35.156  1.00  0.00     0.034 A 
ATOM     57  C   UNL A   1      40.866  27.977  29.226  1.00  0.00     0.034 A 
ATOM     58  C   UNL A   1      40.774  30.839  35.182  1.00  0.00     0.049 A 
ATOM     59  C   UNL A   1      41.761  27.908  30.436  1.00  0.00     0.074 A 
ATOM     60  C   UNL A   1      41.668  30.648  36.216  1.00  0.00     0.029 A 
ATOM     61  N   UNL A   1      41.189  30.044  34.125  1.00  0.00    -0.354 N 
ATOM     62  N   UNL A   1      41.616  28.492  31.602  1.00  0.00    -0.248 NA
ATOM     63  C   UNL A   1      42.965  27.074  30.325  1.00  0.00     0.031 C 
ATOM     64  C   UNL A   1      42.620  29.720  35.787  1.00  0.00     0.029 A 
ATOM     65  C   UNL A   1      42.319  29.340  34.487  1.00  0.00     0.049 A 
ATOM     66  H   UNL A   1      40.746  29.990  33.248  1.00  0.00     0.167 HD
ATOM     67  C   UNL A   1      42.692  28.075  32.373  1.00  0.00     0.074 A 
ATOM     68  C   UNL A   1      43.473  27.176  31.546  1.00  0.00     0.031 C 
ATOM     69  C   UNL A   1      43.024  28.414  33.643  1.00  0.00     0.034 A 
BRANCH  56  70
ATOM     70  C   UNL A   1      39.270  32.486  36.363  1.00  0.00     0.023 A 
ATOM     71  C   UNL A   1      39.802  33.785  36.477  1.00  0.00     0.012 A 
ATOM     72  C   UNL A   1      38.373  32.007  37.335  1.00  0.00     0.148 A 
ATOM     73  C   UNL A   1      39.447  34.602  37.546  1.00  0.00     0.002 A 
ATOM     74  C   UNL A   1      37.998  32.841  38.381  1.00  0.00     0.091 A 
ATOM     75  F   UNL A   1      37.902  30.759  37.212  1.00  0.00    -0.205 F 
ATOM     76  C   UNL A   1      38.536  34.135  38.489  1.00  0.00     0.022 A 
BRANCH  74  77
ATOM     77  S   UNL A   1      36.794  32.361  39.623  1.00  0.00     0.127 S 
ATOM     78  O   UNL A   1      37.311  31.061  40.052  1.00  0.00    -0.237 OA
ATOM     79  O   UNL A   1      36.936  33.431  40.609  1.00  0.00    -0.237 OA
ATOM     80  O   UNL A   1      35.507  32.309  38.941  1.00  0.00    -0.744 OA
ENDBRANCH  74  77
ENDBRANCH  56  70
BRANCH  57  81
ATOM     81  C   UNL A   1      41.161  27.181  28.004  1.00  0.00     0.023 A 
ATOM     82  C   UNL A   1      41.655  27.863  26.873  1.00  0.00     0.012 A 
ATOM     83  C   UNL A   1      40.987  25.787  27.947  1.00  0.00     0.148 A 
ATOM     84  C   UNL A   1      41.945  27.174  25.696  1.00  0.00     0.002 A 
ATOM     85  C   UNL A   1      41.311  25.101  26.780  1.00  0.00     0.091 A 
ATOM     86  F   UNL A   1      40.516  25.160  29.033  1.00  0.00    -0.205 F 
ATOM     87  C   UNL A   1      41.778  25.794  25.651  1.00  0.00     0.022 A 
BRANCH  85  88
ATOM     88  S   UNL A   1      41.224  23.311  26.647  1.00  0.00     0.127 S 
ATOM     89  O   UNL A   1      39.793  23.096  26.451  1.00  0.00    -0.237 OA
ATOM     90  O   UNL A   1      42.054  23.057  25.471  1.00  0.00    -0.237 OA
ATOM     91  O   UNL A   1      41.775  22.800  27.896  1.00  0.00    -0.744 OA
ENDBRANCH  85  88
ENDBRANCH  57  81
BRANCH  69  92
ATOM     92  C   UNL A   1      44.262  27.798  34.224  1.00  0.00     0.023 A 
ATOM     93  C   UNL A   1      45.477  28.502  34.154  1.00  0.00     0.012 A 
ATOM     94  C   UNL A   1      44.187  26.591  34.943  1.00  0.00     0.148 A 
ATOM     95  C   UNL A   1      46.612  28.005  34.787  1.00  0.00     0.002 A 
ATOM     96  C   UNL A   1      45.313  26.121  35.603  1.00  0.00     0.091 A 
ATOM     97  F   UNL A   1      43.015  25.941  34.981  1.00  0.00    -0.205 F 
ATOM     98  C   UNL A   1      46.527  26.823  35.522  1.00  0.00     0.022 A 
BRANCH  96  99
ATOM     99  S   UNL A   1      45.275  24.657  36.641  1.00  0.00     0.127 S 
ATOM    100  O   UNL A   1      44.204  24.988  37.579  1.00  0.00    -0.237 OA
ATOM    101  O   UNL A   1      44.942  23.605  35.680  1.00  0.00    -0.237 OA
ATOM    102  O   UNL A   1      46.604  24.544  37.227  1.00  0.00    -0.744 OA
ENDBRANCH  96  99
ENDBRANCH  69  92
ENDBRANCH  43  44
ENDBRANCH  35  38
ENDBRANCH  33  34
ENDBRANCH  32  33
ENDBRANCH   1  32
TORSDOF 19
ENDMDL
MODEL 2
REMARK VINA RESULT:     -14.4      6.462     12.032
REMARK SMILES CC[C@H](C)[C@H](NC(=O)[C@H](C)Oc1ccc2c(C)c(C)c(=O)oc2c1C)C(=O)NCCCNC(=O)c1ccc(-c2c3nc(c(-c4cccc(S(=O)(=O)[O-])c4F)c4ccc([nH]4)c(-c4cccc(S(=O)(=O)[O-])c4F)c4nc(c(-c5cccc(S(=O)(=O)[O-])c5F)c5ccc2[nH]5)C=C4)C=C3)cc1
REMARK SMILES IDX 29 1 28 2 26 3 27 4 5 6 3 7 4 8 2 9 1 10 6 11 7 12 8 14 9 15
REMARK SMILES IDX 10 16 11 17 12 18 13 19 24 20 14 21 23 22 25 23 15 24 22 25
REMARK SMILES IDX 16 26 20 27 17 28 18 29 21 30 19 31 30 32 31 33 32 34 33 35
REMARK SMILES IDX 34 37 35 38 36 39 97 40 37 41 96 42 38 43 39 44 40 45 90 46
REMARK SMILES IDX 41 47 95 48 89 49 91 50 42 51 94 52 88 53 87 54 43 56 75 57
REMARK SMILES IDX 55 58 74 59 56 60 59 61 73 62 92 63 57 64 58 65 72 67 93 68
REMARK SMILES IDX 60 69 44 70 45 71 53 72 46 73 48 74 54 75 47 76 49 77 50 78
REMARK SMILES IDX 51 79 52 80 76 81 77 82 85 83 78 84 80 85 86 86 79 87 81 88
REMARK SMILES IDX 82 89 83 90 84 91 61 92 62 93 70 94 63 95 65 96 71 97 64 98
REMARK SMILES IDX 66 99 67 100 68 101 69 102
REMARK H PARENT 28 5 6 13 32 36 91 55 59 66
REMARK Flexibility Score: inf
ROOT
ATOM      1  C   UNL A   1      38.322  20.679  25.338  1.00  0.00     0.117 C 
ENDROOT
BRANCH   1   2
ATOM      2  N   UNL A   1      37.768  22.016  25.886  1.00  0.00    -0.354 N 
ATOM      3  C   UNL A   1      36.809  22.996  25.742  1.00  0.00     0.242 C 
ATOM      4  O   UNL A   1      37.095  24.174  25.964  1.00  0.00    -0.273 OA
ATOM      5  H   UNL A   1      38.331  22.272  26.652  1.00  0.00     0.163 HD
BRANCH   3   6
ATOM      6  C   UNL A   1      35.372  22.720  25.411  1.00  0.00     0.174 C 
BRANCH   6   7
ATOM      7  C   UNL A   1      35.005  21.353  26.067  1.00  0.00     0.018 C 
ATOM      8  C   UNL A   1      33.837  21.440  27.077  1.00  0.00     0.010 C 
BRANCH   7   9
ATOM      9  C   UNL A   1      34.675  20.268  24.986  1.00  0.00     0.002 C 
ATOM     10  C   UNL A   1      33.207  19.935  24.712  1.00  0.00     0.004 C 
ENDBRANCH   7   9
ENDBRANCH   6   7
BRANCH   6  11
ATOM     11  N   UNL A   1      35.361  22.893  24.001  1.00  0.00    -0.341 N 
ATOM     12  C   UNL A   1      34.240  23.429  23.395  1.00  0.00     0.261 C 
ATOM     13  H   UNL A   1      36.142  22.635  23.462  1.00  0.00     0.164 HD
ATOM     14  O   UNL A   1      34.230  23.368  22.160  1.00  0.00    -0.271 OA
BRANCH  12  15
ATOM     15  C   UNL A   1      32.929  24.160  24.329  1.00  0.00     0.258 C 
ATOM     16  C   UNL A   1      31.810  23.156  23.793  1.00  0.00     0.064 C 
BRANCH  15  17
ATOM     17  O   UNL A   1      32.502  25.687  24.954  1.00  0.00    -0.480 OA
BRANCH  17  18
ATOM     18  C   UNL A   1      31.952  27.000  24.526  1.00  0.00     0.127 A 
ATOM     19  C   UNL A   1      32.106  28.202  25.235  1.00  0.00     0.047 A 
ATOM     20  C   UNL A   1      31.276  27.322  23.303  1.00  0.00     0.035 A 
ATOM     21  C   UNL A   1      31.473  29.451  25.071  1.00  0.00     0.016 A 
ATOM     22  C   UNL A   1      30.528  28.588  23.165  1.00  0.00     0.145 A 
ATOM     23  C   UNL A   1      31.191  26.412  22.109  1.00  0.00     0.052 C 
ATOM     24  C   UNL A   1      30.586  29.640  24.064  1.00  0.00     0.021 A 
ATOM     25  O   UNL A   1      29.648  28.761  22.059  1.00  0.00    -0.422 OA
ATOM     26  C   UNL A   1      29.814  30.880  23.937  1.00  0.00    -0.030 A 
ATOM     27  C   UNL A   1      28.849  29.903  21.889  1.00  0.00     0.339 A 
ATOM     28  C   UNL A   1      29.978  31.948  25.005  1.00  0.00     0.045 C 
ATOM     29  C   UNL A   1      28.983  31.002  22.887  1.00  0.00     0.038 A 
ATOM     30  O   UNL A   1      28.071  29.985  20.944  1.00  0.00    -0.246 OA
ATOM     31  C   UNL A   1      28.158  32.245  22.664  1.00  0.00     0.052 C 
ENDBRANCH  17  18
ENDBRANCH  15  17
ENDBRANCH  12  15
ENDBRANCH   6  11
ENDBRANCH   3   6
ENDBRANCH   1   2
BRANCH   1  32
ATOM     32  C   UNL A   1      39.759  19.781  25.704  1.00  0.00     0.042 C 
BRANCH  32  33
ATOM     33  C   UNL A   1      41.352  19.852  26.377  1.00  0.00     0.118 C 
BRANCH  33  34
ATOM     34  N   UNL A   1      42.609  19.107  25.854  1.00  0.00    -0.352 N 
ATOM     35  C   UNL A   1      43.833  19.378  25.245  1.00  0.00     0.251 C 
ATOM     36  H   UNL A   1      42.511  18.138  25.997  1.00  0.00     0.163 HD
ATOM     37  O   UNL A   1      44.470  18.523  24.687  1.00  0.00    -0.269 OA
BRANCH  35  38
ATOM     38  C   UNL A   1      44.250  20.771  25.181  1.00  0.00     0.039 A 
ATOM     39  C   UNL A   1      44.257  21.464  23.955  1.00  0.00     0.014 A 
ATOM     40  C   UNL A   1      44.378  21.381  26.410  1.00  0.00     0.014 A 
ATOM     41  C   UNL A   1      44.279  22.852  23.984  1.00  0.00     0.010 A 
ATOM     42  C   UNL A   1      44.370  22.745  26.437  1.00  0.00     0.010 A 
ATOM     43  C   UNL A   1      44.317  23.477  25.233  1.00  0.00    -0.014 A 
BRANCH  43  44
ATOM     44  C   UNL A   1      44.518  24.914  25.413  1.00  0.00     0.031 A 
ATOM     45  C   UNL A   1      45.936  25.367  25.297  1.00  0.00     0.074 A 
ATOM     46  C   UNL A   1      43.540  25.658  25.952  1.00  0.00     0.049 A 
ATOM     47  N   UNL A   1      46.504  26.412  25.821  1.00  0.00    -0.248 NA
ATOM     48  C   UNL A   1      46.858  24.458  24.584  1.00  0.00     0.031 C 
ATOM     49  C   UNL A   1      42.151  25.240  26.154  1.00  0.00     0.029 A 
ATOM     50  N   UNL A   1      43.598  26.910  26.497  1.00  0.00    -0.354 N 
ATOM     51  C   UNL A   1      47.855  26.254  25.559  1.00  0.00     0.074 A 
ATOM     52  C   UNL A   1      48.032  25.009  24.852  1.00  0.00     0.031 C 
ATOM     53  C   UNL A   1      41.487  26.224  26.787  1.00  0.00     0.029 A 
ATOM     54  C   UNL A   1      42.417  27.312  27.074  1.00  0.00     0.049 A 
ATOM     55  H   UNL A   1      44.408  27.470  26.480  1.00  0.00     0.167 HD
ATOM     56  C   UNL A   1      48.858  27.099  25.873  1.00  0.00     0.034 A 
ATOM     57  C   UNL A   1      42.148  28.432  27.768  1.00  0.00     0.034 A 
ATOM     58  C   UNL A   1      48.637  28.359  26.513  1.00  0.00     0.049 A 
ATOM     59  C   UNL A   1      43.277  29.396  28.024  1.00  0.00     0.074 A 
ATOM     60  C   UNL A   1      49.554  29.353  26.788  1.00  0.00     0.029 A 
ATOM     61  N   UNL A   1      47.401  28.802  26.958  1.00  0.00    -0.354 N 
ATOM     62  N   UNL A   1      44.540  29.297  27.681  1.00  0.00    -0.248 NA
ATOM     63  C   UNL A   1      42.944  30.630  28.749  1.00  0.00     0.031 C 
ATOM     64  C   UNL A   1      48.865  30.410  27.389  1.00  0.00     0.029 A 
ATOM     65  C   UNL A   1      47.524  30.068  27.489  1.00  0.00     0.049 A 
ATOM     66  H   UNL A   1      46.562  28.290  26.903  1.00  0.00     0.167 HD
ATOM     67  C   UNL A   1      45.147  30.465  28.123  1.00  0.00     0.074 A 
ATOM     68  C   UNL A   1      44.110  31.264  28.744  1.00  0.00     0.031 C 
ATOM     69  C   UNL A   1      46.446  30.843  28.044  1.00  0.00     0.034 A 
BRANCH  56  70
ATOM     70  C   UNL A   1      50.243  26.733  25.442  1.00  0.00     0.023 A 
ATOM     71  C   UNL A   1      51.019  25.908  26.278  1.00  0.00     0.012 A 
ATOM     72  C   UNL A   1      50.745  27.135  24.191  1.00  0.00     0.148 A 
ATOM     73  C   UNL A   1      52.282  25.483  25.876  1.00  0.00     0.002 A 
ATOM     74  C   UNL A   1      51.992  26.680  23.782  1.00  0.00     0.091 A 
ATOM     75  F   UNL A   1      49.992  27.940  23.428  1.00  0.00    -0.205 F 
ATOM     76  C   UNL A   1      52.762  25.859  24.624  1.00  0.00     0.022 A 
BRANCH  74  77
ATOM     77  S   UNL A   1      52.686  27.060  22.171  1.00  0.00     0.127 S 
ATOM     78  O   UNL A   1      52.846  28.512  22.251  1.00  0.00    -0.237 OA
ATOM     79  O   UNL A   1      53.937  26.305  22.196  1.00  0.00    -0.237 OA
ATOM     80  O   UNL A   1      51.706  26.610  21.191  1.00  0.00    -0.744 OA
ENDBRANCH  74  77
ENDBRANCH  56  70
BRANCH  57  81
ATOM     81  C   UNL A   1      40.754  28.752  28.175  1.00  0.00     0.023 A 
ATOM     82  C   UNL A   1      39.853  29.173  27.177  1.00  0.00     0.012 A 
ATOM     83  C   UNL A   1      40.305  28.629  29.502  1.00  0.00     0.148 A 
ATOM     84  C   UNL A   1      38.534  29.494  27.497  1.00  0.00     0.002 A 
ATOM     85  C   UNL A   1      38.978  28.917  29.809  1.00  0.00     0.091 A 
ATOM     86  F   UNL A   1      41.179  28.228  30.435  1.00  0.00    -0.205 F 
ATOM     87  C   UNL A   1      38.096  29.361  28.810  1.00  0.00     0.022 A 
BRANCH  85  88
ATOM     88  S   UNL A   1      38.287  28.687  31.451  1.00  0.00     0.127 S 
ATOM     89  O   UNL A   1      39.049  29.657  32.234  1.00  0.00    -0.237 OA
ATOM     90  O   UNL A   1      36.883  29.034  31.237  1.00  0.00    -0.237 OA
ATOM     91  O   UNL A   1      38.518  27.287  31.780  1.00  0.00    -0.744 OA
ENDBRANCH  85  88
ENDBRANCH  57  81
BRANCH  69  92
ATOM     92  C   UNL A   1      46.816  32.179  28.615  1.00  0.00     0.023 A 
ATOM     93  C   UNL A   1      47.281  32.254  29.940  1.00  0.00     0.012 A 
ATOM     94  C   UNL A   1      46.821  33.325  27.800  1.00  0.00     0.148 A 
ATOM     95  C   UNL A   1      47.739  33.464  30.454  1.00  0.00     0.002 A 
ATOM     96  C   UNL A   1      47.315  34.519  28.308  1.00  0.00     0.091 A 
ATOM     97  F   UNL A   1      46.363  33.221  26.545  1.00  0.00    -0.205 F 
ATOM     98  C   UNL A   1      47.769  34.591  29.636  1.00  0.00     0.022 A 
BRANCH  96  99
ATOM     99  S   UNL A   1      47.471  35.997  27.302  1.00  0.00     0.127 S 
ATOM    100  O   UNL A   1      47.588  35.430  25.959  1.00  0.00    -0.237 OA
ATOM    101  O   UNL A   1      46.209  36.687  27.566  1.00  0.00    -0.237 OA
ATOM    102  O   UNL A   1      48.655  36.693  27.789  1.00  0.00    -0.744 OA
ENDBRANCH  96  99
ENDBRANCH  69  92
ENDBRANCH  43  44
ENDBRANCH  35  38
ENDBRANCH  33  34
ENDBRANCH  32  33
ENDBRANCH   1  32
TORSDOF 19
ENDMDL
MODEL 3
REMARK VINA RESULT:     -14.2      2.262      7.756
REMARK SMILES CC[C@H](C)[C@H](NC(=O)[C@H](C)Oc1ccc2c(C)c(C)c(=O)oc2c1C)C(=O)NCCCNC(=O)c1ccc(-c2c3nc(c(-c4cccc(S(=O)(=O)[O-])c4F)c4ccc([nH]4)c(-c4cccc(S(=O)(=O)[O-])c4F)c4nc(c(-c5cccc(S(=O)(=O)[O-])c5F)c5ccc2[nH]5)C=C4)C=C3)cc1
REMARK SMILES IDX 29 1 28 2 26 3 27 4 5 6 3 7 4 8 2 9 1 10 6 11 7 12 8 14 9 15
REMARK SMILES IDX 10 16 11 17 12 18 13 19 24 20 14 21 23 22 25 23 15 24 22 25
REMARK SMILES IDX 16 26 20 27 17 28 18 29 21 30 19 31 30 32 31 33 32 34 33 35
REMARK SMILES IDX 34 37 35 38 36 39 97 40 37 41 96 42 38 43 39 44 40 45 90 46
REMARK SMILES IDX 41 47 95 48 89 49 91 50 42 51 94 52 88 53 87 54 43 56 75 57
REMARK SMILES IDX 55 58 74 59 56 60 59 61 73 62 92 63 57 64 58 65 72 67 93 68
REMARK SMILES IDX 60 69 44 70 45 71 53 72 46 73 48 74 54 75 47 76 49 77 50 78
REMARK SMILES IDX 51 79 52 80 76 81 77 82 85 83 78 84 80 85 86 86 79 87 81 88
REMARK SMILES IDX 82 89 83 90 84 91 61 92 62 93 70 94 63 95 65 96 71 97 64 98
REMARK SMILES IDX 66 99 67 100 68 101 69 102
REMARK H PARENT 28 5 6 13 32 36 91 55 59 66
REMARK Flexibility Score: inf
ROOT
ATOM      1  C   UNL A   1      33.419  28.277  22.685  1.00  0.00     0.117 C 
ENDROOT
BRANCH   1   2
ATOM      2  N   UNL A   1      33.017  27.178  21.672  1.00  0.00    -0.354 N 
ATOM      3  C   UNL A   1      32.902  25.823  21.449  1.00  0.00     0.242 C 
ATOM      4  O   UNL A   1      33.148  25.359  20.333  1.00  0.00    -0.273 OA
ATOM      5  H   UNL A   1      32.721  27.634  20.851  1.00  0.00     0.163 HD
BRANCH   3   6
ATOM      6  C   UNL A   1      32.397  24.845  22.468  1.00  0.00     0.174 C 
BRANCH   6   7
ATOM      7  C   UNL A   1      33.022  23.458  22.122  1.00  0.00     0.018 C 
ATOM      8  C   UNL A   1      34.509  23.327  22.524  1.00  0.00     0.010 C 
BRANCH   7   9
ATOM      9  C   UNL A   1      32.206  22.285  22.765  1.00  0.00     0.002 C 
ATOM     10  C   UNL A   1      31.855  21.078  21.893  1.00  0.00     0.004 C 
ENDBRANCH   7   9
ENDBRANCH   6   7
BRANCH   6  11
ATOM     11  N   UNL A   1      30.994  25.063  22.409  1.00  0.00    -0.341 N 
ATOM     12  C   UNL A   1      30.317  25.425  23.558  1.00  0.00     0.261 C 
ATOM     13  H   UNL A   1      30.510  24.956  21.558  1.00  0.00     0.164 HD
ATOM     14  O   UNL A   1      29.083  25.406  23.469  1.00  0.00    -0.271 OA
BRANCH  12  15
ATOM     15  C   UNL A   1      31.165  25.895  25.036  1.00  0.00     0.258 C 
ATOM     16  C   UNL A   1      30.705  27.422  24.971  1.00  0.00     0.064 C 
BRANCH  15  17
ATOM     17  O   UNL A   1      32.555  25.440  25.911  1.00  0.00    -0.480 OA
BRANCH  17  18
ATOM     18  C   UNL A   1      33.601  24.385  25.956  1.00  0.00     0.127 A 
ATOM     19  C   UNL A   1      34.973  24.626  26.142  1.00  0.00     0.047 A 
ATOM     20  C   UNL A   1      33.428  22.962  25.931  1.00  0.00     0.035 A 
ATOM     21  C   UNL A   1      36.081  23.768  25.993  1.00  0.00     0.016 A 
ATOM     22  C   UNL A   1      34.573  22.066  25.675  1.00  0.00     0.145 A 
ATOM     23  C   UNL A   1      32.106  22.261  26.076  1.00  0.00     0.052 C 
ATOM     24  C   UNL A   1      35.899  22.467  25.661  1.00  0.00     0.021 A 
ATOM     25  O   UNL A   1      34.334  20.693  25.384  1.00  0.00    -0.422 OA
ATOM     26  C   UNL A   1      37.028  21.577  25.373  1.00  0.00    -0.030 A 
ATOM     27  C   UNL A   1      35.359  19.790  25.062  1.00  0.00     0.339 A 
ATOM     28  C   UNL A   1      38.432  22.159  25.390  1.00  0.00     0.045 C 
ATOM     29  C   UNL A   1      36.763  20.290  25.088  1.00  0.00     0.038 A 
ATOM     30  O   UNL A   1      35.097  18.626  24.772  1.00  0.00    -0.246 OA
ATOM     31  C   UNL A   1      37.858  19.296  24.792  1.00  0.00     0.052 C 
ENDBRANCH  17  18
ENDBRANCH  15  17
ENDBRANCH  12  15
ENDBRANCH   6  11
ENDBRANCH   3   6
ENDBRANCH   1   2
BRANCH   1  32
ATOM     32  C   UNL A   1      34.058  28.192  24.295  1.00  0.00     0.042 C 
BRANCH  32  33
ATOM     33  C   UNL A   1      34.052  28.906  25.871  1.00  0.00     0.118 C 
BRANCH  33  34
ATOM     34  N   UNL A   1      33.597  30.345  26.232  1.00  0.00    -0.352 N 
ATOM     35  C   UNL A   1      33.790  31.308  27.220  1.00  0.00     0.251 C 
ATOM     36  H   UNL A   1      32.978  30.685  25.547  1.00  0.00     0.163 HD
ATOM     37  O   UNL A   1      33.039  32.238  27.360  1.00  0.00    -0.269 OA
BRANCH  35  38
ATOM     38  C   UNL A   1      34.860  31.073  28.179  1.00  0.00     0.039 A 
ATOM     39  C   UNL A   1      35.194  29.764  28.578  1.00  0.00     0.014 A 
ATOM     40  C   UNL A   1      35.640  32.178  28.440  1.00  0.00     0.014 A 
ATOM     41  C   UNL A   1      36.433  29.552  29.168  1.00  0.00     0.010 A 
ATOM     42  C   UNL A   1      36.868  31.963  28.994  1.00  0.00     0.010 A 
ATOM     43  C   UNL A   1      37.265  30.659  29.352  1.00  0.00    -0.014 A 
BRANCH  43  44
ATOM     44  C   UNL A   1      38.514  30.615  30.111  1.00  0.00     0.031 A 
ATOM     45  C   UNL A   1      39.517  29.629  29.608  1.00  0.00     0.074 A 
ATOM     46  C   UNL A   1      38.574  31.184  31.325  1.00  0.00     0.049 A 
ATOM     47  N   UNL A   1      40.470  29.031  30.257  1.00  0.00    -0.248 NA
ATOM     48  C   UNL A   1      39.350  29.181  28.209  1.00  0.00     0.031 C 
ATOM     49  C   UNL A   1      37.585  32.101  31.895  1.00  0.00     0.029 A 
ATOM     50  N   UNL A   1      39.488  31.008  32.325  1.00  0.00    -0.354 N 
ATOM     51  C   UNL A   1      40.972  28.091  29.372  1.00  0.00     0.074 A 
ATOM     52  C   UNL A   1      40.212  28.178  28.148  1.00  0.00     0.031 C 
ATOM     53  C   UNL A   1      37.946  32.404  33.155  1.00  0.00     0.029 A 
ATOM     54  C   UNL A   1      39.161  31.664  33.487  1.00  0.00     0.049 A 
ATOM     55  H   UNL A   1      40.302  30.462  32.224  1.00  0.00     0.167 HD
ATOM     56  C   UNL A   1      41.999  27.240  29.570  1.00  0.00     0.034 A 
ATOM     57  C   UNL A   1      39.780  31.639  34.681  1.00  0.00     0.034 A 
ATOM     58  C   UNL A   1      42.775  27.230  30.771  1.00  0.00     0.049 A 
ATOM     59  C   UNL A   1      40.980  30.742  34.839  1.00  0.00     0.074 A 
ATOM     60  C   UNL A   1      43.907  26.494  31.054  1.00  0.00     0.029 A 
ATOM     61  N   UNL A   1      42.504  28.014  31.882  1.00  0.00    -0.354 N 
ATOM     62  N   UNL A   1      41.523  29.929  33.962  1.00  0.00    -0.248 NA
ATOM     63  C   UNL A   1      41.661  30.766  36.141  1.00  0.00     0.031 C 
ATOM     64  C   UNL A   1      44.332  26.847  32.338  1.00  0.00     0.029 A 
ATOM     65  C   UNL A   1      43.461  27.797  32.851  1.00  0.00     0.049 A 
ATOM     66  H   UNL A   1      41.742  28.632  31.967  1.00  0.00     0.167 HD
ATOM     67  C   UNL A   1      42.622  29.367  34.595  1.00  0.00     0.074 A 
ATOM     68  C   UNL A   1      42.679  29.943  35.924  1.00  0.00     0.031 C 
ATOM     69  C   UNL A   1      43.501  28.442  34.135  1.00  0.00     0.034 A 
BRANCH  56  70
ATOM     70  C   UNL A   1      42.393  26.342  28.440  1.00  0.00     0.023 A 
ATOM     71  C   UNL A   1      41.576  25.237  28.134  1.00  0.00     0.012 A 
ATOM     72  C   UNL A   1      43.514  26.629  27.640  1.00  0.00     0.148 A 
ATOM     73  C   UNL A   1      41.867  24.423  27.043  1.00  0.00     0.002 A 
ATOM     74  C   UNL A   1      43.778  25.833  26.533  1.00  0.00     0.091 A 
ATOM     75  F   UNL A   1      44.285  27.674  27.971  1.00  0.00    -0.205 F 
ATOM     76  C   UNL A   1      42.960  24.730  26.237  1.00  0.00     0.022 A 
BRANCH  74  77
ATOM     77  S   UNL A   1      45.128  26.165  25.398  1.00  0.00     0.127 S 
ATOM     78  O   UNL A   1      45.029  25.032  24.477  1.00  0.00    -0.237 OA
ATOM     79  O   UNL A   1      44.734  27.452  24.828  1.00  0.00    -0.237 OA
ATOM     80  O   UNL A   1      46.341  26.186  26.205  1.00  0.00    -0.744 OA
ENDBRANCH  74  77
ENDBRANCH  56  70
BRANCH  57  81
ATOM     81  C   UNL A   1      39.352  32.551  35.774  1.00  0.00     0.023 A 
ATOM     82  C   UNL A   1      38.408  32.072  36.705  1.00  0.00     0.012 A 
ATOM     83  C   UNL A   1      39.867  33.851  35.922  1.00  0.00     0.148 A 
ATOM     84  C   UNL A   1      37.961  32.882  37.748  1.00  0.00     0.002 A 
ATOM     85  C   UNL A   1      39.443  34.642  36.986  1.00  0.00     0.091 A 
ATOM     86  F   UNL A   1      40.763  34.286  35.026  1.00  0.00    -0.205 F 
ATOM     87  C   UNL A   1      38.482  34.163  37.892  1.00  0.00     0.022 A 
BRANCH  85  88
ATOM     88  S   UNL A   1      40.123  36.272  37.318  1.00  0.00     0.127 S 
ATOM     89  O   UNL A   1      41.488  35.949  37.724  1.00  0.00    -0.237 OA
ATOM     90  O   UNL A   1      40.002  36.918  36.012  1.00  0.00    -0.237 OA
ATOM     91  O   UNL A   1      39.274  36.845  38.355  1.00  0.00    -0.744 OA
ENDBRANCH  85  88
ENDBRANCH  57  81
BRANCH  69  92
ATOM     92  C   UNL A   1      44.605  28.016  35.057  1.00  0.00     0.023 A 
ATOM     93  C   UNL A   1      45.858  28.648  34.963  1.00  0.00     0.012 A 
ATOM     94  C   UNL A   1      44.357  27.091  36.087  1.00  0.00     0.148 A 
ATOM     95  C   UNL A   1      46.861  28.353  35.883  1.00  0.00     0.002 A 
ATOM     96  C   UNL A   1      45.349  26.831  37.022  1.00  0.00     0.091 A 
ATOM     97  F   UNL A   1      43.155  26.502  36.141  1.00  0.00    -0.205 F 
ATOM     98  C   UNL A   1      46.603  27.456  36.918  1.00  0.00     0.022 A 
BRANCH  96  99
ATOM     99  S   UNL A   1      45.077  25.759  38.435  1.00  0.00     0.127 S 
ATOM    100  O   UNL A   1      46.373  25.825  39.110  1.00  0.00    -0.237 OA
ATOM    101  O   UNL A   1      43.988  26.439  39.135  1.00  0.00    -0.237 OA
ATOM    102  O   UNL A   1      44.726  24.455  37.889  1.00  0.00    -0.744 OA
ENDBRANCH  96  99
ENDBRANCH  69  92
ENDBRANCH  43  44
ENDBRANCH  35  38
ENDBRANCH  33  34
ENDBRANCH  32  33
ENDBRANCH   1  32
TORSDOF 19
ENDMDL
