MODEL 1
REMARK VINA RESULT:     -11.9      0.000      0.000
REMARK SMILES O=C(C[C@H]1S/C(=[NH+]\N=C\c2cc(Br)ccc2OCc2ccccc2)NC1=O)NCCCNC(=O)c1ccc(-c2c3nc(c(-c4cccc(S(=O)(=O)[O-])c4F)c4ccc([nH]4)c(-c4cccc(S(=O)(=O)[O-])c4F)c4nc(c(-c5cccc(S(=O)(=O)[O-])c5F)c5ccc2[nH]5)C=C4)C=C3)cc1
REMARK SMILES IDX 1 1 2 2 28 3 3 5 4 6 5 7 26 8 6 9 25 10 27 11 7 12 8 15 9 16
REMARK SMILES IDX 10 17 11 18 16 19 12 20 15 21 13 22 14 23 17 24 18 25 19 26
REMARK SMILES IDX 20 27 24 28 21 29 23 30 22 31 29 32 30 33 31 34 32 35 33 36
REMARK SMILES IDX 34 38 35 39 36 40 97 41 37 42 96 43 38 44 39 45 40 46 90 47
REMARK SMILES IDX 41 48 95 49 89 50 91 51 42 52 94 53 88 54 87 55 43 57 75 58
REMARK SMILES IDX 55 59 74 60 56 61 59 62 73 63 92 64 57 65 58 66 72 68 93 69
REMARK SMILES IDX 60 70 44 71 45 72 53 73 46 74 48 75 54 76 47 77 49 78 50 79
REMARK SMILES IDX 51 80 52 81 76 82 77 83 85 84 78 85 80 86 86 87 79 88 81 89
REMARK SMILES IDX 82 90 83 91 84 92 61 93 62 94 70 95 63 96 65 97 71 98 64 99
REMARK SMILES IDX 66 100 67 101 68 102 69 103
REMARK H PARENT 28 4 25 13 7 14 32 37 91 56 59 67
REMARK Flexibility Score: inf
ROOT
ATOM      1  O   UNL A   1      32.680  29.134  22.900  1.00  0.00    -0.275 OA
ATOM      2  C   UNL A   1      31.588  28.776  23.329  1.00  0.00     0.221 C 
ATOM      3  N   UNL A   1      31.070  29.166  24.543  1.00  0.00    -0.356 N 
ATOM      4  H   UNL A   1      30.177  28.835  24.794  1.00  0.00     0.163 HD
ENDROOT
BRANCH   2   5
ATOM      5  C   UNL A   1      30.694  27.822  22.560  1.00  0.00     0.127 C 
BRANCH   5   6
ATOM      6  C   UNL A   1      30.667  26.393  23.097  1.00  0.00     0.183 C 
ATOM      7  S   UNL A   1      32.174  25.928  24.027  1.00  0.00    -0.020 SA
ATOM      8  C   UNL A   1      29.525  26.123  24.057  1.00  0.00     0.322 C 
ATOM      9  C   UNL A   1      31.280  25.505  25.452  1.00  0.00     0.337 C 
ATOM     10  N   UNL A   1      29.964  25.769  25.294  1.00  0.00    -0.202 N 
ATOM     11  O   UNL A   1      28.341  26.191  23.748  1.00  0.00    -0.246 OA
ATOM     12  N   UNL A   1      31.688  24.978  26.556  1.00  0.00    -0.142 N 
ATOM     13  H   UNL A   1      29.340  25.708  26.053  1.00  0.00     0.316 HD
ATOM     14  H   UNL A   1      31.106  24.910  27.347  1.00  0.00     0.343 HD
BRANCH  12  15
ATOM     15  N   UNL A   1      33.002  24.512  26.565  1.00  0.00    -0.093 NA
ATOM     16  C   UNL A   1      33.095  23.397  25.917  1.00  0.00     0.170 C 
BRANCH  16  17
ATOM     17  C   UNL A   1      34.392  22.810  25.579  1.00  0.00     0.040 A 
ATOM     18  C   UNL A   1      35.503  23.545  26.018  1.00  0.00     0.029 A 
ATOM     19  C   UNL A   1      34.555  21.580  24.922  1.00  0.00     0.128 A 
ATOM     20  C   UNL A   1      36.787  23.059  25.794  1.00  0.00     0.018 A 
ATOM     21  C   UNL A   1      35.865  21.132  24.684  1.00  0.00     0.048 A 
ATOM     22  Br  UNL A   1      38.284  24.025  26.424  1.00  0.00    -0.051 Br
ATOM     23  C   UNL A   1      36.976  21.858  25.121  1.00  0.00     0.019 A 
BRANCH  19  24
ATOM     24  O   UNL A   1      33.638  20.671  24.474  1.00  0.00    -0.488 OA
BRANCH  24  25
ATOM     25  C   UNL A   1      32.949  19.768  25.343  1.00  0.00     0.265 C 
BRANCH  25  26
ATOM     26  C   UNL A   1      33.263  18.304  25.110  1.00  0.00    -0.011 A 
ATOM     27  C   UNL A   1      32.319  17.336  25.487  1.00  0.00     0.007 A 
ATOM     28  C   UNL A   1      34.497  17.882  24.598  1.00  0.00     0.007 A 
ATOM     29  C   UNL A   1      32.648  15.981  25.463  1.00  0.00     0.000 A 
ATOM     30  C   UNL A   1      34.825  16.526  24.575  1.00  0.00     0.000 A 
ATOM     31  C   UNL A   1      33.909  15.579  25.027  1.00  0.00     0.000 A 
ENDBRANCH  25  26
ENDBRANCH  24  25
ENDBRANCH  19  24
ENDBRANCH  16  17
ENDBRANCH  12  15
ENDBRANCH   5   6
ENDBRANCH   2   5
BRANCH   3  32
ATOM     32  C   UNL A   1      31.763  30.036  25.472  1.00  0.00     0.117 C 
BRANCH  32  33
ATOM     33  C   UNL A   1      32.282  29.285  26.695  1.00  0.00     0.042 C 
BRANCH  33  34
ATOM     34  C   UNL A   1      33.650  29.729  27.212  1.00  0.00     0.118 C 
BRANCH  34  35
ATOM     35  N   UNL A   1      33.656  31.068  27.780  1.00  0.00    -0.352 N 
ATOM     36  C   UNL A   1      34.566  31.664  28.623  1.00  0.00     0.251 C 
ATOM     37  H   UNL A   1      32.894  31.634  27.522  1.00  0.00     0.163 HD
ATOM     38  O   UNL A   1      34.314  32.774  29.086  1.00  0.00    -0.269 OA
BRANCH  36  39
ATOM     39  C   UNL A   1      35.830  30.981  28.997  1.00  0.00     0.039 A 
ATOM     40  C   UNL A   1      37.034  31.478  28.489  1.00  0.00     0.014 A 
ATOM     41  C   UNL A   1      35.844  29.845  29.813  1.00  0.00     0.014 A 
ATOM     42  C   UNL A   1      38.246  30.875  28.844  1.00  0.00     0.010 A 
ATOM     43  C   UNL A   1      37.059  29.294  30.229  1.00  0.00     0.010 A 
ATOM     44  C   UNL A   1      38.276  29.797  29.745  1.00  0.00    -0.014 A 
BRANCH  44  45
ATOM     45  C   UNL A   1      39.573  29.226  30.201  1.00  0.00     0.031 A 
ATOM     46  C   UNL A   1      40.291  29.778  31.405  1.00  0.00     0.074 A 
ATOM     47  C   UNL A   1      40.140  28.226  29.494  1.00  0.00     0.049 A 
ATOM     48  N   UNL A   1      41.404  29.366  31.962  1.00  0.00    -0.248 NA
ATOM     49  C   UNL A   1      39.704  30.959  32.057  1.00  0.00     0.031 C 
ATOM     50  C   UNL A   1      39.606  27.665  28.251  1.00  0.00     0.029 A 
ATOM     51  N   UNL A   1      41.294  27.513  29.709  1.00  0.00    -0.354 N 
ATOM     52  C   UNL A   1      41.662  30.248  33.005  1.00  0.00     0.074 A 
ATOM     53  C   UNL A   1      40.610  31.242  32.981  1.00  0.00     0.031 C 
ATOM     54  C   UNL A   1      40.416  26.682  27.827  1.00  0.00     0.029 A 
ATOM     55  C   UNL A   1      41.539  26.556  28.752  1.00  0.00     0.049 A 
ATOM     56  H   UNL A   1      41.890  27.673  30.475  1.00  0.00     0.167 HD
ATOM     57  C   UNL A   1      42.661  30.218  33.921  1.00  0.00     0.034 A 
ATOM     58  C   UNL A   1      42.545  25.669  28.633  1.00  0.00     0.034 A 
ATOM     59  C   UNL A   1      43.688  29.209  33.969  1.00  0.00     0.049 A 
ATOM     60  C   UNL A   1      43.603  25.613  29.701  1.00  0.00     0.074 A 
ATOM     61  C   UNL A   1      44.689  29.043  34.909  1.00  0.00     0.029 A 
ATOM     62  N   UNL A   1      43.851  28.200  33.033  1.00  0.00    -0.354 N 
ATOM     63  N   UNL A   1      43.728  26.346  30.780  1.00  0.00    -0.248 NA
ATOM     64  C   UNL A   1      44.635  24.575  29.559  1.00  0.00     0.031 C 
ATOM     65  C   UNL A   1      45.473  27.948  34.529  1.00  0.00     0.029 A 
ATOM     66  C   UNL A   1      44.940  27.411  33.369  1.00  0.00     0.049 A 
ATOM     67  H   UNL A   1      43.277  28.063  32.244  1.00  0.00     0.167 HD
ATOM     68  C   UNL A   1      44.827  25.836  31.463  1.00  0.00     0.074 A 
ATOM     69  C   UNL A   1      45.313  24.713  30.689  1.00  0.00     0.031 C 
ATOM     70  C   UNL A   1      45.391  26.268  32.618  1.00  0.00     0.034 A 
BRANCH  57  71
ATOM     71  C   UNL A   1      42.662  31.282  34.992  1.00  0.00     0.023 A 
ATOM     72  C   UNL A   1      42.045  31.019  36.233  1.00  0.00     0.012 A 
ATOM     73  C   UNL A   1      43.326  32.510  34.800  1.00  0.00     0.148 A 
ATOM     74  C   UNL A   1      42.055  31.972  37.250  1.00  0.00     0.002 A 
ATOM     75  C   UNL A   1      43.372  33.437  35.836  1.00  0.00     0.091 A 
ATOM     76  F   UNL A   1      43.892  32.752  33.610  1.00  0.00    -0.205 F 
ATOM     77  C   UNL A   1      42.726  33.175  37.056  1.00  0.00     0.022 A 
BRANCH  75  78
ATOM     78  S   UNL A   1      44.280  34.983  35.715  1.00  0.00     0.127 S 
ATOM     79  O   UNL A   1      45.634  34.508  35.435  1.00  0.00    -0.237 OA
ATOM     80  O   UNL A   1      43.620  35.641  34.586  1.00  0.00    -0.237 OA
ATOM     81  O   UNL A   1      44.105  35.653  36.996  1.00  0.00    -0.744 OA
ENDBRANCH  75  78
ENDBRANCH  57  71
BRANCH  58  82
ATOM     82  C   UNL A   1      42.554  24.700  27.500  1.00  0.00     0.023 A 
ATOM     83  C   UNL A   1      43.145  25.069  26.276  1.00  0.00     0.012 A 
ATOM     84  C   UNL A   1      42.004  23.411  27.635  1.00  0.00     0.148 A 
ATOM     85  C   UNL A   1      43.155  24.187  25.195  1.00  0.00     0.002 A 
ATOM     86  C   UNL A   1      42.070  22.516  26.573  1.00  0.00     0.091 A 
ATOM     87  F   UNL A   1      41.437  23.082  28.805  1.00  0.00    -0.205 F 
ATOM     88  C   UNL A   1      42.627  22.908  25.347  1.00  0.00     0.022 A 
BRANCH  86  89
ATOM     89  S   UNL A   1      41.538  20.807  26.723  1.00  0.00     0.127 S 
ATOM     90  O   UNL A   1      40.105  20.959  26.958  1.00  0.00    -0.237 OA
ATOM     91  O   UNL A   1      41.894  20.265  25.412  1.00  0.00    -0.237 OA
ATOM     92  O   UNL A   1      42.307  20.253  27.830  1.00  0.00    -0.744 OA
ENDBRANCH  86  89
ENDBRANCH  58  82
BRANCH  70  93
ATOM     93  C   UNL A   1      46.582  25.501  33.137  1.00  0.00     0.023 A 
ATOM     94  C   UNL A   1      47.888  25.925  32.817  1.00  0.00     0.012 A 
ATOM     95  C   UNL A   1      46.408  24.381  33.972  1.00  0.00     0.148 A 
ATOM     96  C   UNL A   1      48.998  25.216  33.275  1.00  0.00     0.002 A 
ATOM     97  C   UNL A   1      47.520  23.710  34.470  1.00  0.00     0.091 A 
ATOM     98  F   UNL A   1      45.160  23.977  34.253  1.00  0.00    -0.205 F 
ATOM     99  C   UNL A   1      48.815  24.116  34.108  1.00  0.00     0.022 A 
BRANCH  97 100
ATOM    100  S   UNL A   1      47.374  22.343  35.626  1.00  0.00     0.127 S 
ATOM    101  O   UNL A   1      46.582  22.943  36.699  1.00  0.00    -0.237 OA
ATOM    102  O   UNL A   1      46.665  21.338  34.835  1.00  0.00    -0.237 OA
ATOM    103  O   UNL A   1      48.739  21.976  35.980  1.00  0.00    -0.744 OA
ENDBRANCH  97 100
ENDBRANCH  70  93
ENDBRANCH  44  45
ENDBRANCH  36  39
ENDBRANCH  34  35
ENDBRANCH  33  34
ENDBRANCH  32  33
ENDBRANCH   3  32
TORSDOF 19
ENDMDL
MODEL 2
REMARK VINA RESULT:     -11.5      1.057      7.525
REMARK SMILES O=C(C[C@H]1S/C(=[NH+]\N=C\c2cc(Br)ccc2OCc2ccccc2)NC1=O)NCCCNC(=O)c1ccc(-c2c3nc(c(-c4cccc(S(=O)(=O)[O-])c4F)c4ccc([nH]4)c(-c4cccc(S(=O)(=O)[O-])c4F)c4nc(c(-c5cccc(S(=O)(=O)[O-])c5F)c5ccc2[nH]5)C=C4)C=C3)cc1
REMARK SMILES IDX 1 1 2 2 28 3 3 5 4 6 5 7 26 8 6 9 25 10 27 11 7 12 8 15 9 16
REMARK SMILES IDX 10 17 11 18 16 19 12 20 15 21 13 22 14 23 17 24 18 25 19 26
REMARK SMILES IDX 20 27 24 28 21 29 23 30 22 31 29 32 30 33 31 34 32 35 33 36
REMARK SMILES IDX 34 38 35 39 36 40 97 41 37 42 96 43 38 44 39 45 40 46 90 47
REMARK SMILES IDX 41 48 95 49 89 50 91 51 42 52 94 53 88 54 87 55 43 57 75 58
REMARK SMILES IDX 55 59 74 60 56 61 59 62 73 63 92 64 57 65 58 66 72 68 93 69
REMARK SMILES IDX 60 70 44 71 45 72 53 73 46 74 48 75 54 76 47 77 49 78 50 79
REMARK SMILES IDX 51 80 52 81 76 82 77 83 85 84 78 85 80 86 86 87 79 88 81 89
REMARK SMILES IDX 82 90 83 91 84 92 61 93 62 94 70 95 63 96 65 97 71 98 64 99
REMARK SMILES IDX 66 100 67 101 68 102 69 103
REMARK H PARENT 28 4 25 13 7 14 32 37 91 56 59 67
REMARK Flexibility Score: inf
ROOT
ATOM      1  O   UNL A   1      32.187  29.049  22.391  1.00  0.00    -0.275 OA
ATOM      2  C   UNL A   1      31.350  28.884  23.271  1.00  0.00     0.221 C 
ATOM      3  N   UNL A   1      31.587  29.089  24.611  1.00  0.00    -0.356 N 
ATOM      4  H   UNL A   1      30.845  28.941  25.241  1.00  0.00     0.163 HD
ENDROOT
BRANCH   2   5
ATOM      5  C   UNL A   1      29.946  28.396  22.966  1.00  0.00     0.127 C 
BRANCH   5   6
ATOM      6  C   UNL A   1      29.776  26.879  22.972  1.00  0.00     0.183 C 
ATOM      7  S   UNL A   1      31.344  25.966  23.224  1.00  0.00    -0.020 SA
ATOM      8  C   UNL A   1      28.857  26.372  24.066  1.00  0.00     0.322 C 
ATOM      9  C   UNL A   1      30.739  25.120  24.613  1.00  0.00     0.337 C 
ATOM     10  N   UNL A   1      29.495  25.542  24.932  1.00  0.00    -0.202 N 
ATOM     11  O   UNL A   1      27.668  26.656  24.146  1.00  0.00    -0.246 OA
ATOM     12  N   UNL A   1      31.285  24.183  25.310  1.00  0.00    -0.142 N 
ATOM     13  H   UNL A   1      29.062  25.255  25.770  1.00  0.00     0.316 HD
ATOM     14  H   UNL A   1      30.898  23.875  26.162  1.00  0.00     0.343 HD
BRANCH  12  15
ATOM     15  N   UNL A   1      32.455  23.631  24.789  1.00  0.00    -0.093 NA
ATOM     16  C   UNL A   1      33.422  23.722  25.643  1.00  0.00     0.170 C 
BRANCH  16  17
ATOM     17  C   UNL A   1      34.691  23.022  25.445  1.00  0.00     0.040 A 
ATOM     18  C   UNL A   1      35.825  23.729  25.872  1.00  0.00     0.029 A 
ATOM     19  C   UNL A   1      34.804  21.722  24.928  1.00  0.00     0.128 A 
ATOM     20  C   UNL A   1      37.083  23.141  25.776  1.00  0.00     0.018 A 
ATOM     21  C   UNL A   1      36.091  21.170  24.816  1.00  0.00     0.048 A 
ATOM     22  Br  UNL A   1      38.607  24.073  26.393  1.00  0.00    -0.051 Br
ATOM     23  C   UNL A   1      37.225  21.866  25.242  1.00  0.00     0.019 A 
BRANCH  19  24
ATOM     24  O   UNL A   1      33.851  20.830  24.521  1.00  0.00    -0.488 OA
BRANCH  24  25
ATOM     25  C   UNL A   1      33.146  19.977  25.426  1.00  0.00     0.265 C 
BRANCH  25  26
ATOM     26  C   UNL A   1      33.304  18.496  25.151  1.00  0.00    -0.011 A 
ATOM     27  C   UNL A   1      34.153  18.081  24.113  1.00  0.00     0.007 A 
ATOM     28  C   UNL A   1      32.572  17.528  25.853  1.00  0.00     0.007 A 
ATOM     29  C   UNL A   1      34.178  16.746  23.710  1.00  0.00     0.000 A 
ATOM     30  C   UNL A   1      32.597  16.194  25.449  1.00  0.00     0.000 A 
ATOM     31  C   UNL A   1      33.382  15.808  24.365  1.00  0.00     0.000 A 
ENDBRANCH  25  26
ENDBRANCH  24  25
ENDBRANCH  19  24
ENDBRANCH  16  17
ENDBRANCH  12  15
ENDBRANCH   5   6
ENDBRANCH   2   5
BRANCH   3  32
ATOM     32  C   UNL A   1      32.867  29.509  25.147  1.00  0.00     0.117 C 
BRANCH  32  33
ATOM     33  C   UNL A   1      32.905  29.454  26.671  1.00  0.00     0.042 C 
BRANCH  33  34
ATOM     34  C   UNL A   1      34.220  29.893  27.316  1.00  0.00     0.118 C 
BRANCH  34  35
ATOM     35  N   UNL A   1      34.096  31.074  28.155  1.00  0.00    -0.352 N 
ATOM     36  C   UNL A   1      34.919  31.533  29.157  1.00  0.00     0.251 C 
ATOM     37  H   UNL A   1      33.303  31.630  27.977  1.00  0.00     0.163 HD
ATOM     38  O   UNL A   1      34.559  32.497  29.830  1.00  0.00    -0.269 OA
BRANCH  36  39
ATOM     39  C   UNL A   1      36.214  30.873  29.453  1.00  0.00     0.039 A 
ATOM     40  C   UNL A   1      37.378  31.397  28.880  1.00  0.00     0.014 A 
ATOM     41  C   UNL A   1      36.297  29.731  30.256  1.00  0.00     0.014 A 
ATOM     42  C   UNL A   1      38.620  30.815  29.159  1.00  0.00     0.010 A 
ATOM     43  C   UNL A   1      37.544  29.200  30.597  1.00  0.00     0.010 A 
ATOM     44  C   UNL A   1      38.721  29.731  30.048  1.00  0.00    -0.014 A 
BRANCH  44  45
ATOM     45  C   UNL A   1      40.054  29.181  30.424  1.00  0.00     0.031 A 
ATOM     46  C   UNL A   1      40.687  28.060  29.641  1.00  0.00     0.074 A 
ATOM     47  C   UNL A   1      40.683  29.664  31.516  1.00  0.00     0.049 A 
ATOM     48  N   UNL A   1      41.858  27.499  29.807  1.00  0.00    -0.248 NA
ATOM     49  C   UNL A   1      39.896  27.473  28.547  1.00  0.00     0.031 C 
ATOM     50  C   UNL A   1      40.140  30.676  32.424  1.00  0.00     0.029 A 
ATOM     51  N   UNL A   1      41.909  29.360  32.055  1.00  0.00    -0.354 N 
ATOM     52  C   UNL A   1      41.935  26.482  28.862  1.00  0.00     0.074 A 
ATOM     53  C   UNL A   1      40.675  26.476  28.151  1.00  0.00     0.031 C 
ATOM     54  C   UNL A   1      41.037  30.926  33.392  1.00  0.00     0.029 A 
ATOM     55  C   UNL A   1      42.207  30.078  33.190  1.00  0.00     0.049 A 
ATOM     56  H   UNL A   1      42.517  28.691  31.666  1.00  0.00     0.167 HD
ATOM     57  C   UNL A   1      42.969  25.649  28.586  1.00  0.00     0.034 A 
ATOM     58  C   UNL A   1      43.301  30.066  33.976  1.00  0.00     0.034 A 
ATOM     59  C   UNL A   1      44.237  25.676  29.268  1.00  0.00     0.049 A 
ATOM     60  C   UNL A   1      44.460  29.181  33.606  1.00  0.00     0.074 A 
ATOM     61  C   UNL A   1      45.375  24.935  29.002  1.00  0.00     0.029 A 
ATOM     62  N   UNL A   1      44.534  26.482  30.356  1.00  0.00    -0.354 N 
ATOM     63  N   UNL A   1      44.578  28.352  32.599  1.00  0.00    -0.248 NA
ATOM     64  C   UNL A   1      45.656  29.265  34.458  1.00  0.00     0.031 C 
ATOM     65  C   UNL A   1      46.352  25.274  29.945  1.00  0.00     0.029 A 
ATOM     66  C   UNL A   1      45.834  26.251  30.778  1.00  0.00     0.049 A 
ATOM     67  H   UNL A   1      43.912  27.124  30.770  1.00  0.00     0.167 HD
ATOM     68  C   UNL A   1      45.871  27.844  32.672  1.00  0.00     0.074 A 
ATOM     69  C   UNL A   1      46.505  28.483  33.807  1.00  0.00     0.031 C 
ATOM     70  C   UNL A   1      46.474  26.922  31.880  1.00  0.00     0.034 A 
BRANCH  57  71
ATOM     71  C   UNL A   1      42.795  24.667  27.452  1.00  0.00     0.023 A 
ATOM     72  C   UNL A   1      43.244  25.011  26.161  1.00  0.00     0.012 A 
ATOM     73  C   UNL A   1      42.250  23.387  27.673  1.00  0.00     0.148 A 
ATOM     74  C   UNL A   1      43.122  24.113  25.101  1.00  0.00     0.002 A 
ATOM     75  C   UNL A   1      42.174  22.479  26.622  1.00  0.00     0.091 A 
ATOM     76  F   UNL A   1      41.811  23.081  28.903  1.00  0.00    -0.205 F 
ATOM     77  C   UNL A   1      42.597  22.846  25.333  1.00  0.00     0.022 A 
BRANCH  75  78
ATOM     78  S   UNL A   1      41.590  20.794  26.834  1.00  0.00     0.127 S 
ATOM     79  O   UNL A   1      41.859  20.220  25.516  1.00  0.00    -0.237 OA
ATOM     80  O   UNL A   1      42.459  20.299  27.903  1.00  0.00    -0.237 OA
ATOM     81  O   UNL A   1      40.183  20.898  27.195  1.00  0.00    -0.744 OA
ENDBRANCH  75  78
ENDBRANCH  57  71
BRANCH  58  82
ATOM     82  C   UNL A   1      43.387  30.985  35.146  1.00  0.00     0.023 A 
ATOM     83  C   UNL A   1      43.000  30.525  36.420  1.00  0.00     0.012 A 
ATOM     84  C   UNL A   1      43.870  32.301  35.009  1.00  0.00     0.148 A 
ATOM     85  C   UNL A   1      43.057  31.369  37.530  1.00  0.00     0.002 A 
ATOM     86  C   UNL A   1      43.981  33.117  36.129  1.00  0.00     0.091 A 
ATOM     87  F   UNL A   1      44.224  32.723  33.787  1.00  0.00    -0.205 F 
ATOM     88  C   UNL A   1      43.557  32.660  37.386  1.00  0.00     0.022 A 
BRANCH  86  89
ATOM     89  S   UNL A   1      44.739  34.744  36.060  1.00  0.00     0.127 S 
ATOM     90  O   UNL A   1      44.828  35.092  37.476  1.00  0.00    -0.237 OA
ATOM     91  O   UNL A   1      46.019  34.453  35.414  1.00  0.00    -0.237 OA
ATOM     92  O   UNL A   1      43.837  35.564  35.262  1.00  0.00    -0.744 OA
ENDBRANCH  86  89
ENDBRANCH  58  82
BRANCH  70  93
ATOM     93  C   UNL A   1      47.906  26.570  32.193  1.00  0.00     0.023 A 
ATOM     94  C   UNL A   1      48.957  27.320  31.624  1.00  0.00     0.012 A 
ATOM     95  C   UNL A   1      48.213  25.518  33.077  1.00  0.00     0.148 A 
ATOM     96  C   UNL A   1      50.287  26.995  31.890  1.00  0.00     0.002 A 
ATOM     97  C   UNL A   1      49.540  25.234  33.380  1.00  0.00     0.091 A 
ATOM     98  F   UNL A   1      47.205  24.801  33.596  1.00  0.00    -0.205 F 
ATOM     99  C   UNL A   1      50.578  25.959  32.774  1.00  0.00     0.022 A 
BRANCH  97 100
ATOM    100  S   UNL A   1      49.999  23.981  34.583  1.00  0.00     0.127 S 
ATOM    101  O   UNL A   1      49.396  22.780  34.008  1.00  0.00    -0.237 OA
ATOM    102  O   UNL A   1      51.461  24.015  34.527  1.00  0.00    -0.237 OA
ATOM    103  O   UNL A   1      49.437  24.424  35.851  1.00  0.00    -0.744 OA
ENDBRANCH  97 100
ENDBRANCH  70  93
ENDBRANCH  44  45
ENDBRANCH  36  39
ENDBRANCH  34  35
ENDBRANCH  33  34
ENDBRANCH  32  33
ENDBRANCH   3  32
TORSDOF 19
ENDMDL
MODEL 3
REMARK VINA RESULT:     -11.2      1.725      2.583
REMARK SMILES O=C(C[C@H]1S/C(=[NH+]\N=C\c2cc(Br)ccc2OCc2ccccc2)NC1=O)NCCCNC(=O)c1ccc(-c2c3nc(c(-c4cccc(S(=O)(=O)[O-])c4F)c4ccc([nH]4)c(-c4cccc(S(=O)(=O)[O-])c4F)c4nc(c(-c5cccc(S(=O)(=O)[O-])c5F)c5ccc2[nH]5)C=C4)C=C3)cc1
REMARK SMILES IDX 1 1 2 2 28 3 3 5 4 6 5 7 26 8 6 9 25 10 27 11 7 12 8 15 9 16
REMARK SMILES IDX 10 17 11 18 16 19 12 20 15 21 13 22 14 23 17 24 18 25 19 26
REMARK SMILES IDX 20 27 24 28 21 29 23 30 22 31 29 32 30 33 31 34 32 35 33 36
REMARK SMILES IDX 34 38 35 39 36 40 97 41 37 42 96 43 38 44 39 45 40 46 90 47
REMARK SMILES IDX 41 48 95 49 89 50 91 51 42 52 94 53 88 54 87 55 43 57 75 58
REMARK SMILES IDX 55 59 74 60 56 61 59 62 73 63 92 64 57 65 58 66 72 68 93 69
REMARK SMILES IDX 60 70 44 71 45 72 53 73 46 74 48 75 54 76 47 77 49 78 50 79
REMARK SMILES IDX 51 80 52 81 76 82 77 83 85 84 78 85 80 86 86 87 79 88 81 89
REMARK SMILES IDX 82 90 83 91 84 92 61 93 62 94 70 95 63 96 65 97 71 98 64 99
REMARK SMILES IDX 66 100 67 101 68 102 69 103
REMARK H PARENT 28 4 25 13 7 14 32 37 91 56 59 67
REMARK Flexibility Score: inf
ROOT
ATOM      1  O   UNL A   1      31.673  28.648  25.219  1.00  0.00    -0.275 OA
ATOM      2  C   UNL A   1      32.713  28.980  24.661  1.00  0.00     0.221 C 
ATOM      3  N   UNL A   1      33.869  29.324  25.324  1.00  0.00    -0.356 N 
ATOM      4  H   UNL A   1      34.658  29.564  24.786  1.00  0.00     0.163 HD
ENDROOT
BRANCH   2   5
ATOM      5  C   UNL A   1      32.821  29.077  23.151  1.00  0.00     0.127 C 
BRANCH   5   6
ATOM      6  C   UNL A   1      32.248  27.886  22.387  1.00  0.00     0.183 C 
ATOM      7  S   UNL A   1      32.792  26.264  23.040  1.00  0.00    -0.020 SA
ATOM      8  C   UNL A   1      30.733  27.819  22.407  1.00  0.00     0.322 C 
ATOM      9  C   UNL A   1      31.166  25.713  23.293  1.00  0.00     0.337 C 
ATOM     10  N   UNL A   1      30.274  26.687  23.002  1.00  0.00    -0.202 N 
ATOM     11  O   UNL A   1      30.004  28.676  21.920  1.00  0.00    -0.246 OA
ATOM     12  N   UNL A   1      30.736  24.558  23.671  1.00  0.00    -0.142 N 
ATOM     13  H   UNL A   1      29.319  26.580  23.216  1.00  0.00     0.316 HD
ATOM     14  H   UNL A   1      29.793  24.407  23.911  1.00  0.00     0.343 HD
BRANCH  12  15
ATOM     15  N   UNL A   1      31.683  23.536  23.722  1.00  0.00    -0.093 NA
ATOM     16  C   UNL A   1      31.461  22.759  24.731  1.00  0.00     0.170 C 
BRANCH  16  17
ATOM     17  C   UNL A   1      32.162  21.484  24.889  1.00  0.00     0.040 A 
ATOM     18  C   UNL A   1      32.022  20.599  23.809  1.00  0.00     0.029 A 
ATOM     19  C   UNL A   1      32.971  21.158  25.988  1.00  0.00     0.128 A 
ATOM     20  C   UNL A   1      32.684  19.375  23.828  1.00  0.00     0.018 A 
ATOM     21  C   UNL A   1      33.600  19.902  25.990  1.00  0.00     0.048 A 
ATOM     22  Br  UNL A   1      32.534  18.200  22.355  1.00  0.00    -0.051 Br
ATOM     23  C   UNL A   1      33.468  19.016  24.918  1.00  0.00     0.019 A 
BRANCH  19  24
ATOM     24  O   UNL A   1      33.308  21.876  27.102  1.00  0.00    -0.488 OA
BRANCH  24  25
ATOM     25  C   UNL A   1      34.503  22.654  27.194  1.00  0.00     0.265 C 
BRANCH  25  26
ATOM     26  C   UNL A   1      35.325  22.701  25.922  1.00  0.00    -0.011 A 
ATOM     27  C   UNL A   1      34.997  23.640  24.932  1.00  0.00     0.007 A 
ATOM     28  C   UNL A   1      36.358  21.787  25.672  1.00  0.00     0.007 A 
ATOM     29  C   UNL A   1      35.607  23.588  23.678  1.00  0.00     0.000 A 
ATOM     30  C   UNL A   1      36.966  21.736  24.418  1.00  0.00     0.000 A 
ATOM     31  C   UNL A   1      36.575  22.621  23.416  1.00  0.00     0.000 A 
ENDBRANCH  25  26
ENDBRANCH  24  25
ENDBRANCH  19  24
ENDBRANCH  16  17
ENDBRANCH  12  15
ENDBRANCH   5   6
ENDBRANCH   2   5
BRANCH   3  32
ATOM     32  C   UNL A   1      33.991  29.352  26.768  1.00  0.00     0.117 C 
BRANCH  32  33
ATOM     33  C   UNL A   1      33.457  30.647  27.372  1.00  0.00     0.042 C 
BRANCH  33  34
ATOM     34  C   UNL A   1      34.514  31.680  27.761  1.00  0.00     0.118 C 
BRANCH  34  35
ATOM     35  N   UNL A   1      34.193  32.421  28.971  1.00  0.00    -0.352 N 
ATOM     36  C   UNL A   1      34.835  32.443  30.187  1.00  0.00     0.251 C 
ATOM     37  H   UNL A   1      33.395  32.994  28.909  1.00  0.00     0.163 HD
ATOM     38  O   UNL A   1      34.320  33.050  31.124  1.00  0.00    -0.269 OA
BRANCH  36  39
ATOM     39  C   UNL A   1      36.121  31.731  30.392  1.00  0.00     0.039 A 
ATOM     40  C   UNL A   1      37.296  32.322  29.916  1.00  0.00     0.014 A 
ATOM     41  C   UNL A   1      36.184  30.481  31.015  1.00  0.00     0.014 A 
ATOM     42  C   UNL A   1      38.529  31.691  30.116  1.00  0.00     0.010 A 
ATOM     43  C   UNL A   1      37.422  29.890  31.283  1.00  0.00     0.010 A 
ATOM     44  C   UNL A   1      38.610  30.484  30.832  1.00  0.00    -0.014 A 
BRANCH  44  45
ATOM     45  C   UNL A   1      39.932  29.869  31.133  1.00  0.00     0.031 A 
ATOM     46  C   UNL A   1      40.735  30.289  32.338  1.00  0.00     0.074 A 
ATOM     47  C   UNL A   1      40.443  28.953  30.284  1.00  0.00     0.049 A 
ATOM     48  N   UNL A   1      41.880  29.822  32.768  1.00  0.00    -0.248 NA
ATOM     49  C   UNL A   1      40.200  31.392  33.152  1.00  0.00     0.031 C 
ATOM     50  C   UNL A   1      39.822  28.528  29.028  1.00  0.00     0.029 A 
ATOM     51  N   UNL A   1      41.606  28.223  30.341  1.00  0.00    -0.354 N 
ATOM     52  C   UNL A   1      42.214  30.586  33.881  1.00  0.00     0.074 A 
ATOM     53  C   UNL A   1      41.169  31.575  34.037  1.00  0.00     0.031 C 
ATOM     54  C   UNL A   1      40.596  27.599  28.446  1.00  0.00     0.029 A 
ATOM     55  C   UNL A   1      41.779  27.376  29.272  1.00  0.00     0.049 A 
ATOM     56  H   UNL A   1      42.254  28.301  31.078  1.00  0.00     0.167 HD
ATOM     57  C   UNL A   1      43.274  30.459  34.717  1.00  0.00     0.034 A 
ATOM     58  C   UNL A   1      42.770  26.508  28.989  1.00  0.00     0.034 A 
ATOM     59  C   UNL A   1      44.296  29.453  34.585  1.00  0.00     0.049 A 
ATOM     60  C   UNL A   1      43.898  26.339  29.970  1.00  0.00     0.074 A 
ATOM     61  C   UNL A   1      45.359  29.188  35.430  1.00  0.00     0.029 A 
ATOM     62  N   UNL A   1      44.389  28.551  33.536  1.00  0.00    -0.354 N 
ATOM     63  N   UNL A   1      44.101  26.952  31.110  1.00  0.00    -0.248 NA
ATOM     64  C   UNL A   1      44.912  25.324  29.644  1.00  0.00     0.031 C 
ATOM     65  C   UNL A   1      46.109  28.141  34.880  1.00  0.00     0.029 A 
ATOM     66  C   UNL A   1      45.494  27.733  33.709  1.00  0.00     0.049 A 
ATOM     67  H   UNL A   1      43.761  28.499  32.779  1.00  0.00     0.167 HD
ATOM     68  C   UNL A   1      45.242  26.372  31.656  1.00  0.00     0.074 A 
ATOM     69  C   UNL A   1      45.667  25.341  30.733  1.00  0.00     0.031 C 
ATOM     70  C   UNL A   1      45.886  26.678  32.810  1.00  0.00     0.034 A 
BRANCH  57  71
ATOM     71  C   UNL A   1      43.355  31.401  35.894  1.00  0.00     0.023 A 
ATOM     72  C   UNL A   1      42.729  31.050  37.109  1.00  0.00     0.012 A 
ATOM     73  C   UNL A   1      44.099  32.594  35.824  1.00  0.00     0.148 A 
ATOM     74  C   UNL A   1      42.811  31.886  38.221  1.00  0.00     0.002 A 
ATOM     75  C   UNL A   1      44.215  33.402  36.950  1.00  0.00     0.091 A 
ATOM     76  F   UNL A   1      44.673  32.924  34.657  1.00  0.00    -0.205 F 
ATOM     77  C   UNL A   1      43.561  33.056  38.145  1.00  0.00     0.022 A 
BRANCH  75  78
ATOM     78  S   UNL A   1      45.226  34.887  36.981  1.00  0.00     0.127 S 
ATOM     79  O   UNL A   1      46.532  34.363  36.586  1.00  0.00    -0.237 OA
ATOM     80  O   UNL A   1      44.574  35.723  35.971  1.00  0.00    -0.237 OA
ATOM     81  O   UNL A   1      45.143  35.401  38.341  1.00  0.00    -0.744 OA
ENDBRANCH  75  78
ENDBRANCH  57  71
BRANCH  58  82
ATOM     82  C   UNL A   1      42.696  25.668  27.760  1.00  0.00     0.023 A 
ATOM     83  C   UNL A   1      43.238  26.153  26.554  1.00  0.00     0.012 A 
ATOM     84  C   UNL A   1      42.115  24.386  27.784  1.00  0.00     0.148 A 
ATOM     85  C   UNL A   1      43.169  25.393  25.386  1.00  0.00     0.002 A 
ATOM     86  C   UNL A   1      42.103  23.610  26.631  1.00  0.00     0.091 A 
ATOM     87  F   UNL A   1      41.595  23.946  28.940  1.00  0.00    -0.205 F 
ATOM     88  C   UNL A   1      42.612  24.118  25.427  1.00  0.00     0.022 A 
BRANCH  86  89
ATOM     89  S   UNL A   1      41.529  21.908  26.624  1.00  0.00     0.127 S 
ATOM     90  O   UNL A   1      40.084  22.078  26.755  1.00  0.00    -0.237 OA
ATOM     91  O   UNL A   1      41.980  21.443  25.312  1.00  0.00    -0.237 OA
ATOM     92  O   UNL A   1      42.195  21.264  27.749  1.00  0.00    -0.744 OA
ENDBRANCH  86  89
ENDBRANCH  58  82
BRANCH  70  93
ATOM     93  C   UNL A   1      47.106  25.862  33.160  1.00  0.00     0.023 A 
ATOM     94  C   UNL A   1      48.385  26.299  32.759  1.00  0.00     0.012 A 
ATOM     95  C   UNL A   1      46.988  24.680  33.916  1.00  0.00     0.148 A 
ATOM     96  C   UNL A   1      49.519  25.545  33.060  1.00  0.00     0.002 A 
ATOM     97  C   UNL A   1      48.128  23.962  34.259  1.00  0.00     0.091 A 
ATOM     98  F   UNL A   1      45.763  24.266  34.274  1.00  0.00    -0.205 F 
ATOM     99  C   UNL A   1      49.393  24.384  33.817  1.00  0.00     0.022 A 
BRANCH  97 100
ATOM    100  S   UNL A   1      48.063  22.509  35.314  1.00  0.00     0.127 S 
ATOM    101  O   UNL A   1      47.425  23.041  36.517  1.00  0.00    -0.237 OA
ATOM    102  O   UNL A   1      47.226  21.595  34.535  1.00  0.00    -0.237 OA
ATOM    103  O   UNL A   1      49.443  22.072  35.472  1.00  0.00    -0.744 OA
ENDBRANCH  97 100
ENDBRANCH  70  93
ENDBRANCH  44  45
ENDBRANCH  36  39
ENDBRANCH  34  35
ENDBRANCH  33  34
ENDBRANCH  32  33
ENDBRANCH   3  32
TORSDOF 19
ENDMDL
