MODEL 1
REMARK VINA RESULT:     -13.2      0.000      0.000
REMARK SMILES O=C(NCCCNC(=O)[C@H]1O[C@@H](Oc2c(-c3cc(O)c(O)c(O)c3)oc3cc(O)cc(O)c3c2=O)[C@H](O)[C@@H](O)[C@@H]1O)c1ccc(-c2c3nc(c(-c4cccc(S(=O)(=O)[O-])c4F)c4ccc([nH]4)c(-c4cccc(S(=O)(=O)[O-])c4F)c4nc(c(-c5cccc(S(=O)(=O)[O-])c5F)c5ccc2[nH]5)C=C4)C=C3)cc1
REMARK SMILES IDX 5 1 4 2 3 3 1 4 2 5 42 7 43 8 104 9 44 10 103 11 45 12 46 13
REMARK SMILES IDX 47 14 97 15 48 16 102 17 96 18 98 19 49 20 101 21 95 22
REMARK SMILES IDX 94 23 50 25 82 26 62 27 81 28 63 29 66 30 80 31 99 32 64 33
REMARK SMILES IDX 65 34 79 36 100 37 67 38 51 39 52 40 60 41 53 42 55 43 61 44
REMARK SMILES IDX 54 45 56 46 57 47 58 48 59 49 83 50 84 51 92 52 85 53 87 54
REMARK SMILES IDX 93 55 86 56 88 57 89 58 90 59 91 60 68 61 69 62 77 63 70 64
REMARK SMILES IDX 72 65 78 66 71 67 73 68 74 69 75 70 76 71 6 72 7 73 8 74
REMARK SMILES IDX 9 76 10 77 11 78 40 79 12 80 38 81 36 82 41 83 13 85 14 86
REMARK SMILES IDX 15 87 34 88 25 89 33 90 35 91 26 92 31 93 27 94 30 95 28 96
REMARK SMILES IDX 16 97 17 98 24 99 18 100 22 101 20 102 19 103 23 105 21 107
REMARK SMILES IDX 32 109 29 111 39 113 37 115
REMARK H PARENT 3 6 98 24 66 35 7 75 41 84 19 104 23 106 21 108 32 110 29 112
REMARK H PARENT 39 114 37 116
REMARK Flexibility Score: inf
ROOT
ATOM      1  C   UNL A   1      31.782  29.709  26.215  1.00  0.00     0.042 C 
ENDROOT
BRANCH   1   2
ATOM      2  C   UNL A   1      33.119  30.404  26.406  1.00  0.00     0.118 C 
BRANCH   2   3
ATOM      3  N   UNL A   1      32.956  31.821  26.710  1.00  0.00    -0.352 N 
ATOM      4  O   UNL A   1      33.230  33.691  27.938  1.00  0.00    -0.269 OA
ATOM      5  C   UNL A   1      33.651  32.586  27.611  1.00  0.00     0.251 C 
ATOM      6  H   UNL A   1      32.256  32.291  26.202  1.00  0.00     0.163 HD
BRANCH   5   7
ATOM      7  C   UNL A   1      34.900  32.045  28.178  1.00  0.00     0.039 A 
ATOM      8  C   UNL A   1      36.039  32.852  28.228  1.00  0.00     0.014 A 
ATOM      9  C   UNL A   1      34.936  30.732  28.646  1.00  0.00     0.014 A 
ATOM     10  C   UNL A   1      37.251  32.309  28.616  1.00  0.00     0.010 A 
ATOM     11  C   UNL A   1      36.134  30.219  29.143  1.00  0.00     0.010 A 
ATOM     12  C   UNL A   1      37.301  31.001  29.122  1.00  0.00    -0.014 A 
BRANCH  12  13
ATOM     13  C   UNL A   1      38.549  30.534  29.766  1.00  0.00     0.031 A 
ATOM     14  C   UNL A   1      39.436  29.518  29.115  1.00  0.00     0.074 A 
ATOM     15  C   UNL A   1      38.843  31.031  30.985  1.00  0.00     0.049 A 
ATOM     16  N   UNL A   1      40.534  28.981  29.578  1.00  0.00    -0.248 NA
ATOM     17  C   UNL A   1      39.045  29.030  27.782  1.00  0.00     0.031 C 
ATOM     18  C   UNL A   1      38.017  31.994  31.722  1.00  0.00     0.029 A 
ATOM     19  N   UNL A   1      39.893  30.783  31.829  1.00  0.00    -0.354 N 
ATOM     20  C   UNL A   1      40.941  28.058  28.624  1.00  0.00     0.074 A 
ATOM     21  C   UNL A   1      39.978  28.115  27.544  1.00  0.00     0.031 C 
ATOM     22  C   UNL A   1      38.590  32.257  32.903  1.00  0.00     0.029 A 
ATOM     23  C   UNL A   1      39.779  31.428  33.039  1.00  0.00     0.049 A 
ATOM     24  H   UNL A   1      40.652  30.203  31.593  1.00  0.00     0.167 HD
ATOM     25  C   UNL A   1      42.019  27.242  28.656  1.00  0.00     0.034 A 
ATOM     26  C   UNL A   1      40.517  31.324  34.158  1.00  0.00     0.034 A 
ATOM     27  C   UNL A   1      42.983  27.222  29.725  1.00  0.00     0.049 A 
ATOM     28  C   UNL A   1      41.702  30.407  34.154  1.00  0.00     0.074 A 
ATOM     29  C   UNL A   1      44.165  26.507  29.799  1.00  0.00     0.029 A 
ATOM     30  N   UNL A   1      42.864  27.921  30.916  1.00  0.00    -0.354 N 
ATOM     31  N   UNL A   1      42.165  29.667  33.176  1.00  0.00    -0.248 NA
ATOM     32  C   UNL A   1      42.479  30.321  35.397  1.00  0.00     0.031 C 
ATOM     33  C   UNL A   1      44.736  26.734  31.054  1.00  0.00     0.029 A 
ATOM     34  C   UNL A   1      43.929  27.623  31.748  1.00  0.00     0.049 A 
ATOM     35  H   UNL A   1      42.130  28.539  31.138  1.00  0.00     0.167 HD
ATOM     36  C   UNL A   1      43.297  29.040  33.680  1.00  0.00     0.074 A 
ATOM     37  C   UNL A   1      43.469  29.516  35.037  1.00  0.00     0.031 C 
ATOM     38  C   UNL A   1      44.108  28.136  33.081  1.00  0.00     0.034 A 
BRANCH  25  39
ATOM     39  C   UNL A   1      42.241  26.297  27.507  1.00  0.00     0.023 A 
ATOM     40  C   UNL A   1      43.031  26.694  26.410  1.00  0.00     0.012 A 
ATOM     41  C   UNL A   1      41.766  24.972  27.575  1.00  0.00     0.148 A 
ATOM     42  C   UNL A   1      43.337  25.789  25.394  1.00  0.00     0.002 A 
ATOM     43  C   UNL A   1      42.108  24.066  26.580  1.00  0.00     0.091 A 
ATOM     44  F   UNL A   1      40.999  24.623  28.619  1.00  0.00    -0.205 F 
ATOM     45  C   UNL A   1      42.887  24.473  25.485  1.00  0.00     0.022 A 
BRANCH  43  46
ATOM     46  S   UNL A   1      41.640  22.333  26.642  1.00  0.00     0.127 S 
ATOM     47  O   UNL A   1      42.201  21.837  25.385  1.00  0.00    -0.237 OA
ATOM     48  O   UNL A   1      42.334  21.871  27.843  1.00  0.00    -0.237 OA
ATOM     49  O   UNL A   1      40.187  22.309  26.724  1.00  0.00    -0.744 OA
ENDBRANCH  43  46
ENDBRANCH  25  39
BRANCH  26  50
ATOM     50  C   UNL A   1      40.137  32.096  35.374  1.00  0.00     0.023 A 
ATOM     51  C   UNL A   1      40.716  33.356  35.611  1.00  0.00     0.012 A 
ATOM     52  C   UNL A   1      39.187  31.592  36.285  1.00  0.00     0.148 A 
ATOM     53  C   UNL A   1      40.384  34.082  36.755  1.00  0.00     0.002 A 
ATOM     54  C   UNL A   1      38.814  32.348  37.387  1.00  0.00     0.091 A 
ATOM     55  F   UNL A   1      38.657  30.383  36.048  1.00  0.00    -0.205 F 
ATOM     56  C   UNL A   1      39.427  33.585  37.637  1.00  0.00     0.022 A 
BRANCH  54  57
ATOM     57  S   UNL A   1      37.488  31.844  38.487  1.00  0.00     0.127 S 
ATOM     58  O   UNL A   1      37.209  30.490  38.016  1.00  0.00    -0.237 OA
ATOM     59  O   UNL A   1      38.133  31.921  39.799  1.00  0.00    -0.237 OA
ATOM     60  O   UNL A   1      36.425  32.820  38.288  1.00  0.00    -0.744 OA
ENDBRANCH  54  57
ENDBRANCH  26  50
BRANCH  38  61
ATOM     61  C   UNL A   1      45.267  27.608  33.883  1.00  0.00     0.023 A 
ATOM     62  C   UNL A   1      46.486  28.313  33.892  1.00  0.00     0.012 A 
ATOM     63  C   UNL A   1      45.122  26.460  34.684  1.00  0.00     0.148 A 
ATOM     64  C   UNL A   1      47.556  27.865  34.666  1.00  0.00     0.002 A 
ATOM     65  C   UNL A   1      46.174  26.049  35.493  1.00  0.00     0.091 A 
ATOM     66  F   UNL A   1      43.957  25.798  34.646  1.00  0.00    -0.205 F 
ATOM     67  C   UNL A   1      47.395  26.743  35.475  1.00  0.00     0.022 A 
BRANCH  65  68
ATOM     68  S   UNL A   1      46.031  24.675  36.640  1.00  0.00     0.127 S 
ATOM     69  O   UNL A   1      45.816  23.551  35.731  1.00  0.00    -0.237 OA
ATOM     70  O   UNL A   1      47.338  24.689  37.297  1.00  0.00    -0.237 OA
ATOM     71  O   UNL A   1      44.908  24.991  37.513  1.00  0.00    -0.744 OA
ENDBRANCH  65  68
ENDBRANCH  38  61
ENDBRANCH  12  13
ENDBRANCH   5   7
ENDBRANCH   2   3
ENDBRANCH   1   2
BRANCH   1  72
ATOM     72  C   UNL A   1      31.768  28.842  24.971  1.00  0.00     0.117 C 
BRANCH  72  73
ATOM     73  N   UNL A   1      30.415  28.427  24.662  1.00  0.00    -0.354 N 
ATOM     74  C   UNL A   1      30.007  27.467  23.790  1.00  0.00     0.252 C 
ATOM     75  H   UNL A   1      29.699  28.899  25.144  1.00  0.00     0.163 HD
ATOM     76  O   UNL A   1      28.809  27.391  23.502  1.00  0.00    -0.272 OA
BRANCH  74  77
ATOM     77  C   UNL A   1      31.005  26.428  23.279  1.00  0.00     0.242 C 
ATOM     78  O   UNL A   1      30.515  25.088  23.161  1.00  0.00    -0.324 OA
ATOM     79  C   UNL A   1      31.539  26.892  21.915  1.00  0.00     0.184 C 
ATOM     80  C   UNL A   1      31.575  24.154  22.953  1.00  0.00     0.340 C 
ATOM     81  C   UNL A   1      32.774  26.055  21.599  1.00  0.00     0.181 C 
ATOM     82  C   UNL A   1      32.495  24.563  21.771  1.00  0.00     0.214 C 
BRANCH  79  83
ATOM     83  O   UNL A   1      31.869  28.281  21.848  1.00  0.00    -0.387 OA
ATOM     84  H   UNL A   1      31.470  28.669  21.054  1.00  0.00     0.211 HD
ENDBRANCH  79  83
BRANCH  80  85
ATOM     85  O   UNL A   1      31.180  22.766  22.792  1.00  0.00    -0.454 OA
BRANCH  85  86
ATOM     86  C   UNL A   1      31.831  21.759  23.491  1.00  0.00     0.214 A 
ATOM     87  C   UNL A   1      32.026  21.763  24.830  1.00  0.00     0.181 A 
ATOM     88  C   UNL A   1      32.085  20.459  22.777  1.00  0.00     0.239 A 
ATOM     89  O   UNL A   1      32.594  20.739  25.555  1.00  0.00    -0.452 OA
ATOM     90  C   UNL A   1      32.468  19.285  23.616  1.00  0.00     0.111 A 
ATOM     91  O   UNL A   1      31.956  20.397  21.560  1.00  0.00    -0.285 OA
ATOM     92  C   UNL A   1      32.723  19.514  24.967  1.00  0.00     0.146 A 
ATOM     93  C   UNL A   1      32.582  17.969  23.138  1.00  0.00     0.134 A 
ATOM     94  C   UNL A   1      33.117  18.481  25.821  1.00  0.00     0.094 A 
ATOM     95  C   UNL A   1      32.969  16.921  23.991  1.00  0.00     0.093 A 
ATOM     96  C   UNL A   1      33.240  17.193  25.327  1.00  0.00     0.123 A 
BRANCH  87  97
ATOM     97  C   UNL A   1      31.740  22.922  25.688  1.00  0.00     0.029 A 
ATOM     98  C   UNL A   1      32.763  23.873  25.874  1.00  0.00     0.062 A 
ATOM     99  C   UNL A   1      30.450  23.170  26.186  1.00  0.00     0.062 A 
ATOM    100  C   UNL A   1      32.444  25.121  26.388  1.00  0.00     0.162 A 
ATOM    101  C   UNL A   1      30.161  24.418  26.727  1.00  0.00     0.162 A 
ATOM    102  C   UNL A   1      31.140  25.404  26.774  1.00  0.00     0.200 A 
BRANCH 100 103
ATOM    103  O   UNL A   1      33.400  26.094  26.392  1.00  0.00    -0.504 OA
ATOM    104  H   UNL A   1      33.838  26.324  25.595  1.00  0.00     0.293 HD
ENDBRANCH 100 103
BRANCH 101 105
ATOM    105  O   UNL A   1      28.876  24.701  27.093  1.00  0.00    -0.504 OA
ATOM    106  H   UNL A   1      28.187  24.657  26.458  1.00  0.00     0.293 HD
ENDBRANCH 101 105
BRANCH 102 107
ATOM    107  O   UNL A   1      30.782  26.696  27.052  1.00  0.00    -0.502 OA
ATOM    108  H   UNL A   1      29.895  26.897  27.279  1.00  0.00     0.293 HD
ENDBRANCH 102 107
ENDBRANCH  87  97
BRANCH  93 109
ATOM    109  O   UNL A   1      32.297  17.672  21.835  1.00  0.00    -0.507 OA
ATOM    110  H   UNL A   1      31.500  17.979  21.449  1.00  0.00     0.293 HD
ENDBRANCH  93 109
BRANCH  96 111
ATOM    111  O   UNL A   1      33.623  16.221  26.201  1.00  0.00    -0.508 OA
ATOM    112  H   UNL A   1      32.996  15.597  26.512  1.00  0.00     0.293 HD
ENDBRANCH  96 111
ENDBRANCH  85  86
ENDBRANCH  80  85
BRANCH  81 113
ATOM    113  O   UNL A   1      33.216  26.312  20.245  1.00  0.00    -0.387 OA
ATOM    114  H   UNL A   1      33.738  25.558  19.928  1.00  0.00     0.211 HD
ENDBRANCH  81 113
BRANCH  82 115
ATOM    115  O   UNL A   1      33.743  23.856  21.766  1.00  0.00    -0.384 OA
ATOM    116  H   UNL A   1      34.366  24.304  21.172  1.00  0.00     0.211 HD
ENDBRANCH  82 115
ENDBRANCH  74  77
ENDBRANCH  72  73
ENDBRANCH   1  72
TORSDOF 24
ENDMDL
MODEL 2
REMARK VINA RESULT:     -12.7      1.476      7.660
REMARK SMILES O=C(NCCCNC(=O)[C@H]1O[C@@H](Oc2c(-c3cc(O)c(O)c(O)c3)oc3cc(O)cc(O)c3c2=O)[C@H](O)[C@@H](O)[C@@H]1O)c1ccc(-c2c3nc(c(-c4cccc(S(=O)(=O)[O-])c4F)c4ccc([nH]4)c(-c4cccc(S(=O)(=O)[O-])c4F)c4nc(c(-c5cccc(S(=O)(=O)[O-])c5F)c5ccc2[nH]5)C=C4)C=C3)cc1
REMARK SMILES IDX 5 1 4 2 3 3 1 4 2 5 42 7 43 8 104 9 44 10 103 11 45 12 46 13
REMARK SMILES IDX 47 14 97 15 48 16 102 17 96 18 98 19 49 20 101 21 95 22
REMARK SMILES IDX 94 23 50 25 82 26 62 27 81 28 63 29 66 30 80 31 99 32 64 33
REMARK SMILES IDX 65 34 79 36 100 37 67 38 51 39 52 40 60 41 53 42 55 43 61 44
REMARK SMILES IDX 54 45 56 46 57 47 58 48 59 49 83 50 84 51 92 52 85 53 87 54
REMARK SMILES IDX 93 55 86 56 88 57 89 58 90 59 91 60 68 61 69 62 77 63 70 64
REMARK SMILES IDX 72 65 78 66 71 67 73 68 74 69 75 70 76 71 6 72 7 73 8 74
REMARK SMILES IDX 9 76 10 77 11 78 40 79 12 80 38 81 36 82 41 83 13 85 14 86
REMARK SMILES IDX 15 87 34 88 25 89 33 90 35 91 26 92 31 93 27 94 30 95 28 96
REMARK SMILES IDX 16 97 17 98 24 99 18 100 22 101 20 102 19 103 23 105 21 107
REMARK SMILES IDX 32 109 29 111 39 113 37 115
REMARK H PARENT 3 6 98 24 66 35 7 75 41 84 19 104 23 106 21 108 32 110 29 112
REMARK H PARENT 39 114 37 116
REMARK Flexibility Score: inf
ROOT
ATOM      1  C   UNL A   1      31.779  30.006  26.244  1.00  0.00     0.042 C 
ENDROOT
BRANCH   1   2
ATOM      2  C   UNL A   1      33.039  30.459  26.962  1.00  0.00     0.118 C 
BRANCH   2   3
ATOM      3  N   UNL A   1      33.166  31.913  26.970  1.00  0.00    -0.352 N 
ATOM      4  O   UNL A   1      33.852  33.898  27.786  1.00  0.00    -0.269 OA
ATOM      5  C   UNL A   1      34.038  32.689  27.689  1.00  0.00     0.251 C 
ATOM      6  H   UNL A   1      32.543  32.400  26.383  1.00  0.00     0.163 HD
BRANCH   5   7
ATOM      7  C   UNL A   1      35.186  32.036  28.342  1.00  0.00     0.039 A 
ATOM      8  C   UNL A   1      36.378  32.747  28.509  1.00  0.00     0.014 A 
ATOM      9  C   UNL A   1      35.078  30.715  28.775  1.00  0.00     0.014 A 
ATOM     10  C   UNL A   1      37.505  32.098  28.982  1.00  0.00     0.010 A 
ATOM     11  C   UNL A   1      36.185  30.096  29.356  1.00  0.00     0.010 A 
ATOM     12  C   UNL A   1      37.408  30.781  29.453  1.00  0.00    -0.014 A 
BRANCH  12  13
ATOM     13  C   UNL A   1      38.555  30.200  30.186  1.00  0.00     0.031 A 
ATOM     14  C   UNL A   1      38.886  30.616  31.586  1.00  0.00     0.074 A 
ATOM     15  C   UNL A   1      39.321  29.304  29.531  1.00  0.00     0.049 A 
ATOM     16  N   UNL A   1      39.883  30.229  32.336  1.00  0.00    -0.248 NA
ATOM     17  C   UNL A   1      37.995  31.597  32.230  1.00  0.00     0.031 C 
ATOM     18  C   UNL A   1      39.106  28.865  28.147  1.00  0.00     0.029 A 
ATOM     19  N   UNL A   1      40.442  28.620  29.923  1.00  0.00    -0.354 N 
ATOM     20  C   UNL A   1      39.776  30.950  33.518  1.00  0.00     0.074 A 
ATOM     21  C   UNL A   1      38.605  31.792  33.394  1.00  0.00     0.031 C 
ATOM     22  C   UNL A   1      40.059  27.988  27.807  1.00  0.00     0.029 A 
ATOM     23  C   UNL A   1      40.991  27.859  28.917  1.00  0.00     0.049 A 
ATOM     24  H   UNL A   1      40.815  28.667  30.832  1.00  0.00     0.167 HD
ATOM     25  C   UNL A   1      40.587  30.907  34.600  1.00  0.00     0.034 A 
ATOM     26  C   UNL A   1      42.148  27.175  28.870  1.00  0.00     0.034 A 
ATOM     27  C   UNL A   1      41.730  30.039  34.717  1.00  0.00     0.049 A 
ATOM     28  C   UNL A   1      43.020  27.154  30.089  1.00  0.00     0.074 A 
ATOM     29  C   UNL A   1      42.550  29.847  35.814  1.00  0.00     0.029 A 
ATOM     30  N   UNL A   1      42.234  29.247  33.697  1.00  0.00    -0.354 N 
ATOM     31  N   UNL A   1      42.811  27.710  31.258  1.00  0.00    -0.248 NA
ATOM     32  C   UNL A   1      44.275  26.398  29.995  1.00  0.00     0.031 C 
ATOM     33  C   UNL A   1      43.579  28.976  35.444  1.00  0.00     0.029 A 
ATOM     34  C   UNL A   1      43.376  28.595  34.126  1.00  0.00     0.049 A 
ATOM     35  H   UNL A   1      41.836  29.160  32.800  1.00  0.00     0.167 HD
ATOM     36  C   UNL A   1      43.901  27.359  32.043  1.00  0.00     0.074 A 
ATOM     37  C   UNL A   1      44.747  26.511  31.229  1.00  0.00     0.031 C 
ATOM     38  C   UNL A   1      44.186  27.723  33.316  1.00  0.00     0.034 A 
BRANCH  25  39
ATOM     39  C   UNL A   1      40.282  31.811  35.764  1.00  0.00     0.023 A 
ATOM     40  C   UNL A   1      41.027  32.991  35.954  1.00  0.00     0.012 A 
ATOM     41  C   UNL A   1      39.175  31.548  36.595  1.00  0.00     0.148 A 
ATOM     42  C   UNL A   1      40.680  33.892  36.961  1.00  0.00     0.002 A 
ATOM     43  C   UNL A   1      38.812  32.469  37.569  1.00  0.00     0.091 A 
ATOM     44  F   UNL A   1      38.493  30.409  36.407  1.00  0.00    -0.205 F 
ATOM     45  C   UNL A   1      39.566  33.638  37.758  1.00  0.00     0.022 A 
BRANCH  43  46
ATOM     46  S   UNL A   1      37.353  32.271  38.598  1.00  0.00     0.127 S 
ATOM     47  O   UNL A   1      37.807  32.855  39.859  1.00  0.00    -0.237 OA
ATOM     48  O   UNL A   1      36.360  33.067  37.879  1.00  0.00    -0.237 OA
ATOM     49  O   UNL A   1      37.080  30.841  38.640  1.00  0.00    -0.744 OA
ENDBRANCH  43  46
ENDBRANCH  25  39
BRANCH  26  50
ATOM     50  C   UNL A   1      42.550  26.476  27.618  1.00  0.00     0.023 A 
ATOM     51  C   UNL A   1      42.959  27.226  26.500  1.00  0.00     0.012 A 
ATOM     52  C   UNL A   1      42.546  25.069  27.540  1.00  0.00     0.148 A 
ATOM     53  C   UNL A   1      43.321  26.585  25.314  1.00  0.00     0.002 A 
ATOM     54  C   UNL A   1      42.968  24.438  26.379  1.00  0.00     0.091 A 
ATOM     55  F   UNL A   1      42.140  24.373  28.612  1.00  0.00    -0.205 F 
ATOM     56  C   UNL A   1      43.336  25.194  25.256  1.00  0.00     0.022 A 
BRANCH  54  57
ATOM     57  S   UNL A   1      43.154  22.655  26.273  1.00  0.00     0.127 S 
ATOM     58  O   UNL A   1      42.268  22.200  27.342  1.00  0.00    -0.237 OA
ATOM     59  O   UNL A   1      42.678  22.378  24.917  1.00  0.00    -0.237 OA
ATOM     60  O   UNL A   1      44.574  22.399  26.470  1.00  0.00    -0.744 OA
ENDBRANCH  54  57
ENDBRANCH  26  50
BRANCH  38  61
ATOM     61  C   UNL A   1      45.461  27.195  33.917  1.00  0.00     0.023 A 
ATOM     62  C   UNL A   1      46.634  27.972  33.857  1.00  0.00     0.012 A 
ATOM     63  C   UNL A   1      45.475  25.967  34.605  1.00  0.00     0.148 A 
ATOM     64  C   UNL A   1      47.812  27.520  34.449  1.00  0.00     0.002 A 
ATOM     65  C   UNL A   1      46.639  25.548  35.239  1.00  0.00     0.091 A 
ATOM     66  F   UNL A   1      44.350  25.239  34.636  1.00  0.00    -0.205 F 
ATOM     67  C   UNL A   1      47.811  26.317  35.150  1.00  0.00     0.022 A 
BRANCH  65  68
ATOM     68  S   UNL A   1      46.710  24.062  36.245  1.00  0.00     0.127 S 
ATOM     69  O   UNL A   1      48.100  24.078  36.699  1.00  0.00    -0.237 OA
ATOM     70  O   UNL A   1      45.723  24.350  37.285  1.00  0.00    -0.237 OA
ATOM     71  O   UNL A   1      46.359  22.958  35.362  1.00  0.00    -0.744 OA
ENDBRANCH  65  68
ENDBRANCH  38  61
ENDBRANCH  12  13
ENDBRANCH   5   7
ENDBRANCH   2   3
ENDBRANCH   1   2
BRANCH   1  72
ATOM     72  C   UNL A   1      31.963  28.655  25.579  1.00  0.00     0.117 C 
BRANCH  72  73
ATOM     73  N   UNL A   1      30.749  28.264  24.890  1.00  0.00    -0.354 N 
ATOM     74  C   UNL A   1      30.601  27.343  23.903  1.00  0.00     0.252 C 
ATOM     75  H   UNL A   1      29.927  28.724  25.173  1.00  0.00     0.163 HD
ATOM     76  O   UNL A   1      29.531  27.288  23.291  1.00  0.00    -0.272 OA
BRANCH  74  77
ATOM     77  C   UNL A   1      31.704  26.315  23.648  1.00  0.00     0.242 C 
ATOM     78  O   UNL A   1      31.651  25.123  24.440  1.00  0.00    -0.324 OA
ATOM     79  C   UNL A   1      31.683  25.933  22.160  1.00  0.00     0.184 C 
ATOM     80  C   UNL A   1      32.857  24.366  24.338  1.00  0.00     0.340 C 
ATOM     81  C   UNL A   1      32.990  25.207  21.856  1.00  0.00     0.181 C 
ATOM     82  C   UNL A   1      33.254  24.089  22.863  1.00  0.00     0.214 C 
BRANCH  79  83
ATOM     83  O   UNL A   1      31.526  27.036  21.266  1.00  0.00    -0.387 OA
ATOM     84  H   UNL A   1      32.046  26.877  20.463  1.00  0.00     0.211 HD
ENDBRANCH  79  83
BRANCH  80  85
ATOM     85  O   UNL A   1      32.895  23.121  25.084  1.00  0.00    -0.454 OA
BRANCH  85  86
ATOM     86  C   UNL A   1      34.103  22.498  25.363  1.00  0.00     0.214 A 
ATOM     87  C   UNL A   1      34.435  21.256  24.940  1.00  0.00     0.181 A 
ATOM     88  C   UNL A   1      35.217  23.341  25.921  1.00  0.00     0.239 A 
ATOM     89  O   UNL A   1      35.656  20.650  25.135  1.00  0.00    -0.452 OA
ATOM     90  C   UNL A   1      36.590  22.755  25.900  1.00  0.00     0.111 A 
ATOM     91  O   UNL A   1      34.975  24.464  26.349  1.00  0.00    -0.285 OA
ATOM     92  C   UNL A   1      36.715  21.419  25.523  1.00  0.00     0.146 A 
ATOM     93  C   UNL A   1      37.760  23.460  26.227  1.00  0.00     0.134 A 
ATOM     94  C   UNL A   1      37.956  20.779  25.504  1.00  0.00     0.094 A 
ATOM     95  C   UNL A   1      39.015  22.828  26.202  1.00  0.00     0.093 A 
ATOM     96  C   UNL A   1      39.098  21.486  25.846  1.00  0.00     0.123 A 
BRANCH  87  97
ATOM     97  C   UNL A   1      33.487  20.338  24.291  1.00  0.00     0.029 A 
ATOM     98  C   UNL A   1      32.752  20.820  23.191  1.00  0.00     0.062 A 
ATOM     99  C   UNL A   1      33.419  18.980  24.643  1.00  0.00     0.062 A 
ATOM    100  C   UNL A   1      32.110  19.917  22.357  1.00  0.00     0.162 A 
ATOM    101  C   UNL A   1      32.742  18.097  23.809  1.00  0.00     0.162 A 
ATOM    102  C   UNL A   1      32.139  18.559  22.644  1.00  0.00     0.200 A 
BRANCH 100 103
ATOM    103  O   UNL A   1      31.558  20.374  21.195  1.00  0.00    -0.504 OA
ATOM    104  H   UNL A   1      31.459  21.294  21.053  1.00  0.00     0.293 HD
ENDBRANCH 100 103
BRANCH 101 105
ATOM    105  O   UNL A   1      32.783  16.761  24.084  1.00  0.00    -0.504 OA
ATOM    106  H   UNL A   1      32.283  16.160  23.565  1.00  0.00     0.293 HD
ENDBRANCH 101 105
BRANCH 102 107
ATOM    107  O   UNL A   1      31.715  17.658  21.703  1.00  0.00    -0.502 OA
ATOM    108  H   UNL A   1      30.828  17.677  21.403  1.00  0.00     0.293 HD
ENDBRANCH 102 107
ENDBRANCH  87  97
BRANCH  93 109
ATOM    109  O   UNL A   1      37.709  24.785  26.556  1.00  0.00    -0.507 OA
ATOM    110  H   UNL A   1      36.893  25.175  26.798  1.00  0.00     0.293 HD
ENDBRANCH  93 109
BRANCH  96 111
ATOM    111  O   UNL A   1      40.283  20.817  25.807  1.00  0.00    -0.508 OA
ATOM    112  H   UNL A   1      40.564  20.408  25.012  1.00  0.00     0.293 HD
ENDBRANCH  96 111
ENDBRANCH  85  86
ENDBRANCH  80  85
BRANCH  81 113
ATOM    113  O   UNL A   1      32.953  24.656  20.518  1.00  0.00    -0.387 OA
ATOM    114  H   UNL A   1      33.603  23.939  20.447  1.00  0.00     0.211 HD
ENDBRANCH  81 113
BRANCH  82 115
ATOM    115  O   UNL A   1      34.612  23.653  22.723  1.00  0.00    -0.384 OA
ATOM    116  H   UNL A   1      34.894  23.760  21.801  1.00  0.00     0.211 HD
ENDBRANCH  82 115
ENDBRANCH  74  77
ENDBRANCH  72  73
ENDBRANCH   1  72
TORSDOF 24
ENDMDL
MODEL 3
REMARK VINA RESULT:     -12.6      5.085      8.544
REMARK SMILES O=C(NCCCNC(=O)[C@H]1O[C@@H](Oc2c(-c3cc(O)c(O)c(O)c3)oc3cc(O)cc(O)c3c2=O)[C@H](O)[C@@H](O)[C@@H]1O)c1ccc(-c2c3nc(c(-c4cccc(S(=O)(=O)[O-])c4F)c4ccc([nH]4)c(-c4cccc(S(=O)(=O)[O-])c4F)c4nc(c(-c5cccc(S(=O)(=O)[O-])c5F)c5ccc2[nH]5)C=C4)C=C3)cc1
REMARK SMILES IDX 5 1 4 2 3 3 1 4 2 5 42 7 43 8 104 9 44 10 103 11 45 12 46 13
REMARK SMILES IDX 47 14 97 15 48 16 102 17 96 18 98 19 49 20 101 21 95 22
REMARK SMILES IDX 94 23 50 25 82 26 62 27 81 28 63 29 66 30 80 31 99 32 64 33
REMARK SMILES IDX 65 34 79 36 100 37 67 38 51 39 52 40 60 41 53 42 55 43 61 44
REMARK SMILES IDX 54 45 56 46 57 47 58 48 59 49 83 50 84 51 92 52 85 53 87 54
REMARK SMILES IDX 93 55 86 56 88 57 89 58 90 59 91 60 68 61 69 62 77 63 70 64
REMARK SMILES IDX 72 65 78 66 71 67 73 68 74 69 75 70 76 71 6 72 7 73 8 74
REMARK SMILES IDX 9 76 10 77 11 78 40 79 12 80 38 81 36 82 41 83 13 85 14 86
REMARK SMILES IDX 15 87 34 88 25 89 33 90 35 91 26 92 31 93 27 94 30 95 28 96
REMARK SMILES IDX 16 97 17 98 24 99 18 100 22 101 20 102 19 103 23 105 21 107
REMARK SMILES IDX 32 109 29 111 39 113 37 115
REMARK H PARENT 3 6 98 24 66 35 7 75 41 84 19 104 23 106 21 108 32 110 29 112
REMARK H PARENT 39 114 37 116
REMARK Flexibility Score: inf
ROOT
ATOM      1  C   UNL A   1      36.699  21.223  24.687  1.00  0.00     0.042 C 
ENDROOT
BRANCH   1   2
ATOM      2  C   UNL A   1      37.861  21.873  25.418  1.00  0.00     0.118 C 
BRANCH   2   3
ATOM      3  N   UNL A   1      38.619  20.904  26.202  1.00  0.00    -0.352 N 
ATOM      4  O   UNL A   1      40.452  20.107  27.243  1.00  0.00    -0.269 OA
ATOM      5  C   UNL A   1      39.817  21.079  26.846  1.00  0.00     0.251 C 
ATOM      6  H   UNL A   1      38.219  20.008  26.279  1.00  0.00     0.163 HD
BRANCH   5   7
ATOM      7  C   UNL A   1      40.320  22.451  27.037  1.00  0.00     0.039 A 
ATOM      8  C   UNL A   1      41.385  22.677  27.913  1.00  0.00     0.014 A 
ATOM      9  C   UNL A   1      39.722  23.510  26.354  1.00  0.00     0.014 A 
ATOM     10  C   UNL A   1      41.764  23.974  28.214  1.00  0.00     0.010 A 
ATOM     11  C   UNL A   1      40.181  24.808  26.574  1.00  0.00     0.010 A 
ATOM     12  C   UNL A   1      41.198  25.049  27.513  1.00  0.00    -0.014 A 
BRANCH  12  13
ATOM     13  C   UNL A   1      41.797  26.393  27.667  1.00  0.00     0.031 A 
ATOM     14  C   UNL A   1      43.147  26.721  27.107  1.00  0.00     0.074 A 
ATOM     15  C   UNL A   1      41.096  27.310  28.365  1.00  0.00     0.049 A 
ATOM     16  N   UNL A   1      43.817  27.838  27.201  1.00  0.00    -0.248 NA
ATOM     17  C   UNL A   1      43.843  25.664  26.354  1.00  0.00     0.031 C 
ATOM     18  C   UNL A   1      39.788  27.073  28.988  1.00  0.00     0.029 A 
ATOM     19  N   UNL A   1      41.386  28.608  28.691  1.00  0.00    -0.354 N 
ATOM     20  C   UNL A   1      45.032  27.611  26.568  1.00  0.00     0.074 A 
ATOM     21  C   UNL A   1      45.004  26.248  26.078  1.00  0.00     0.031 C 
ATOM     22  C   UNL A   1      39.389  28.185  29.617  1.00  0.00     0.029 A 
ATOM     23  C   UNL A   1      40.441  29.186  29.507  1.00  0.00     0.049 A 
ATOM     24  H   UNL A   1      42.188  29.080  28.373  1.00  0.00     0.167 HD
ATOM     25  C   UNL A   1      46.069  28.466  26.417  1.00  0.00     0.034 A 
ATOM     26  C   UNL A   1      40.442  30.370  30.145  1.00  0.00     0.034 A 
ATOM     27  C   UNL A   1      46.066  29.827  26.884  1.00  0.00     0.049 A 
ATOM     28  C   UNL A   1      41.610  31.288  29.953  1.00  0.00     0.074 A 
ATOM     29  C   UNL A   1      47.026  30.803  26.685  1.00  0.00     0.029 A 
ATOM     30  N   UNL A   1      45.074  30.397  27.667  1.00  0.00    -0.354 N 
ATOM     31  N   UNL A   1      42.676  31.117  29.209  1.00  0.00    -0.248 NA
ATOM     32  C   UNL A   1      41.573  32.569  30.669  1.00  0.00     0.031 C 
ATOM     33  C   UNL A   1      46.640  31.947  27.389  1.00  0.00     0.029 A 
ATOM     34  C   UNL A   1      45.418  31.697  27.994  1.00  0.00     0.049 A 
ATOM     35  H   UNL A   1      44.247  29.943  27.949  1.00  0.00     0.167 HD
ATOM     36  C   UNL A   1      43.429  32.274  29.355  1.00  0.00     0.074 A 
ATOM     37  C   UNL A   1      42.678  33.153  30.227  1.00  0.00     0.031 C 
ATOM     38  C   UNL A   1      44.642  32.574  28.831  1.00  0.00     0.034 A 
BRANCH  25  39
ATOM     39  C   UNL A   1      47.306  27.979  25.711  1.00  0.00     0.023 A 
ATOM     40  C   UNL A   1      48.295  27.275  26.426  1.00  0.00     0.012 A 
ATOM     41  C   UNL A   1      47.425  28.114  24.313  1.00  0.00     0.148 A 
ATOM     42  C   UNL A   1      49.389  26.722  25.761  1.00  0.00     0.002 A 
ATOM     43  C   UNL A   1      48.496  27.526  23.654  1.00  0.00     0.091 A 
ATOM     44  F   UNL A   1      46.481  28.805  23.658  1.00  0.00    -0.205 F 
ATOM     45  C   UNL A   1      49.482  26.835  24.376  1.00  0.00     0.022 A 
BRANCH  43  46
ATOM     46  S   UNL A   1      48.669  27.553  21.866  1.00  0.00     0.127 S 
ATOM     47  O   UNL A   1      49.034  26.163  21.590  1.00  0.00    -0.237 OA
ATOM     48  O   UNL A   1      47.324  27.927  21.434  1.00  0.00    -0.237 OA
ATOM     49  O   UNL A   1      49.704  28.535  21.575  1.00  0.00    -0.744 OA
ENDBRANCH  43  46
ENDBRANCH  25  39
BRANCH  26  50
ATOM     50  C   UNL A   1      39.306  30.736  31.036  1.00  0.00     0.023 A 
ATOM     51  C   UNL A   1      39.294  30.292  32.370  1.00  0.00     0.012 A 
ATOM     52  C   UNL A   1      38.249  31.542  30.568  1.00  0.00     0.148 A 
ATOM     53  C   UNL A   1      38.227  30.612  33.212  1.00  0.00     0.002 A 
ATOM     54  C   UNL A   1      37.224  31.909  31.429  1.00  0.00     0.091 A 
ATOM     55  F   UNL A   1      38.272  31.945  29.289  1.00  0.00    -0.205 F 
ATOM     56  C   UNL A   1      37.199  31.428  32.746  1.00  0.00     0.022 A 
BRANCH  54  57
ATOM     57  S   UNL A   1      35.943  33.072  30.949  1.00  0.00     0.127 S 
ATOM     58  O   UNL A   1      34.730  32.297  31.193  1.00  0.00    -0.237 OA
ATOM     59  O   UNL A   1      36.168  34.177  31.881  1.00  0.00    -0.237 OA
ATOM     60  O   UNL A   1      36.219  33.402  29.556  1.00  0.00    -0.744 OA
ENDBRANCH  54  57
ENDBRANCH  26  50
BRANCH  38  61
ATOM     61  C   UNL A   1      45.231  33.915  29.175  1.00  0.00     0.023 A 
ATOM     62  C   UNL A   1      46.020  34.053  30.333  1.00  0.00     0.012 A 
ATOM     63  C   UNL A   1      45.066  35.014  28.311  1.00  0.00     0.148 A 
ATOM     64  C   UNL A   1      46.613  35.276  30.643  1.00  0.00     0.002 A 
ATOM     65  C   UNL A   1      45.703  36.215  28.597  1.00  0.00     0.091 A 
ATOM     66  F   UNL A   1      44.298  34.861  27.223  1.00  0.00    -0.205 F 
ATOM     67  C   UNL A   1      46.466  36.351  29.770  1.00  0.00     0.022 A 
BRANCH  65  68
ATOM     68  S   UNL A   1      45.652  37.625  27.487  1.00  0.00     0.127 S 
ATOM     69  O   UNL A   1      44.212  37.829  27.332  1.00  0.00    -0.237 OA
ATOM     70  O   UNL A   1      46.335  38.655  28.268  1.00  0.00    -0.237 OA
ATOM     71  O   UNL A   1      46.353  37.213  26.277  1.00  0.00    -0.744 OA
ENDBRANCH  65  68
ENDBRANCH  38  61
ENDBRANCH  12  13
ENDBRANCH   5   7
ENDBRANCH   2   3
ENDBRANCH   1   2
BRANCH   1  72
ATOM     72  C   UNL A   1      35.372  21.856  25.058  1.00  0.00     0.117 C 
BRANCH  72  73
ATOM     73  N   UNL A   1      34.311  21.326  24.226  1.00  0.00    -0.354 N 
ATOM     74  C   UNL A   1      33.001  21.688  24.199  1.00  0.00     0.252 C 
ATOM     75  H   UNL A   1      34.571  20.613  23.599  1.00  0.00     0.163 HD
ATOM     76  O   UNL A   1      32.200  20.988  23.574  1.00  0.00    -0.272 OA
BRANCH  74  77
ATOM     77  C   UNL A   1      32.563  23.009  24.831  1.00  0.00     0.242 C 
ATOM     78  O   UNL A   1      32.512  24.141  23.955  1.00  0.00    -0.324 OA
ATOM     79  C   UNL A   1      31.183  22.809  25.476  1.00  0.00     0.184 C 
ATOM     80  C   UNL A   1      32.372  25.363  24.680  1.00  0.00     0.340 C 
ATOM     81  C   UNL A   1      30.932  23.999  26.397  1.00  0.00     0.181 C 
ATOM     82  C   UNL A   1      31.182  25.323  25.677  1.00  0.00     0.214 C 
BRANCH  79  83
ATOM     83  O   UNL A   1      31.043  21.593  26.214  1.00  0.00    -0.387 OA
ATOM     84  H   UNL A   1      30.901  21.798  27.151  1.00  0.00     0.211 HD
ENDBRANCH  79  83
BRANCH  80  85
ATOM     85  O   UNL A   1      32.283  26.572  23.880  1.00  0.00    -0.454 OA
BRANCH  85  86
ATOM     86  C   UNL A   1      32.463  27.820  24.459  1.00  0.00     0.214 A 
ATOM     87  C   UNL A   1      31.503  28.772  24.533  1.00  0.00     0.181 A 
ATOM     88  C   UNL A   1      33.691  28.034  25.302  1.00  0.00     0.239 A 
ATOM     89  O   UNL A   1      31.632  29.984  25.173  1.00  0.00    -0.452 OA
ATOM     90  C   UNL A   1      33.709  29.240  26.183  1.00  0.00     0.111 A 
ATOM     91  O   UNL A   1      34.609  27.224  25.257  1.00  0.00    -0.285 OA
ATOM     92  C   UNL A   1      32.672  30.160  26.040  1.00  0.00     0.146 A 
ATOM     93  C   UNL A   1      34.696  29.504  27.148  1.00  0.00     0.134 A 
ATOM     94  C   UNL A   1      32.625  31.330  26.800  1.00  0.00     0.094 A 
ATOM     95  C   UNL A   1      34.652  30.674  27.924  1.00  0.00     0.093 A 
ATOM     96  C   UNL A   1      33.616  31.582  27.735  1.00  0.00     0.123 A 
BRANCH  87  97
ATOM     97  C   UNL A   1      30.209  28.675  23.843  1.00  0.00     0.029 A 
ATOM     98  C   UNL A   1      29.505  27.458  23.931  1.00  0.00     0.062 A 
ATOM     99  C   UNL A   1      29.606  29.794  23.245  1.00  0.00     0.062 A 
ATOM    100  C   UNL A   1      28.161  27.424  23.589  1.00  0.00     0.162 A 
ATOM    101  C   UNL A   1      28.266  29.728  22.880  1.00  0.00     0.162 A 
ATOM    102  C   UNL A   1      27.537  28.566  23.104  1.00  0.00     0.200 A 
BRANCH 100 103
ATOM    103  O   UNL A   1      27.444  26.294  23.852  1.00  0.00    -0.504 OA
ATOM    104  H   UNL A   1      27.822  25.608  24.366  1.00  0.00     0.293 HD
ENDBRANCH 100 103
BRANCH 101 105
ATOM    105  O   UNL A   1      27.648  30.854  22.417  1.00  0.00    -0.504 OA
ATOM    106  H   UNL A   1      27.006  30.791  21.737  1.00  0.00     0.293 HD
ENDBRANCH 101 105
BRANCH 102 107
ATOM    107  O   UNL A   1      26.171  28.597  22.997  1.00  0.00    -0.502 OA
ATOM    108  H   UNL A   1      25.686  27.796  22.957  1.00  0.00     0.293 HD
ENDBRANCH 102 107
ENDBRANCH  87  97
BRANCH  93 109
ATOM    109  O   UNL A   1      35.710  28.616  27.371  1.00  0.00    -0.507 OA
ATOM    110  H   UNL A   1      35.561  27.698  27.262  1.00  0.00     0.293 HD
ENDBRANCH  93 109
BRANCH  96 111
ATOM    111  O   UNL A   1      33.521  32.735  28.453  1.00  0.00    -0.508 OA
ATOM    112  H   UNL A   1      33.032  33.459  28.114  1.00  0.00     0.293 HD
ENDBRANCH  96 111
ENDBRANCH  85  86
ENDBRANCH  80  85
BRANCH  81 113
ATOM    113  O   UNL A   1      29.572  23.967  26.892  1.00  0.00    -0.387 OA
ATOM    114  H   UNL A   1      29.579  24.059  27.857  1.00  0.00     0.211 HD
ENDBRANCH  81 113
BRANCH  82 115
ATOM    115  O   UNL A   1      31.234  26.375  26.649  1.00  0.00    -0.384 OA
ATOM    116  H   UNL A   1      30.617  27.080  26.397  1.00  0.00     0.211 HD
ENDBRANCH  82 115
ENDBRANCH  74  77
ENDBRANCH  72  73
ENDBRANCH   1  72
TORSDOF 24
ENDMDL
