MODEL 1
REMARK VINA RESULT:     -11.6      0.000      0.000
REMARK SMILES C[C@H]1CC[C@H](CNC(=O)NCc2ccc(C(=O)NCCCNC(=O)c3ccc(-c4c5nc(c(-c6cccc(S(=O)(=O)[O-])c6F)c6ccc([nH]6)c(-c6cccc(S(=O)(=O)[O-])c6F)c6nc(c(-c7cccc(S(=O)(=O)[O-])c7F)c7ccc4[nH]7)C=C6)C=C5)cc3)o2)CC1
REMARK SMILES IDX 19 1 18 2 16 3 17 4 15 6 12 7 13 8 88 9 14 10 11 11 10 12
REMARK SMILES IDX 7 13 8 14 9 16 6 18 5 19 1 20 2 21 90 22 3 23 89 24 4 25
REMARK SMILES IDX 20 26 21 27 22 28 23 29 24 31 25 32 26 33 87 34 27 35 86 36
REMARK SMILES IDX 28 37 29 38 30 39 80 40 31 41 85 42 79 43 81 44 32 45 84 46
REMARK SMILES IDX 78 47 77 48 33 50 65 51 45 52 64 53 46 54 49 55 63 56 82 57
REMARK SMILES IDX 47 58 48 59 62 61 83 62 50 63 34 64 35 65 43 66 36 67 38 68
REMARK SMILES IDX 44 69 37 70 39 71 40 72 41 73 42 74 66 75 67 76 75 77 68 78
REMARK SMILES IDX 70 79 76 80 69 81 71 82 72 83 73 84 74 85 51 86 52 87 60 88
REMARK SMILES IDX 53 89 55 90 61 91 54 92 56 93 57 94 58 95 59 96
REMARK H PARENT 18 5 7 15 10 17 22 30 81 49 49 60
REMARK Flexibility Score: inf
ROOT
ATOM      1  C   UNL A   1      31.768  30.481  26.889  1.00  0.00     0.118 C 
ENDROOT
BRANCH   1   2
ATOM      2  N   UNL A   1      32.990  30.138  27.592  1.00  0.00    -0.349 N 
ATOM      3  C   UNL A   1      34.003  29.277  27.246  1.00  0.00     0.286 C 
ATOM      4  O   UNL A   1      35.031  29.355  27.937  1.00  0.00    -0.266 OA
ATOM      5  H   UNL A   1      33.111  30.596  28.456  1.00  0.00     0.163 HD
BRANCH   3   6
ATOM      6  C   UNL A   1      33.870  28.356  26.136  1.00  0.00     0.191 A 
ATOM      7  C   UNL A   1      33.465  26.350  25.271  1.00  0.00     0.124 A 
ATOM      8  C   UNL A   1      33.674  27.199  24.206  1.00  0.00     0.048 A 
ATOM      9  O   UNL A   1      33.597  27.043  26.438  1.00  0.00    -0.454 OA
ATOM     10  C   UNL A   1      33.914  28.483  24.757  1.00  0.00     0.056 A 
BRANCH   7  11
ATOM     11  C   UNL A   1      33.156  24.895  25.350  1.00  0.00     0.193 C 
BRANCH  11  12
ATOM     12  N   UNL A   1      32.095  24.629  26.293  1.00  0.00    -0.331 N 
ATOM     13  N   UNL A   1      30.129  24.394  25.011  1.00  0.00    -0.338 N 
ATOM     14  C   UNL A   1      30.812  24.289  26.159  1.00  0.00     0.315 C 
ATOM     15  H   UNL A   1      29.295  23.872  25.003  1.00  0.00     0.165 HD
ATOM     16  O   UNL A   1      30.219  23.840  27.143  1.00  0.00    -0.249 OA
ATOM     17  H   UNL A   1      32.380  24.716  27.232  1.00  0.00     0.165 HD
BRANCH  13  18
ATOM     18  C   UNL A   1      30.370  25.122  23.779  1.00  0.00     0.121 C 
BRANCH  18  19
ATOM     19  C   UNL A   1      29.835  26.560  23.863  1.00  0.00     0.008 C 
ATOM     20  C   UNL A   1      27.824  30.269  22.637  1.00  0.00     0.007 C 
ATOM     21  C   UNL A   1      28.385  28.849  22.618  1.00  0.00    -0.014 C 
ATOM     22  C   UNL A   1      27.741  27.991  23.714  1.00  0.00     0.003 C 
ATOM     23  C   UNL A   1      29.909  28.865  22.778  1.00  0.00     0.003 C 
ATOM     24  C   UNL A   1      28.306  26.571  23.716  1.00  0.00     0.006 C 
ATOM     25  C   UNL A   1      30.488  27.452  22.791  1.00  0.00     0.006 C 
ENDBRANCH  18  19
ENDBRANCH  13  18
ENDBRANCH  11  12
ENDBRANCH   7  11
ENDBRANCH   3   6
ENDBRANCH   1   2
BRANCH   1  26
ATOM     26  C   UNL A   1      31.549  31.990  26.800  1.00  0.00     0.042 C 
BRANCH  26  27
ATOM     27  C   UNL A   1      32.835  32.815  26.888  1.00  0.00     0.118 C 
BRANCH  27  28
ATOM     28  N   UNL A   1      32.653  34.042  27.652  1.00  0.00    -0.352 N 
ATOM     29  C   UNL A   1      33.265  34.489  28.797  1.00  0.00     0.251 C 
ATOM     30  H   UNL A   1      31.976  34.656  27.285  1.00  0.00     0.163 HD
ATOM     31  O   UNL A   1      32.793  35.469  29.372  1.00  0.00    -0.269 OA
BRANCH  29  32
ATOM     32  C   UNL A   1      34.465  33.820  29.352  1.00  0.00     0.039 A 
ATOM     33  C   UNL A   1      34.283  32.753  30.239  1.00  0.00     0.014 A 
ATOM     34  C   UNL A   1      35.758  34.273  29.076  1.00  0.00     0.014 A 
ATOM     35  C   UNL A   1      35.389  32.118  30.811  1.00  0.00     0.010 A 
ATOM     36  C   UNL A   1      36.863  33.597  29.595  1.00  0.00     0.010 A 
ATOM     37  C   UNL A   1      36.692  32.520  30.476  1.00  0.00    -0.014 A 
BRANCH  37  38
ATOM     38  C   UNL A   1      37.876  31.813  31.031  1.00  0.00     0.031 A 
ATOM     39  C   UNL A   1      38.404  32.151  32.401  1.00  0.00     0.074 A 
ATOM     40  C   UNL A   1      38.523  30.909  30.270  1.00  0.00     0.049 A 
ATOM     41  N   UNL A   1      39.431  31.646  33.036  1.00  0.00    -0.248 NA
ATOM     42  C   UNL A   1      37.703  33.210  33.144  1.00  0.00     0.031 C 
ATOM     43  C   UNL A   1      38.166  30.553  28.895  1.00  0.00     0.029 A 
ATOM     44  N   UNL A   1      39.629  30.141  30.534  1.00  0.00    -0.354 N 
ATOM     45  C   UNL A   1      39.521  32.344  34.234  1.00  0.00     0.074 A 
ATOM     46  C   UNL A   1      38.462  33.331  34.225  1.00  0.00     0.031 C 
ATOM     47  C   UNL A   1      39.029  29.632  28.441  1.00  0.00     0.029 A 
ATOM     48  C   UNL A   1      40.012  29.343  29.480  1.00  0.00     0.049 A 
ATOM     49  H   UNL A   1      40.105  30.157  31.396  1.00  0.00     0.167 HD
ATOM     50  C   UNL A   1      40.384  32.162  35.264  1.00  0.00     0.034 A 
ATOM     51  C   UNL A   1      41.034  28.473  29.365  1.00  0.00     0.034 A 
ATOM     52  C   UNL A   1      41.404  31.148  35.294  1.00  0.00     0.049 A 
ATOM     53  C   UNL A   1      41.934  28.240  30.548  1.00  0.00     0.074 A 
ATOM     54  C   UNL A   1      42.270  30.827  36.325  1.00  0.00     0.029 A 
ATOM     55  N   UNL A   1      41.697  30.290  34.245  1.00  0.00    -0.354 N 
ATOM     56  N   UNL A   1      41.896  28.794  31.735  1.00  0.00    -0.248 NA
ATOM     57  C   UNL A   1      42.990  27.229  30.390  1.00  0.00     0.031 C 
ATOM     58  C   UNL A   1      43.092  29.778  35.896  1.00  0.00     0.029 A 
ATOM     59  C   UNL A   1      42.730  29.439  34.602  1.00  0.00     0.049 A 
ATOM     60  H   UNL A   1      41.238  30.286  33.375  1.00  0.00     0.167 HD
ATOM     61  C   UNL A   1      42.899  28.179  32.475  1.00  0.00     0.074 A 
ATOM     62  C   UNL A   1      43.510  27.191  31.609  1.00  0.00     0.031 C 
ATOM     63  C   UNL A   1      43.293  28.424  33.750  1.00  0.00     0.034 A 
BRANCH  50  64
ATOM     64  C   UNL A   1      40.215  33.040  36.479  1.00  0.00     0.023 A 
ATOM     65  C   UNL A   1      40.909  34.265  36.546  1.00  0.00     0.012 A 
ATOM     66  C   UNL A   1      39.340  32.686  37.524  1.00  0.00     0.148 A 
ATOM     67  C   UNL A   1      40.764  35.107  37.647  1.00  0.00     0.002 A 
ATOM     68  C   UNL A   1      39.168  33.550  38.600  1.00  0.00     0.091 A 
ATOM     69  F   UNL A   1      38.704  31.507  37.456  1.00  0.00    -0.205 F 
ATOM     70  C   UNL A   1      39.887  34.755  38.668  1.00  0.00     0.022 A 
BRANCH  68  71
ATOM     71  S   UNL A   1      38.006  33.217  39.929  1.00  0.00     0.127 S 
ATOM     72  O   UNL A   1      38.587  32.022  40.538  1.00  0.00    -0.237 OA
ATOM     73  O   UNL A   1      38.111  34.429  40.745  1.00  0.00    -0.237 OA
ATOM     74  O   UNL A   1      36.711  33.033  39.288  1.00  0.00    -0.744 OA
ENDBRANCH  68  71
ENDBRANCH  50  64
BRANCH  51  75
ATOM     75  C   UNL A   1      41.196  27.686  28.110  1.00  0.00     0.023 A 
ATOM     76  C   UNL A   1      41.777  28.302  26.985  1.00  0.00     0.012 A 
ATOM     77  C   UNL A   1      40.825  26.330  28.036  1.00  0.00     0.148 A 
ATOM     78  C   UNL A   1      41.962  27.591  25.799  1.00  0.00     0.002 A 
ATOM     79  C   UNL A   1      41.062  25.611  26.869  1.00  0.00     0.091 A 
ATOM     80  F   UNL A   1      40.261  25.765  29.113  1.00  0.00    -0.205 F 
ATOM     81  C   UNL A   1      41.616  26.244  25.745  1.00  0.00     0.022 A 
BRANCH  79  82
ATOM     82  S   UNL A   1      40.775  23.841  26.759  1.00  0.00     0.127 S 
ATOM     83  O   UNL A   1      41.689  23.454  25.689  1.00  0.00    -0.237 OA
ATOM     84  O   UNL A   1      41.163  23.385  28.095  1.00  0.00    -0.237 OA
ATOM     85  O   UNL A   1      39.354  23.694  26.469  1.00  0.00    -0.744 OA
ENDBRANCH  79  82
ENDBRANCH  51  75
BRANCH  63  86
ATOM     86  C   UNL A   1      44.427  27.596  34.295  1.00  0.00     0.023 A 
ATOM     87  C   UNL A   1      45.741  28.103  34.255  1.00  0.00     0.012 A 
ATOM     88  C   UNL A   1      44.188  26.345  34.895  1.00  0.00     0.148 A 
ATOM     89  C   UNL A   1      46.804  27.363  34.770  1.00  0.00     0.002 A 
ATOM     90  C   UNL A   1      45.247  25.631  35.447  1.00  0.00     0.091 A 
ATOM     91  F   UNL A   1      42.936  25.865  34.905  1.00  0.00    -0.205 F 
ATOM     92  C   UNL A   1      46.556  26.133  35.376  1.00  0.00     0.022 A 
BRANCH  90  93
ATOM     93  S   UNL A   1      44.995  24.083  36.322  1.00  0.00     0.127 S 
ATOM     94  O   UNL A   1      46.317  23.467  36.230  1.00  0.00    -0.237 OA
ATOM     95  O   UNL A   1      44.625  24.533  37.665  1.00  0.00    -0.237 OA
ATOM     96  O   UNL A   1      43.926  23.398  35.606  1.00  0.00    -0.744 OA
ENDBRANCH  90  93
ENDBRANCH  63  86
ENDBRANCH  37  38
ENDBRANCH  29  32
ENDBRANCH  27  28
ENDBRANCH  26  27
ENDBRANCH   1  26
TORSDOF 17
ENDMDL
MODEL 2
REMARK VINA RESULT:     -11.5      1.859      7.784
REMARK SMILES C[C@H]1CC[C@H](CNC(=O)NCc2ccc(C(=O)NCCCNC(=O)c3ccc(-c4c5nc(c(-c6cccc(S(=O)(=O)[O-])c6F)c6ccc([nH]6)c(-c6cccc(S(=O)(=O)[O-])c6F)c6nc(c(-c7cccc(S(=O)(=O)[O-])c7F)c7ccc4[nH]7)C=C6)C=C5)cc3)o2)CC1
REMARK SMILES IDX 19 1 18 2 16 3 17 4 15 6 12 7 13 8 88 9 14 10 11 11 10 12
REMARK SMILES IDX 7 13 8 14 9 16 6 18 5 19 1 20 2 21 90 22 3 23 89 24 4 25
REMARK SMILES IDX 20 26 21 27 22 28 23 29 24 31 25 32 26 33 87 34 27 35 86 36
REMARK SMILES IDX 28 37 29 38 30 39 80 40 31 41 85 42 79 43 81 44 32 45 84 46
REMARK SMILES IDX 78 47 77 48 33 50 65 51 45 52 64 53 46 54 49 55 63 56 82 57
REMARK SMILES IDX 47 58 48 59 62 61 83 62 50 63 34 64 35 65 43 66 36 67 38 68
REMARK SMILES IDX 44 69 37 70 39 71 40 72 41 73 42 74 66 75 67 76 75 77 68 78
REMARK SMILES IDX 70 79 76 80 69 81 71 82 72 83 73 84 74 85 51 86 52 87 60 88
REMARK SMILES IDX 53 89 55 90 61 91 54 92 56 93 57 94 58 95 59 96
REMARK H PARENT 18 5 7 15 10 17 22 30 81 49 49 60
REMARK Flexibility Score: inf
ROOT
ATOM      1  C   UNL A   1      31.850  30.531  26.891  1.00  0.00     0.118 C 
ENDROOT
BRANCH   1   2
ATOM      2  N   UNL A   1      33.074  30.165  27.579  1.00  0.00    -0.349 N 
ATOM      3  C   UNL A   1      34.012  29.208  27.276  1.00  0.00     0.286 C 
ATOM      4  O   UNL A   1      35.071  29.273  27.920  1.00  0.00    -0.266 OA
ATOM      5  H   UNL A   1      33.263  30.687  28.393  1.00  0.00     0.163 HD
BRANCH   3   6
ATOM      6  C   UNL A   1      33.771  28.204  26.259  1.00  0.00     0.191 A 
ATOM      7  C   UNL A   1      32.958  26.259  25.556  1.00  0.00     0.124 A 
ATOM      8  C   UNL A   1      33.501  26.878  24.451  1.00  0.00     0.048 A 
ATOM      9  O   UNL A   1      33.133  27.052  26.652  1.00  0.00    -0.454 OA
ATOM     10  C   UNL A   1      34.003  28.127  24.896  1.00  0.00     0.056 A 
BRANCH   7  11
ATOM     11  C   UNL A   1      32.273  24.950  25.739  1.00  0.00     0.193 C 
BRANCH  11  12
ATOM     12  N   UNL A   1      31.042  25.094  26.480  1.00  0.00    -0.331 N 
ATOM     13  N   UNL A   1      29.399  25.693  24.898  1.00  0.00    -0.338 N 
ATOM     14  C   UNL A   1      29.772  25.292  26.120  1.00  0.00     0.315 C 
ATOM     15  H   UNL A   1      28.444  25.543  24.711  1.00  0.00     0.165 HD
ATOM     16  O   UNL A   1      28.888  25.083  26.954  1.00  0.00    -0.249 OA
ATOM     17  H   UNL A   1      31.165  25.032  27.455  1.00  0.00     0.165 HD
BRANCH  13  18
ATOM     18  C   UNL A   1      30.115  26.305  23.794  1.00  0.00     0.121 C 
BRANCH  18  19
ATOM     19  C   UNL A   1      29.672  27.760  23.575  1.00  0.00     0.008 C 
ATOM     20  C   UNL A   1      28.032  31.288  21.533  1.00  0.00     0.007 C 
ATOM     21  C   UNL A   1      28.496  29.861  21.815  1.00  0.00    -0.014 C 
ATOM     22  C   UNL A   1      27.700  29.245  22.973  1.00  0.00     0.003 C 
ATOM     23  C   UNL A   1      29.997  29.829  22.123  1.00  0.00     0.003 C 
ATOM     24  C   UNL A   1      28.166  27.821  23.276  1.00  0.00     0.006 C 
ATOM     25  C   UNL A   1      30.477  28.414  22.437  1.00  0.00     0.006 C 
ENDBRANCH  18  19
ENDBRANCH  13  18
ENDBRANCH  11  12
ENDBRANCH   7  11
ENDBRANCH   3   6
ENDBRANCH   1   2
BRANCH   1  26
ATOM     26  C   UNL A   1      31.615  32.040  26.879  1.00  0.00     0.042 C 
BRANCH  26  27
ATOM     27  C   UNL A   1      32.894  32.873  26.992  1.00  0.00     0.118 C 
BRANCH  27  28
ATOM     28  N   UNL A   1      32.662  34.158  27.638  1.00  0.00    -0.352 N 
ATOM     29  C   UNL A   1      33.197  34.701  28.780  1.00  0.00     0.251 C 
ATOM     30  H   UNL A   1      32.010  34.735  27.177  1.00  0.00     0.163 HD
ATOM     31  O   UNL A   1      32.688  35.722  29.239  1.00  0.00    -0.269 OA
BRANCH  29  32
ATOM     32  C   UNL A   1      34.358  34.088  29.465  1.00  0.00     0.039 A 
ATOM     33  C   UNL A   1      34.116  33.167  30.492  1.00  0.00     0.014 A 
ATOM     34  C   UNL A   1      35.672  34.459  29.169  1.00  0.00     0.014 A 
ATOM     35  C   UNL A   1      35.185  32.592  31.186  1.00  0.00     0.010 A 
ATOM     36  C   UNL A   1      36.740  33.836  29.818  1.00  0.00     0.010 A 
ATOM     37  C   UNL A   1      36.509  32.904  30.840  1.00  0.00    -0.014 A 
BRANCH  37  38
ATOM     38  C   UNL A   1      37.653  32.254  31.531  1.00  0.00     0.031 A 
ATOM     39  C   UNL A   1      38.406  31.123  30.879  1.00  0.00     0.074 A 
ATOM     40  C   UNL A   1      37.973  32.636  32.782  1.00  0.00     0.049 A 
ATOM     41  N   UNL A   1      39.418  30.433  31.341  1.00  0.00    -0.248 NA
ATOM     42  C   UNL A   1      37.949  30.697  29.547  1.00  0.00     0.031 C 
ATOM     43  C   UNL A   1      37.269  33.658  33.559  1.00  0.00     0.029 A 
ATOM     44  N   UNL A   1      38.957  32.196  33.631  1.00  0.00    -0.354 N 
ATOM     45  C   UNL A   1      39.697  29.473  30.376  1.00  0.00     0.074 A 
ATOM     46  C   UNL A   1      38.728  29.649  29.316  1.00  0.00     0.031 C 
ATOM     47  C   UNL A   1      37.847  33.773  34.763  1.00  0.00     0.029 A 
ATOM     48  C   UNL A   1      38.951  32.823  34.857  1.00  0.00     0.049 A 
ATOM     49  H   UNL A   1      39.608  31.498  33.388  1.00  0.00     0.167 HD
ATOM     50  C   UNL A   1      40.689  28.549  30.356  1.00  0.00     0.034 A 
ATOM     51  C   UNL A   1      39.747  32.656  35.930  1.00  0.00     0.034 A 
ATOM     52  C   UNL A   1      41.683  28.408  31.387  1.00  0.00     0.049 A 
ATOM     53  C   UNL A   1      40.883  31.673  35.855  1.00  0.00     0.074 A 
ATOM     54  C   UNL A   1      42.778  27.562  31.418  1.00  0.00     0.029 A 
ATOM     55  N   UNL A   1      41.705  29.131  32.570  1.00  0.00    -0.354 N 
ATOM     56  N   UNL A   1      41.232  30.890  34.863  1.00  0.00    -0.248 NA
ATOM     57  C   UNL A   1      41.762  31.581  37.030  1.00  0.00     0.031 C 
ATOM     58  C   UNL A   1      43.458  27.768  32.624  1.00  0.00     0.029 A 
ATOM     59  C   UNL A   1      42.792  28.751  33.338  1.00  0.00     0.049 A 
ATOM     60  H   UNL A   1      41.043  29.813  32.825  1.00  0.00     0.167 HD
ATOM     61  C   UNL A   1      42.386  30.237  35.280  1.00  0.00     0.074 A 
ATOM     62  C   UNL A   1      42.692  30.737  36.605  1.00  0.00     0.031 C 
ATOM     63  C   UNL A   1      43.116  29.295  34.632  1.00  0.00     0.034 A 
BRANCH  50  64
ATOM     64  C   UNL A   1      40.789  27.659  29.143  1.00  0.00     0.023 A 
ATOM     65  C   UNL A   1      39.969  26.515  29.057  1.00  0.00     0.012 A 
ATOM     66  C   UNL A   1      41.646  27.974  28.070  1.00  0.00     0.148 A 
ATOM     67  C   UNL A   1      40.025  25.680  27.943  1.00  0.00     0.002 A 
ATOM     68  C   UNL A   1      41.667  27.158  26.944  1.00  0.00     0.091 A 
ATOM     69  F   UNL A   1      42.436  29.052  28.176  1.00  0.00    -0.205 F 
ATOM     70  C   UNL A   1      40.865  26.007  26.883  1.00  0.00     0.022 A 
BRANCH  68  71
ATOM     71  S   UNL A   1      42.663  27.537  25.497  1.00  0.00     0.127 S 
ATOM     72  O   UNL A   1      42.362  26.402  24.626  1.00  0.00    -0.237 OA
ATOM     73  O   UNL A   1      42.095  28.812  25.053  1.00  0.00    -0.237 OA
ATOM     74  O   UNL A   1      44.037  27.622  25.971  1.00  0.00    -0.744 OA
ENDBRANCH  68  71
ENDBRANCH  50  64
BRANCH  51  75
ATOM     75  C   UNL A   1      39.554  33.515  37.133  1.00  0.00     0.023 A 
ATOM     76  C   UNL A   1      38.593  33.143  38.093  1.00  0.00     0.012 A 
ATOM     77  C   UNL A   1      40.339  34.661  37.356  1.00  0.00     0.148 A 
ATOM     78  C   UNL A   1      38.397  33.912  39.241  1.00  0.00     0.002 A 
ATOM     79  C   UNL A   1      40.178  35.393  38.527  1.00  0.00     0.091 A 
ATOM     80  F   UNL A   1      41.239  35.007  36.424  1.00  0.00    -0.205 F 
ATOM     81  C   UNL A   1      39.197  35.029  39.463  1.00  0.00     0.022 A 
BRANCH  79  82
ATOM     82  S   UNL A   1      41.259  36.763  38.958  1.00  0.00     0.127 S 
ATOM     83  O   UNL A   1      41.841  37.104  37.663  1.00  0.00    -0.237 OA
ATOM     84  O   UNL A   1      40.312  37.745  39.485  1.00  0.00    -0.237 OA
ATOM     85  O   UNL A   1      42.182  36.232  39.952  1.00  0.00    -0.744 OA
ENDBRANCH  79  82
ENDBRANCH  51  75
BRANCH  63  86
ATOM     86  C   UNL A   1      44.331  28.753  35.340  1.00  0.00     0.023 A 
ATOM     87  C   UNL A   1      45.599  29.299  35.061  1.00  0.00     0.012 A 
ATOM     88  C   UNL A   1      44.212  27.745  36.316  1.00  0.00     0.148 A 
ATOM     89  C   UNL A   1      46.735  28.827  35.717  1.00  0.00     0.002 A 
ATOM     90  C   UNL A   1      45.343  27.310  36.998  1.00  0.00     0.091 A 
ATOM     91  F   UNL A   1      43.001  27.219  36.553  1.00  0.00    -0.205 F 
ATOM     92  C   UNL A   1      46.606  27.841  36.693  1.00  0.00     0.022 A 
BRANCH  90  93
ATOM     93  S   UNL A   1      45.244  26.108  38.330  1.00  0.00     0.127 S 
ATOM     94  O   UNL A   1      44.770  24.918  37.625  1.00  0.00    -0.237 OA
ATOM     95  O   UNL A   1      46.631  26.029  38.791  1.00  0.00    -0.237 OA
ATOM     96  O   UNL A   1      44.321  26.677  39.304  1.00  0.00    -0.744 OA
ENDBRANCH  90  93
ENDBRANCH  63  86
ENDBRANCH  37  38
ENDBRANCH  29  32
ENDBRANCH  27  28
ENDBRANCH  26  27
ENDBRANCH   1  26
TORSDOF 17
ENDMDL
MODEL 3
REMARK VINA RESULT:     -11.4      3.450      4.990
REMARK SMILES C[C@H]1CC[C@H](CNC(=O)NCc2ccc(C(=O)NCCCNC(=O)c3ccc(-c4c5nc(c(-c6cccc(S(=O)(=O)[O-])c6F)c6ccc([nH]6)c(-c6cccc(S(=O)(=O)[O-])c6F)c6nc(c(-c7cccc(S(=O)(=O)[O-])c7F)c7ccc4[nH]7)C=C6)C=C5)cc3)o2)CC1
REMARK SMILES IDX 19 1 18 2 16 3 17 4 15 6 12 7 13 8 88 9 14 10 11 11 10 12
REMARK SMILES IDX 7 13 8 14 9 16 6 18 5 19 1 20 2 21 90 22 3 23 89 24 4 25
REMARK SMILES IDX 20 26 21 27 22 28 23 29 24 31 25 32 26 33 87 34 27 35 86 36
REMARK SMILES IDX 28 37 29 38 30 39 80 40 31 41 85 42 79 43 81 44 32 45 84 46
REMARK SMILES IDX 78 47 77 48 33 50 65 51 45 52 64 53 46 54 49 55 63 56 82 57
REMARK SMILES IDX 47 58 48 59 62 61 83 62 50 63 34 64 35 65 43 66 36 67 38 68
REMARK SMILES IDX 44 69 37 70 39 71 40 72 41 73 42 74 66 75 67 76 75 77 68 78
REMARK SMILES IDX 70 79 76 80 69 81 71 82 72 83 73 84 74 85 51 86 52 87 60 88
REMARK SMILES IDX 53 89 55 90 61 91 54 92 56 93 57 94 58 95 59 96
REMARK H PARENT 18 5 7 15 10 17 22 30 81 49 49 60
REMARK Flexibility Score: inf
ROOT
ATOM      1  C   UNL A   1      31.701  29.465  24.930  1.00  0.00     0.118 C 
ENDROOT
BRANCH   1   2
ATOM      2  N   UNL A   1      31.115  29.698  23.624  1.00  0.00    -0.349 N 
ATOM      3  C   UNL A   1      30.552  28.817  22.731  1.00  0.00     0.286 C 
ATOM      4  O   UNL A   1      29.929  29.334  21.790  1.00  0.00    -0.266 OA
ATOM      5  H   UNL A   1      31.122  30.638  23.330  1.00  0.00     0.163 HD
BRANCH   3   6
ATOM      6  C   UNL A   1      30.674  27.384  22.901  1.00  0.00     0.191 A 
ATOM      7  C   UNL A   1      31.754  25.454  22.683  1.00  0.00     0.124 A 
ATOM      8  C   UNL A   1      30.593  25.176  23.369  1.00  0.00     0.048 A 
ATOM      9  O   UNL A   1      31.800  26.784  22.386  1.00  0.00    -0.454 OA
ATOM     10  C   UNL A   1      29.912  26.410  23.525  1.00  0.00     0.056 A 
BRANCH   7  11
ATOM     11  C   UNL A   1      32.883  24.595  22.230  1.00  0.00     0.193 C 
BRANCH  11  12
ATOM     12  N   UNL A   1      33.986  24.633  23.162  1.00  0.00    -0.331 N 
ATOM     13  N   UNL A   1      34.108  22.478  24.112  1.00  0.00    -0.338 N 
ATOM     14  C   UNL A   1      34.606  23.701  23.889  1.00  0.00     0.315 C 
ATOM     15  H   UNL A   1      34.780  21.835  24.433  1.00  0.00     0.165 HD
ATOM     16  O   UNL A   1      35.706  23.974  24.374  1.00  0.00    -0.249 OA
ATOM     17  H   UNL A   1      34.359  25.536  23.285  1.00  0.00     0.165 HD
BRANCH  13  18
ATOM     18  C   UNL A   1      32.779  21.909  23.978  1.00  0.00     0.121 C 
BRANCH  18  19
ATOM     19  C   UNL A   1      32.793  20.391  24.217  1.00  0.00     0.008 C 
ATOM     20  C   UNL A   1      33.880  16.165  23.704  1.00  0.00     0.007 C 
ATOM     21  C   UNL A   1      33.816  17.679  23.517  1.00  0.00    -0.014 C 
ATOM     22  C   UNL A   1      34.275  18.408  24.785  1.00  0.00     0.003 C 
ATOM     23  C   UNL A   1      32.400  18.119  23.131  1.00  0.00     0.003 C 
ATOM     24  C   UNL A   1      34.201  19.925  24.617  1.00  0.00     0.006 C 
ATOM     25  C   UNL A   1      32.307  19.635  22.967  1.00  0.00     0.006 C 
ENDBRANCH  18  19
ENDBRANCH  13  18
ENDBRANCH  11  12
ENDBRANCH   7  11
ENDBRANCH   3   6
ENDBRANCH   1   2
BRANCH   1  26
ATOM     26  C   UNL A   1      33.122  28.911  24.843  1.00  0.00     0.042 C 
BRANCH  26  27
ATOM     27  C   UNL A   1      33.948  29.105  26.117  1.00  0.00     0.118 C 
BRANCH  27  28
ATOM     28  N   UNL A   1      33.791  30.440  26.679  1.00  0.00    -0.352 N 
ATOM     29  C   UNL A   1      34.495  31.091  27.662  1.00  0.00     0.251 C 
ATOM     30  H   UNL A   1      33.055  30.965  26.288  1.00  0.00     0.163 HD
ATOM     31  O   UNL A   1      34.042  32.143  28.111  1.00  0.00    -0.269 OA
BRANCH  29  32
ATOM     32  C   UNL A   1      35.772  30.558  28.191  1.00  0.00     0.039 A 
ATOM     33  C   UNL A   1      35.731  29.732  29.320  1.00  0.00     0.014 A 
ATOM     34  C   UNL A   1      37.006  30.917  27.644  1.00  0.00     0.014 A 
ATOM     35  C   UNL A   1      36.917  29.236  29.870  1.00  0.00     0.010 A 
ATOM     36  C   UNL A   1      38.185  30.370  28.153  1.00  0.00     0.010 A 
ATOM     37  C   UNL A   1      38.155  29.532  29.277  1.00  0.00    -0.014 A 
BRANCH  37  38
ATOM     38  C   UNL A   1      39.417  28.961  29.818  1.00  0.00     0.031 A 
ATOM     39  C   UNL A   1      40.057  29.537  31.055  1.00  0.00     0.074 A 
ATOM     40  C   UNL A   1      40.029  27.963  29.152  1.00  0.00     0.049 A 
ATOM     41  N   UNL A   1      41.161  29.174  31.656  1.00  0.00    -0.248 NA
ATOM     42  C   UNL A   1      39.381  30.684  31.683  1.00  0.00     0.031 C 
ATOM     43  C   UNL A   1      39.560  27.374  27.896  1.00  0.00     0.029 A 
ATOM     44  N   UNL A   1      41.189  27.281  29.424  1.00  0.00    -0.354 N 
ATOM     45  C   UNL A   1      41.332  30.064  32.710  1.00  0.00     0.074 A 
ATOM     46  C   UNL A   1      40.233  31.004  32.648  1.00  0.00     0.031 C 
ATOM     47  C   UNL A   1      40.417  26.416  27.512  1.00  0.00     0.029 A 
ATOM     48  C   UNL A   1      41.506  26.331  28.480  1.00  0.00     0.049 A 
ATOM     49  H   UNL A   1      41.742  27.454  30.220  1.00  0.00     0.167 HD
ATOM     50  C   UNL A   1      42.295  30.080  33.664  1.00  0.00     0.034 A 
ATOM     51  C   UNL A   1      42.550  25.484  28.406  1.00  0.00     0.034 A 
ATOM     52  C   UNL A   1      43.358  29.115  33.754  1.00  0.00     0.049 A 
ATOM     53  C   UNL A   1      43.568  25.476  29.514  1.00  0.00     0.074 A 
ATOM     54  C   UNL A   1      44.331  28.994  34.732  1.00  0.00     0.029 A 
ATOM     55  N   UNL A   1      43.589  28.103  32.835  1.00  0.00    -0.354 N 
ATOM     56  N   UNL A   1      43.617  26.218  30.594  1.00  0.00    -0.248 NA
ATOM     57  C   UNL A   1      44.649  24.485  29.417  1.00  0.00     0.031 C 
ATOM     58  C   UNL A   1      45.156  27.913  34.398  1.00  0.00     0.029 A 
ATOM     59  C   UNL A   1      44.689  27.354  33.220  1.00  0.00     0.049 A 
ATOM     60  H   UNL A   1      43.051  27.942  32.027  1.00  0.00     0.167 HD
ATOM     61  C   UNL A   1      44.713  25.764  31.318  1.00  0.00     0.074 A 
ATOM     62  C   UNL A   1      45.283  24.664  30.567  1.00  0.00     0.031 C 
ATOM     63  C   UNL A   1      45.214  26.228  32.491  1.00  0.00     0.034 A 
BRANCH  50  64
ATOM     64  C   UNL A   1      42.202  31.141  34.731  1.00  0.00     0.023 A 
ATOM     65  C   UNL A   1      41.538  30.847  35.939  1.00  0.00     0.012 A 
ATOM     66  C   UNL A   1      42.808  32.402  34.567  1.00  0.00     0.148 A 
ATOM     67  C   UNL A   1      41.447  31.799  36.953  1.00  0.00     0.002 A 
ATOM     68  C   UNL A   1      42.749  33.333  35.599  1.00  0.00     0.091 A 
ATOM     69  F   UNL A   1      43.416  32.675  33.403  1.00  0.00    -0.205 F 
ATOM     70  C   UNL A   1      42.061  33.038  36.787  1.00  0.00     0.022 A 
BRANCH  68  71
ATOM     71  S   UNL A   1      43.570  34.929  35.506  1.00  0.00     0.127 S 
ATOM     72  O   UNL A   1      43.212  35.368  34.159  1.00  0.00    -0.237 OA
ATOM     73  O   UNL A   1      42.918  35.677  36.584  1.00  0.00    -0.237 OA
ATOM     74  O   UNL A   1      44.984  34.661  35.728  1.00  0.00    -0.744 OA
ENDBRANCH  68  71
ENDBRANCH  50  64
BRANCH  51  75
ATOM     75  C   UNL A   1      42.628  24.505  27.285  1.00  0.00     0.023 A 
ATOM     76  C   UNL A   1      43.345  24.850  26.122  1.00  0.00     0.012 A 
ATOM     77  C   UNL A   1      42.044  23.228  27.379  1.00  0.00     0.148 A 
ATOM     78  C   UNL A   1      43.454  23.951  25.061  1.00  0.00     0.002 A 
ATOM     79  C   UNL A   1      42.203  22.317  26.340  1.00  0.00     0.091 A 
ATOM     80  F   UNL A   1      41.354  22.923  28.488  1.00  0.00    -0.205 F 
ATOM     81  C   UNL A   1      42.895  22.682  25.175  1.00  0.00     0.022 A 
BRANCH  79  82
ATOM     82  S   UNL A   1      41.635  20.616  26.462  1.00  0.00     0.127 S 
ATOM     83  O   UNL A   1      40.195  20.767  26.272  1.00  0.00    -0.237 OA
ATOM     84  O   UNL A   1      42.339  19.978  25.350  1.00  0.00    -0.237 OA
ATOM     85  O   UNL A   1      42.059  20.157  27.778  1.00  0.00    -0.744 OA
ENDBRANCH  79  82
ENDBRANCH  51  75
BRANCH  63  86
ATOM     86  C   UNL A   1      46.431  25.535  33.046  1.00  0.00     0.023 A 
ATOM     87  C   UNL A   1      47.711  26.061  32.784  1.00  0.00     0.012 A 
ATOM     88  C   UNL A   1      46.306  24.400  33.869  1.00  0.00     0.148 A 
ATOM     89  C   UNL A   1      48.851  25.448  33.303  1.00  0.00     0.002 A 
ATOM     90  C   UNL A   1      47.443  23.819  34.420  1.00  0.00     0.091 A 
ATOM     91  F   UNL A   1      45.082  23.897  34.091  1.00  0.00    -0.205 F 
ATOM     92  C   UNL A   1      48.716  24.334  34.129  1.00  0.00     0.022 A 
BRANCH  90  93
ATOM     93  S   UNL A   1      47.345  22.438  35.565  1.00  0.00     0.127 S 
ATOM     94  O   UNL A   1      46.810  21.378  34.711  1.00  0.00    -0.237 OA
ATOM     95  O   UNL A   1      48.742  22.253  35.961  1.00  0.00    -0.237 OA
ATOM     96  O   UNL A   1      46.472  22.884  36.643  1.00  0.00    -0.744 OA
ENDBRANCH  90  93
ENDBRANCH  63  86
ENDBRANCH  37  38
ENDBRANCH  29  32
ENDBRANCH  27  28
ENDBRANCH  26  27
ENDBRANCH   1  26
TORSDOF 17
ENDMDL
