MODEL 1
REMARK VINA RESULT:     -12.4      0.000      0.000
REMARK SMILES C[C@H]1[NH2+]CC[C@H]1C(=O)N1CCCc2cc(C(=O)NCCCNC(=O)c3ccc(-c4c5nc(c(-c6cccc(S(=O)(=O)[O-])c6F)c6ccc([nH]6)c(-c6cccc(S(=O)(=O)[O-])c6F)c6nc(c(-c7cccc(S(=O)(=O)[O-])c7F)c7ccc4[nH]7)C=C6)C=C5)cc3)ccc21
REMARK SMILES IDX 20 1 19 2 18 3 16 4 17 5 15 7 9 8 10 9 90 10 11 11 13 12
REMARK SMILES IDX 89 13 12 14 14 15 88 16 7 17 8 18 6 19 1 20 2 21 3 22 4 23
REMARK SMILES IDX 5 26 21 27 22 28 23 29 24 31 25 32 26 33 87 34 27 35 86 36
REMARK SMILES IDX 28 37 29 38 30 39 80 40 31 41 85 42 79 43 81 44 32 45 84 46
REMARK SMILES IDX 78 47 77 48 33 50 65 51 45 52 64 53 46 54 49 55 63 56 82 57
REMARK SMILES IDX 47 58 48 59 62 61 83 62 50 63 34 64 35 65 43 66 36 67 38 68
REMARK SMILES IDX 44 69 37 70 39 71 40 72 41 73 42 74 66 75 67 76 75 77 68 78
REMARK SMILES IDX 70 79 76 80 69 81 71 82 72 83 73 84 74 85 51 86 52 87 60 88
REMARK SMILES IDX 53 89 55 90 61 91 54 92 56 93 57 94 58 95 59 96
REMARK H PARENT 18 6 3 24 3 25 22 30 81 49 49 60
REMARK Flexibility Score: inf
ROOT
ATOM      1  C   UNL A   1      33.987  28.311  24.745  1.00  0.00     0.042 C 
ENDROOT
BRANCH   1   2
ATOM      2  C   UNL A   1      32.680  27.771  24.164  1.00  0.00     0.118 C 
BRANCH   2   3
ATOM      3  N   UNL A   1      32.876  27.275  22.817  1.00  0.00    -0.352 N 
ATOM      4  C   UNL A   1      33.226  26.048  22.319  1.00  0.00     0.251 C 
ATOM      5  O   UNL A   1      33.278  25.941  21.091  1.00  0.00    -0.269 OA
ATOM      6  H   UNL A   1      32.726  27.956  22.121  1.00  0.00     0.163 HD
BRANCH   4   7
ATOM      7  C   UNL A   1      33.484  24.844  23.161  1.00  0.00     0.040 A 
ATOM      8  N   UNL A   1      34.560  21.352  25.397  1.00  0.00    -0.312 N 
ATOM      9  C   UNL A   1      35.983  21.065  25.551  1.00  0.00     0.126 C 
ATOM     10  C   UNL A   1      34.202  22.530  24.659  1.00  0.00     0.047 A 
ATOM     11  C   UNL A   1      36.834  21.506  24.377  1.00  0.00     0.027 C 
ATOM     12  C   UNL A   1      35.192  23.331  24.060  1.00  0.00    -0.023 A 
ATOM     13  C   UNL A   1      32.867  22.913  24.508  1.00  0.00     0.027 A 
ATOM     14  C   UNL A   1      36.654  22.997  24.170  1.00  0.00     0.039 C 
ATOM     15  C   UNL A   1      34.825  24.470  23.319  1.00  0.00     0.019 A 
ATOM     16  C   UNL A   1      32.518  24.078  23.809  1.00  0.00     0.016 A 
BRANCH   8  17
ATOM     17  C   UNL A   1      33.698  20.265  25.436  1.00  0.00     0.236 C 
ATOM     18  O   UNL A   1      32.906  20.124  26.374  1.00  0.00    -0.274 OA
BRANCH  17  19
ATOM     19  C   UNL A   1      33.646  19.309  24.243  1.00  0.00     0.142 C 
ATOM     20  C   UNL A   1      32.900  17.138  25.506  1.00  0.00     0.076 C 
ATOM     21  C   UNL A   1      33.824  17.811  24.495  1.00  0.00     0.192 C 
ATOM     22  N   UNL A   1      33.560  17.252  23.157  1.00  0.00    -0.343 N 
ATOM     23  C   UNL A   1      32.527  18.079  22.521  1.00  0.00     0.261 C 
ATOM     24  H   UNL A   1      33.229  16.290  23.242  1.00  0.00     0.346 HD
ATOM     25  H   UNL A   1      34.411  17.251  22.595  1.00  0.00     0.346 HD
ATOM     26  C   UNL A   1      32.428  19.362  23.338  1.00  0.00     0.081 C 
ENDBRANCH  17  19
ENDBRANCH   8  17
ENDBRANCH   4   7
ENDBRANCH   2   3
ENDBRANCH   1   2
BRANCH   1  27
ATOM     27  C   UNL A   1      33.943  28.480  26.261  1.00  0.00     0.118 C 
BRANCH  27  28
ATOM     28  N   UNL A   1      33.773  29.876  26.640  1.00  0.00    -0.352 N 
ATOM     29  C   UNL A   1      34.485  30.637  27.530  1.00  0.00     0.251 C 
ATOM     30  H   UNL A   1      33.034  30.344  26.187  1.00  0.00     0.163 HD
ATOM     31  O   UNL A   1      34.028  31.722  27.886  1.00  0.00    -0.269 OA
BRANCH  29  32
ATOM     32  C   UNL A   1      35.786  30.171  28.055  1.00  0.00     0.039 A 
ATOM     33  C   UNL A   1      36.922  30.307  27.250  1.00  0.00     0.014 A 
ATOM     34  C   UNL A   1      35.881  29.543  29.300  1.00  0.00     0.014 A 
ATOM     35  C   UNL A   1      38.154  29.834  27.704  1.00  0.00     0.010 A 
ATOM     36  C   UNL A   1      37.123  29.137  29.780  1.00  0.00     0.010 A 
ATOM     37  C   UNL A   1      38.267  29.255  28.977  1.00  0.00    -0.014 A 
BRANCH  37  38
ATOM     38  C   UNL A   1      39.568  28.742  29.475  1.00  0.00     0.031 A 
ATOM     39  C   UNL A   1      40.283  29.454  30.591  1.00  0.00     0.074 A 
ATOM     40  C   UNL A   1      40.140  27.684  28.869  1.00  0.00     0.049 A 
ATOM     41  N   UNL A   1      41.447  29.190  31.126  1.00  0.00    -0.248 NA
ATOM     42  C   UNL A   1      39.616  30.636  31.162  1.00  0.00     0.031 C 
ATOM     43  C   UNL A   1      39.585  26.968  27.719  1.00  0.00     0.029 A 
ATOM     44  N   UNL A   1      41.329  27.048  29.116  1.00  0.00    -0.354 N 
ATOM     45  C   UNL A   1      41.668  30.188  32.068  1.00  0.00     0.074 A 
ATOM     46  C   UNL A   1      40.536  31.087  32.001  1.00  0.00     0.031 C 
ATOM     47  C   UNL A   1      40.436  25.995  27.356  1.00  0.00     0.029 A 
ATOM     48  C   UNL A   1      41.602  26.030  28.233  1.00  0.00     0.049 A 
ATOM     49  H   UNL A   1      41.930  27.295  29.857  1.00  0.00     0.167 HD
ATOM     50  C   UNL A   1      42.699  30.326  32.935  1.00  0.00     0.034 A 
ATOM     51  C   UNL A   1      42.674  25.220  28.138  1.00  0.00     0.034 A 
ATOM     52  C   UNL A   1      43.798  29.403  33.026  1.00  0.00     0.049 A 
ATOM     53  C   UNL A   1      43.774  25.345  29.156  1.00  0.00     0.074 A 
ATOM     54  C   UNL A   1      44.855  29.405  33.919  1.00  0.00     0.029 A 
ATOM     55  N   UNL A   1      43.982  28.311  32.190  1.00  0.00    -0.354 N 
ATOM     56  N   UNL A   1      43.890  26.202  30.142  1.00  0.00    -0.248 NA
ATOM     57  C   UNL A   1      44.866  24.365  29.080  1.00  0.00     0.031 C 
ATOM     58  C   UNL A   1      45.683  28.318  33.616  1.00  0.00     0.029 A 
ATOM     59  C   UNL A   1      45.132  27.629  32.547  1.00  0.00     0.049 A 
ATOM     60  H   UNL A   1      43.382  28.059  31.452  1.00  0.00     0.167 HD
ATOM     61  C   UNL A   1      45.048  25.847  30.822  1.00  0.00     0.074 A 
ATOM     62  C   UNL A   1      45.585  24.681  30.149  1.00  0.00     0.031 C 
ATOM     63  C   UNL A   1      45.624  26.440  31.897  1.00  0.00     0.034 A 
BRANCH  50  64
ATOM     64  C   UNL A   1      42.646  31.486  33.898  1.00  0.00     0.023 A 
ATOM     65  C   UNL A   1      43.237  32.714  33.533  1.00  0.00     0.012 A 
ATOM     66  C   UNL A   1      41.995  31.378  35.142  1.00  0.00     0.148 A 
ATOM     67  C   UNL A   1      43.221  33.801  34.406  1.00  0.00     0.002 A 
ATOM     68  C   UNL A   1      41.944  32.480  35.988  1.00  0.00     0.091 A 
ATOM     69  F   UNL A   1      41.457  30.199  35.485  1.00  0.00    -0.205 F 
ATOM     70  C   UNL A   1      42.568  33.686  35.629  1.00  0.00     0.022 A 
BRANCH  68  71
ATOM     71  S   UNL A   1      41.057  32.457  37.552  1.00  0.00     0.127 S 
ATOM     72  O   UNL A   1      41.903  31.578  38.358  1.00  0.00    -0.237 OA
ATOM     73  O   UNL A   1      41.091  33.865  37.948  1.00  0.00    -0.237 OA
ATOM     74  O   UNL A   1      39.728  31.947  37.247  1.00  0.00    -0.744 OA
ENDBRANCH  68  71
ENDBRANCH  50  64
BRANCH  51  75
ATOM     75  C   UNL A   1      42.709  24.171  27.080  1.00  0.00     0.023 A 
ATOM     76  C   UNL A   1      43.492  24.374  25.928  1.00  0.00     0.012 A 
ATOM     77  C   UNL A   1      42.025  22.950  27.241  1.00  0.00     0.148 A 
ATOM     78  C   UNL A   1      43.574  23.391  24.942  1.00  0.00     0.002 A 
ATOM     79  C   UNL A   1      42.156  21.952  26.280  1.00  0.00     0.091 A 
ATOM     80  F   UNL A   1      41.279  22.780  28.341  1.00  0.00    -0.205 F 
ATOM     81  C   UNL A   1      42.916  22.177  25.123  1.00  0.00     0.022 A 
BRANCH  79  82
ATOM     82  S   UNL A   1      41.460  20.310  26.502  1.00  0.00     0.127 S 
ATOM     83  O   UNL A   1      40.027  20.573  26.370  1.00  0.00    -0.237 OA
ATOM     84  O   UNL A   1      42.055  19.577  25.381  1.00  0.00    -0.237 OA
ATOM     85  O   UNL A   1      41.906  19.865  27.811  1.00  0.00    -0.744 OA
ENDBRANCH  79  82
ENDBRANCH  51  75
BRANCH  63  86
ATOM     86  C   UNL A   1      46.890  25.827  32.436  1.00  0.00     0.023 A 
ATOM     87  C   UNL A   1      48.140  26.277  31.967  1.00  0.00     0.012 A 
ATOM     88  C   UNL A   1      46.842  24.858  33.458  1.00  0.00     0.148 A 
ATOM     89  C   UNL A   1      49.322  25.749  32.485  1.00  0.00     0.002 A 
ATOM     90  C   UNL A   1      48.024  24.371  34.001  1.00  0.00     0.091 A 
ATOM     91  F   UNL A   1      45.642  24.427  33.876  1.00  0.00    -0.205 F 
ATOM     92  C   UNL A   1      49.265  24.807  33.509  1.00  0.00     0.022 A 
BRANCH  90  93
ATOM     93  S   UNL A   1      48.044  23.227  35.386  1.00  0.00     0.127 S 
ATOM     94  O   UNL A   1      49.466  22.902  35.485  1.00  0.00    -0.237 OA
ATOM     95  O   UNL A   1      47.528  24.050  36.481  1.00  0.00    -0.237 OA
ATOM     96  O   UNL A   1      47.172  22.123  35.002  1.00  0.00    -0.744 OA
ENDBRANCH  90  93
ENDBRANCH  63  86
ENDBRANCH  37  38
ENDBRANCH  29  32
ENDBRANCH  27  28
ENDBRANCH   1  27
TORSDOF 15
ENDMDL
MODEL 2
REMARK VINA RESULT:     -12.3      1.196      2.164
REMARK SMILES C[C@H]1[NH2+]CC[C@H]1C(=O)N1CCCc2cc(C(=O)NCCCNC(=O)c3ccc(-c4c5nc(c(-c6cccc(S(=O)(=O)[O-])c6F)c6ccc([nH]6)c(-c6cccc(S(=O)(=O)[O-])c6F)c6nc(c(-c7cccc(S(=O)(=O)[O-])c7F)c7ccc4[nH]7)C=C6)C=C5)cc3)ccc21
REMARK SMILES IDX 20 1 19 2 18 3 16 4 17 5 15 7 9 8 10 9 90 10 11 11 13 12
REMARK SMILES IDX 89 13 12 14 14 15 88 16 7 17 8 18 6 19 1 20 2 21 3 22 4 23
REMARK SMILES IDX 5 26 21 27 22 28 23 29 24 31 25 32 26 33 87 34 27 35 86 36
REMARK SMILES IDX 28 37 29 38 30 39 80 40 31 41 85 42 79 43 81 44 32 45 84 46
REMARK SMILES IDX 78 47 77 48 33 50 65 51 45 52 64 53 46 54 49 55 63 56 82 57
REMARK SMILES IDX 47 58 48 59 62 61 83 62 50 63 34 64 35 65 43 66 36 67 38 68
REMARK SMILES IDX 44 69 37 70 39 71 40 72 41 73 42 74 66 75 67 76 75 77 68 78
REMARK SMILES IDX 70 79 76 80 69 81 71 82 72 83 73 84 74 85 51 86 52 87 60 88
REMARK SMILES IDX 53 89 55 90 61 91 54 92 56 93 57 94 58 95 59 96
REMARK H PARENT 18 6 3 24 3 25 22 30 81 49 49 60
REMARK Flexibility Score: inf
ROOT
ATOM      1  C   UNL A   1      33.095  28.438  24.729  1.00  0.00     0.042 C 
ENDROOT
BRANCH   1   2
ATOM      2  C   UNL A   1      33.774  28.113  23.399  1.00  0.00     0.118 C 
BRANCH   2   3
ATOM      3  N   UNL A   1      32.810  27.642  22.425  1.00  0.00    -0.352 N 
ATOM      4  C   UNL A   1      32.292  26.403  22.154  1.00  0.00     0.251 C 
ATOM      5  O   UNL A   1      31.445  26.338  21.259  1.00  0.00    -0.269 OA
ATOM      6  H   UNL A   1      32.457  28.354  21.843  1.00  0.00     0.163 HD
BRANCH   4   7
ATOM      7  C   UNL A   1      32.644  25.164  22.906  1.00  0.00     0.040 A 
ATOM      8  N   UNL A   1      33.590  21.802  25.387  1.00  0.00    -0.312 N 
ATOM      9  C   UNL A   1      32.988  21.758  26.717  1.00  0.00     0.126 C 
ATOM     10  C   UNL A   1      33.261  22.922  24.553  1.00  0.00     0.047 A 
ATOM     11  C   UNL A   1      32.763  23.122  27.340  1.00  0.00     0.027 C 
ATOM     12  C   UNL A   1      32.441  23.961  25.034  1.00  0.00    -0.023 A 
ATOM     13  C   UNL A   1      33.745  23.021  23.246  1.00  0.00     0.027 A 
ATOM     14  C   UNL A   1      31.874  23.940  26.426  1.00  0.00     0.039 C 
ATOM     15  C   UNL A   1      32.146  25.065  24.212  1.00  0.00     0.019 A 
ATOM     16  C   UNL A   1      33.404  24.103  22.421  1.00  0.00     0.016 A 
BRANCH   8  17
ATOM     17  C   UNL A   1      34.805  21.150  25.233  1.00  0.00     0.236 C 
ATOM     18  O   UNL A   1      34.862  20.053  24.669  1.00  0.00    -0.274 OA
BRANCH  17  19
ATOM     19  C   UNL A   1      36.093  21.861  25.651  1.00  0.00     0.142 C 
ATOM     20  C   UNL A   1      36.971  22.524  23.273  1.00  0.00     0.076 C 
ATOM     21  C   UNL A   1      37.249  21.932  24.652  1.00  0.00     0.192 C 
ATOM     22  N   UNL A   1      38.203  22.802  25.364  1.00  0.00    -0.343 N 
ATOM     23  C   UNL A   1      37.429  23.791  26.122  1.00  0.00     0.261 C 
ATOM     24  H   UNL A   1      38.808  23.276  24.693  1.00  0.00     0.346 HD
ATOM     25  H   UNL A   1      38.789  22.252  25.992  1.00  0.00     0.346 HD
ATOM     26  C   UNL A   1      35.990  23.288  26.157  1.00  0.00     0.081 C 
ENDBRANCH  17  19
ENDBRANCH   8  17
ENDBRANCH   4   7
ENDBRANCH   2   3
ENDBRANCH   1   2
BRANCH   1  27
ATOM     27  C   UNL A   1      34.086  28.788  25.836  1.00  0.00     0.118 C 
BRANCH  27  28
ATOM     28  N   UNL A   1      33.804  30.096  26.412  1.00  0.00    -0.352 N 
ATOM     29  C   UNL A   1      34.407  30.741  27.460  1.00  0.00     0.251 C 
ATOM     30  H   UNL A   1      33.069  30.592  25.984  1.00  0.00     0.163 HD
ATOM     31  O   UNL A   1      33.861  31.731  27.946  1.00  0.00    -0.269 OA
BRANCH  29  32
ATOM     32  C   UNL A   1      35.698  30.266  28.003  1.00  0.00     0.039 A 
ATOM     33  C   UNL A   1      36.859  30.478  27.254  1.00  0.00     0.014 A 
ATOM     34  C   UNL A   1      35.760  29.556  29.206  1.00  0.00     0.014 A 
ATOM     35  C   UNL A   1      38.084  29.998  27.722  1.00  0.00     0.010 A 
ATOM     36  C   UNL A   1      36.991  29.142  29.705  1.00  0.00     0.010 A 
ATOM     37  C   UNL A   1      38.162  29.336  28.957  1.00  0.00    -0.014 A 
BRANCH  37  38
ATOM     38  C   UNL A   1      39.454  28.815  29.469  1.00  0.00     0.031 A 
ATOM     39  C   UNL A   1      40.169  29.532  30.582  1.00  0.00     0.074 A 
ATOM     40  C   UNL A   1      40.019  27.745  28.879  1.00  0.00     0.049 A 
ATOM     41  N   UNL A   1      41.327  29.263  31.127  1.00  0.00    -0.248 NA
ATOM     42  C   UNL A   1      39.511  30.728  31.135  1.00  0.00     0.031 C 
ATOM     43  C   UNL A   1      39.464  27.021  27.734  1.00  0.00     0.029 A 
ATOM     44  N   UNL A   1      41.199  27.099  29.141  1.00  0.00    -0.354 N 
ATOM     45  C   UNL A   1      41.552  30.270  32.059  1.00  0.00     0.074 A 
ATOM     46  C   UNL A   1      40.431  31.179  31.975  1.00  0.00     0.031 C 
ATOM     47  C   UNL A   1      40.307  26.036  27.387  1.00  0.00     0.029 A 
ATOM     48  C   UNL A   1      41.468  26.068  28.272  1.00  0.00     0.049 A 
ATOM     49  H   UNL A   1      41.798  27.348  29.883  1.00  0.00     0.167 HD
ATOM     50  C   UNL A   1      42.578  30.407  32.931  1.00  0.00     0.034 A 
ATOM     51  C   UNL A   1      42.531  25.246  28.192  1.00  0.00     0.034 A 
ATOM     52  C   UNL A   1      43.668  29.473  33.040  1.00  0.00     0.049 A 
ATOM     53  C   UNL A   1      43.626  25.372  29.216  1.00  0.00     0.074 A 
ATOM     54  C   UNL A   1      44.718  29.474  33.940  1.00  0.00     0.029 A 
ATOM     55  N   UNL A   1      43.846  28.370  32.218  1.00  0.00    -0.354 N 
ATOM     56  N   UNL A   1      43.744  26.238  30.193  1.00  0.00    -0.248 NA
ATOM     57  C   UNL A   1      44.708  24.379  29.159  1.00  0.00     0.031 C 
ATOM     58  C   UNL A   1      45.538  28.375  33.655  1.00  0.00     0.029 A 
ATOM     59  C   UNL A   1      44.986  27.679  32.590  1.00  0.00     0.049 A 
ATOM     60  H   UNL A   1      43.248  28.115  31.478  1.00  0.00     0.167 HD
ATOM     61  C   UNL A   1      44.895  25.879  30.885  1.00  0.00     0.074 A 
ATOM     62  C   UNL A   1      45.424  24.700  30.229  1.00  0.00     0.031 C 
ATOM     63  C   UNL A   1      45.470  26.478  31.957  1.00  0.00     0.034 A 
BRANCH  50  64
ATOM     64  C   UNL A   1      42.532  31.577  33.881  1.00  0.00     0.023 A 
ATOM     65  C   UNL A   1      43.027  32.829  33.459  1.00  0.00     0.012 A 
ATOM     66  C   UNL A   1      41.978  31.456  35.170  1.00  0.00     0.148 A 
ATOM     67  C   UNL A   1      43.015  33.928  34.316  1.00  0.00     0.002 A 
ATOM     68  C   UNL A   1      41.928  32.568  36.004  1.00  0.00     0.091 A 
ATOM     69  F   UNL A   1      41.531  30.255  35.566  1.00  0.00    -0.205 F 
ATOM     70  C   UNL A   1      42.458  33.799  35.584  1.00  0.00     0.022 A 
BRANCH  68  71
ATOM     71  S   UNL A   1      41.158  32.523  37.627  1.00  0.00     0.127 S 
ATOM     72  O   UNL A   1      39.804  32.076  37.300  1.00  0.00    -0.237 OA
ATOM     73  O   UNL A   1      41.973  31.530  38.329  1.00  0.00    -0.237 OA
ATOM     74  O   UNL A   1      41.265  33.875  38.156  1.00  0.00    -0.744 OA
ENDBRANCH  68  71
ENDBRANCH  50  64
BRANCH  51  75
ATOM     75  C   UNL A   1      42.562  24.185  27.147  1.00  0.00     0.023 A 
ATOM     76  C   UNL A   1      43.338  24.376  25.989  1.00  0.00     0.012 A 
ATOM     77  C   UNL A   1      41.881  22.965  27.326  1.00  0.00     0.148 A 
ATOM     78  C   UNL A   1      43.417  23.381  25.013  1.00  0.00     0.002 A 
ATOM     79  C   UNL A   1      42.008  21.956  26.376  1.00  0.00     0.091 A 
ATOM     80  F   UNL A   1      41.142  22.807  28.432  1.00  0.00    -0.205 F 
ATOM     81  C   UNL A   1      42.762  22.168  25.213  1.00  0.00     0.022 A 
BRANCH  79  82
ATOM     82  S   UNL A   1      41.316  20.316  26.621  1.00  0.00     0.127 S 
ATOM     83  O   UNL A   1      41.784  19.615  25.426  1.00  0.00    -0.237 OA
ATOM     84  O   UNL A   1      41.961  19.899  27.869  1.00  0.00    -0.237 OA
ATOM     85  O   UNL A   1      39.879  20.504  26.724  1.00  0.00    -0.744 OA
ENDBRANCH  79  82
ENDBRANCH  51  75
BRANCH  63  86
ATOM     86  C   UNL A   1      46.725  25.858  32.511  1.00  0.00     0.023 A 
ATOM     87  C   UNL A   1      47.984  26.319  32.077  1.00  0.00     0.012 A 
ATOM     88  C   UNL A   1      46.658  24.871  33.514  1.00  0.00     0.148 A 
ATOM     89  C   UNL A   1      49.156  25.786  32.610  1.00  0.00     0.002 A 
ATOM     90  C   UNL A   1      47.830  24.377  34.073  1.00  0.00     0.091 A 
ATOM     91  F   UNL A   1      45.452  24.429  33.899  1.00  0.00    -0.205 F 
ATOM     92  C   UNL A   1      49.080  24.824  33.615  1.00  0.00     0.022 A 
BRANCH  90  93
ATOM     93  S   UNL A   1      47.823  23.207  35.436  1.00  0.00     0.127 S 
ATOM     94  O   UNL A   1      47.392  24.049  36.551  1.00  0.00    -0.237 OA
ATOM     95  O   UNL A   1      46.834  22.221  34.998  1.00  0.00    -0.237 OA
ATOM     96  O   UNL A   1      49.184  22.693  35.527  1.00  0.00    -0.744 OA
ENDBRANCH  90  93
ENDBRANCH  63  86
ENDBRANCH  37  38
ENDBRANCH  29  32
ENDBRANCH  27  28
ENDBRANCH   1  27
TORSDOF 15
ENDMDL
MODEL 3
REMARK VINA RESULT:     -12.2      3.538      8.812
REMARK SMILES C[C@H]1[NH2+]CC[C@H]1C(=O)N1CCCc2cc(C(=O)NCCCNC(=O)c3ccc(-c4c5nc(c(-c6cccc(S(=O)(=O)[O-])c6F)c6ccc([nH]6)c(-c6cccc(S(=O)(=O)[O-])c6F)c6nc(c(-c7cccc(S(=O)(=O)[O-])c7F)c7ccc4[nH]7)C=C6)C=C5)cc3)ccc21
REMARK SMILES IDX 20 1 19 2 18 3 16 4 17 5 15 7 9 8 10 9 90 10 11 11 13 12
REMARK SMILES IDX 89 13 12 14 14 15 88 16 7 17 8 18 6 19 1 20 2 21 3 22 4 23
REMARK SMILES IDX 5 26 21 27 22 28 23 29 24 31 25 32 26 33 87 34 27 35 86 36
REMARK SMILES IDX 28 37 29 38 30 39 80 40 31 41 85 42 79 43 81 44 32 45 84 46
REMARK SMILES IDX 78 47 77 48 33 50 65 51 45 52 64 53 46 54 49 55 63 56 82 57
REMARK SMILES IDX 47 58 48 59 62 61 83 62 50 63 34 64 35 65 43 66 36 67 38 68
REMARK SMILES IDX 44 69 37 70 39 71 40 72 41 73 42 74 66 75 67 76 75 77 68 78
REMARK SMILES IDX 70 79 76 80 69 81 71 82 72 83 73 84 74 85 51 86 52 87 60 88
REMARK SMILES IDX 53 89 55 90 61 91 54 92 56 93 57 94 58 95 59 96
REMARK H PARENT 18 6 3 24 3 25 22 30 81 49 49 60
REMARK Flexibility Score: inf
ROOT
ATOM      1  C   UNL A   1      31.404  32.182  26.662  1.00  0.00     0.042 C 
ENDROOT
BRANCH   1   2
ATOM      2  C   UNL A   1      31.585  30.832  25.968  1.00  0.00     0.118 C 
BRANCH   2   3
ATOM      3  N   UNL A   1      30.710  30.716  24.819  1.00  0.00    -0.352 N 
ATOM      4  C   UNL A   1      30.404  29.675  23.984  1.00  0.00     0.251 C 
ATOM      5  O   UNL A   1      29.577  29.898  23.096  1.00  0.00    -0.269 OA
ATOM      6  H   UNL A   1      30.240  31.553  24.595  1.00  0.00     0.163 HD
BRANCH   4   7
ATOM      7  C   UNL A   1      30.961  28.297  24.122  1.00  0.00     0.040 A 
ATOM      8  N   UNL A   1      32.598  24.339  24.139  1.00  0.00    -0.312 N 
ATOM      9  C   UNL A   1      33.465  23.965  23.026  1.00  0.00     0.126 C 
ATOM     10  C   UNL A   1      32.062  25.670  24.138  1.00  0.00     0.047 A 
ATOM     11  C   UNL A   1      33.108  24.633  21.712  1.00  0.00     0.027 C 
ATOM     12  C   UNL A   1      32.319  26.548  23.068  1.00  0.00    -0.023 A 
ATOM     13  C   UNL A   1      31.268  26.133  25.191  1.00  0.00     0.027 A 
ATOM     14  C   UNL A   1      33.162  26.137  21.893  1.00  0.00     0.039 C 
ATOM     15  C   UNL A   1      31.766  27.842  23.069  1.00  0.00     0.019 A 
ATOM     16  C   UNL A   1      30.765  27.442  25.203  1.00  0.00     0.016 A 
BRANCH   8  17
ATOM     17  C   UNL A   1      31.907  23.309  24.762  1.00  0.00     0.236 C 
ATOM     18  O   UNL A   1      30.845  22.890  24.290  1.00  0.00    -0.274 OA
BRANCH  17  19
ATOM     19  C   UNL A   1      32.536  22.608  25.967  1.00  0.00     0.142 C 
ATOM     20  C   UNL A   1      33.690  20.619  24.712  1.00  0.00     0.076 C 
ATOM     21  C   UNL A   1      32.830  21.110  25.873  1.00  0.00     0.192 C 
ATOM     22  N   UNL A   1      33.550  20.870  27.138  1.00  0.00    -0.343 N 
ATOM     23  C   UNL A   1      34.348  22.064  27.434  1.00  0.00     0.261 C 
ATOM     24  H   UNL A   1      34.162  20.059  27.040  1.00  0.00     0.346 HD
ATOM     25  H   UNL A   1      32.891  20.685  27.894  1.00  0.00     0.346 HD
ATOM     26  C   UNL A   1      33.826  23.176  26.531  1.00  0.00     0.081 C 
ENDBRANCH  17  19
ENDBRANCH   8  17
ENDBRANCH   4   7
ENDBRANCH   2   3
ENDBRANCH   1   2
BRANCH   1  27
ATOM     27  C   UNL A   1      32.698  32.723  27.262  1.00  0.00     0.118 C 
BRANCH  27  28
ATOM     28  N   UNL A   1      32.558  34.114  27.672  1.00  0.00    -0.352 N 
ATOM     29  C   UNL A   1      33.138  34.784  28.718  1.00  0.00     0.251 C 
ATOM     30  H   UNL A   1      31.954  34.655  27.113  1.00  0.00     0.163 HD
ATOM     31  O   UNL A   1      32.699  35.888  29.037  1.00  0.00    -0.269 OA
BRANCH  29  32
ATOM     32  C   UNL A   1      34.278  34.198  29.455  1.00  0.00     0.039 A 
ATOM     33  C   UNL A   1      35.575  34.459  29.000  1.00  0.00     0.014 A 
ATOM     34  C   UNL A   1      34.076  33.343  30.542  1.00  0.00     0.014 A 
ATOM     35  C   UNL A   1      36.667  33.880  29.650  1.00  0.00     0.010 A 
ATOM     36  C   UNL A   1      35.168  32.827  31.232  1.00  0.00     0.010 A 
ATOM     37  C   UNL A   1      36.473  33.068  30.778  1.00  0.00    -0.014 A 
BRANCH  37  38
ATOM     38  C   UNL A   1      37.621  32.442  31.479  1.00  0.00     0.031 A 
ATOM     39  C   UNL A   1      38.361  31.297  30.842  1.00  0.00     0.074 A 
ATOM     40  C   UNL A   1      37.946  32.851  32.721  1.00  0.00     0.049 A 
ATOM     41  N   UNL A   1      39.353  30.589  31.318  1.00  0.00    -0.248 NA
ATOM     42  C   UNL A   1      37.909  30.872  29.507  1.00  0.00     0.031 C 
ATOM     43  C   UNL A   1      37.244  33.890  33.477  1.00  0.00     0.029 A 
ATOM     44  N   UNL A   1      38.927  32.422  33.576  1.00  0.00    -0.354 N 
ATOM     45  C   UNL A   1      39.620  29.617  30.360  1.00  0.00     0.074 A 
ATOM     46  C   UNL A   1      38.657  29.800  29.296  1.00  0.00     0.031 C 
ATOM     47  C   UNL A   1      37.813  34.012  34.686  1.00  0.00     0.029 A 
ATOM     48  C   UNL A   1      38.906  33.051  34.798  1.00  0.00     0.049 A 
ATOM     49  H   UNL A   1      39.586  31.730  33.337  1.00  0.00     0.167 HD
ATOM     50  C   UNL A   1      40.597  28.680  30.348  1.00  0.00     0.034 A 
ATOM     51  C   UNL A   1      39.676  32.869  35.888  1.00  0.00     0.034 A 
ATOM     52  C   UNL A   1      41.579  28.534  31.389  1.00  0.00     0.049 A 
ATOM     53  C   UNL A   1      40.801  31.874  35.826  1.00  0.00     0.074 A 
ATOM     54  C   UNL A   1      42.659  27.671  31.442  1.00  0.00     0.029 A 
ATOM     55  N   UNL A   1      41.599  29.272  32.564  1.00  0.00    -0.354 N 
ATOM     56  N   UNL A   1      41.136  31.069  34.847  1.00  0.00    -0.248 NA
ATOM     57  C   UNL A   1      41.685  31.794  36.998  1.00  0.00     0.031 C 
ATOM     58  C   UNL A   1      43.327  27.881  32.655  1.00  0.00     0.029 A 
ATOM     59  C   UNL A   1      42.673  28.888  33.348  1.00  0.00     0.049 A 
ATOM     60  H   UNL A   1      40.944  29.967  32.805  1.00  0.00     0.167 HD
ATOM     61  C   UNL A   1      42.284  30.409  35.269  1.00  0.00     0.074 A 
ATOM     62  C   UNL A   1      42.600  30.927  36.585  1.00  0.00     0.031 C 
ATOM     63  C   UNL A   1      43.002  29.451  34.633  1.00  0.00     0.034 A 
BRANCH  50  64
ATOM     64  C   UNL A   1      40.689  27.787  29.137  1.00  0.00     0.023 A 
ATOM     65  C   UNL A   1      39.846  26.660  29.045  1.00  0.00     0.012 A 
ATOM     66  C   UNL A   1      41.578  28.069  28.082  1.00  0.00     0.148 A 
ATOM     67  C   UNL A   1      39.916  25.803  27.947  1.00  0.00     0.002 A 
ATOM     68  C   UNL A   1      41.610  27.235  26.969  1.00  0.00     0.091 A 
ATOM     69  F   UNL A   1      42.389  29.131  28.192  1.00  0.00    -0.205 F 
ATOM     70  C   UNL A   1      40.792  26.096  26.906  1.00  0.00     0.022 A 
BRANCH  68  71
ATOM     71  S   UNL A   1      42.648  27.572  25.540  1.00  0.00     0.127 S 
ATOM     72  O   UNL A   1      42.065  28.815  25.038  1.00  0.00    -0.237 OA
ATOM     73  O   UNL A   1      43.972  27.722  26.147  1.00  0.00    -0.237 OA
ATOM     74  O   UNL A   1      42.512  26.414  24.669  1.00  0.00    -0.744 OA
ENDBRANCH  68  71
ENDBRANCH  50  64
BRANCH  51  75
ATOM     75  C   UNL A   1      39.447  33.711  37.096  1.00  0.00     0.023 A 
ATOM     76  C   UNL A   1      39.848  35.061  37.085  1.00  0.00     0.012 A 
ATOM     77  C   UNL A   1      38.778  33.201  38.225  1.00  0.00     0.148 A 
ATOM     78  C   UNL A   1      39.610  35.882  38.188  1.00  0.00     0.002 A 
ATOM     79  C   UNL A   1      38.495  34.040  39.298  1.00  0.00     0.091 A 
ATOM     80  F   UNL A   1      38.412  31.912  38.218  1.00  0.00    -0.205 F 
ATOM     81  C   UNL A   1      38.923  35.375  39.288  1.00  0.00     0.022 A 
BRANCH  79  82
ATOM     82  S   UNL A   1      37.492  33.509  40.692  1.00  0.00     0.127 S 
ATOM     83  O   UNL A   1      38.364  32.520  41.326  1.00  0.00    -0.237 OA
ATOM     84  O   UNL A   1      37.333  34.757  41.442  1.00  0.00    -0.237 OA
ATOM     85  O   UNL A   1      36.260  32.994  40.119  1.00  0.00    -0.744 OA
ENDBRANCH  79  82
ENDBRANCH  51  75
BRANCH  63  86
ATOM     86  C   UNL A   1      44.221  28.914  35.336  1.00  0.00     0.023 A 
ATOM     87  C   UNL A   1      45.484  29.483  35.079  1.00  0.00     0.012 A 
ATOM     88  C   UNL A   1      44.104  27.896  36.303  1.00  0.00     0.148 A 
ATOM     89  C   UNL A   1      46.617  29.026  35.753  1.00  0.00     0.002 A 
ATOM     90  C   UNL A   1      45.229  27.478  37.003  1.00  0.00     0.091 A 
ATOM     91  F   UNL A   1      42.896  27.353  36.518  1.00  0.00    -0.205 F 
ATOM     92  C   UNL A   1      46.488  28.033  36.721  1.00  0.00     0.022 A 
BRANCH  90  93
ATOM     93  S   UNL A   1      45.139  26.273  38.332  1.00  0.00     0.127 S 
ATOM     94  O   UNL A   1      44.662  25.084  37.625  1.00  0.00    -0.237 OA
ATOM     95  O   UNL A   1      46.529  26.198  38.782  1.00  0.00    -0.237 OA
ATOM     96  O   UNL A   1      44.218  26.831  39.313  1.00  0.00    -0.744 OA
ENDBRANCH  90  93
ENDBRANCH  63  86
ENDBRANCH  37  38
ENDBRANCH  29  32
ENDBRANCH  27  28
ENDBRANCH   1  27
TORSDOF 15
ENDMDL
