MODEL 1
REMARK VINA RESULT:     -12.0      0.000      0.000
REMARK SMILES Cn1nc(C(=O)N2C[C@@H](O)C[C@H]2C(=O)NCCCNC(=O)c2ccc(-c3c4nc(c(-c5cccc(S(=O)(=O)[O-])c5F)c5ccc([nH]5)c(-c5cccc(S(=O)(=O)[O-])c5F)c5nc(c(-c6cccc(S(=O)(=O)[O-])c6F)c6ccc3[nH]6)C=C5)C=C4)cc2)ccc1=O
REMARK SMILES IDX 17 1 16 2 15 3 13 4 14 5 12 7 7 8 8 9 9 10 11 11 5 12 6 13
REMARK SMILES IDX 4 14 1 15 2 16 3 17 87 18 86 19 88 20 85 21 10 22 18 24
REMARK SMILES IDX 19 25 20 26 21 28 22 29 23 30 84 31 24 32 83 33 25 34 26 35
REMARK SMILES IDX 27 36 77 37 28 38 82 39 76 40 78 41 29 42 81 43 75 44 74 45
REMARK SMILES IDX 30 47 62 48 42 49 61 50 43 51 46 52 60 53 79 54 44 55 45 56
REMARK SMILES IDX 59 58 80 59 47 60 31 61 32 62 40 63 33 64 35 65 41 66 34 67
REMARK SMILES IDX 36 68 37 69 38 70 39 71 63 72 64 73 72 74 65 75 67 76 73 77
REMARK SMILES IDX 66 78 68 79 69 80 70 81 71 82 48 83 49 84 57 85 50 86 52 87
REMARK SMILES IDX 58 88 51 89 53 90 54 91 55 92 56 93
REMARK H PARENT 15 6 10 23 19 27 78 46 46 57
REMARK Flexibility Score: inf
ROOT
ATOM      1  C   UNL A   1      31.465  32.068  26.600  1.00  0.00     0.042 C 
ENDROOT
BRANCH   1   2
ATOM      2  C   UNL A   1      31.677  30.671  26.045  1.00  0.00     0.117 C 
BRANCH   2   3
ATOM      3  N   UNL A   1      32.846  30.019  26.592  1.00  0.00    -0.354 N 
ATOM      4  C   UNL A   1      33.603  28.993  26.109  1.00  0.00     0.242 C 
ATOM      5  O   UNL A   1      34.693  28.804  26.659  1.00  0.00    -0.273 OA
ATOM      6  H   UNL A   1      33.147  30.375  27.459  1.00  0.00     0.163 HD
BRANCH   4   7
ATOM      7  C   UNL A   1      33.234  28.227  24.826  1.00  0.00     0.177 C 
ATOM      8  N   UNL A   1      31.922  27.583  24.784  1.00  0.00    -0.323 N 
ATOM      9  C   UNL A   1      31.137  28.026  23.644  1.00  0.00     0.152 C 
ATOM     10  C   UNL A   1      32.152  28.658  22.695  1.00  0.00     0.136 C 
ATOM     11  C   UNL A   1      33.300  29.125  23.589  1.00  0.00     0.069 C 
BRANCH   8  12
ATOM     12  C   UNL A   1      31.779  26.395  25.490  1.00  0.00     0.275 C 
ATOM     13  O   UNL A   1      31.097  26.291  26.503  1.00  0.00    -0.267 OA
BRANCH  12  14
ATOM     14  C   UNL A   1      32.647  25.205  25.096  1.00  0.00     0.149 A 
ATOM     15  C   UNL A   1      33.055  23.101  22.228  1.00  0.00     0.178 C 
ATOM     16  N   UNL A   1      33.314  23.674  23.535  1.00  0.00    -0.232 N 
ATOM     17  N   UNL A   1      32.478  24.700  23.911  1.00  0.00    -0.165 NA
ATOM     18  C   UNL A   1      34.395  23.233  24.290  1.00  0.00     0.266 A 
ATOM     19  C   UNL A   1      34.528  23.837  25.635  1.00  0.00     0.076 A 
ATOM     20  O   UNL A   1      35.219  22.404  23.914  1.00  0.00    -0.268 OA
ATOM     21  C   UNL A   1      33.682  24.781  26.055  1.00  0.00     0.042 A 
ENDBRANCH  12  14
ENDBRANCH   8  12
BRANCH  10  22
ATOM     22  O   UNL A   1      31.614  29.752  21.963  1.00  0.00    -0.391 OA
ATOM     23  H   UNL A   1      31.354  30.455  22.579  1.00  0.00     0.211 HD
ENDBRANCH  10  22
ENDBRANCH   4   7
ENDBRANCH   2   3
ENDBRANCH   1   2
BRANCH   1  24
ATOM     24  C   UNL A   1      32.707  32.635  27.279  1.00  0.00     0.118 C 
BRANCH  24  25
ATOM     25  N   UNL A   1      32.544  34.042  27.631  1.00  0.00    -0.352 N 
ATOM     26  C   UNL A   1      33.114  34.758  28.653  1.00  0.00     0.251 C 
ATOM     27  H   UNL A   1      31.935  34.552  27.050  1.00  0.00     0.163 HD
ATOM     28  O   UNL A   1      32.670  35.865  28.947  1.00  0.00    -0.269 OA
BRANCH  26  29
ATOM     29  C   UNL A   1      34.255  34.193  29.398  1.00  0.00     0.039 A 
ATOM     30  C   UNL A   1      34.017  33.456  30.561  1.00  0.00     0.014 A 
ATOM     31  C   UNL A   1      35.562  34.412  28.953  1.00  0.00     0.014 A 
ATOM     32  C   UNL A   1      35.092  32.887  31.247  1.00  0.00     0.010 A 
ATOM     33  C   UNL A   1      36.624  33.792  29.599  1.00  0.00     0.010 A 
ATOM     34  C   UNL A   1      36.399  33.035  30.757  1.00  0.00    -0.014 A 
BRANCH  34  35
ATOM     35  C   UNL A   1      37.557  32.432  31.456  1.00  0.00     0.031 A 
ATOM     36  C   UNL A   1      38.287  31.279  30.826  1.00  0.00     0.074 A 
ATOM     37  C   UNL A   1      37.898  32.866  32.684  1.00  0.00     0.049 A 
ATOM     38  N   UNL A   1      39.281  30.578  31.303  1.00  0.00    -0.248 NA
ATOM     39  C   UNL A   1      37.830  30.845  29.494  1.00  0.00     0.031 C 
ATOM     40  C   UNL A   1      37.223  33.937  33.419  1.00  0.00     0.029 A 
ATOM     41  N   UNL A   1      38.884  32.444  33.538  1.00  0.00    -0.354 N 
ATOM     42  C   UNL A   1      39.549  29.607  30.348  1.00  0.00     0.074 A 
ATOM     43  C   UNL A   1      38.599  29.789  29.274  1.00  0.00     0.031 C 
ATOM     44  C   UNL A   1      37.819  34.090  34.614  1.00  0.00     0.029 A 
ATOM     45  C   UNL A   1      38.902  33.119  34.735  1.00  0.00     0.049 A 
ATOM     46  H   UNL A   1      39.519  31.726  33.314  1.00  0.00     0.167 HD
ATOM     47  C   UNL A   1      40.524  28.670  30.351  1.00  0.00     0.034 A 
ATOM     48  C   UNL A   1      39.704  32.971  35.808  1.00  0.00     0.034 A 
ATOM     49  C   UNL A   1      41.501  28.527  31.391  1.00  0.00     0.049 A 
ATOM     50  C   UNL A   1      40.798  31.942  35.773  1.00  0.00     0.074 A 
ATOM     51  C   UNL A   1      42.576  27.657  31.444  1.00  0.00     0.029 A 
ATOM     52  N   UNL A   1      41.525  29.271  32.559  1.00  0.00    -0.354 N 
ATOM     53  N   UNL A   1      41.115  31.115  34.807  1.00  0.00    -0.248 NA
ATOM     54  C   UNL A   1      41.661  31.841  36.959  1.00  0.00     0.031 C 
ATOM     55  C   UNL A   1      43.251  27.874  32.648  1.00  0.00     0.029 A 
ATOM     56  C   UNL A   1      42.597  28.882  33.340  1.00  0.00     0.049 A 
ATOM     57  H   UNL A   1      40.876  29.972  32.797  1.00  0.00     0.167 HD
ATOM     58  C   UNL A   1      42.228  30.413  35.255  1.00  0.00     0.074 A 
ATOM     59  C   UNL A   1      42.537  30.920  36.577  1.00  0.00     0.031 C 
ATOM     60  C   UNL A   1      42.920  29.431  34.631  1.00  0.00     0.034 A 
BRANCH  47  61
ATOM     61  C   UNL A   1      40.634  27.772  29.152  1.00  0.00     0.023 A 
ATOM     62  C   UNL A   1      39.793  26.646  29.063  1.00  0.00     0.012 A 
ATOM     63  C   UNL A   1      41.498  28.084  28.085  1.00  0.00     0.148 A 
ATOM     64  C   UNL A   1      39.817  25.832  27.933  1.00  0.00     0.002 A 
ATOM     65  C   UNL A   1      41.495  27.285  26.948  1.00  0.00     0.091 A 
ATOM     66  F   UNL A   1      42.299  29.151  28.203  1.00  0.00    -0.205 F 
ATOM     67  C   UNL A   1      40.659  26.157  26.872  1.00  0.00     0.022 A 
BRANCH  65  68
ATOM     68  S   UNL A   1      42.502  27.640  25.504  1.00  0.00     0.127 S 
ATOM     69  O   UNL A   1      43.841  27.719  26.091  1.00  0.00    -0.237 OA
ATOM     70  O   UNL A   1      42.269  26.460  24.673  1.00  0.00    -0.237 OA
ATOM     71  O   UNL A   1      41.995  28.889  24.955  1.00  0.00    -0.744 OA
ENDBRANCH  65  68
ENDBRANCH  47  61
BRANCH  48  72
ATOM     72  C   UNL A   1      39.544  33.887  36.969  1.00  0.00     0.023 A 
ATOM     73  C   UNL A   1      39.924  35.236  36.832  1.00  0.00     0.012 A 
ATOM     74  C   UNL A   1      38.958  33.453  38.173  1.00  0.00     0.148 A 
ATOM     75  C   UNL A   1      39.733  36.137  37.880  1.00  0.00     0.002 A 
ATOM     76  C   UNL A   1      38.734  34.365  39.199  1.00  0.00     0.091 A 
ATOM     77  F   UNL A   1      38.605  32.164  38.277  1.00  0.00    -0.205 F 
ATOM     78  C   UNL A   1      39.131  35.704  39.058  1.00  0.00     0.022 A 
BRANCH  76  79
ATOM     79  S   UNL A   1      37.869  33.931  40.712  1.00  0.00     0.127 S 
ATOM     80  O   UNL A   1      36.660  33.296  40.193  1.00  0.00    -0.237 OA
ATOM     81  O   UNL A   1      38.822  33.022  41.348  1.00  0.00    -0.237 OA
ATOM     82  O   UNL A   1      37.661  35.184  41.425  1.00  0.00    -0.744 OA
ENDBRANCH  76  79
ENDBRANCH  48  72
BRANCH  60  83
ATOM     83  C   UNL A   1      44.098  28.829  35.346  1.00  0.00     0.023 A 
ATOM     84  C   UNL A   1      45.363  29.429  35.210  1.00  0.00     0.012 A 
ATOM     85  C   UNL A   1      43.918  27.771  36.257  1.00  0.00     0.148 A 
ATOM     86  C   UNL A   1      46.440  28.980  35.972  1.00  0.00     0.002 A 
ATOM     87  C   UNL A   1      44.988  27.351  37.038  1.00  0.00     0.091 A 
ATOM     88  F   UNL A   1      42.703  27.215  36.359  1.00  0.00    -0.205 F 
ATOM     89  C   UNL A   1      46.250  27.952  36.894  1.00  0.00     0.022 A 
BRANCH  87  90
ATOM     90  S   UNL A   1      44.825  26.091  38.308  1.00  0.00     0.127 S 
ATOM     91  O   UNL A   1      44.068  26.802  39.337  1.00  0.00    -0.237 OA
ATOM     92  O   UNL A   1      44.075  25.046  37.611  1.00  0.00    -0.237 OA
ATOM     93  O   UNL A   1      46.182  25.718  38.684  1.00  0.00    -0.744 OA
ENDBRANCH  87  90
ENDBRANCH  60  83
ENDBRANCH  34  35
ENDBRANCH  26  29
ENDBRANCH  24  25
ENDBRANCH   1  24
TORSDOF 16
ENDMDL
MODEL 2
REMARK VINA RESULT:     -11.9      2.395      8.491
REMARK SMILES Cn1nc(C(=O)N2C[C@@H](O)C[C@H]2C(=O)NCCCNC(=O)c2ccc(-c3c4nc(c(-c5cccc(S(=O)(=O)[O-])c5F)c5ccc([nH]5)c(-c5cccc(S(=O)(=O)[O-])c5F)c5nc(c(-c6cccc(S(=O)(=O)[O-])c6F)c6ccc3[nH]6)C=C5)C=C4)cc2)ccc1=O
REMARK SMILES IDX 17 1 16 2 15 3 13 4 14 5 12 7 7 8 8 9 9 10 11 11 5 12 6 13
REMARK SMILES IDX 4 14 1 15 2 16 3 17 87 18 86 19 88 20 85 21 10 22 18 24
REMARK SMILES IDX 19 25 20 26 21 28 22 29 23 30 84 31 24 32 83 33 25 34 26 35
REMARK SMILES IDX 27 36 77 37 28 38 82 39 76 40 78 41 29 42 81 43 75 44 74 45
REMARK SMILES IDX 30 47 62 48 42 49 61 50 43 51 46 52 60 53 79 54 44 55 45 56
REMARK SMILES IDX 59 58 80 59 47 60 31 61 32 62 40 63 33 64 35 65 41 66 34 67
REMARK SMILES IDX 36 68 37 69 38 70 39 71 63 72 64 73 72 74 65 75 67 76 73 77
REMARK SMILES IDX 66 78 68 79 69 80 70 81 71 82 48 83 49 84 57 85 50 86 52 87
REMARK SMILES IDX 58 88 51 89 53 90 54 91 55 92 56 93
REMARK H PARENT 15 6 10 23 19 27 78 46 46 57
REMARK Flexibility Score: inf
ROOT
ATOM      1  C   UNL A   1      33.250  30.672  26.301  1.00  0.00     0.042 C 
ENDROOT
BRANCH   1   2
ATOM      2  C   UNL A   1      32.611  29.607  25.428  1.00  0.00     0.117 C 
BRANCH   2   3
ATOM      3  N   UNL A   1      31.846  28.641  26.186  1.00  0.00    -0.354 N 
ATOM      4  C   UNL A   1      31.228  27.490  25.797  1.00  0.00     0.242 C 
ATOM      5  O   UNL A   1      30.862  26.727  26.698  1.00  0.00    -0.273 OA
ATOM      6  H   UNL A   1      31.757  28.849  27.144  1.00  0.00     0.163 HD
BRANCH   4   7
ATOM      7  C   UNL A   1      31.155  27.048  24.325  1.00  0.00     0.177 C 
ATOM      8  N   UNL A   1      30.833  28.072  23.332  1.00  0.00    -0.323 N 
ATOM      9  C   UNL A   1      31.848  28.162  22.296  1.00  0.00     0.152 C 
ATOM     10  C   UNL A   1      32.632  26.856  22.406  1.00  0.00     0.136 C 
ATOM     11  C   UNL A   1      32.466  26.410  23.858  1.00  0.00     0.069 C 
BRANCH   8  12
ATOM     12  C   UNL A   1      29.503  28.466  23.240  1.00  0.00     0.275 C 
ATOM     13  O   UNL A   1      28.561  27.685  23.326  1.00  0.00    -0.267 OA
BRANCH  12  14
ATOM     14  C   UNL A   1      29.197  29.904  22.835  1.00  0.00     0.149 A 
ATOM     15  C   UNL A   1      27.914  31.591  19.950  1.00  0.00     0.178 C 
ATOM     16  N   UNL A   1      28.382  31.397  21.309  1.00  0.00    -0.232 N 
ATOM     17  N   UNL A   1      28.725  30.107  21.642  1.00  0.00    -0.165 NA
ATOM     18  C   UNL A   1      28.394  32.462  22.203  1.00  0.00     0.266 A 
ATOM     19  C   UNL A   1      28.953  32.171  23.542  1.00  0.00     0.076 A 
ATOM     20  O   UNL A   1      27.977  33.590  21.953  1.00  0.00    -0.268 OA
ATOM     21  C   UNL A   1      29.365  30.943  23.866  1.00  0.00     0.042 A 
ENDBRANCH  12  14
ENDBRANCH   8  12
BRANCH  10  22
ATOM     22  O   UNL A   1      34.009  27.014  22.088  1.00  0.00    -0.391 OA
ATOM     23  H   UNL A   1      34.489  26.206  22.328  1.00  0.00     0.211 HD
ENDBRANCH  10  22
ENDBRANCH   4   7
ENDBRANCH   2   3
ENDBRANCH   1   2
BRANCH   1  24
ATOM     24  C   UNL A   1      32.243  31.406  27.179  1.00  0.00     0.118 C 
BRANCH  24  25
ATOM     25  N   UNL A   1      32.484  32.845  27.203  1.00  0.00    -0.352 N 
ATOM     26  C   UNL A   1      33.450  33.558  27.867  1.00  0.00     0.251 C 
ATOM     27  H   UNL A   1      31.862  33.384  26.664  1.00  0.00     0.163 HD
ATOM     28  O   UNL A   1      33.348  34.778  27.971  1.00  0.00    -0.269 OA
BRANCH  26  29
ATOM     29  C   UNL A   1      34.605  32.856  28.458  1.00  0.00     0.039 A 
ATOM     30  C   UNL A   1      35.881  33.074  27.934  1.00  0.00     0.014 A 
ATOM     31  C   UNL A   1      34.417  31.966  29.519  1.00  0.00     0.014 A 
ATOM     32  C   UNL A   1      36.982  32.441  28.515  1.00  0.00     0.010 A 
ATOM     33  C   UNL A   1      35.519  31.387  30.137  1.00  0.00     0.010 A 
ATOM     34  C   UNL A   1      36.808  31.611  29.634  1.00  0.00    -0.014 A 
BRANCH  34  35
ATOM     35  C   UNL A   1      37.957  30.937  30.280  1.00  0.00     0.031 A 
ATOM     36  C   UNL A   1      38.354  31.322  31.677  1.00  0.00     0.074 A 
ATOM     37  C   UNL A   1      38.685  30.043  29.585  1.00  0.00     0.049 A 
ATOM     38  N   UNL A   1      39.363  30.895  32.390  1.00  0.00    -0.248 NA
ATOM     39  C   UNL A   1      37.523  32.331  32.355  1.00  0.00     0.031 C 
ATOM     40  C   UNL A   1      38.430  29.636  28.201  1.00  0.00     0.029 A 
ATOM     41  N   UNL A   1      39.803  29.332  29.941  1.00  0.00    -0.354 N 
ATOM     42  C   UNL A   1      39.303  31.599  33.584  1.00  0.00     0.074 A 
ATOM     43  C   UNL A   1      38.178  32.502  33.494  1.00  0.00     0.031 C 
ATOM     44  C   UNL A   1      39.363  28.744  27.828  1.00  0.00     0.029 A 
ATOM     45  C   UNL A   1      40.290  28.531  28.936  1.00  0.00     0.049 A 
ATOM     46  H   UNL A   1      40.216  29.390  30.832  1.00  0.00     0.167 HD
ATOM     47  C   UNL A   1      40.097  31.479  34.673  1.00  0.00     0.034 A 
ATOM     48  C   UNL A   1      41.362  27.715  28.912  1.00  0.00     0.034 A 
ATOM     49  C   UNL A   1      41.179  30.545  34.782  1.00  0.00     0.049 A 
ATOM     50  C   UNL A   1      42.209  27.578  30.145  1.00  0.00     0.074 A 
ATOM     51  C   UNL A   1      41.989  30.295  35.876  1.00  0.00     0.029 A 
ATOM     52  N   UNL A   1      41.602  29.705  33.765  1.00  0.00    -0.354 N 
ATOM     53  N   UNL A   1      42.062  28.161  31.310  1.00  0.00    -0.248 NA
ATOM     54  C   UNL A   1      43.350  26.654  30.075  1.00  0.00     0.031 C 
ATOM     55  C   UNL A   1      42.906  29.303  35.518  1.00  0.00     0.029 A 
ATOM     56  C   UNL A   1      42.662  28.934  34.204  1.00  0.00     0.049 A 
ATOM     57  H   UNL A   1      41.206  29.663  32.864  1.00  0.00     0.167 HD
ATOM     58  C   UNL A   1      43.075  27.658  32.119  1.00  0.00     0.074 A 
ATOM     59  C   UNL A   1      43.823  26.713  31.314  1.00  0.00     0.031 C 
ATOM     60  C   UNL A   1      43.363  27.962  33.406  1.00  0.00     0.034 A 
BRANCH  47  61
ATOM     61  C   UNL A   1      39.774  32.327  35.870  1.00  0.00     0.023 A 
ATOM     62  C   UNL A   1      40.400  33.582  36.006  1.00  0.00     0.012 A 
ATOM     63  C   UNL A   1      38.802  31.928  36.805  1.00  0.00     0.148 A 
ATOM     64  C   UNL A   1      40.072  34.426  37.064  1.00  0.00     0.002 A 
ATOM     65  C   UNL A   1      38.456  32.787  37.841  1.00  0.00     0.091 A 
ATOM     66  F   UNL A   1      38.234  30.723  36.661  1.00  0.00    -0.205 F 
ATOM     67  C   UNL A   1      39.094  34.034  37.975  1.00  0.00     0.022 A 
BRANCH  65  68
ATOM     68  S   UNL A   1      37.176  32.404  39.041  1.00  0.00     0.127 S 
ATOM     69  O   UNL A   1      37.554  33.266  40.161  1.00  0.00    -0.237 OA
ATOM     70  O   UNL A   1      35.964  32.817  38.335  1.00  0.00    -0.237 OA
ATOM     71  O   UNL A   1      37.280  30.975  39.299  1.00  0.00    -0.744 OA
ENDBRANCH  65  68
ENDBRANCH  47  61
BRANCH  48  72
ATOM     72  C   UNL A   1      41.634  26.903  27.696  1.00  0.00     0.023 A 
ATOM     73  C   UNL A   1      42.245  27.520  26.586  1.00  0.00     0.012 A 
ATOM     74  C   UNL A   1      41.359  25.523  27.656  1.00  0.00     0.148 A 
ATOM     75  C   UNL A   1      42.569  26.776  25.452  1.00  0.00     0.002 A 
ATOM     76  C   UNL A   1      41.720  24.781  26.537  1.00  0.00     0.091 A 
ATOM     77  F   UNL A   1      40.777  24.963  28.725  1.00  0.00    -0.205 F 
ATOM     78  C   UNL A   1      42.315  25.407  25.431  1.00  0.00     0.022 A 
BRANCH  76  79
ATOM     79  S   UNL A   1      41.534  22.996  26.456  1.00  0.00     0.127 S 
ATOM     80  O   UNL A   1      42.144  22.575  27.714  1.00  0.00    -0.237 OA
ATOM     81  O   UNL A   1      40.079  22.852  26.393  1.00  0.00    -0.237 OA
ATOM     82  O   UNL A   1      42.234  22.577  25.249  1.00  0.00    -0.744 OA
ENDBRANCH  76  79
ENDBRANCH  48  72
BRANCH  60  83
ATOM     83  C   UNL A   1      44.528  27.268  34.056  1.00  0.00     0.023 A 
ATOM     84  C   UNL A   1      45.799  27.870  34.007  1.00  0.00     0.012 A 
ATOM     85  C   UNL A   1      44.331  26.110  34.831  1.00  0.00     0.148 A 
ATOM     86  C   UNL A   1      46.864  27.324  34.720  1.00  0.00     0.002 A 
ATOM     87  C   UNL A   1      45.389  25.591  35.567  1.00  0.00     0.091 A 
ATOM     88  F   UNL A   1      43.111  25.555  34.852  1.00  0.00    -0.205 F 
ATOM     89  C   UNL A   1      46.656  26.195  35.510  1.00  0.00     0.022 A 
BRANCH  87  90
ATOM     90  S   UNL A   1      45.203  24.188  36.674  1.00  0.00     0.127 S 
ATOM     91  O   UNL A   1      44.302  24.728  37.689  1.00  0.00    -0.237 OA
ATOM     92  O   UNL A   1      44.603  23.181  35.798  1.00  0.00    -0.237 OA
ATOM     93  O   UNL A   1      46.543  23.864  37.144  1.00  0.00    -0.744 OA
ENDBRANCH  87  90
ENDBRANCH  60  83
ENDBRANCH  34  35
ENDBRANCH  26  29
ENDBRANCH  24  25
ENDBRANCH   1  24
TORSDOF 16
ENDMDL
MODEL 3
REMARK VINA RESULT:     -11.8      6.586     11.564
REMARK SMILES Cn1nc(C(=O)N2C[C@@H](O)C[C@H]2C(=O)NCCCNC(=O)c2ccc(-c3c4nc(c(-c5cccc(S(=O)(=O)[O-])c5F)c5ccc([nH]5)c(-c5cccc(S(=O)(=O)[O-])c5F)c5nc(c(-c6cccc(S(=O)(=O)[O-])c6F)c6ccc3[nH]6)C=C5)C=C4)cc2)ccc1=O
REMARK SMILES IDX 17 1 16 2 15 3 13 4 14 5 12 7 7 8 8 9 9 10 11 11 5 12 6 13
REMARK SMILES IDX 4 14 1 15 2 16 3 17 87 18 86 19 88 20 85 21 10 22 18 24
REMARK SMILES IDX 19 25 20 26 21 28 22 29 23 30 84 31 24 32 83 33 25 34 26 35
REMARK SMILES IDX 27 36 77 37 28 38 82 39 76 40 78 41 29 42 81 43 75 44 74 45
REMARK SMILES IDX 30 47 62 48 42 49 61 50 43 51 46 52 60 53 79 54 44 55 45 56
REMARK SMILES IDX 59 58 80 59 47 60 31 61 32 62 40 63 33 64 35 65 41 66 34 67
REMARK SMILES IDX 36 68 37 69 38 70 39 71 63 72 64 73 72 74 65 75 67 76 73 77
REMARK SMILES IDX 66 78 68 79 69 80 70 81 71 82 48 83 49 84 57 85 50 86 52 87
REMARK SMILES IDX 58 88 51 89 53 90 54 91 55 92 56 93
REMARK H PARENT 15 6 10 23 19 27 78 46 46 57
REMARK Flexibility Score: inf
ROOT
ATOM      1  C   UNL A   1      37.758  19.603  24.658  1.00  0.00     0.042 C 
ENDROOT
BRANCH   1   2
ATOM      2  C   UNL A   1      36.307  19.862  25.024  1.00  0.00     0.117 C 
BRANCH   2   3
ATOM      3  N   UNL A   1      36.122  21.099  25.753  1.00  0.00    -0.354 N 
ATOM      4  C   UNL A   1      35.280  22.146  25.531  1.00  0.00     0.242 C 
ATOM      5  O   UNL A   1      35.152  22.959  26.454  1.00  0.00    -0.273 OA
ATOM      6  H   UNL A   1      36.702  21.200  26.542  1.00  0.00     0.163 HD
BRANCH   4   7
ATOM      7  C   UNL A   1      34.374  22.231  24.289  1.00  0.00     0.177 C 
ATOM      8  N   UNL A   1      32.978  22.609  24.501  1.00  0.00    -0.323 N 
ATOM      9  C   UNL A   1      32.606  23.773  23.715  1.00  0.00     0.152 C 
ATOM     10  C   UNL A   1      33.688  23.882  22.644  1.00  0.00     0.136 C 
ATOM     11  C   UNL A   1      34.922  23.215  23.252  1.00  0.00     0.069 C 
BRANCH   8  12
ATOM     12  C   UNL A   1      32.129  21.632  25.007  1.00  0.00     0.275 C 
ATOM     13  O   UNL A   1      31.315  21.842  25.900  1.00  0.00    -0.267 OA
BRANCH  12  14
ATOM     14  C   UNL A   1      32.336  20.187  24.564  1.00  0.00     0.149 A 
ATOM     15  C   UNL A   1      32.185  18.347  21.497  1.00  0.00     0.178 C 
ATOM     16  N   UNL A   1      32.433  18.625  22.898  1.00  0.00    -0.232 N 
ATOM     17  N   UNL A   1      32.174  19.914  23.304  1.00  0.00    -0.165 NA
ATOM     18  C   UNL A   1      32.969  17.642  23.722  1.00  0.00     0.266 A 
ATOM     19  C   UNL A   1      33.119  18.009  25.148  1.00  0.00     0.076 A 
ATOM     20  O   UNL A   1      33.316  16.526  23.344  1.00  0.00    -0.268 OA
ATOM     21  C   UNL A   1      32.802  19.231  25.583  1.00  0.00     0.042 A 
ENDBRANCH  12  14
ENDBRANCH   8  12
BRANCH  10  22
ATOM     22  O   UNL A   1      33.975  25.227  22.286  1.00  0.00    -0.391 OA
ATOM     23  H   UNL A   1      33.143  25.714  22.171  1.00  0.00     0.211 HD
ENDBRANCH  10  22
ENDBRANCH   4   7
ENDBRANCH   2   3
ENDBRANCH   1   2
BRANCH   1  24
ATOM     24  C   UNL A   1      38.740  20.176  25.673  1.00  0.00     0.118 C 
BRANCH  24  25
ATOM     25  N   UNL A   1      39.849  19.265  25.937  1.00  0.00    -0.352 N 
ATOM     26  C   UNL A   1      41.168  19.544  26.191  1.00  0.00     0.251 C 
ATOM     27  H   UNL A   1      39.616  18.309  25.932  1.00  0.00     0.163 HD
ATOM     28  O   UNL A   1      42.005  18.646  26.141  1.00  0.00    -0.269 OA
BRANCH  26  29
ATOM     29  C   UNL A   1      41.577  20.924  26.516  1.00  0.00     0.039 A 
ATOM     30  C   UNL A   1      42.051  21.214  27.797  1.00  0.00     0.014 A 
ATOM     31  C   UNL A   1      41.471  21.932  25.554  1.00  0.00     0.014 A 
ATOM     32  C   UNL A   1      42.475  22.510  28.097  1.00  0.00     0.010 A 
ATOM     33  C   UNL A   1      41.953  23.205  25.833  1.00  0.00     0.010 A 
ATOM     34  C   UNL A   1      42.448  23.507  27.109  1.00  0.00    -0.014 A 
BRANCH  34  35
ATOM     35  C   UNL A   1      42.904  24.886  27.393  1.00  0.00     0.031 A 
ATOM     36  C   UNL A   1      41.954  25.870  28.016  1.00  0.00     0.074 A 
ATOM     37  C   UNL A   1      44.139  25.274  27.020  1.00  0.00     0.049 A 
ATOM     38  N   UNL A   1      42.142  27.134  28.286  1.00  0.00    -0.248 NA
ATOM     39  C   UNL A   1      40.611  25.373  28.366  1.00  0.00     0.031 C 
ATOM     40  C   UNL A   1      45.126  24.423  26.353  1.00  0.00     0.029 A 
ATOM     41  N   UNL A   1      44.764  26.489  27.130  1.00  0.00    -0.354 N 
ATOM     42  C   UNL A   1      40.939  27.590  28.808  1.00  0.00     0.074 A 
ATOM     43  C   UNL A   1      40.017  26.477  28.795  1.00  0.00     0.031 C 
ATOM     44  C   UNL A   1      46.236  25.143  26.116  1.00  0.00     0.029 A 
ATOM     45  C   UNL A   1      46.031  26.507  26.597  1.00  0.00     0.049 A 
ATOM     46  H   UNL A   1      44.346  27.274  27.551  1.00  0.00     0.167 HD
ATOM     47  C   UNL A   1      40.641  28.819  29.288  1.00  0.00     0.034 A 
ATOM     48  C   UNL A   1      46.927  27.510  26.508  1.00  0.00     0.034 A 
ATOM     49  C   UNL A   1      41.573  29.907  29.351  1.00  0.00     0.049 A 
ATOM     50  C   UNL A   1      46.581  28.857  27.076  1.00  0.00     0.074 A 
ATOM     51  C   UNL A   1      41.386  31.166  29.895  1.00  0.00     0.029 A 
ATOM     52  N   UNL A   1      42.867  29.867  28.860  1.00  0.00    -0.354 N 
ATOM     53  N   UNL A   1      45.480  29.234  27.679  1.00  0.00    -0.248 NA
ATOM     54  C   UNL A   1      47.604  29.908  26.977  1.00  0.00     0.031 C 
ATOM     55  C   UNL A   1      42.569  31.890  29.728  1.00  0.00     0.029 A 
ATOM     56  C   UNL A   1      43.492  31.079  29.086  1.00  0.00     0.049 A 
ATOM     57  H   UNL A   1      43.280  29.091  28.415  1.00  0.00     0.167 HD
ATOM     58  C   UNL A   1      45.686  30.557  28.056  1.00  0.00     0.074 A 
ATOM     59  C   UNL A   1      47.022  30.913  27.621  1.00  0.00     0.031 C 
ATOM     60  C   UNL A   1      44.839  31.400  28.692  1.00  0.00     0.034 A 
BRANCH  47  61
ATOM     61  C   UNL A   1      39.268  29.033  29.859  1.00  0.00     0.023 A 
ATOM     62  C   UNL A   1      38.997  28.590  31.168  1.00  0.00     0.012 A 
ATOM     63  C   UNL A   1      38.283  29.738  29.143  1.00  0.00     0.148 A 
ATOM     64  C   UNL A   1      37.758  28.835  31.756  1.00  0.00     0.002 A 
ATOM     65  C   UNL A   1      37.060  30.006  29.746  1.00  0.00     0.091 A 
ATOM     66  F   UNL A   1      38.562  30.133  27.893  1.00  0.00    -0.205 F 
ATOM     67  C   UNL A   1      36.795  29.552  31.050  1.00  0.00     0.022 A 
BRANCH  65  68
ATOM     68  S   UNL A   1      35.767  30.962  28.947  1.00  0.00     0.127 S 
ATOM     69  O   UNL A   1      34.982  29.912  28.297  1.00  0.00    -0.237 OA
ATOM     70  O   UNL A   1      35.109  31.598  30.088  1.00  0.00    -0.237 OA
ATOM     71  O   UNL A   1      36.444  31.878  28.040  1.00  0.00    -0.744 OA
ENDBRANCH  65  68
ENDBRANCH  47  61
BRANCH  48  72
ATOM     72  C   UNL A   1      48.269  27.239  25.927  1.00  0.00     0.023 A 
ATOM     73  C   UNL A   1      49.269  26.685  26.750  1.00  0.00     0.012 A 
ATOM     74  C   UNL A   1      48.539  27.458  24.563  1.00  0.00     0.148 A 
ATOM     75  C   UNL A   1      50.521  26.362  26.225  1.00  0.00     0.002 A 
ATOM     76  C   UNL A   1      49.775  27.098  24.038  1.00  0.00     0.091 A 
ATOM     77  F   UNL A   1      47.569  27.986  23.803  1.00  0.00    -0.205 F 
ATOM     78  C   UNL A   1      50.770  26.560  24.870  1.00  0.00     0.022 A 
BRANCH  76  79
ATOM     79  S   UNL A   1      50.156  27.213  22.287  1.00  0.00     0.127 S 
ATOM     80  O   UNL A   1      49.129  26.356  21.701  1.00  0.00    -0.237 OA
ATOM     81  O   UNL A   1      49.985  28.645  22.039  1.00  0.00    -0.237 OA
ATOM     82  O   UNL A   1      51.526  26.736  22.145  1.00  0.00    -0.744 OA
ENDBRANCH  76  79
ENDBRANCH  48  72
BRANCH  60  83
ATOM     83  C   UNL A   1      45.313  32.797  28.981  1.00  0.00     0.023 A 
ATOM     84  C   UNL A   1      46.085  33.035  30.134  1.00  0.00     0.012 A 
ATOM     85  C   UNL A   1      45.118  33.828  28.043  1.00  0.00     0.148 A 
ATOM     86  C   UNL A   1      46.657  34.287  30.351  1.00  0.00     0.002 A 
ATOM     87  C   UNL A   1      45.720  35.063  28.249  1.00  0.00     0.091 A 
ATOM     88  F   UNL A   1      44.372  33.573  26.959  1.00  0.00    -0.205 F 
ATOM     89  C   UNL A   1      46.486  35.295  29.404  1.00  0.00     0.022 A 
BRANCH  87  90
ATOM     90  S   UNL A   1      45.625  36.399  27.051  1.00  0.00     0.127 S 
ATOM     91  O   UNL A   1      46.436  37.432  27.693  1.00  0.00    -0.237 OA
ATOM     92  O   UNL A   1      46.234  35.794  25.866  1.00  0.00    -0.237 OA
ATOM     93  O   UNL A   1      44.211  36.718  26.912  1.00  0.00    -0.744 OA
ENDBRANCH  87  90
ENDBRANCH  60  83
ENDBRANCH  34  35
ENDBRANCH  26  29
ENDBRANCH  24  25
ENDBRANCH   1  24
TORSDOF 16
ENDMDL
