MODEL 1
REMARK VINA RESULT:     -11.3      0.000      0.000
REMARK SMILES O=C(NCCCNC(=O)[C@@H](CCCCl)P(=O)(c1ccccc1)c1ccccc1)c1ccc(-c2c3nc(c(-c4cccc(S(=O)(=O)[O-])c4F)c4ccc([nH]4)c(-c4cccc(S(=O)(=O)[O-])c4F)c4nc(c(-c5cccc(S(=O)(=O)[O-])c5F)c5ccc2[nH]5)C=C4)C=C3)cc1
REMARK SMILES IDX 5 1 4 2 3 3 1 4 2 5 29 7 30 8 91 9 31 10 90 11 32 12 33 13
REMARK SMILES IDX 34 14 84 15 35 16 89 17 83 18 85 19 36 20 88 21 82 22 81 23
REMARK SMILES IDX 37 25 69 26 49 27 68 28 50 29 53 30 67 31 86 32 51 33 52 34
REMARK SMILES IDX 66 36 87 37 54 38 38 39 39 40 47 41 40 42 42 43 48 44 41 45
REMARK SMILES IDX 43 46 44 47 45 48 46 49 70 50 71 51 79 52 72 53 74 54 80 55
REMARK SMILES IDX 73 56 75 57 76 58 77 59 78 60 55 61 56 62 64 63 57 64 59 65
REMARK SMILES IDX 65 66 58 67 60 68 61 69 62 70 63 71 6 72 7 73 8 74 9 76
REMARK SMILES IDX 10 77 11 78 12 79 13 80 14 81 15 82 16 83 17 84 18 85 22 86
REMARK SMILES IDX 19 87 21 88 20 89 23 90 24 91 28 92 25 93 27 94 26 95
REMARK H PARENT 3 6 85 24 53 35 7 75
REMARK Flexibility Score: inf
ROOT
ATOM      1  C   UNL A   1      31.611  32.494  26.688  1.00  0.00     0.042 C 
ENDROOT
BRANCH   1   2
ATOM      2  C   UNL A   1      32.852  32.907  27.452  1.00  0.00     0.118 C 
BRANCH   2   3
ATOM      3  N   UNL A   1      32.780  34.305  27.879  1.00  0.00    -0.352 N 
ATOM      4  O   UNL A   1      33.007  36.047  29.294  1.00  0.00    -0.269 OA
ATOM      5  C   UNL A   1      33.385  34.932  28.944  1.00  0.00     0.251 C 
ATOM      6  H   UNL A   1      32.212  34.882  27.321  1.00  0.00     0.163 HD
BRANCH   5   7
ATOM      7  C   UNL A   1      34.467  34.240  29.674  1.00  0.00     0.039 A 
ATOM      8  C   UNL A   1      35.789  34.430  29.282  1.00  0.00     0.014 A 
ATOM      9  C   UNL A   1      34.172  33.392  30.743  1.00  0.00     0.014 A 
ATOM     10  C   UNL A   1      36.778  33.604  29.778  1.00  0.00     0.010 A 
ATOM     11  C   UNL A   1      35.207  32.691  31.372  1.00  0.00     0.010 A 
ATOM     12  C   UNL A   1      36.516  32.771  30.873  1.00  0.00    -0.014 A 
BRANCH  12  13
ATOM     13  C   UNL A   1      37.672  32.123  31.542  1.00  0.00     0.031 A 
ATOM     14  C   UNL A   1      38.465  31.036  30.880  1.00  0.00     0.074 A 
ATOM     15  C   UNL A   1      38.011  32.570  32.769  1.00  0.00     0.049 A 
ATOM     16  N   UNL A   1      39.512  30.399  31.336  1.00  0.00    -0.248 NA
ATOM     17  C   UNL A   1      38.032  30.594  29.544  1.00  0.00     0.031 C 
ATOM     18  C   UNL A   1      37.277  33.597  33.523  1.00  0.00     0.029 A 
ATOM     19  N   UNL A   1      39.053  32.246  33.595  1.00  0.00    -0.354 N 
ATOM     20  C   UNL A   1      39.835  29.450  30.374  1.00  0.00     0.074 A 
ATOM     21  C   UNL A   1      38.872  29.594  29.303  1.00  0.00     0.031 C 
ATOM     22  C   UNL A   1      37.924  33.860  34.664  1.00  0.00     0.029 A 
ATOM     23  C   UNL A   1      39.057  32.955  34.775  1.00  0.00     0.049 A 
ATOM     24  H   UNL A   1      39.734  31.573  33.368  1.00  0.00     0.167 HD
ATOM     25  C   UNL A   1      40.845  28.547  30.386  1.00  0.00     0.034 A 
ATOM     26  C   UNL A   1      39.858  32.864  35.851  1.00  0.00     0.034 A 
ATOM     27  C   UNL A   1      41.812  28.438  31.449  1.00  0.00     0.049 A 
ATOM     28  C   UNL A   1      40.973  31.865  35.822  1.00  0.00     0.074 A 
ATOM     29  C   UNL A   1      42.904  27.593  31.533  1.00  0.00     0.029 A 
ATOM     30  N   UNL A   1      41.799  29.188  32.616  1.00  0.00    -0.354 N 
ATOM     31  N   UNL A   1      41.322  31.050  34.857  1.00  0.00    -0.248 NA
ATOM     32  C   UNL A   1      41.816  31.785  37.021  1.00  0.00     0.031 C 
ATOM     33  C   UNL A   1      43.534  27.811  32.763  1.00  0.00     0.029 A 
ATOM     34  C   UNL A   1      42.855  28.818  33.431  1.00  0.00     0.049 A 
ATOM     35  H   UNL A   1      41.135  29.883  32.833  1.00  0.00     0.167 HD
ATOM     36  C   UNL A   1      42.439  30.372  35.322  1.00  0.00     0.074 A 
ATOM     37  C   UNL A   1      42.727  30.900  36.641  1.00  0.00     0.031 C 
ATOM     38  C   UNL A   1      43.148  29.385  34.723  1.00  0.00     0.034 A 
BRANCH  25  39
ATOM     39  C   UNL A   1      40.980  27.617  29.208  1.00  0.00     0.023 A 
ATOM     40  C   UNL A   1      40.230  26.425  29.167  1.00  0.00     0.012 A 
ATOM     41  C   UNL A   1      41.786  27.964  28.104  1.00  0.00     0.148 A 
ATOM     42  C   UNL A   1      40.298  25.580  28.058  1.00  0.00     0.002 A 
ATOM     43  C   UNL A   1      41.815  27.139  26.985  1.00  0.00     0.091 A 
ATOM     44  F   UNL A   1      42.506  29.092  28.169  1.00  0.00    -0.205 F 
ATOM     45  C   UNL A   1      41.080  25.943  26.964  1.00  0.00     0.022 A 
BRANCH  43  46
ATOM     46  S   UNL A   1      42.729  27.554  25.494  1.00  0.00     0.127 S 
ATOM     47  O   UNL A   1      44.082  27.735  26.020  1.00  0.00    -0.237 OA
ATOM     48  O   UNL A   1      42.548  26.351  24.680  1.00  0.00    -0.237 OA
ATOM     49  O   UNL A   1      42.104  28.753  24.958  1.00  0.00    -0.744 OA
ENDBRANCH  43  46
ENDBRANCH  25  39
BRANCH  26  50
ATOM     50  C   UNL A   1      39.627  33.748  37.027  1.00  0.00     0.023 A 
ATOM     51  C   UNL A   1      40.009  35.101  36.970  1.00  0.00     0.012 A 
ATOM     52  C   UNL A   1      38.992  33.261  38.188  1.00  0.00     0.148 A 
ATOM     53  C   UNL A   1      39.792  35.945  38.059  1.00  0.00     0.002 A 
ATOM     54  C   UNL A   1      38.718  34.123  39.242  1.00  0.00     0.091 A 
ATOM     55  F   UNL A   1      38.647  31.967  38.229  1.00  0.00    -0.205 F 
ATOM     56  C   UNL A   1      39.135  35.462  39.188  1.00  0.00     0.022 A 
BRANCH  54  57
ATOM     57  S   UNL A   1      37.743  33.616  40.662  1.00  0.00     0.127 S 
ATOM     58  O   UNL A   1      38.628  32.645  41.298  1.00  0.00    -0.237 OA
ATOM     59  O   UNL A   1      37.585  34.877  41.387  1.00  0.00    -0.237 OA
ATOM     60  O   UNL A   1      36.502  33.085  40.113  1.00  0.00    -0.744 OA
ENDBRANCH  54  57
ENDBRANCH  26  50
BRANCH  38  61
ATOM     61  C   UNL A   1      44.326  28.837  35.482  1.00  0.00     0.023 A 
ATOM     62  C   UNL A   1      45.611  29.372  35.264  1.00  0.00     0.012 A 
ATOM     63  C   UNL A   1      44.151  27.818  36.437  1.00  0.00     0.148 A 
ATOM     64  C   UNL A   1      46.712  28.873  35.957  1.00  0.00     0.002 A 
ATOM     65  C   UNL A   1      45.245  27.362  37.163  1.00  0.00     0.091 A 
ATOM     66  F   UNL A   1      42.924  27.307  36.612  1.00  0.00    -0.205 F 
ATOM     67  C   UNL A   1      46.527  27.876  36.913  1.00  0.00     0.022 A 
BRANCH  65  68
ATOM     68  S   UNL A   1      45.085  26.152  38.479  1.00  0.00     0.127 S 
ATOM     69  O   UNL A   1      44.124  26.803  39.368  1.00  0.00    -0.237 OA
ATOM     70  O   UNL A   1      44.564  24.985  37.765  1.00  0.00    -0.237 OA
ATOM     71  O   UNL A   1      46.423  25.976  39.028  1.00  0.00    -0.744 OA
ENDBRANCH  65  68
ENDBRANCH  38  61
ENDBRANCH  12  13
ENDBRANCH   5   7
ENDBRANCH   2   3
ENDBRANCH   1   2
BRANCH   1  72
ATOM     72  C   UNL A   1      31.685  31.020  26.361  1.00  0.00     0.117 C 
BRANCH  72  73
ATOM     73  N   UNL A   1      32.885  30.403  26.901  1.00  0.00    -0.355 N 
ATOM     74  C   UNL A   1      33.584  29.339  26.427  1.00  0.00     0.231 C 
ATOM     75  H   UNL A   1      33.241  30.813  27.723  1.00  0.00     0.163 HD
ATOM     76  O   UNL A   1      34.639  29.044  26.994  1.00  0.00    -0.274 OA
BRANCH  74  77
ATOM     77  C   UNL A   1      33.067  28.502  25.265  1.00  0.00     0.148 C 
BRANCH  77  78
ATOM     78  C   UNL A   1      33.990  28.554  24.039  1.00  0.00     0.023 C 
BRANCH  78  79
ATOM     79  C   UNL A   1      33.476  28.324  22.610  1.00  0.00     0.017 C 
BRANCH  79  80
ATOM     80  C   UNL A   1      33.591  26.898  22.099  1.00  0.00     0.109 C 
ATOM     81  Cl  UNL A   1      32.000  26.112  21.990  1.00  0.00    -0.127 Cl
ENDBRANCH  79  80
ENDBRANCH  78  79
ENDBRANCH  77  78
BRANCH  77  82
ATOM     82  P   UNL A   1      32.009  27.141  25.874  1.00  0.00     0.155 P 
ATOM     83  O   UNL A   1      31.617  27.391  27.319  1.00  0.00    -0.313 OA
BRANCH  82  84
ATOM     84  C   UNL A   1      30.522  27.328  24.859  1.00  0.00     0.017 A 
ATOM     85  C   UNL A   1      29.552  26.331  24.703  1.00  0.00     0.012 A 
ATOM     86  C   UNL A   1      30.404  28.508  24.104  1.00  0.00     0.012 A 
ATOM     87  C   UNL A   1      28.447  26.549  23.879  1.00  0.00     0.001 A 
ATOM     88  C   UNL A   1      29.323  28.708  23.253  1.00  0.00     0.001 A 
ATOM     89  C   UNL A   1      28.333  27.736  23.158  1.00  0.00     0.000 A 
ENDBRANCH  82  84
BRANCH  82  90
ATOM     90  C   UNL A   1      32.641  25.458  25.843  1.00  0.00     0.017 A 
ATOM     91  C   UNL A   1      32.039  24.386  26.513  1.00  0.00     0.012 A 
ATOM     92  C   UNL A   1      33.994  25.300  25.474  1.00  0.00     0.012 A 
ATOM     93  C   UNL A   1      32.766  23.233  26.841  1.00  0.00     0.001 A 
ATOM     94  C   UNL A   1      34.719  24.146  25.787  1.00  0.00     0.001 A 
ATOM     95  C   UNL A   1      34.107  23.119  26.492  1.00  0.00     0.000 A 
ENDBRANCH  82  90
ENDBRANCH  77  82
ENDBRANCH  74  77
ENDBRANCH  72  73
ENDBRANCH   1  72
TORSDOF 19
ENDMDL
MODEL 2
REMARK VINA RESULT:     -11.0      5.836      8.461
REMARK SMILES O=C(NCCCNC(=O)[C@@H](CCCCl)P(=O)(c1ccccc1)c1ccccc1)c1ccc(-c2c3nc(c(-c4cccc(S(=O)(=O)[O-])c4F)c4ccc([nH]4)c(-c4cccc(S(=O)(=O)[O-])c4F)c4nc(c(-c5cccc(S(=O)(=O)[O-])c5F)c5ccc2[nH]5)C=C4)C=C3)cc1
REMARK SMILES IDX 5 1 4 2 3 3 1 4 2 5 29 7 30 8 91 9 31 10 90 11 32 12 33 13
REMARK SMILES IDX 34 14 84 15 35 16 89 17 83 18 85 19 36 20 88 21 82 22 81 23
REMARK SMILES IDX 37 25 69 26 49 27 68 28 50 29 53 30 67 31 86 32 51 33 52 34
REMARK SMILES IDX 66 36 87 37 54 38 38 39 39 40 47 41 40 42 42 43 48 44 41 45
REMARK SMILES IDX 43 46 44 47 45 48 46 49 70 50 71 51 79 52 72 53 74 54 80 55
REMARK SMILES IDX 73 56 75 57 76 58 77 59 78 60 55 61 56 62 64 63 57 64 59 65
REMARK SMILES IDX 65 66 58 67 60 68 61 69 62 70 63 71 6 72 7 73 8 74 9 76
REMARK SMILES IDX 10 77 11 78 12 79 13 80 14 81 15 82 16 83 17 84 18 85 22 86
REMARK SMILES IDX 19 87 21 88 20 89 23 90 24 91 28 92 25 93 27 94 26 95
REMARK H PARENT 3 6 85 24 53 35 7 75
REMARK Flexibility Score: inf
ROOT
ATOM      1  C   UNL A   1      35.173  22.258  26.859  1.00  0.00     0.042 C 
ENDROOT
BRANCH   1   2
ATOM      2  C   UNL A   1      36.113  22.296  25.672  1.00  0.00     0.118 C 
BRANCH   2   3
ATOM      3  N   UNL A   1      37.007  21.138  25.656  1.00  0.00    -0.352 N 
ATOM      4  O   UNL A   1      38.975  20.048  25.485  1.00  0.00    -0.269 OA
ATOM      5  C   UNL A   1      38.376  21.080  25.778  1.00  0.00     0.251 C 
ATOM      6  H   UNL A   1      36.560  20.269  25.538  1.00  0.00     0.163 HD
BRANCH   5   7
ATOM      7  C   UNL A   1      39.114  22.275  26.234  1.00  0.00     0.039 A 
ATOM      8  C   UNL A   1      38.730  23.533  25.778  1.00  0.00     0.014 A 
ATOM      9  C   UNL A   1      40.198  22.150  27.105  1.00  0.00     0.014 A 
ATOM     10  C   UNL A   1      39.556  24.621  25.984  1.00  0.00     0.010 A 
ATOM     11  C   UNL A   1      40.927  23.289  27.465  1.00  0.00     0.010 A 
ATOM     12  C   UNL A   1      40.629  24.530  26.882  1.00  0.00    -0.014 A 
BRANCH  12  13
ATOM     13  C   UNL A   1      41.304  25.789  27.281  1.00  0.00     0.031 A 
ATOM     14  C   UNL A   1      42.696  26.122  26.829  1.00  0.00     0.074 A 
ATOM     15  C   UNL A   1      40.608  26.653  28.050  1.00  0.00     0.049 A 
ATOM     16  N   UNL A   1      43.399  27.195  27.081  1.00  0.00    -0.248 NA
ATOM     17  C   UNL A   1      43.398  25.129  25.999  1.00  0.00     0.031 C 
ATOM     18  C   UNL A   1      39.260  26.407  28.581  1.00  0.00     0.029 A 
ATOM     19  N   UNL A   1      40.911  27.907  28.506  1.00  0.00    -0.354 N 
ATOM     20  C   UNL A   1      44.639  26.990  26.489  1.00  0.00     0.074 A 
ATOM     21  C   UNL A   1      44.594  25.687  25.861  1.00  0.00     0.031 C 
ATOM     22  C   UNL A   1      38.832  27.494  29.233  1.00  0.00     0.029 A 
ATOM     23  C   UNL A   1      39.906  28.474  29.256  1.00  0.00     0.049 A 
ATOM     24  H   UNL A   1      41.764  28.361  28.314  1.00  0.00     0.167 HD
ATOM     25  C   UNL A   1      45.711  27.819  26.470  1.00  0.00     0.034 A 
ATOM     26  C   UNL A   1      39.862  29.638  29.928  1.00  0.00     0.034 A 
ATOM     27  C   UNL A   1      45.727  29.126  27.077  1.00  0.00     0.049 A 
ATOM     28  C   UNL A   1      41.060  30.534  29.872  1.00  0.00     0.074 A 
ATOM     29  C   UNL A   1      46.744  30.063  27.070  1.00  0.00     0.029 A 
ATOM     30  N   UNL A   1      44.684  29.676  27.808  1.00  0.00    -0.354 N 
ATOM     31  N   UNL A   1      42.184  30.366  29.217  1.00  0.00    -0.248 NA
ATOM     32  C   UNL A   1      40.980  31.789  30.629  1.00  0.00     0.031 C 
ATOM     33  C   UNL A   1      46.327  31.168  27.820  1.00  0.00     0.029 A 
ATOM     34  C   UNL A   1      45.037  30.933  28.266  1.00  0.00     0.049 A 
ATOM     35  H   UNL A   1      43.819  29.236  27.976  1.00  0.00     0.167 HD
ATOM     36  C   UNL A   1      42.939  31.502  29.468  1.00  0.00     0.074 A 
ATOM     37  C   UNL A   1      42.128  32.366  30.303  1.00  0.00     0.031 C 
ATOM     38  C   UNL A   1      44.199  31.794  29.063  1.00  0.00     0.034 A 
BRANCH  25  39
ATOM     39  C   UNL A   1      46.953  27.356  25.752  1.00  0.00     0.023 A 
ATOM     40  C   UNL A   1      47.862  26.500  26.405  1.00  0.00     0.012 A 
ATOM     41  C   UNL A   1      47.177  27.702  24.404  1.00  0.00     0.148 A 
ATOM     42  C   UNL A   1      48.987  26.015  25.737  1.00  0.00     0.002 A 
ATOM     43  C   UNL A   1      48.277  27.180  23.732  1.00  0.00     0.091 A 
ATOM     44  F   UNL A   1      46.312  28.531  23.805  1.00  0.00    -0.205 F 
ATOM     45  C   UNL A   1      49.188  26.345  24.399  1.00  0.00     0.022 A 
BRANCH  43  46
ATOM     46  S   UNL A   1      48.584  27.481  21.987  1.00  0.00     0.127 S 
ATOM     47  O   UNL A   1      47.341  28.135  21.579  1.00  0.00    -0.237 OA
ATOM     48  O   UNL A   1      49.751  28.363  22.028  1.00  0.00    -0.237 OA
ATOM     49  O   UNL A   1      48.825  26.176  21.389  1.00  0.00    -0.744 OA
ENDBRANCH  43  46
ENDBRANCH  25  39
BRANCH  26  50
ATOM     50  C   UNL A   1      38.641  30.009  30.695  1.00  0.00     0.023 A 
ATOM     51  C   UNL A   1      38.501  29.590  32.031  1.00  0.00     0.012 A 
ATOM     52  C   UNL A   1      37.635  30.810  30.117  1.00  0.00     0.148 A 
ATOM     53  C   UNL A   1      37.368  29.937  32.767  1.00  0.00     0.002 A 
ATOM     54  C   UNL A   1      36.543  31.207  30.876  1.00  0.00     0.091 A 
ATOM     55  F   UNL A   1      37.780  31.189  28.839  1.00  0.00    -0.205 F 
ATOM     56  C   UNL A   1      36.396  30.755  32.196  1.00  0.00     0.022 A 
BRANCH  54  57
ATOM     57  S   UNL A   1      35.330  32.382  30.264  1.00  0.00     0.127 S 
ATOM     58  O   UNL A   1      36.164  33.542  29.966  1.00  0.00    -0.237 OA
ATOM     59  O   UNL A   1      34.798  31.685  29.092  1.00  0.00    -0.237 OA
ATOM     60  O   UNL A   1      34.369  32.548  31.346  1.00  0.00    -0.744 OA
ENDBRANCH  54  57
ENDBRANCH  26  50
BRANCH  38  61
ATOM     61  C   UNL A   1      44.761  33.121  29.495  1.00  0.00     0.023 A 
ATOM     62  C   UNL A   1      45.503  33.213  30.689  1.00  0.00     0.012 A 
ATOM     63  C   UNL A   1      44.585  34.267  28.697  1.00  0.00     0.148 A 
ATOM     64  C   UNL A   1      46.027  34.435  31.104  1.00  0.00     0.002 A 
ATOM     65  C   UNL A   1      45.157  35.471  29.089  1.00  0.00     0.091 A 
ATOM     66  F   UNL A   1      43.857  34.162  27.576  1.00  0.00    -0.205 F 
ATOM     67  C   UNL A   1      45.864  35.561  30.299  1.00  0.00     0.022 A 
BRANCH  65  68
ATOM     68  S   UNL A   1      45.079  36.947  28.070  1.00  0.00     0.127 S 
ATOM     69  O   UNL A   1      43.637  37.168  27.975  1.00  0.00    -0.237 OA
ATOM     70  O   UNL A   1      45.794  37.926  28.890  1.00  0.00    -0.237 OA
ATOM     71  O   UNL A   1      45.742  36.607  26.819  1.00  0.00    -0.744 OA
ENDBRANCH  65  68
ENDBRANCH  38  61
ENDBRANCH  12  13
ENDBRANCH   5   7
ENDBRANCH   2   3
ENDBRANCH   1   2
BRANCH   1  72
ATOM     72  C   UNL A   1      34.278  23.476  26.835  1.00  0.00     0.117 C 
BRANCH  72  73
ATOM     73  N   UNL A   1      34.530  24.313  25.675  1.00  0.00    -0.355 N 
ATOM     74  C   UNL A   1      33.910  25.463  25.301  1.00  0.00     0.231 C 
ATOM     75  H   UNL A   1      35.250  24.005  25.076  1.00  0.00     0.163 HD
ATOM     76  O   UNL A   1      34.356  26.067  24.322  1.00  0.00    -0.274 OA
BRANCH  74  77
ATOM     77  C   UNL A   1      32.675  25.973  26.031  1.00  0.00     0.148 C 
BRANCH  77  78
ATOM     78  C   UNL A   1      32.858  27.392  26.589  1.00  0.00     0.023 C 
BRANCH  78  79
ATOM     79  C   UNL A   1      31.683  28.364  26.768  1.00  0.00     0.017 C 
BRANCH  79  80
ATOM     80  C   UNL A   1      31.690  29.570  25.843  1.00  0.00     0.109 C 
ATOM     81  Cl  UNL A   1      31.683  31.095  26.756  1.00  0.00    -0.127 Cl
ENDBRANCH  79  80
ENDBRANCH  78  79
ENDBRANCH  77  78
BRANCH  77  82
ATOM     82  P   UNL A   1      31.170  25.153  25.397  1.00  0.00     0.155 P 
ATOM     83  O   UNL A   1      30.143  25.015  26.507  1.00  0.00    -0.313 OA
BRANCH  82  84
ATOM     84  C   UNL A   1      30.540  26.368  24.212  1.00  0.00     0.017 A 
ATOM     85  C   UNL A   1      31.351  27.089  23.328  1.00  0.00     0.012 A 
ATOM     86  C   UNL A   1      29.170  26.672  24.272  1.00  0.00     0.012 A 
ATOM     87  C   UNL A   1      30.785  28.029  22.464  1.00  0.00     0.001 A 
ATOM     88  C   UNL A   1      28.614  27.636  23.438  1.00  0.00     0.001 A 
ATOM     89  C   UNL A   1      29.419  28.299  22.519  1.00  0.00     0.000 A 
ENDBRANCH  82  84
BRANCH  82  90
ATOM     90  C   UNL A   1      31.303  23.511  24.675  1.00  0.00     0.017 A 
ATOM     91  C   UNL A   1      31.393  22.333  25.427  1.00  0.00     0.012 A 
ATOM     92  C   UNL A   1      31.737  23.445  23.334  1.00  0.00     0.012 A 
ATOM     93  C   UNL A   1      31.935  21.161  24.881  1.00  0.00     0.001 A 
ATOM     94  C   UNL A   1      32.265  22.275  22.781  1.00  0.00     0.001 A 
ATOM     95  C   UNL A   1      32.385  21.136  23.565  1.00  0.00     0.000 A 
ENDBRANCH  82  90
ENDBRANCH  77  82
ENDBRANCH  74  77
ENDBRANCH  72  73
ENDBRANCH   1  72
TORSDOF 19
ENDMDL
MODEL 3
REMARK VINA RESULT:     -10.7      3.958      8.835
REMARK SMILES O=C(NCCCNC(=O)[C@@H](CCCCl)P(=O)(c1ccccc1)c1ccccc1)c1ccc(-c2c3nc(c(-c4cccc(S(=O)(=O)[O-])c4F)c4ccc([nH]4)c(-c4cccc(S(=O)(=O)[O-])c4F)c4nc(c(-c5cccc(S(=O)(=O)[O-])c5F)c5ccc2[nH]5)C=C4)C=C3)cc1
REMARK SMILES IDX 5 1 4 2 3 3 1 4 2 5 29 7 30 8 91 9 31 10 90 11 32 12 33 13
REMARK SMILES IDX 34 14 84 15 35 16 89 17 83 18 85 19 36 20 88 21 82 22 81 23
REMARK SMILES IDX 37 25 69 26 49 27 68 28 50 29 53 30 67 31 86 32 51 33 52 34
REMARK SMILES IDX 66 36 87 37 54 38 38 39 39 40 47 41 40 42 42 43 48 44 41 45
REMARK SMILES IDX 43 46 44 47 45 48 46 49 70 50 71 51 79 52 72 53 74 54 80 55
REMARK SMILES IDX 73 56 75 57 76 58 77 59 78 60 55 61 56 62 64 63 57 64 59 65
REMARK SMILES IDX 65 66 58 67 60 68 61 69 62 70 63 71 6 72 7 73 8 74 9 76
REMARK SMILES IDX 10 77 11 78 12 79 13 80 14 81 15 82 16 83 17 84 18 85 22 86
REMARK SMILES IDX 19 87 21 88 20 89 23 90 24 91 28 92 25 93 27 94 26 95
REMARK H PARENT 3 6 85 24 53 35 7 75
REMARK Flexibility Score: inf
ROOT
ATOM      1  C   UNL A   1      34.039  27.985  25.606  1.00  0.00     0.042 C 
ENDROOT
BRANCH   1   2
ATOM      2  C   UNL A   1      33.764  28.546  26.986  1.00  0.00     0.118 C 
BRANCH   2   3
ATOM      3  N   UNL A   1      33.772  30.009  26.984  1.00  0.00    -0.352 N 
ATOM      4  O   UNL A   1      34.313  32.073  27.716  1.00  0.00    -0.269 OA
ATOM      5  C   UNL A   1      34.614  30.886  27.629  1.00  0.00     0.251 C 
ATOM      6  H   UNL A   1      33.068  30.429  26.441  1.00  0.00     0.163 HD
BRANCH   5   7
ATOM      7  C   UNL A   1      35.861  30.379  28.237  1.00  0.00     0.039 A 
ATOM      8  C   UNL A   1      37.071  30.562  27.573  1.00  0.00     0.014 A 
ATOM      9  C   UNL A   1      35.833  29.710  29.462  1.00  0.00     0.014 A 
ATOM     10  C   UNL A   1      38.196  29.880  27.992  1.00  0.00     0.010 A 
ATOM     11  C   UNL A   1      37.017  29.176  29.983  1.00  0.00     0.010 A 
ATOM     12  C   UNL A   1      38.203  29.232  29.235  1.00  0.00    -0.014 A 
BRANCH  12  13
ATOM     13  C   UNL A   1      39.508  28.762  29.762  1.00  0.00     0.031 A 
ATOM     14  C   UNL A   1      40.130  29.359  30.989  1.00  0.00     0.074 A 
ATOM     15  C   UNL A   1      40.112  27.746  29.111  1.00  0.00     0.049 A 
ATOM     16  N   UNL A   1      41.253  29.030  31.575  1.00  0.00    -0.248 NA
ATOM     17  C   UNL A   1      39.419  30.469  31.642  1.00  0.00     0.031 C 
ATOM     18  C   UNL A   1      39.612  27.120  27.878  1.00  0.00     0.029 A 
ATOM     19  N   UNL A   1      41.255  27.045  29.387  1.00  0.00    -0.354 N 
ATOM     20  C   UNL A   1      41.411  29.920  32.631  1.00  0.00     0.074 A 
ATOM     21  C   UNL A   1      40.265  30.804  32.608  1.00  0.00     0.031 C 
ATOM     22  C   UNL A   1      40.404  26.096  27.544  1.00  0.00     0.029 A 
ATOM     23  C   UNL A   1      41.523  26.052  28.472  1.00  0.00     0.049 A 
ATOM     24  H   UNL A   1      41.829  27.232  30.165  1.00  0.00     0.167 HD
ATOM     25  C   UNL A   1      42.417  29.984  33.535  1.00  0.00     0.034 A 
ATOM     26  C   UNL A   1      42.573  25.219  28.363  1.00  0.00     0.034 A 
ATOM     27  C   UNL A   1      43.536  29.075  33.558  1.00  0.00     0.049 A 
ATOM     28  C   UNL A   1      43.659  25.310  29.389  1.00  0.00     0.074 A 
ATOM     29  C   UNL A   1      44.580  29.023  34.463  1.00  0.00     0.029 A 
ATOM     30  N   UNL A   1      43.761  28.068  32.631  1.00  0.00    -0.354 N 
ATOM     31  N   UNL A   1      43.735  26.090  30.440  1.00  0.00    -0.248 NA
ATOM     32  C   UNL A   1      44.795  24.395  29.228  1.00  0.00     0.031 C 
ATOM     33  C   UNL A   1      45.453  28.003  34.067  1.00  0.00     0.029 A 
ATOM     34  C   UNL A   1      44.933  27.397  32.935  1.00  0.00     0.049 A 
ATOM     35  H   UNL A   1      43.173  27.860  31.870  1.00  0.00     0.167 HD
ATOM     36  C   UNL A   1      44.918  25.747  31.079  1.00  0.00     0.074 A 
ATOM     37  C   UNL A   1      45.505  24.664  30.315  1.00  0.00     0.031 C 
ATOM     38  C   UNL A   1      45.480  26.295  32.184  1.00  0.00     0.034 A 
BRANCH  25  39
ATOM     39  C   UNL A   1      42.353  31.055  34.594  1.00  0.00     0.023 A 
ATOM     40  C   UNL A   1      41.799  30.762  35.855  1.00  0.00     0.012 A 
ATOM     41  C   UNL A   1      42.917  32.327  34.366  1.00  0.00     0.148 A 
ATOM     42  C   UNL A   1      41.783  31.724  36.866  1.00  0.00     0.002 A 
ATOM     43  C   UNL A   1      42.938  33.266  35.392  1.00  0.00     0.091 A 
ATOM     44  F   UNL A   1      43.424  32.594  33.154  1.00  0.00    -0.205 F 
ATOM     45  C   UNL A   1      42.363  32.970  36.638  1.00  0.00     0.022 A 
BRANCH  43  46
ATOM     46  S   UNL A   1      43.729  34.871  35.226  1.00  0.00     0.127 S 
ATOM     47  O   UNL A   1      45.099  34.489  34.886  1.00  0.00    -0.237 OA
ATOM     48  O   UNL A   1      42.974  35.473  34.126  1.00  0.00    -0.237 OA
ATOM     49  O   UNL A   1      43.568  35.535  36.511  1.00  0.00    -0.744 OA
ENDBRANCH  43  46
ENDBRANCH  25  39
BRANCH  26  50
ATOM     50  C   UNL A   1      42.630  24.237  27.246  1.00  0.00     0.023 A 
ATOM     51  C   UNL A   1      43.315  24.564  26.061  1.00  0.00     0.012 A 
ATOM     52  C   UNL A   1      42.042  22.961  27.370  1.00  0.00     0.148 A 
ATOM     53  C   UNL A   1      43.386  23.651  25.008  1.00  0.00     0.002 A 
ATOM     54  C   UNL A   1      42.174  22.034  26.345  1.00  0.00     0.091 A 
ATOM     55  F   UNL A   1      41.383  22.671  28.500  1.00  0.00    -0.205 F 
ATOM     56  C   UNL A   1      42.828  22.383  25.154  1.00  0.00     0.022 A 
BRANCH  54  57
ATOM     57  S   UNL A   1      41.619  20.335  26.517  1.00  0.00     0.127 S 
ATOM     58  O   UNL A   1      40.169  20.487  26.459  1.00  0.00    -0.237 OA
ATOM     59  O   UNL A   1      42.221  19.699  25.344  1.00  0.00    -0.237 OA
ATOM     60  O   UNL A   1      42.162  19.875  27.789  1.00  0.00    -0.744 OA
ENDBRANCH  54  57
ENDBRANCH  26  50
BRANCH  38  61
ATOM     61  C   UNL A   1      46.783  25.704  32.648  1.00  0.00     0.023 A 
ATOM     62  C   UNL A   1      47.999  26.201  32.138  1.00  0.00     0.012 A 
ATOM     63  C   UNL A   1      46.802  24.683  33.616  1.00  0.00     0.148 A 
ATOM     64  C   UNL A   1      49.214  25.662  32.556  1.00  0.00     0.002 A 
ATOM     65  C   UNL A   1      48.019  24.187  34.067  1.00  0.00     0.091 A 
ATOM     66  F   UNL A   1      45.633  24.209  34.070  1.00  0.00    -0.205 F 
ATOM     67  C   UNL A   1      49.224  24.664  33.528  1.00  0.00     0.022 A 
BRANCH  65  68
ATOM     68  S   UNL A   1      48.131  22.971  35.383  1.00  0.00     0.127 S 
ATOM     69  O   UNL A   1      47.437  23.650  36.477  1.00  0.00    -0.237 OA
ATOM     70  O   UNL A   1      47.407  21.833  34.814  1.00  0.00    -0.237 OA
ATOM     71  O   UNL A   1      49.552  22.737  35.595  1.00  0.00    -0.744 OA
ENDBRANCH  65  68
ENDBRANCH  38  61
ENDBRANCH  12  13
ENDBRANCH   5   7
ENDBRANCH   2   3
ENDBRANCH   1   2
BRANCH   1  72
ATOM     72  C   UNL A   1      33.448  26.599  25.495  1.00  0.00     0.117 C 
BRANCH  72  73
ATOM     73  N   UNL A   1      33.981  25.871  24.355  1.00  0.00    -0.355 N 
ATOM     74  C   UNL A   1      33.598  24.666  23.857  1.00  0.00     0.231 C 
ATOM     75  H   UNL A   1      34.723  26.311  23.878  1.00  0.00     0.163 HD
ATOM     76  O   UNL A   1      34.127  24.279  22.812  1.00  0.00    -0.274 OA
BRANCH  74  77
ATOM     77  C   UNL A   1      32.583  23.793  24.583  1.00  0.00     0.148 C 
BRANCH  77  78
ATOM     78  C   UNL A   1      31.178  23.881  23.971  1.00  0.00     0.023 C 
BRANCH  78  79
ATOM     79  C   UNL A   1      30.679  25.129  23.228  1.00  0.00     0.017 C 
BRANCH  79  80
ATOM     80  C   UNL A   1      29.629  25.947  23.962  1.00  0.00     0.109 C 
ATOM     81  Cl  UNL A   1      29.877  25.901  25.721  1.00  0.00    -0.127 Cl
ENDBRANCH  79  80
ENDBRANCH  78  79
ENDBRANCH  77  78
BRANCH  77  82
ATOM     82  P   UNL A   1      33.415  22.385  25.400  1.00  0.00     0.155 P 
ATOM     83  O   UNL A   1      32.814  22.149  26.774  1.00  0.00    -0.313 OA
BRANCH  82  84
ATOM     84  C   UNL A   1      32.941  20.993  24.344  1.00  0.00     0.017 A 
ATOM     85  C   UNL A   1      32.496  21.130  23.024  1.00  0.00     0.012 A 
ATOM     86  C   UNL A   1      32.918  19.719  24.935  1.00  0.00     0.012 A 
ATOM     87  C   UNL A   1      32.124  20.004  22.288  1.00  0.00     0.001 A 
ATOM     88  C   UNL A   1      32.510  18.603  24.213  1.00  0.00     0.001 A 
ATOM     89  C   UNL A   1      32.133  18.744  22.881  1.00  0.00     0.000 A 
ENDBRANCH  82  84
BRANCH  82  90
ATOM     90  C   UNL A   1      35.191  22.453  25.671  1.00  0.00     0.017 A 
ATOM     91  C   UNL A   1      35.852  23.546  26.248  1.00  0.00     0.012 A 
ATOM     92  C   UNL A   1      35.979  21.560  24.915  1.00  0.00     0.012 A 
ATOM     93  C   UNL A   1      37.221  23.761  26.038  1.00  0.00     0.001 A 
ATOM     94  C   UNL A   1      37.348  21.763  24.715  1.00  0.00     0.001 A 
ATOM     95  C   UNL A   1      37.965  22.880  25.260  1.00  0.00     0.000 A 
ENDBRANCH  82  90
ENDBRANCH  77  82
ENDBRANCH  74  77
ENDBRANCH  72  73
ENDBRANCH   1  72
TORSDOF 19
ENDMDL
