MODEL 1
REMARK VINA RESULT:     -13.5      0.000      0.000
REMARK SMILES COC(=O)c1c(NC(=O)[C@@H]2C[C@@H]2C(=O)NCCCNC(=O)c2ccc(-c3c4nc(c(-c5cccc(S(=O)(=O)[O-])c5F)c5ccc([nH]5)c(-c5cccc(S(=O)(=O)[O-])c5F)c5nc(c(-c6cccc(S(=O)(=O)[O-])c6F)c6ccc3[nH]6)C=C5)C=C4)cc2)sc2c1CC[N@@H+](Cc1ccccc1)C2
REMARK SMILES IDX 16 1 15 2 13 3 14 4 12 6 10 7 11 8 8 9 7 10 9 12 6 13 5 14
REMARK SMILES IDX 87 15 85 16 86 17 88 18 98 19 89 20 90 21 3 23 4 24 2 25
REMARK SMILES IDX 1 26 91 27 92 28 93 29 97 30 94 31 96 32 95 33 17 34 18 35
REMARK SMILES IDX 19 36 20 37 21 39 22 40 23 41 84 42 24 43 83 44 25 45 26 46
REMARK SMILES IDX 27 47 77 48 28 49 82 50 76 51 78 52 29 53 81 54 75 55 74 56
REMARK SMILES IDX 30 58 62 59 42 60 61 61 43 62 46 63 60 64 79 65 44 66 45 67
REMARK SMILES IDX 59 69 80 70 47 71 31 72 32 73 40 74 33 75 35 76 41 77 34 78
REMARK SMILES IDX 36 79 37 80 38 81 39 82 63 83 64 84 72 85 65 86 67 87 73 88
REMARK SMILES IDX 66 89 68 90 69 91 70 92 71 93 48 94 49 95 57 96 50 97 52 98
REMARK SMILES IDX 58 99 51 100 53 101 54 102 55 103 56 104
REMARK H PARENT 15 5 7 11 90 22 19 38 78 57 46 68
REMARK Flexibility Score: inf
ROOT
ATOM      1  C   UNL A   1      32.259  29.751  25.887  1.00  0.00     0.117 C 
ENDROOT
BRANCH   1   2
ATOM      2  N   UNL A   1      31.831  29.926  24.509  1.00  0.00    -0.356 N 
ATOM      3  C   UNL A   1      30.945  29.215  23.751  1.00  0.00     0.223 C 
ATOM      4  O   UNL A   1      30.658  29.622  22.632  1.00  0.00    -0.275 OA
ATOM      5  H   UNL A   1      32.252  30.684  24.043  1.00  0.00     0.163 HD
BRANCH   3   6
ATOM      6  C   UNL A   1      30.286  28.003  24.304  1.00  0.00     0.091 C 
ATOM      7  C   UNL A   1      30.548  26.608  23.762  1.00  0.00     0.092 C 
ATOM      8  C   UNL A   1      29.249  27.316  23.451  1.00  0.00     0.028 C 
BRANCH   7   9
ATOM      9  C   UNL A   1      31.547  26.363  22.712  1.00  0.00     0.228 C 
ATOM     10  N   UNL A   1      32.698  25.678  22.977  1.00  0.00    -0.317 N 
ATOM     11  H   UNL A   1      33.356  25.742  22.248  1.00  0.00     0.170 HD
ATOM     12  O   UNL A   1      31.275  26.664  21.553  1.00  0.00    -0.274 OA
BRANCH  10  13
ATOM     13  C   UNL A   1      33.145  24.917  24.035  1.00  0.00     0.110 A 
ATOM     14  C   UNL A   1      32.948  24.715  25.394  1.00  0.00     0.098 A 
ATOM     15  C   UNL A   1      33.723  23.575  25.861  1.00  0.00    -0.006 A 
ATOM     16  S   UNL A   1      34.321  23.824  23.400  1.00  0.00    -0.116 S 
ATOM     17  C   UNL A   1      34.385  22.939  24.834  1.00  0.00     0.065 A 
ATOM     18  C   UNL A   1      33.721  22.980  27.241  1.00  0.00     0.099 C 
ATOM     19  C   UNL A   1      35.065  21.607  24.941  1.00  0.00     0.310 C 
ATOM     20  C   UNL A   1      34.509  21.645  27.314  1.00  0.00     0.267 C 
ATOM     21  N   UNL A   1      34.562  20.825  26.091  1.00  0.00    -0.326 N 
ATOM     22  H   UNL A   1      35.258  20.102  26.277  1.00  0.00     0.348 HD
BRANCH  14  23
ATOM     23  C   UNL A   1      32.118  25.461  26.331  1.00  0.00     0.341 C 
ATOM     24  O   UNL A   1      32.419  26.560  26.757  1.00  0.00    -0.246 OA
BRANCH  23  25
ATOM     25  O   UNL A   1      31.076  24.721  26.816  1.00  0.00    -0.465 OA
ATOM     26  C   UNL A   1      30.444  23.841  25.882  1.00  0.00     0.282 C 
ENDBRANCH  23  25
ENDBRANCH  14  23
BRANCH  21  27
ATOM     27  C   UNL A   1      33.384  19.987  25.818  1.00  0.00     0.299 C 
BRANCH  27  28
ATOM     28  C   UNL A   1      33.432  19.044  24.634  1.00  0.00     0.006 A 
ATOM     29  C   UNL A   1      34.400  18.030  24.563  1.00  0.00     0.009 A 
ATOM     30  C   UNL A   1      32.478  19.131  23.609  1.00  0.00     0.009 A 
ATOM     31  C   UNL A   1      34.353  17.073  23.546  1.00  0.00     0.001 A 
ATOM     32  C   UNL A   1      32.418  18.162  22.607  1.00  0.00     0.001 A 
ATOM     33  C   UNL A   1      33.347  17.127  22.582  1.00  0.00     0.000 A 
ENDBRANCH  27  28
ENDBRANCH  21  27
ENDBRANCH  10  13
ENDBRANCH   7   9
ENDBRANCH   3   6
ENDBRANCH   1   2
BRANCH   1  34
ATOM     34  C   UNL A   1      33.741  29.401  26.021  1.00  0.00     0.042 C 
BRANCH  34  35
ATOM     35  C   UNL A   1      34.346  29.881  27.327  1.00  0.00     0.118 C 
BRANCH  35  36
ATOM     36  N   UNL A   1      34.752  31.299  27.304  1.00  0.00    -0.352 N 
ATOM     37  C   UNL A   1      35.847  31.885  27.920  1.00  0.00     0.251 C 
ATOM     38  H   UNL A   1      34.173  31.904  26.786  1.00  0.00     0.163 HD
ATOM     39  O   UNL A   1      35.912  33.097  28.088  1.00  0.00    -0.269 OA
BRANCH  37  40
ATOM     40  C   UNL A   1      36.946  31.006  28.354  1.00  0.00     0.039 A 
ATOM     41  C   UNL A   1      37.140  29.710  27.861  1.00  0.00     0.014 A 
ATOM     42  C   UNL A   1      37.846  31.568  29.243  1.00  0.00     0.014 A 
ATOM     43  C   UNL A   1      38.301  29.026  28.220  1.00  0.00     0.010 A 
ATOM     44  C   UNL A   1      39.085  31.021  29.358  1.00  0.00     0.010 A 
ATOM     45  C   UNL A   1      39.273  29.701  28.966  1.00  0.00    -0.014 A 
BRANCH  45  46
ATOM     46  C   UNL A   1      40.562  29.127  29.328  1.00  0.00     0.031 A 
ATOM     47  C   UNL A   1      40.739  28.874  30.784  1.00  0.00     0.074 A 
ATOM     48  C   UNL A   1      41.327  28.557  28.362  1.00  0.00     0.049 A 
ATOM     49  N   UNL A   1      41.646  29.352  31.572  1.00  0.00    -0.248 NA
ATOM     50  C   UNL A   1      39.695  28.103  31.484  1.00  0.00     0.031 C 
ATOM     51  C   UNL A   1      41.023  28.462  26.920  1.00  0.00     0.029 A 
ATOM     52  N   UNL A   1      42.411  27.748  28.479  1.00  0.00    -0.354 N 
ATOM     53  C   UNL A   1      41.434  28.722  32.799  1.00  0.00     0.074 A 
ATOM     54  C   UNL A   1      40.104  28.181  32.752  1.00  0.00     0.031 C 
ATOM     55  C   UNL A   1      41.697  27.423  26.383  1.00  0.00     0.029 A 
ATOM     56  C   UNL A   1      42.611  26.907  27.381  1.00  0.00     0.049 A 
ATOM     57  H   UNL A   1      43.003  27.752  29.266  1.00  0.00     0.167 HD
ATOM     58  C   UNL A   1      42.471  28.421  33.629  1.00  0.00     0.034 A 
ATOM     59  C   UNL A   1      43.417  25.817  27.323  1.00  0.00     0.034 A 
ATOM     60  C   UNL A   1      43.671  29.123  33.248  1.00  0.00     0.049 A 
ATOM     61  C   UNL A   1      44.373  25.929  28.446  1.00  0.00     0.074 A 
ATOM     62  C   UNL A   1      44.019  30.447  33.068  1.00  0.00     0.029 A 
ATOM     63  N   UNL A   1      44.631  28.390  32.592  1.00  0.00    -0.354 N 
ATOM     64  N   UNL A   1      45.260  26.879  28.540  1.00  0.00    -0.248 NA
ATOM     65  C   UNL A   1      44.027  25.263  29.691  1.00  0.00     0.031 C 
ATOM     66  C   UNL A   1      44.862  30.447  31.917  1.00  0.00     0.029 A 
ATOM     67  C   UNL A   1      45.042  29.123  31.511  1.00  0.00     0.049 A 
ATOM     68  H   UNL A   1      44.962  27.499  32.850  1.00  0.00     0.167 HD
ATOM     69  C   UNL A   1      45.221  27.249  29.878  1.00  0.00     0.074 A 
ATOM     70  C   UNL A   1      44.532  26.148  30.554  1.00  0.00     0.031 C 
ATOM     71  C   UNL A   1      45.466  28.538  30.259  1.00  0.00     0.034 A 
BRANCH  58  72
ATOM     72  C   UNL A   1      42.537  27.203  34.528  1.00  0.00     0.023 A 
ATOM     73  C   UNL A   1      42.173  27.383  35.882  1.00  0.00     0.012 A 
ATOM     74  C   UNL A   1      43.193  25.994  34.199  1.00  0.00     0.148 A 
ATOM     75  C   UNL A   1      42.500  26.440  36.863  1.00  0.00     0.002 A 
ATOM     76  C   UNL A   1      43.438  25.022  35.162  1.00  0.00     0.091 A 
ATOM     77  F   UNL A   1      43.717  25.821  32.984  1.00  0.00    -0.205 F 
ATOM     78  C   UNL A   1      43.126  25.254  36.502  1.00  0.00     0.022 A 
BRANCH  76  79
ATOM     79  S   UNL A   1      44.201  23.449  34.737  1.00  0.00     0.127 S 
ATOM     80  O   UNL A   1      43.162  22.836  33.915  1.00  0.00    -0.237 OA
ATOM     81  O   UNL A   1      45.394  23.883  34.011  1.00  0.00    -0.237 OA
ATOM     82  O   UNL A   1      44.484  22.800  36.011  1.00  0.00    -0.744 OA
ENDBRANCH  76  79
ENDBRANCH  58  72
BRANCH  59  83
ATOM     83  C   UNL A   1      43.242  24.556  26.564  1.00  0.00     0.023 A 
ATOM     84  C   UNL A   1      44.302  24.045  25.786  1.00  0.00     0.012 A 
ATOM     85  C   UNL A   1      42.142  23.709  26.820  1.00  0.00     0.148 A 
ATOM     86  C   UNL A   1      44.278  22.730  25.303  1.00  0.00     0.002 A 
ATOM     87  C   UNL A   1      42.119  22.405  26.334  1.00  0.00     0.091 A 
ATOM     88  F   UNL A   1      41.163  24.155  27.620  1.00  0.00    -0.205 F 
ATOM     89  C   UNL A   1      43.190  21.907  25.583  1.00  0.00     0.022 A 
BRANCH  87  90
ATOM     90  S   UNL A   1      40.764  21.275  26.680  1.00  0.00     0.127 S 
ATOM     91  O   UNL A   1      39.645  21.943  26.014  1.00  0.00    -0.237 OA
ATOM     92  O   UNL A   1      41.224  20.050  26.031  1.00  0.00    -0.237 OA
ATOM     93  O   UNL A   1      40.669  21.226  28.132  1.00  0.00    -0.744 OA
ENDBRANCH  87  90
ENDBRANCH  59  83
BRANCH  71  94
ATOM     94  C   UNL A   1      45.987  29.500  29.217  1.00  0.00     0.023 A 
ATOM     95  C   UNL A   1      47.333  29.500  28.788  1.00  0.00     0.012 A 
ATOM     96  C   UNL A   1      45.061  30.295  28.526  1.00  0.00     0.148 A 
ATOM     97  C   UNL A   1      47.747  30.287  27.711  1.00  0.00     0.002 A 
ATOM     98  C   UNL A   1      45.467  31.045  27.428  1.00  0.00     0.091 A 
ATOM     99  F   UNL A   1      43.784  30.277  28.936  1.00  0.00    -0.205 F 
ATOM    100  C   UNL A   1      46.811  31.052  27.022  1.00  0.00     0.022 A 
BRANCH  98 101
ATOM    101  S   UNL A   1      44.289  31.952  26.426  1.00  0.00     0.127 S 
ATOM    102  O   UNL A   1      43.324  30.912  26.073  1.00  0.00    -0.237 OA
ATOM    103  O   UNL A   1      43.788  32.958  27.363  1.00  0.00    -0.237 OA
ATOM    104  O   UNL A   1      45.048  32.505  25.312  1.00  0.00    -0.744 OA
ENDBRANCH  98 101
ENDBRANCH  71  94
ENDBRANCH  45  46
ENDBRANCH  37  40
ENDBRANCH  35  36
ENDBRANCH  34  35
ENDBRANCH   1  34
TORSDOF 19
ENDMDL
MODEL 2
REMARK VINA RESULT:     -13.5      1.915      2.316
REMARK SMILES COC(=O)c1c(NC(=O)[C@@H]2C[C@@H]2C(=O)NCCCNC(=O)c2ccc(-c3c4nc(c(-c5cccc(S(=O)(=O)[O-])c5F)c5ccc([nH]5)c(-c5cccc(S(=O)(=O)[O-])c5F)c5nc(c(-c6cccc(S(=O)(=O)[O-])c6F)c6ccc3[nH]6)C=C5)C=C4)cc2)sc2c1CC[N@@H+](Cc1ccccc1)C2
REMARK SMILES IDX 16 1 15 2 13 3 14 4 12 6 10 7 11 8 8 9 7 10 9 12 6 13 5 14
REMARK SMILES IDX 87 15 85 16 86 17 88 18 98 19 89 20 90 21 3 23 4 24 2 25
REMARK SMILES IDX 1 26 91 27 92 28 93 29 97 30 94 31 96 32 95 33 17 34 18 35
REMARK SMILES IDX 19 36 20 37 21 39 22 40 23 41 84 42 24 43 83 44 25 45 26 46
REMARK SMILES IDX 27 47 77 48 28 49 82 50 76 51 78 52 29 53 81 54 75 55 74 56
REMARK SMILES IDX 30 58 62 59 42 60 61 61 43 62 46 63 60 64 79 65 44 66 45 67
REMARK SMILES IDX 59 69 80 70 47 71 31 72 32 73 40 74 33 75 35 76 41 77 34 78
REMARK SMILES IDX 36 79 37 80 38 81 39 82 63 83 64 84 72 85 65 86 67 87 73 88
REMARK SMILES IDX 66 89 68 90 69 91 70 92 71 93 48 94 49 95 57 96 50 97 52 98
REMARK SMILES IDX 58 99 51 100 53 101 54 102 55 103 56 104
REMARK H PARENT 15 5 7 11 90 22 19 38 78 57 46 68
REMARK Flexibility Score: inf
ROOT
ATOM      1  C   UNL A   1      31.776  29.039  25.298  1.00  0.00     0.117 C 
ENDROOT
BRANCH   1   2
ATOM      2  N   UNL A   1      31.574  29.541  23.949  1.00  0.00    -0.356 N 
ATOM      3  C   UNL A   1      31.117  28.918  22.823  1.00  0.00     0.223 C 
ATOM      4  O   UNL A   1      30.924  29.582  21.812  1.00  0.00    -0.275 OA
ATOM      5  H   UNL A   1      31.806  30.490  23.827  1.00  0.00     0.163 HD
BRANCH   3   6
ATOM      6  C   UNL A   1      30.794  27.468  22.844  1.00  0.00     0.091 C 
ATOM      7  C   UNL A   1      31.861  26.388  22.788  1.00  0.00     0.092 C 
ATOM      8  C   UNL A   1      31.007  26.681  21.575  1.00  0.00     0.028 C 
BRANCH   7   9
ATOM      9  C   UNL A   1      33.294  26.718  22.803  1.00  0.00     0.228 C 
ATOM     10  N   UNL A   1      34.126  26.213  23.759  1.00  0.00    -0.317 N 
ATOM     11  H   UNL A   1      35.008  26.650  23.768  1.00  0.00     0.170 HD
ATOM     12  O   UNL A   1      33.767  27.348  21.862  1.00  0.00    -0.274 OA
BRANCH  10  13
ATOM     13  C   UNL A   1      34.009  25.228  24.717  1.00  0.00     0.110 A 
ATOM     14  C   UNL A   1      33.178  24.795  25.741  1.00  0.00     0.098 A 
ATOM     15  C   UNL A   1      33.638  23.520  26.270  1.00  0.00    -0.006 A 
ATOM     16  S   UNL A   1      35.355  24.166  24.505  1.00  0.00    -0.116 S 
ATOM     17  C   UNL A   1      34.721  23.027  25.575  1.00  0.00     0.065 A 
ATOM     18  C   UNL A   1      32.971  22.680  27.323  1.00  0.00     0.099 C 
ATOM     19  C   UNL A   1      35.274  21.640  25.710  1.00  0.00     0.310 C 
ATOM     20  C   UNL A   1      33.635  21.287  27.480  1.00  0.00     0.267 C 
ATOM     21  N   UNL A   1      34.281  20.708  26.289  1.00  0.00    -0.326 N 
ATOM     22  H   UNL A   1      34.805  19.900  26.627  1.00  0.00     0.348 HD
BRANCH  14  23
ATOM     23  C   UNL A   1      31.993  25.429  26.303  1.00  0.00     0.341 C 
ATOM     24  O   UNL A   1      32.030  26.186  27.254  1.00  0.00    -0.246 OA
BRANCH  23  25
ATOM     25  O   UNL A   1      30.833  24.939  25.772  1.00  0.00    -0.465 OA
ATOM     26  C   UNL A   1      29.675  25.763  25.928  1.00  0.00     0.282 C 
ENDBRANCH  23  25
ENDBRANCH  14  23
BRANCH  21  27
ATOM     27  C   UNL A   1      33.390  20.051  25.320  1.00  0.00     0.299 C 
BRANCH  27  28
ATOM     28  C   UNL A   1      33.516  18.554  25.128  1.00  0.00     0.006 A 
ATOM     29  C   UNL A   1      34.675  17.999  24.564  1.00  0.00     0.009 A 
ATOM     30  C   UNL A   1      32.502  17.688  25.560  1.00  0.00     0.009 A 
ATOM     31  C   UNL A   1      34.851  16.614  24.522  1.00  0.00     0.001 A 
ATOM     32  C   UNL A   1      32.687  16.305  25.539  1.00  0.00     0.001 A 
ATOM     33  C   UNL A   1      33.866  15.769  25.031  1.00  0.00     0.000 A 
ENDBRANCH  27  28
ENDBRANCH  21  27
ENDBRANCH  10  13
ENDBRANCH   7   9
ENDBRANCH   3   6
ENDBRANCH   1   2
BRANCH   1  34
ATOM     34  C   UNL A   1      33.239  29.063  25.740  1.00  0.00     0.042 C 
BRANCH  34  35
ATOM     35  C   UNL A   1      33.426  29.635  27.133  1.00  0.00     0.118 C 
BRANCH  35  36
ATOM     36  N   UNL A   1      33.540  31.106  27.158  1.00  0.00    -0.352 N 
ATOM     37  C   UNL A   1      34.432  31.882  27.882  1.00  0.00     0.251 C 
ATOM     38  H   UNL A   1      32.904  31.596  26.589  1.00  0.00     0.163 HD
ATOM     39  O   UNL A   1      34.236  33.078  28.063  1.00  0.00    -0.269 OA
BRANCH  37  40
ATOM     40  C   UNL A   1      35.638  31.229  28.417  1.00  0.00     0.039 A 
ATOM     41  C   UNL A   1      35.878  29.853  28.322  1.00  0.00     0.014 A 
ATOM     42  C   UNL A   1      36.584  32.077  28.967  1.00  0.00     0.014 A 
ATOM     43  C   UNL A   1      37.122  29.363  28.719  1.00  0.00     0.010 A 
ATOM     44  C   UNL A   1      37.868  31.644  29.080  1.00  0.00     0.010 A 
ATOM     45  C   UNL A   1      38.115  30.277  29.089  1.00  0.00    -0.014 A 
BRANCH  45  46
ATOM     46  C   UNL A   1      39.477  29.898  29.438  1.00  0.00     0.031 A 
ATOM     47  C   UNL A   1      39.822  30.083  30.875  1.00  0.00     0.074 A 
ATOM     48  C   UNL A   1      40.185  29.114  28.585  1.00  0.00     0.049 A 
ATOM     49  N   UNL A   1      40.761  30.813  31.381  1.00  0.00    -0.248 NA
ATOM     50  C   UNL A   1      38.923  29.493  31.884  1.00  0.00     0.031 C 
ATOM     51  C   UNL A   1      39.745  28.594  27.275  1.00  0.00     0.029 A 
ATOM     52  N   UNL A   1      41.340  28.429  28.791  1.00  0.00    -0.354 N 
ATOM     53  C   UNL A   1      40.728  30.552  32.752  1.00  0.00     0.074 A 
ATOM     54  C   UNL A   1      39.450  29.954  33.020  1.00  0.00     0.031 C 
ATOM     55  C   UNL A   1      40.446  27.480  26.973  1.00  0.00     0.029 A 
ATOM     56  C   UNL A   1      41.497  27.320  27.956  1.00  0.00     0.049 A 
ATOM     57  H   UNL A   1      42.006  28.690  29.468  1.00  0.00     0.167 HD
ATOM     58  C   UNL A   1      41.866  30.557  33.501  1.00  0.00     0.034 A 
ATOM     59  C   UNL A   1      42.380  26.302  28.108  1.00  0.00     0.034 A 
ATOM     60  C   UNL A   1      42.958  31.179  32.796  1.00  0.00     0.049 A 
ATOM     61  C   UNL A   1      43.433  26.781  29.031  1.00  0.00     0.074 A 
ATOM     62  C   UNL A   1      43.174  32.412  32.213  1.00  0.00     0.029 A 
ATOM     63  N   UNL A   1      43.904  30.339  32.260  1.00  0.00    -0.354 N 
ATOM     64  N   UNL A   1      44.242  27.762  28.746  1.00  0.00    -0.248 NA
ATOM     65  C   UNL A   1      43.273  26.484  30.444  1.00  0.00     0.031 C 
ATOM     66  C   UNL A   1      43.893  32.125  31.014  1.00  0.00     0.029 A 
ATOM     67  C   UNL A   1      44.141  30.751  30.976  1.00  0.00     0.049 A 
ATOM     68  H   UNL A   1      44.333  29.579  32.715  1.00  0.00     0.167 HD
ATOM     69  C   UNL A   1      44.308  28.498  29.922  1.00  0.00     0.074 A 
ATOM     70  C   UNL A   1      43.787  27.605  30.958  1.00  0.00     0.031 C 
ATOM     71  C   UNL A   1      44.483  29.853  29.895  1.00  0.00     0.034 A 
BRANCH  58  72
ATOM     72  C   UNL A   1      42.125  29.653  34.690  1.00  0.00     0.023 A 
ATOM     73  C   UNL A   1      42.832  30.210  35.779  1.00  0.00     0.012 A 
ATOM     74  C   UNL A   1      41.972  28.246  34.681  1.00  0.00     0.148 A 
ATOM     75  C   UNL A   1      43.408  29.407  36.770  1.00  0.00     0.002 A 
ATOM     76  C   UNL A   1      42.472  27.461  35.713  1.00  0.00     0.091 A 
ATOM     77  F   UNL A   1      41.468  27.631  33.610  1.00  0.00    -0.205 F 
ATOM     78  C   UNL A   1      43.222  28.032  36.742  1.00  0.00     0.022 A 
BRANCH  76  79
ATOM     79  S   UNL A   1      42.214  25.681  35.748  1.00  0.00     0.127 S 
ATOM     80  O   UNL A   1      40.770  25.594  35.550  1.00  0.00    -0.237 OA
ATOM     81  O   UNL A   1      43.026  25.239  34.614  1.00  0.00    -0.237 OA
ATOM     82  O   UNL A   1      42.717  25.244  37.045  1.00  0.00    -0.744 OA
ENDBRANCH  76  79
ENDBRANCH  58  72
BRANCH  59  83
ATOM     83  C   UNL A   1      42.236  24.869  27.759  1.00  0.00     0.023 A 
ATOM     84  C   UNL A   1      41.031  24.191  28.037  1.00  0.00     0.012 A 
ATOM     85  C   UNL A   1      43.167  24.240  26.904  1.00  0.00     0.148 A 
ATOM     86  C   UNL A   1      40.754  22.942  27.464  1.00  0.00     0.002 A 
ATOM     87  C   UNL A   1      42.890  22.997  26.342  1.00  0.00     0.091 A 
ATOM     88  F   UNL A   1      44.282  24.905  26.572  1.00  0.00    -0.205 F 
ATOM     89  C   UNL A   1      41.679  22.348  26.610  1.00  0.00     0.022 A 
BRANCH  87  90
ATOM     90  S   UNL A   1      44.023  22.183  25.207  1.00  0.00     0.127 S 
ATOM     91  O   UNL A   1      43.457  20.835  25.140  1.00  0.00    -0.237 OA
ATOM     92  O   UNL A   1      43.857  22.981  23.996  1.00  0.00    -0.237 OA
ATOM     93  O   UNL A   1      45.328  22.265  25.847  1.00  0.00    -0.744 OA
ENDBRANCH  87  90
ENDBRANCH  59  83
BRANCH  71  94
ATOM     94  C   UNL A   1      44.813  30.501  28.571  1.00  0.00     0.023 A 
ATOM     95  C   UNL A   1      43.821  30.879  27.641  1.00  0.00     0.012 A 
ATOM     96  C   UNL A   1      46.138  30.903  28.342  1.00  0.00     0.148 A 
ATOM     97  C   UNL A   1      44.143  31.621  26.501  1.00  0.00     0.002 A 
ATOM     98  C   UNL A   1      46.450  31.677  27.230  1.00  0.00     0.091 A 
ATOM     99  F   UNL A   1      47.069  30.547  29.239  1.00  0.00    -0.205 F 
ATOM    100  C   UNL A   1      45.458  32.031  26.302  1.00  0.00     0.022 A 
BRANCH  98 101
ATOM    101  S   UNL A   1      48.097  32.339  26.982  1.00  0.00     0.127 S 
ATOM    102  O   UNL A   1      48.858  31.141  26.633  1.00  0.00    -0.237 OA
ATOM    103  O   UNL A   1      47.896  33.279  25.879  1.00  0.00    -0.237 OA
ATOM    104  O   UNL A   1      48.471  32.973  28.241  1.00  0.00    -0.744 OA
ENDBRANCH  98 101
ENDBRANCH  71  94
ENDBRANCH  45  46
ENDBRANCH  37  40
ENDBRANCH  35  36
ENDBRANCH  34  35
ENDBRANCH   1  34
TORSDOF 19
ENDMDL
MODEL 3
REMARK VINA RESULT:     -13.4      2.944      8.346
REMARK SMILES COC(=O)c1c(NC(=O)[C@@H]2C[C@@H]2C(=O)NCCCNC(=O)c2ccc(-c3c4nc(c(-c5cccc(S(=O)(=O)[O-])c5F)c5ccc([nH]5)c(-c5cccc(S(=O)(=O)[O-])c5F)c5nc(c(-c6cccc(S(=O)(=O)[O-])c6F)c6ccc3[nH]6)C=C5)C=C4)cc2)sc2c1CC[N@@H+](Cc1ccccc1)C2
REMARK SMILES IDX 16 1 15 2 13 3 14 4 12 6 10 7 11 8 8 9 7 10 9 12 6 13 5 14
REMARK SMILES IDX 87 15 85 16 86 17 88 18 98 19 89 20 90 21 3 23 4 24 2 25
REMARK SMILES IDX 1 26 91 27 92 28 93 29 97 30 94 31 96 32 95 33 17 34 18 35
REMARK SMILES IDX 19 36 20 37 21 39 22 40 23 41 84 42 24 43 83 44 25 45 26 46
REMARK SMILES IDX 27 47 77 48 28 49 82 50 76 51 78 52 29 53 81 54 75 55 74 56
REMARK SMILES IDX 30 58 62 59 42 60 61 61 43 62 46 63 60 64 79 65 44 66 45 67
REMARK SMILES IDX 59 69 80 70 47 71 31 72 32 73 40 74 33 75 35 76 41 77 34 78
REMARK SMILES IDX 36 79 37 80 38 81 39 82 63 83 64 84 72 85 65 86 67 87 73 88
REMARK SMILES IDX 66 89 68 90 69 91 70 92 71 93 48 94 49 95 57 96 50 97 52 98
REMARK SMILES IDX 58 99 51 100 53 101 54 102 55 103 56 104
REMARK H PARENT 15 5 7 11 90 22 19 38 78 57 46 68
REMARK Flexibility Score: inf
ROOT
ATOM      1  C   UNL A   1      36.485  20.771  24.740  1.00  0.00     0.117 C 
ENDROOT
BRANCH   1   2
ATOM      2  N   UNL A   1      35.372  19.931  25.147  1.00  0.00    -0.356 N 
ATOM      3  C   UNL A   1      34.066  19.924  24.749  1.00  0.00     0.223 C 
ATOM      4  O   UNL A   1      33.324  19.038  25.156  1.00  0.00    -0.275 OA
ATOM      5  H   UNL A   1      35.597  19.252  25.824  1.00  0.00     0.163 HD
BRANCH   3   6
ATOM      6  C   UNL A   1      33.568  20.937  23.782  1.00  0.00     0.091 C 
ATOM      7  C   UNL A   1      32.432  21.892  24.107  1.00  0.00     0.092 C 
ATOM      8  C   UNL A   1      32.204  20.722  23.178  1.00  0.00     0.028 C 
BRANCH   7   9
ATOM      9  C   UNL A   1      31.815  21.932  25.441  1.00  0.00     0.228 C 
ATOM     10  N   UNL A   1      31.976  23.010  26.263  1.00  0.00    -0.317 N 
ATOM     11  H   UNL A   1      31.673  22.837  27.183  1.00  0.00     0.170 HD
ATOM     12  O   UNL A   1      31.035  21.040  25.760  1.00  0.00    -0.274 OA
BRANCH  10  13
ATOM     13  C   UNL A   1      32.469  24.286  26.094  1.00  0.00     0.110 A 
ATOM     14  C   UNL A   1      33.547  24.978  25.559  1.00  0.00     0.098 A 
ATOM     15  C   UNL A   1      33.316  26.413  25.622  1.00  0.00    -0.006 A 
ATOM     16  S   UNL A   1      31.290  25.365  26.749  1.00  0.00    -0.116 S 
ATOM     17  C   UNL A   1      32.068  26.720  26.116  1.00  0.00     0.065 A 
ATOM     18  C   UNL A   1      34.200  27.499  25.074  1.00  0.00     0.099 C 
ATOM     19  C   UNL A   1      31.437  28.080  26.082  1.00  0.00     0.310 C 
ATOM     20  C   UNL A   1      33.532  28.898  25.140  1.00  0.00     0.267 C 
ATOM     21  N   UNL A   1      32.061  28.949  25.059  1.00  0.00    -0.326 N 
ATOM     22  H   UNL A   1      31.807  29.907  25.299  1.00  0.00     0.348 HD
BRANCH  14  23
ATOM     23  C   UNL A   1      34.785  24.465  24.988  1.00  0.00     0.341 C 
ATOM     24  O   UNL A   1      35.007  24.443  23.792  1.00  0.00    -0.246 OA
BRANCH  23  25
ATOM     25  O   UNL A   1      35.576  23.848  25.916  1.00  0.00    -0.465 OA
ATOM     26  C   UNL A   1      36.986  24.029  25.757  1.00  0.00     0.282 C 
ENDBRANCH  23  25
ENDBRANCH  14  23
BRANCH  21  27
ATOM     27  C   UNL A   1      31.480  28.856  23.711  1.00  0.00     0.299 C 
BRANCH  27  28
ATOM     28  C   UNL A   1      30.051  29.319  23.513  1.00  0.00     0.006 A 
ATOM     29  C   UNL A   1      29.683  30.646  23.784  1.00  0.00     0.009 A 
ATOM     30  C   UNL A   1      29.079  28.446  23.001  1.00  0.00     0.009 A 
ATOM     31  C   UNL A   1      28.405  31.108  23.462  1.00  0.00     0.001 A 
ATOM     32  C   UNL A   1      27.810  28.914  22.659  1.00  0.00     0.001 A 
ATOM     33  C   UNL A   1      27.477  30.247  22.878  1.00  0.00     0.000 A 
ENDBRANCH  27  28
ENDBRANCH  21  27
ENDBRANCH  10  13
ENDBRANCH   7   9
ENDBRANCH   3   6
ENDBRANCH   1   2
BRANCH   1  34
ATOM     34  C   UNL A   1      37.786  19.995  24.531  1.00  0.00     0.042 C 
BRANCH  34  35
ATOM     35  C   UNL A   1      38.495  19.667  25.832  1.00  0.00     0.118 C 
BRANCH  35  36
ATOM     36  N   UNL A   1      39.806  19.019  25.643  1.00  0.00    -0.352 N 
ATOM     37  C   UNL A   1      41.066  19.584  25.774  1.00  0.00     0.251 C 
ATOM     38  H   UNL A   1      39.784  18.067  25.393  1.00  0.00     0.163 HD
ATOM     39  O   UNL A   1      42.059  19.046  25.298  1.00  0.00    -0.269 OA
BRANCH  37  40
ATOM     40  C   UNL A   1      41.180  20.849  26.519  1.00  0.00     0.039 A 
ATOM     41  C   UNL A   1      40.961  20.955  27.898  1.00  0.00     0.014 A 
ATOM     42  C   UNL A   1      41.600  21.943  25.781  1.00  0.00     0.014 A 
ATOM     43  C   UNL A   1      41.252  22.164  28.529  1.00  0.00     0.010 A 
ATOM     44  C   UNL A   1      42.142  23.005  26.433  1.00  0.00     0.010 A 
ATOM     45  C   UNL A   1      41.853  23.183  27.781  1.00  0.00    -0.014 A 
BRANCH  45  46
ATOM     46  C   UNL A   1      42.284  24.456  28.342  1.00  0.00     0.031 A 
ATOM     47  C   UNL A   1      41.329  25.579  28.133  1.00  0.00     0.074 A 
ATOM     48  C   UNL A   1      43.275  24.468  29.269  1.00  0.00     0.049 A 
ATOM     49  N   UNL A   1      41.539  26.701  27.527  1.00  0.00    -0.248 NA
ATOM     50  C   UNL A   1      39.922  25.373  28.524  1.00  0.00     0.031 C 
ATOM     51  C   UNL A   1      44.029  23.309  29.788  1.00  0.00     0.029 A 
ATOM     52  N   UNL A   1      43.666  25.462  30.109  1.00  0.00    -0.354 N 
ATOM     53  C   UNL A   1      40.368  27.438  27.704  1.00  0.00     0.074 A 
ATOM     54  C   UNL A   1      39.352  26.497  28.087  1.00  0.00     0.031 C 
ATOM     55  C   UNL A   1      44.523  23.602  31.010  1.00  0.00     0.029 A 
ATOM     56  C   UNL A   1      44.290  25.006  31.273  1.00  0.00     0.049 A 
ATOM     57  H   UNL A   1      43.522  26.417  29.915  1.00  0.00     0.167 HD
ATOM     58  C   UNL A   1      40.396  28.794  27.831  1.00  0.00     0.034 A 
ATOM     59  C   UNL A   1      44.529  25.718  32.404  1.00  0.00     0.034 A 
ATOM     60  C   UNL A   1      41.667  29.335  27.421  1.00  0.00     0.049 A 
ATOM     61  C   UNL A   1      44.430  27.148  32.040  1.00  0.00     0.074 A 
ATOM     62  C   UNL A   1      42.427  29.289  26.269  1.00  0.00     0.029 A 
ATOM     63  N   UNL A   1      42.526  29.718  28.423  1.00  0.00    -0.354 N 
ATOM     64  N   UNL A   1      45.246  27.734  31.210  1.00  0.00    -0.248 NA
ATOM     65  C   UNL A   1      43.146  27.803  32.231  1.00  0.00     0.031 C 
ATOM     66  C   UNL A   1      43.772  29.158  26.727  1.00  0.00     0.029 A 
ATOM     67  C   UNL A   1      43.762  29.211  28.122  1.00  0.00     0.049 A 
ATOM     68  H   UNL A   1      42.296  30.257  29.213  1.00  0.00     0.167 HD
ATOM     69  C   UNL A   1      44.420  28.532  30.429  1.00  0.00     0.074 A 
ATOM     70  C   UNL A   1      43.163  28.620  31.175  1.00  0.00     0.031 C 
ATOM     71  C   UNL A   1      44.718  28.784  29.119  1.00  0.00     0.034 A 
BRANCH  58  72
ATOM     72  C   UNL A   1      39.451  29.604  28.697  1.00  0.00     0.023 A 
ATOM     73  C   UNL A   1      39.665  29.563  30.093  1.00  0.00     0.012 A 
ATOM     74  C   UNL A   1      38.225  30.153  28.255  1.00  0.00     0.148 A 
ATOM     75  C   UNL A   1      38.687  29.989  30.999  1.00  0.00     0.002 A 
ATOM     76  C   UNL A   1      37.293  30.653  29.156  1.00  0.00     0.091 A 
ATOM     77  F   UNL A   1      37.876  30.073  26.969  1.00  0.00    -0.205 F 
ATOM     78  C   UNL A   1      37.502  30.541  30.531  1.00  0.00     0.022 A 
BRANCH  76  79
ATOM     79  S   UNL A   1      35.766  31.424  28.599  1.00  0.00     0.127 S 
ATOM     80  O   UNL A   1      35.085  31.669  29.866  1.00  0.00    -0.237 OA
ATOM     81  O   UNL A   1      36.266  32.619  27.919  1.00  0.00    -0.237 OA
ATOM     82  O   UNL A   1      35.145  30.451  27.708  1.00  0.00    -0.744 OA
ENDBRANCH  76  79
ENDBRANCH  58  72
BRANCH  59  83
ATOM     83  C   UNL A   1      44.544  25.266  33.815  1.00  0.00     0.023 A 
ATOM     84  C   UNL A   1      43.336  25.154  34.535  1.00  0.00     0.012 A 
ATOM     85  C   UNL A   1      45.702  24.679  34.370  1.00  0.00     0.148 A 
ATOM     86  C   UNL A   1      43.281  24.460  35.752  1.00  0.00     0.002 A 
ATOM     87  C   UNL A   1      45.644  23.996  35.581  1.00  0.00     0.091 A 
ATOM     88  F   UNL A   1      46.839  24.713  33.661  1.00  0.00    -0.205 F 
ATOM     89  C   UNL A   1      44.432  23.875  36.272  1.00  0.00     0.022 A 
BRANCH  87  90
ATOM     90  S   UNL A   1      47.082  23.189  36.299  1.00  0.00     0.127 S 
ATOM     91  O   UNL A   1      47.942  24.334  36.600  1.00  0.00    -0.237 OA
ATOM     92  O   UNL A   1      46.502  22.531  37.466  1.00  0.00    -0.237 OA
ATOM     93  O   UNL A   1      47.583  22.306  35.256  1.00  0.00    -0.744 OA
ENDBRANCH  87  90
ENDBRANCH  59  83
BRANCH  71  94
ATOM     94  C   UNL A   1      46.070  28.352  28.603  1.00  0.00     0.023 A 
ATOM     95  C   UNL A   1      47.254  29.072  28.876  1.00  0.00     0.012 A 
ATOM     96  C   UNL A   1      46.174  27.097  27.985  1.00  0.00     0.148 A 
ATOM     97  C   UNL A   1      48.507  28.562  28.525  1.00  0.00     0.002 A 
ATOM     98  C   UNL A   1      47.424  26.573  27.674  1.00  0.00     0.091 A 
ATOM     99  F   UNL A   1      45.043  26.418  27.741  1.00  0.00    -0.205 F 
ATOM    100  C   UNL A   1      48.593  27.305  27.934  1.00  0.00     0.022 A 
BRANCH  98 101
ATOM    101  S   UNL A   1      47.608  24.912  27.027  1.00  0.00     0.127 S 
ATOM    102  O   UNL A   1      47.345  25.108  25.603  1.00  0.00    -0.237 OA
ATOM    103  O   UNL A   1      49.000  24.599  27.354  1.00  0.00    -0.237 OA
ATOM    104  O   UNL A   1      46.633  24.092  27.736  1.00  0.00    -0.744 OA
ENDBRANCH  98 101
ENDBRANCH  71  94
ENDBRANCH  45  46
ENDBRANCH  37  40
ENDBRANCH  35  36
ENDBRANCH  34  35
ENDBRANCH   1  34
TORSDOF 19
ENDMDL
