MODEL 1
REMARK VINA RESULT:     -14.0      0.000      0.000
REMARK SMILES Cc1c(Cl)cccc1NC(=O)C[C@](C)(C(=O)NCCCNC(=O)c1ccc(-c2c3nc(c(-c4cccc(S(=O)(=O)[O-])c4F)c4ccc([nH]4)c(-c4cccc(S(=O)(=O)[O-])c4F)c4nc(c(-c5cccc(S(=O)(=O)[O-])c5F)c5ccc2[nH]5)C=C4)C=C3)cc1)c1ccccc1
REMARK SMILES IDX 19 1 18 2 17 3 15 4 16 5 13 7 14 8 12 9 10 10 9 11 11 13
REMARK SMILES IDX 8 14 1 15 2 16 3 17 4 18 5 19 7 20 6 21 87 22 88 23 92 24
REMARK SMILES IDX 89 25 91 26 90 27 20 28 21 29 22 30 23 32 24 33 25 34 86 35
REMARK SMILES IDX 26 36 85 37 27 38 28 39 29 40 79 41 30 42 84 43 78 44 80 45
REMARK SMILES IDX 31 46 83 47 77 48 76 49 32 51 64 52 44 53 63 54 45 55 48 56
REMARK SMILES IDX 62 57 81 58 46 59 47 60 61 62 82 63 49 64 33 65 34 66 42 67
REMARK SMILES IDX 35 68 37 69 43 70 36 71 38 72 39 73 40 74 41 75 65 76 66 77
REMARK SMILES IDX 74 78 67 79 69 80 75 81 68 82 70 83 71 84 72 85 73 86 50 87
REMARK SMILES IDX 51 88 59 89 52 90 54 91 60 92 53 93 55 94 56 95 57 96 58 97
REMARK H PARENT 17 6 9 12 21 31 80 50 48 61
REMARK Flexibility Score: inf
ROOT
ATOM      1  C   UNL A   1      31.862  29.701  26.239  1.00  0.00     0.042 C 
ENDROOT
BRANCH   1   2
ATOM      2  C   UNL A   1      31.713  28.299  27.197  1.00  0.00     0.117 C 
BRANCH   2   3
ATOM      3  N   UNL A   1      31.653  26.257  26.752  1.00  0.00    -0.355 N 
ATOM      4  C   UNL A   1      31.980  25.103  25.960  1.00  0.00     0.230 C 
ATOM      5  O   UNL A   1      31.571  24.080  26.541  1.00  0.00    -0.274 OA
ATOM      6  H   UNL A   1      31.105  25.883  27.480  1.00  0.00     0.163 HD
BRANCH   4   7
ATOM      7  C   UNL A   1      32.675  24.966  24.496  1.00  0.00     0.080 C 
ATOM      8  C   UNL A   1      31.829  23.897  23.706  1.00  0.00     0.027 C 
BRANCH   7   9
ATOM      9  C   UNL A   1      32.895  26.293  23.682  1.00  0.00     0.121 C 
BRANCH   9  10
ATOM     10  C   UNL A   1      32.639  26.308  22.188  1.00  0.00     0.225 C 
ATOM     11  N   UNL A   1      31.503  26.859  21.678  1.00  0.00    -0.326 N 
ATOM     12  H   UNL A   1      31.219  26.591  20.775  1.00  0.00     0.169 HD
ATOM     13  O   UNL A   1      33.433  25.785  21.401  1.00  0.00    -0.275 OA
BRANCH  11  14
ATOM     14  C   UNL A   1      30.724  27.781  22.367  1.00  0.00     0.045 A 
ATOM     15  C   UNL A   1      29.122  25.755  23.627  1.00  0.00     0.048 C 
ATOM     16  C   UNL A   1      29.163  27.129  23.015  1.00  0.00    -0.009 A 
ATOM     17  C   UNL A   1      27.798  28.260  23.381  1.00  0.00     0.046 A 
ATOM     18  Cl  UNL A   1      26.370  27.696  24.152  1.00  0.00    -0.084 Cl
ATOM     19  C   UNL A   1      27.963  30.018  23.046  1.00  0.00     0.021 A 
ATOM     20  C   UNL A   1      30.942  29.587  22.144  1.00  0.00     0.026 A 
ATOM     21  C   UNL A   1      29.524  30.691  22.418  1.00  0.00     0.004 A 
ENDBRANCH  11  14
ENDBRANCH   9  10
ENDBRANCH   7   9
BRANCH   7  22
ATOM     22  C   UNL A   1      34.111  24.292  24.462  1.00  0.00    -0.032 A 
ATOM     23  C   UNL A   1      34.980  24.516  25.572  1.00  0.00     0.005 A 
ATOM     24  C   UNL A   1      34.609  23.493  23.432  1.00  0.00     0.005 A 
ATOM     25  C   UNL A   1      36.303  24.089  25.588  1.00  0.00     0.000 A 
ATOM     26  C   UNL A   1      35.941  23.050  23.455  1.00  0.00     0.000 A 
ATOM     27  C   UNL A   1      36.791  23.367  24.514  1.00  0.00     0.000 A 
ENDBRANCH   7  22
ENDBRANCH   4   7
ENDBRANCH   2   3
ENDBRANCH   1   2
BRANCH   1  28
ATOM     28  C   UNL A   1      33.128  30.457  26.597  1.00  0.00     0.118 C 
BRANCH  28  29
ATOM     29  N   UNL A   1      32.906  31.747  27.243  1.00  0.00    -0.352 N 
ATOM     30  C   UNL A   1      33.875  32.498  27.866  1.00  0.00     0.251 C 
ATOM     31  H   UNL A   1      31.991  32.109  27.231  1.00  0.00     0.163 HD
ATOM     32  O   UNL A   1      33.660  33.614  28.313  1.00  0.00    -0.269 OA
BRANCH  30  33
ATOM     33  C   UNL A   1      35.151  31.803  28.073  1.00  0.00     0.039 A 
ATOM     34  C   UNL A   1      36.292  32.607  28.081  1.00  0.00     0.014 A 
ATOM     35  C   UNL A   1      35.145  30.519  28.624  1.00  0.00     0.014 A 
ATOM     36  C   UNL A   1      37.443  32.126  28.684  1.00  0.00     0.010 A 
ATOM     37  C   UNL A   1      36.260  30.101  29.336  1.00  0.00     0.010 A 
ATOM     38  C   UNL A   1      37.425  30.885  29.339  1.00  0.00    -0.014 A 
BRANCH  38  39
ATOM     39  C   UNL A   1      38.673  30.367  29.938  1.00  0.00     0.031 A 
ATOM     40  C   UNL A   1      39.043  30.817  31.321  1.00  0.00     0.074 A 
ATOM     41  C   UNL A   1      39.429  29.478  29.265  1.00  0.00     0.049 A 
ATOM     42  N   UNL A   1      40.024  30.412  32.079  1.00  0.00    -0.248 NA
ATOM     43  C   UNL A   1      38.215  31.876  31.929  1.00  0.00     0.031 C 
ATOM     44  C   UNL A   1      39.191  29.026  27.890  1.00  0.00     0.029 A 
ATOM     45  N   UNL A   1      40.548  28.788  29.651  1.00  0.00    -0.354 N 
ATOM     46  C   UNL A   1      39.945  31.182  33.230  1.00  0.00     0.074 A 
ATOM     47  C   UNL A   1      38.863  32.118  33.055  1.00  0.00     0.031 C 
ATOM     48  C   UNL A   1      40.116  28.110  27.562  1.00  0.00     0.029 A 
ATOM     49  C   UNL A   1      41.030  27.933  28.686  1.00  0.00     0.049 A 
ATOM     50  H   UNL A   1      40.967  28.893  30.535  1.00  0.00     0.167 HD
ATOM     51  C   UNL A   1      40.687  31.093  34.356  1.00  0.00     0.034 A 
ATOM     52  C   UNL A   1      42.093  27.105  28.714  1.00  0.00     0.034 A 
ATOM     53  C   UNL A   1      41.741  30.139  34.528  1.00  0.00     0.049 A 
ATOM     54  C   UNL A   1      42.894  27.014  29.985  1.00  0.00     0.074 A 
ATOM     55  C   UNL A   1      42.517  29.910  35.648  1.00  0.00     0.029 A 
ATOM     56  N   UNL A   1      42.184  29.271  33.542  1.00  0.00    -0.354 N 
ATOM     57  N   UNL A   1      42.716  27.648  31.119  1.00  0.00    -0.248 NA
ATOM     58  C   UNL A   1      44.020  26.070  29.995  1.00  0.00     0.031 C 
ATOM     59  C   UNL A   1      43.469  28.942  35.320  1.00  0.00     0.029 A 
ATOM     60  C   UNL A   1      43.241  28.520  34.018  1.00  0.00     0.049 A 
ATOM     61  H   UNL A   1      41.802  29.199  32.637  1.00  0.00     0.167 HD
ATOM     62  C   UNL A   1      43.682  27.157  31.988  1.00  0.00     0.074 A 
ATOM     63  C   UNL A   1      44.427  26.153  31.254  1.00  0.00     0.031 C 
ATOM     64  C   UNL A   1      43.940  27.505  33.273  1.00  0.00     0.034 A 
BRANCH  51  65
ATOM     65  C   UNL A   1      40.374  32.049  35.473  1.00  0.00     0.023 A 
ATOM     66  C   UNL A   1      41.163  33.203  35.667  1.00  0.00     0.012 A 
ATOM     67  C   UNL A   1      39.276  31.811  36.319  1.00  0.00     0.148 A 
ATOM     68  C   UNL A   1      40.882  34.086  36.709  1.00  0.00     0.002 A 
ATOM     69  C   UNL A   1      38.969  32.724  37.317  1.00  0.00     0.091 A 
ATOM     70  F   UNL A   1      38.561  30.692  36.137  1.00  0.00    -0.205 F 
ATOM     71  C   UNL A   1      39.779  33.853  37.524  1.00  0.00     0.022 A 
BRANCH  69  72
ATOM     72  S   UNL A   1      37.521  32.558  38.363  1.00  0.00     0.127 S 
ATOM     73  O   UNL A   1      37.820  33.504  39.436  1.00  0.00    -0.237 OA
ATOM     74  O   UNL A   1      36.446  32.976  37.462  1.00  0.00    -0.237 OA
ATOM     75  O   UNL A   1      37.471  31.159  38.766  1.00  0.00    -0.744 OA
ENDBRANCH  69  72
ENDBRANCH  51  65
BRANCH  52  76
ATOM     76  C   UNL A   1      42.442  26.285  27.519  1.00  0.00     0.023 A 
ATOM     77  C   UNL A   1      43.179  26.847  26.458  1.00  0.00     0.012 A 
ATOM     78  C   UNL A   1      42.044  24.936  27.436  1.00  0.00     0.148 A 
ATOM     79  C   UNL A   1      43.476  26.093  25.320  1.00  0.00     0.002 A 
ATOM     80  C   UNL A   1      42.395  24.174  26.329  1.00  0.00     0.091 A 
ATOM     81  F   UNL A   1      41.336  24.422  28.451  1.00  0.00    -0.205 F 
ATOM     82  C   UNL A   1      43.091  24.756  25.259  1.00  0.00     0.022 A 
BRANCH  80  83
ATOM     83  S   UNL A   1      42.056  22.414  26.229  1.00  0.00     0.127 S 
ATOM     84  O   UNL A   1      40.597  22.394  26.152  1.00  0.00    -0.237 OA
ATOM     85  O   UNL A   1      42.745  22.047  24.992  1.00  0.00    -0.237 OA
ATOM     86  O   UNL A   1      42.633  21.832  27.433  1.00  0.00    -0.744 OA
ENDBRANCH  80  83
ENDBRANCH  52  76
BRANCH  64  87
ATOM     87  C   UNL A   1      45.038  26.764  33.986  1.00  0.00     0.023 A 
ATOM     88  C   UNL A   1      46.330  27.318  34.072  1.00  0.00     0.012 A 
ATOM     89  C   UNL A   1      44.759  25.548  34.638  1.00  0.00     0.148 A 
ATOM     90  C   UNL A   1      47.341  26.646  34.757  1.00  0.00     0.002 A 
ATOM     91  C   UNL A   1      45.753  24.916  35.371  1.00  0.00     0.091 A 
ATOM     92  F   UNL A   1      43.524  25.035  34.533  1.00  0.00    -0.205 F 
ATOM     93  C   UNL A   1      47.049  25.454  35.417  1.00  0.00     0.022 A 
BRANCH  91  94
ATOM     94  S   UNL A   1      45.440  23.436  36.337  1.00  0.00     0.127 S 
ATOM     95  O   UNL A   1      46.749  22.786  36.314  1.00  0.00    -0.237 OA
ATOM     96  O   UNL A   1      45.056  23.993  37.635  1.00  0.00    -0.237 OA
ATOM     97  O   UNL A   1      44.377  22.718  35.647  1.00  0.00    -0.744 OA
ENDBRANCH  91  94
ENDBRANCH  64  87
ENDBRANCH  38  39
ENDBRANCH  30  33
ENDBRANCH  28  29
ENDBRANCH   1  28
TORSDOF 17
ENDMDL
MODEL 2
REMARK VINA RESULT:     -13.8      2.497      8.628
REMARK SMILES Cc1c(Cl)cccc1NC(=O)C[C@](C)(C(=O)NCCCNC(=O)c1ccc(-c2c3nc(c(-c4cccc(S(=O)(=O)[O-])c4F)c4ccc([nH]4)c(-c4cccc(S(=O)(=O)[O-])c4F)c4nc(c(-c5cccc(S(=O)(=O)[O-])c5F)c5ccc2[nH]5)C=C4)C=C3)cc1)c1ccccc1
REMARK SMILES IDX 19 1 18 2 17 3 15 4 16 5 13 7 14 8 12 9 10 10 9 11 11 13
REMARK SMILES IDX 8 14 1 15 2 16 3 17 4 18 5 19 7 20 6 21 87 22 88 23 92 24
REMARK SMILES IDX 89 25 91 26 90 27 20 28 21 29 22 30 23 32 24 33 25 34 86 35
REMARK SMILES IDX 26 36 85 37 27 38 28 39 29 40 79 41 30 42 84 43 78 44 80 45
REMARK SMILES IDX 31 46 83 47 77 48 76 49 32 51 64 52 44 53 63 54 45 55 48 56
REMARK SMILES IDX 62 57 81 58 46 59 47 60 61 62 82 63 49 64 33 65 34 66 42 67
REMARK SMILES IDX 35 68 37 69 43 70 36 71 38 72 39 73 40 74 41 75 65 76 66 77
REMARK SMILES IDX 74 78 67 79 69 80 75 81 68 82 70 83 71 84 72 85 73 86 50 87
REMARK SMILES IDX 51 88 59 89 52 90 54 91 60 92 53 93 55 94 56 95 57 96 58 97
REMARK H PARENT 17 6 9 12 21 31 80 50 48 61
REMARK Flexibility Score: inf
ROOT
ATOM      1  C   UNL A   1      33.158  30.916  27.615  1.00  0.00     0.042 C 
ENDROOT
BRANCH   1   2
ATOM      2  C   UNL A   1      32.446  30.462  26.135  1.00  0.00     0.117 C 
BRANCH   2   3
ATOM      3  N   UNL A   1      32.911  29.010  24.705  1.00  0.00    -0.355 N 
ATOM      4  C   UNL A   1      32.576  27.957  23.784  1.00  0.00     0.230 C 
ATOM      5  O   UNL A   1      33.594  27.642  23.139  1.00  0.00    -0.274 OA
ATOM      6  H   UNL A   1      33.888  29.090  24.610  1.00  0.00     0.163 HD
BRANCH   4   7
ATOM      7  C   UNL A   1      31.193  27.136  23.547  1.00  0.00     0.080 C 
ATOM      8  C   UNL A   1      31.417  26.261  22.255  1.00  0.00     0.027 C 
BRANCH   7   9
ATOM      9  C   UNL A   1      30.640  26.303  24.760  1.00  0.00     0.121 C 
BRANCH   9  10
ATOM     10  C   UNL A   1      31.331  26.390  26.107  1.00  0.00     0.225 C 
ATOM     11  N   UNL A   1      32.210  25.429  26.506  1.00  0.00    -0.326 N 
ATOM     12  H   UNL A   1      32.400  25.340  27.468  1.00  0.00     0.169 HD
ATOM     13  O   UNL A   1      31.084  27.310  26.892  1.00  0.00    -0.275 OA
BRANCH  11  14
ATOM     14  C   UNL A   1      32.852  24.567  25.625  1.00  0.00     0.045 A 
ATOM     15  C   UNL A   1      30.762  22.599  25.743  1.00  0.00     0.048 C 
ATOM     16  C   UNL A   1      32.240  22.862  25.640  1.00  0.00    -0.009 A 
ATOM     17  C   UNL A   1      33.300  21.520  25.051  1.00  0.00     0.046 A 
ATOM     18  Cl  UNL A   1      32.691  19.920  24.895  1.00  0.00    -0.084 Cl
ATOM     19  C   UNL A   1      34.980  21.862  24.510  1.00  0.00     0.021 A 
ATOM     20  C   UNL A   1      34.519  24.938  24.955  1.00  0.00     0.026 A 
ATOM     21  C   UNL A   1      35.603  23.562  24.468  1.00  0.00     0.004 A 
ENDBRANCH  11  14
ENDBRANCH   9  10
ENDBRANCH   7   9
BRANCH   7  22
ATOM     22  C   UNL A   1      29.934  27.995  23.109  1.00  0.00    -0.032 A 
ATOM     23  C   UNL A   1      30.166  29.181  22.348  1.00  0.00     0.005 A 
ATOM     24  C   UNL A   1      28.603  27.697  23.406  1.00  0.00     0.005 A 
ATOM     25  C   UNL A   1      29.154  30.078  22.027  1.00  0.00     0.000 A 
ATOM     26  C   UNL A   1      27.579  28.596  23.069  1.00  0.00     0.000 A 
ATOM     27  C   UNL A   1      27.854  29.792  22.406  1.00  0.00     0.000 A 
ENDBRANCH   7  22
ENDBRANCH   4   7
ENDBRANCH   2   3
ENDBRANCH   1   2
BRANCH   1  28
ATOM     28  C   UNL A   1      33.875  32.246  27.473  1.00  0.00     0.118 C 
BRANCH  28  29
ATOM     29  N   UNL A   1      33.029  33.420  27.666  1.00  0.00    -0.352 N 
ATOM     30  C   UNL A   1      33.278  34.439  28.554  1.00  0.00     0.251 C 
ATOM     31  H   UNL A   1      32.215  33.487  27.116  1.00  0.00     0.163 HD
ATOM     32  O   UNL A   1      32.588  35.445  28.616  1.00  0.00    -0.269 OA
BRANCH  30  33
ATOM     33  C   UNL A   1      34.355  34.166  29.514  1.00  0.00     0.039 A 
ATOM     34  C   UNL A   1      34.017  33.351  30.595  1.00  0.00     0.014 A 
ATOM     35  C   UNL A   1      35.681  34.374  29.128  1.00  0.00     0.014 A 
ATOM     36  C   UNL A   1      35.030  32.703  31.284  1.00  0.00     0.010 A 
ATOM     37  C   UNL A   1      36.672  33.623  29.740  1.00  0.00     0.010 A 
ATOM     38  C   UNL A   1      36.358  32.812  30.844  1.00  0.00    -0.014 A 
BRANCH  38  39
ATOM     39  C   UNL A   1      37.431  32.152  31.616  1.00  0.00     0.031 A 
ATOM     40  C   UNL A   1      38.213  31.053  30.959  1.00  0.00     0.074 A 
ATOM     41  C   UNL A   1      37.719  32.566  32.865  1.00  0.00     0.049 A 
ATOM     42  N   UNL A   1      39.259  30.414  31.402  1.00  0.00    -0.248 NA
ATOM     43  C   UNL A   1      37.749  30.594  29.636  1.00  0.00     0.031 C 
ATOM     44  C   UNL A   1      36.977  33.582  33.618  1.00  0.00     0.029 A 
ATOM     45  N   UNL A   1      38.721  32.188  33.720  1.00  0.00    -0.354 N 
ATOM     46  C   UNL A   1      39.556  29.468  30.431  1.00  0.00     0.074 A 
ATOM     47  C   UNL A   1      38.551  29.571  29.403  1.00  0.00     0.031 C 
ATOM     48  C   UNL A   1      37.571  33.769  34.808  1.00  0.00     0.029 A 
ATOM     49  C   UNL A   1      38.713  32.868  34.917  1.00  0.00     0.049 A 
ATOM     50  H   UNL A   1      39.386  31.497  33.498  1.00  0.00     0.167 HD
ATOM     51  C   UNL A   1      40.599  28.612  30.381  1.00  0.00     0.034 A 
ATOM     52  C   UNL A   1      39.536  32.764  35.978  1.00  0.00     0.034 A 
ATOM     53  C   UNL A   1      41.607  28.539  31.396  1.00  0.00     0.049 A 
ATOM     54  C   UNL A   1      40.699  31.813  35.891  1.00  0.00     0.074 A 
ATOM     55  C   UNL A   1      42.746  27.758  31.421  1.00  0.00     0.029 A 
ATOM     56  N   UNL A   1      41.582  29.260  32.580  1.00  0.00    -0.354 N 
ATOM     57  N   UNL A   1      41.048  31.027  34.900  1.00  0.00    -0.248 NA
ATOM     58  C   UNL A   1      41.601  31.756  37.049  1.00  0.00     0.031 C 
ATOM     59  C   UNL A   1      43.380  27.964  32.649  1.00  0.00     0.029 A 
ATOM     60  C   UNL A   1      42.673  28.924  33.358  1.00  0.00     0.049 A 
ATOM     61  H   UNL A   1      40.889  29.915  32.830  1.00  0.00     0.167 HD
ATOM     62  C   UNL A   1      42.227  30.410  35.299  1.00  0.00     0.074 A 
ATOM     63  C   UNL A   1      42.544  30.934  36.612  1.00  0.00     0.031 C 
ATOM     64  C   UNL A   1      42.979  29.489  34.646  1.00  0.00     0.034 A 
BRANCH  51  65
ATOM     65  C   UNL A   1      40.693  27.698  29.191  1.00  0.00     0.023 A 
ATOM     66  C   UNL A   1      39.920  26.519  29.133  1.00  0.00     0.012 A 
ATOM     67  C   UNL A   1      41.534  28.027  28.112  1.00  0.00     0.148 A 
ATOM     68  C   UNL A   1      40.013  25.663  28.036  1.00  0.00     0.002 A 
ATOM     69  C   UNL A   1      41.576  27.201  26.999  1.00  0.00     0.091 A 
ATOM     70  F   UNL A   1      42.283  29.134  28.202  1.00  0.00    -0.205 F 
ATOM     71  C   UNL A   1      40.829  26.011  26.964  1.00  0.00     0.022 A 
BRANCH  69  72
ATOM     72  S   UNL A   1      42.532  27.605  25.535  1.00  0.00     0.127 S 
ATOM     73  O   UNL A   1      43.891  27.649  26.071  1.00  0.00    -0.237 OA
ATOM     74  O   UNL A   1      42.255  26.459  24.667  1.00  0.00    -0.237 OA
ATOM     75  O   UNL A   1      42.014  28.877  25.051  1.00  0.00    -0.744 OA
ENDBRANCH  69  72
ENDBRANCH  51  65
BRANCH  52  76
ATOM     76  C   UNL A   1      39.308  33.596  37.194  1.00  0.00     0.023 A 
ATOM     77  C   UNL A   1      39.770  34.925  37.246  1.00  0.00     0.012 A 
ATOM     78  C   UNL A   1      38.625  33.065  38.306  1.00  0.00     0.148 A 
ATOM     79  C   UNL A   1      39.592  35.697  38.397  1.00  0.00     0.002 A 
ATOM     80  C   UNL A   1      38.398  33.856  39.425  1.00  0.00     0.091 A 
ATOM     81  F   UNL A   1      38.202  31.795  38.242  1.00  0.00    -0.205 F 
ATOM     82  C   UNL A   1      38.900  35.165  39.483  1.00  0.00     0.022 A 
BRANCH  80  83
ATOM     83  S   UNL A   1      37.403  33.296  40.811  1.00  0.00     0.127 S 
ATOM     84  O   UNL A   1      36.112  33.052  40.172  1.00  0.00    -0.237 OA
ATOM     85  O   UNL A   1      38.123  32.093  41.228  1.00  0.00    -0.237 OA
ATOM     86  O   UNL A   1      37.433  34.380  41.782  1.00  0.00    -0.744 OA
ENDBRANCH  80  83
ENDBRANCH  52  76
BRANCH  64  87
ATOM     87  C   UNL A   1      44.243  29.023  35.317  1.00  0.00     0.023 A 
ATOM     88  C   UNL A   1      45.464  29.677  35.064  1.00  0.00     0.012 A 
ATOM     89  C   UNL A   1      44.195  27.978  36.259  1.00  0.00     0.148 A 
ATOM     90  C   UNL A   1      46.630  29.264  35.707  1.00  0.00     0.002 A 
ATOM     91  C   UNL A   1      45.347  27.614  36.941  1.00  0.00     0.091 A 
ATOM     92  F   UNL A   1      43.022  27.364  36.475  1.00  0.00    -0.205 F 
ATOM     93  C   UNL A   1      46.569  28.243  36.653  1.00  0.00     0.022 A 
BRANCH  91  94
ATOM     94  S   UNL A   1      45.340  26.387  38.250  1.00  0.00     0.127 S 
ATOM     95  O   UNL A   1      44.957  25.179  37.521  1.00  0.00    -0.237 OA
ATOM     96  O   UNL A   1      46.732  26.411  38.702  1.00  0.00    -0.237 OA
ATOM     97  O   UNL A   1      44.374  26.850  39.237  1.00  0.00    -0.744 OA
ENDBRANCH  91  94
ENDBRANCH  64  87
ENDBRANCH  38  39
ENDBRANCH  30  33
ENDBRANCH  28  29
ENDBRANCH   1  28
TORSDOF 17
ENDMDL
MODEL 3
REMARK VINA RESULT:     -13.7      5.230      9.974
REMARK SMILES Cc1c(Cl)cccc1NC(=O)C[C@](C)(C(=O)NCCCNC(=O)c1ccc(-c2c3nc(c(-c4cccc(S(=O)(=O)[O-])c4F)c4ccc([nH]4)c(-c4cccc(S(=O)(=O)[O-])c4F)c4nc(c(-c5cccc(S(=O)(=O)[O-])c5F)c5ccc2[nH]5)C=C4)C=C3)cc1)c1ccccc1
REMARK SMILES IDX 19 1 18 2 17 3 15 4 16 5 13 7 14 8 12 9 10 10 9 11 11 13
REMARK SMILES IDX 8 14 1 15 2 16 3 17 4 18 5 19 7 20 6 21 87 22 88 23 92 24
REMARK SMILES IDX 89 25 91 26 90 27 20 28 21 29 22 30 23 32 24 33 25 34 86 35
REMARK SMILES IDX 26 36 85 37 27 38 28 39 29 40 79 41 30 42 84 43 78 44 80 45
REMARK SMILES IDX 31 46 83 47 77 48 76 49 32 51 64 52 44 53 63 54 45 55 48 56
REMARK SMILES IDX 62 57 81 58 46 59 47 60 61 62 82 63 49 64 33 65 34 66 42 67
REMARK SMILES IDX 35 68 37 69 43 70 36 71 38 72 39 73 40 74 41 75 65 76 66 77
REMARK SMILES IDX 74 78 67 79 69 80 75 81 68 82 70 83 71 84 72 85 73 86 50 87
REMARK SMILES IDX 51 88 59 89 52 90 54 91 60 92 53 93 55 94 56 95 57 96 58 97
REMARK H PARENT 17 6 9 12 21 31 80 50 48 61
REMARK Flexibility Score: inf
ROOT
ATOM      1  C   UNL A   1      38.604  22.604  25.426  1.00  0.00     0.042 C 
ENDROOT
BRANCH   1   2
ATOM      2  C   UNL A   1      37.093  23.202  25.942  1.00  0.00     0.117 C 
BRANCH   2   3
ATOM      3  N   UNL A   1      35.325  22.281  26.571  1.00  0.00    -0.355 N 
ATOM      4  C   UNL A   1      33.898  22.102  26.575  1.00  0.00     0.230 C 
ATOM      5  O   UNL A   1      33.614  21.103  27.262  1.00  0.00    -0.274 OA
ATOM      6  H   UNL A   1      35.639  21.600  27.211  1.00  0.00     0.163 HD
BRANCH   4   7
ATOM      7  C   UNL A   1      32.701  22.995  25.930  1.00  0.00     0.080 C 
ATOM      8  C   UNL A   1      31.716  21.977  25.241  1.00  0.00     0.027 C 
BRANCH   7   9
ATOM      9  C   UNL A   1      31.967  24.003  26.887  1.00  0.00     0.121 C 
BRANCH   9  10
ATOM     10  C   UNL A   1      30.454  24.096  26.861  1.00  0.00     0.225 C 
ATOM     11  N   UNL A   1      29.829  25.184  26.329  1.00  0.00    -0.326 N 
ATOM     12  H   UNL A   1      28.898  25.363  26.593  1.00  0.00     0.169 HD
ATOM     13  O   UNL A   1      29.753  23.211  27.359  1.00  0.00    -0.275 OA
BRANCH  11  14
ATOM     14  C   UNL A   1      30.439  26.053  25.432  1.00  0.00     0.045 A 
ATOM     15  C   UNL A   1      31.779  27.532  27.499  1.00  0.00     0.048 C 
ATOM     16  C   UNL A   1      31.084  27.579  26.165  1.00  0.00    -0.009 A 
ATOM     17  C   UNL A   1      31.342  29.037  25.126  1.00  0.00     0.046 A 
ATOM     18  Cl  UNL A   1      32.109  30.441  25.755  1.00  0.00    -0.084 Cl
ATOM     19  C   UNL A   1      30.902  28.998  23.384  1.00  0.00     0.021 A 
ATOM     20  C   UNL A   1      30.108  25.968  23.631  1.00  0.00     0.026 A 
ATOM     21  C   UNL A   1      30.275  27.476  22.629  1.00  0.00     0.004 A 
ENDBRANCH  11  14
ENDBRANCH   9  10
ENDBRANCH   7   9
BRANCH   7  22
ATOM     22  C   UNL A   1      33.096  23.908  24.694  1.00  0.00    -0.032 A 
ATOM     23  C   UNL A   1      33.677  25.184  24.965  1.00  0.00     0.005 A 
ATOM     24  C   UNL A   1      32.921  23.577  23.350  1.00  0.00     0.005 A 
ATOM     25  C   UNL A   1      33.936  26.119  23.969  1.00  0.00     0.000 A 
ATOM     26  C   UNL A   1      33.195  24.516  22.343  1.00  0.00     0.000 A 
ATOM     27  C   UNL A   1      33.676  25.788  22.651  1.00  0.00     0.000 A 
ENDBRANCH   7  22
ENDBRANCH   4   7
ENDBRANCH   2   3
ENDBRANCH   1   2
BRANCH   1  28
ATOM     28  C   UNL A   1      39.208  21.703  26.487  1.00  0.00     0.118 C 
BRANCH  28  29
ATOM     29  N   UNL A   1      39.974  20.575  25.966  1.00  0.00    -0.352 N 
ATOM     30  C   UNL A   1      41.335  20.420  26.081  1.00  0.00     0.251 C 
ATOM     31  H   UNL A   1      39.476  19.868  25.495  1.00  0.00     0.163 HD
ATOM     32  O   UNL A   1      41.920  19.415  25.708  1.00  0.00    -0.269 OA
BRANCH  30  33
ATOM     33  C   UNL A   1      42.049  21.610  26.560  1.00  0.00     0.039 A 
ATOM     34  C   UNL A   1      42.190  22.650  25.642  1.00  0.00     0.014 A 
ATOM     35  C   UNL A   1      42.190  21.812  27.936  1.00  0.00     0.014 A 
ATOM     36  C   UNL A   1      42.445  23.928  26.114  1.00  0.00     0.010 A 
ATOM     37  C   UNL A   1      42.316  23.111  28.403  1.00  0.00     0.010 A 
ATOM     38  C   UNL A   1      42.481  24.170  27.496  1.00  0.00    -0.014 A 
BRANCH  38  39
ATOM     39  C   UNL A   1      42.799  25.529  27.982  1.00  0.00     0.031 A 
ATOM     40  C   UNL A   1      44.218  26.007  27.892  1.00  0.00     0.074 A 
ATOM     41  C   UNL A   1      41.820  26.325  28.454  1.00  0.00     0.049 A 
ATOM     42  N   UNL A   1      44.702  27.189  28.155  1.00  0.00    -0.248 NA
ATOM     43  C   UNL A   1      45.235  25.026  27.471  1.00  0.00     0.031 C 
ATOM     44  C   UNL A   1      40.420  25.932  28.643  1.00  0.00     0.029 A 
ATOM     45  N   UNL A   1      41.852  27.636  28.851  1.00  0.00    -0.354 N 
ATOM     46  C   UNL A   1      46.071  27.082  27.957  1.00  0.00     0.074 A 
ATOM     47  C   UNL A   1      46.355  25.712  27.612  1.00  0.00     0.031 C 
ATOM     48  C   UNL A   1      39.722  26.990  29.088  1.00  0.00     0.029 A 
ATOM     49  C   UNL A   1      40.627  28.124  29.246  1.00  0.00     0.049 A 
ATOM     50  H   UNL A   1      42.673  28.178  28.853  1.00  0.00     0.167 HD
ATOM     51  C   UNL A   1      47.010  28.051  28.021  1.00  0.00     0.034 A 
ATOM     52  C   UNL A   1      40.284  29.349  29.689  1.00  0.00     0.034 A 
ATOM     53  C   UNL A   1      46.710  29.416  28.338  1.00  0.00     0.049 A 
ATOM     54  C   UNL A   1      41.345  30.415  29.736  1.00  0.00     0.074 A 
ATOM     55  C   UNL A   1      47.568  30.498  28.367  1.00  0.00     0.029 A 
ATOM     56  N   UNL A   1      45.457  29.880  28.705  1.00  0.00    -0.354 N 
ATOM     57  N   UNL A   1      42.613  30.332  29.406  1.00  0.00    -0.248 NA
ATOM     58  C   UNL A   1      40.927  31.751  30.183  1.00  0.00     0.031 C 
ATOM     59  C   UNL A   1      46.843  31.608  28.809  1.00  0.00     0.029 A 
ATOM     60  C   UNL A   1      45.520  31.230  28.989  1.00  0.00     0.049 A 
ATOM     61  H   UNL A   1      44.641  29.329  28.757  1.00  0.00     0.167 HD
ATOM     62  C   UNL A   1      43.135  31.608  29.571  1.00  0.00     0.074 A 
ATOM     63  C   UNL A   1      42.039  32.451  30.006  1.00  0.00     0.031 C 
ATOM     64  C   UNL A   1      44.404  32.048  29.387  1.00  0.00     0.034 A 
BRANCH  51  65
ATOM     65  C   UNL A   1      48.434  27.661  27.740  1.00  0.00     0.023 A 
ATOM     66  C   UNL A   1      49.249  27.144  28.769  1.00  0.00     0.012 A 
ATOM     67  C   UNL A   1      48.956  27.784  26.440  1.00  0.00     0.148 A 
ATOM     68  C   UNL A   1      50.574  26.791  28.514  1.00  0.00     0.002 A 
ATOM     69  C   UNL A   1      50.256  27.376  26.181  1.00  0.00     0.091 A 
ATOM     70  F   UNL A   1      48.175  28.308  25.485  1.00  0.00    -0.205 F 
ATOM     71  C   UNL A   1      51.072  26.894  27.219  1.00  0.00     0.022 A 
BRANCH  69  72
ATOM     72  S   UNL A   1      50.962  27.392  24.532  1.00  0.00     0.127 S 
ATOM     73  O   UNL A   1      49.960  26.644  23.774  1.00  0.00    -0.237 OA
ATOM     74  O   UNL A   1      51.007  28.824  24.235  1.00  0.00    -0.237 OA
ATOM     75  O   UNL A   1      52.264  26.749  24.642  1.00  0.00    -0.744 OA
ENDBRANCH  69  72
ENDBRANCH  51  65
BRANCH  52  76
ATOM     76  C   UNL A   1      38.879  29.640  30.093  1.00  0.00     0.023 A 
ATOM     77  C   UNL A   1      38.438  29.352  31.400  1.00  0.00     0.012 A 
ATOM     78  C   UNL A   1      37.973  30.208  29.176  1.00  0.00     0.148 A 
ATOM     79  C   UNL A   1      37.112  29.587  31.773  1.00  0.00     0.002 A 
ATOM     80  C   UNL A   1      36.673  30.496  29.570  1.00  0.00     0.091 A 
ATOM     81  F   UNL A   1      38.408  30.466  27.935  1.00  0.00    -0.205 F 
ATOM     82  C   UNL A   1      36.233  30.166  30.861  1.00  0.00     0.022 A 
BRANCH  80  83
ATOM     83  S   UNL A   1      35.516  31.361  28.504  1.00  0.00     0.127 S 
ATOM     84  O   UNL A   1      35.083  30.294  27.605  1.00  0.00    -0.237 OA
ATOM     85  O   UNL A   1      34.506  31.810  29.462  1.00  0.00    -0.237 OA
ATOM     86  O   UNL A   1      36.277  32.437  27.886  1.00  0.00    -0.744 OA
ENDBRANCH  80  83
ENDBRANCH  52  76
BRANCH  64  87
ATOM     87  C   UNL A   1      44.671  33.512  29.607  1.00  0.00     0.023 A 
ATOM     88  C   UNL A   1      45.078  33.979  30.872  1.00  0.00     0.012 A 
ATOM     89  C   UNL A   1      44.589  34.412  28.527  1.00  0.00     0.148 A 
ATOM     90  C   UNL A   1      45.353  35.331  31.069  1.00  0.00     0.002 A 
ATOM     91  C   UNL A   1      44.925  35.745  28.716  1.00  0.00     0.091 A 
ATOM     92  F   UNL A   1      44.190  33.946  27.335  1.00  0.00    -0.205 F 
ATOM     93  C   UNL A   1      45.290  36.210  29.990  1.00  0.00     0.022 A 
BRANCH  91  94
ATOM     94  S   UNL A   1      44.975  36.923  27.363  1.00  0.00     0.127 S 
ATOM     95  O   UNL A   1      43.577  36.944  26.938  1.00  0.00    -0.237 OA
ATOM     96  O   UNL A   1      45.429  38.142  28.034  1.00  0.00    -0.237 OA
ATOM     97  O   UNL A   1      45.913  36.383  26.388  1.00  0.00    -0.744 OA
ENDBRANCH  91  94
ENDBRANCH  64  87
ENDBRANCH  38  39
ENDBRANCH  30  33
ENDBRANCH  28  29
ENDBRANCH   1  28
TORSDOF 17
ENDMDL
