MODEL 1
REMARK VINA RESULT:     -12.5      0.000      0.000
REMARK SMILES O=C(NCCCNC(=O)[C@@H]1CN(c2ncccn2)CCN1C(=O)C1CCOCC1)c1ccc(-c2c3nc(c(-c4cccc(S(=O)(=O)[O-])c4F)c4ccc([nH]4)c(-c4cccc(S(=O)(=O)[O-])c4F)c4nc(c(-c5cccc(S(=O)(=O)[O-])c5F)c5ccc2[nH]5)C=C4)C=C3)cc1
REMARK SMILES IDX 4 1 3 2 1 3 2 4 30 6 31 7 92 8 32 9 91 10 33 11 34 12 35 13
REMARK SMILES IDX 85 14 36 15 90 16 84 17 86 18 37 19 89 20 83 21 82 22 38 24
REMARK SMILES IDX 70 25 50 26 69 27 51 28 54 29 68 30 87 31 52 32 53 33 67 35
REMARK SMILES IDX 88 36 55 37 39 38 40 39 48 40 41 41 43 42 49 43 42 44 44 45
REMARK SMILES IDX 45 46 46 47 47 48 71 49 72 50 80 51 73 52 75 53 81 54 74 55
REMARK SMILES IDX 76 56 77 57 78 58 79 59 56 60 57 61 65 62 58 63 60 64 66 65
REMARK SMILES IDX 59 66 61 67 62 68 63 69 64 70 5 71 6 72 7 73 8 74 9 76 10 77
REMARK SMILES IDX 11 78 21 79 12 80 20 81 19 82 22 83 23 84 24 85 25 86 29 87
REMARK SMILES IDX 26 88 28 89 27 90 13 91 14 92 18 93 15 94 17 95 16 96
REMARK H PARENT 3 5 86 23 54 34 7 75
REMARK Flexibility Score: inf
ROOT
ATOM      1  C   UNL A   1      32.776  32.546  27.052  1.00  0.00     0.118 C 
ENDROOT
BRANCH   1   2
ATOM      2  N   UNL A   1      32.609  33.901  27.545  1.00  0.00    -0.352 N 
ATOM      3  O   UNL A   1      32.742  35.593  29.011  1.00  0.00    -0.269 OA
ATOM      4  C   UNL A   1      33.198  34.522  28.615  1.00  0.00     0.251 C 
ATOM      5  H   UNL A   1      31.978  34.457  27.033  1.00  0.00     0.163 HD
BRANCH   4   6
ATOM      6  C   UNL A   1      34.350  33.901  29.305  1.00  0.00     0.039 A 
ATOM      7  C   UNL A   1      34.169  32.904  30.268  1.00  0.00     0.014 A 
ATOM      8  C   UNL A   1      35.641  34.295  28.943  1.00  0.00     0.014 A 
ATOM      9  C   UNL A   1      35.267  32.390  30.955  1.00  0.00     0.010 A 
ATOM     10  C   UNL A   1      36.745  33.724  29.579  1.00  0.00     0.010 A 
ATOM     11  C   UNL A   1      36.568  32.787  30.610  1.00  0.00    -0.014 A 
BRANCH  11  12
ATOM     12  C   UNL A   1      37.742  32.179  31.286  1.00  0.00     0.031 A 
ATOM     13  C   UNL A   1      38.490  31.036  30.658  1.00  0.00     0.074 A 
ATOM     14  C   UNL A   1      38.104  32.634  32.502  1.00  0.00     0.049 A 
ATOM     15  N   UNL A   1      39.504  30.358  31.129  1.00  0.00    -0.248 NA
ATOM     16  C   UNL A   1      38.034  30.589  29.332  1.00  0.00     0.031 C 
ATOM     17  C   UNL A   1      37.429  33.708  33.233  1.00  0.00     0.029 A 
ATOM     18  N   UNL A   1      39.114  32.242  33.343  1.00  0.00    -0.354 N 
ATOM     19  C   UNL A   1      39.783  29.379  30.182  1.00  0.00     0.074 A 
ATOM     20  C   UNL A   1      38.824  29.546  29.112  1.00  0.00     0.031 C 
ATOM     21  C   UNL A   1      38.041  33.890  34.413  1.00  0.00     0.029 A 
ATOM     22  C   UNL A   1      39.123  32.918  34.541  1.00  0.00     0.049 A 
ATOM     23  H   UNL A   1      39.768  31.543  33.114  1.00  0.00     0.167 HD
ATOM     24  C   UNL A   1      40.759  28.439  30.196  1.00  0.00     0.034 A 
ATOM     25  C   UNL A   1      39.900  32.764  35.630  1.00  0.00     0.034 A 
ATOM     26  C   UNL A   1      41.733  28.301  31.247  1.00  0.00     0.049 A 
ATOM     27  C   UNL A   1      40.989  31.730  35.610  1.00  0.00     0.074 A 
ATOM     28  C   UNL A   1      42.802  27.425  31.319  1.00  0.00     0.029 A 
ATOM     29  N   UNL A   1      41.754  29.052  32.413  1.00  0.00    -0.354 N 
ATOM     30  N   UNL A   1      41.319  30.902  34.649  1.00  0.00    -0.248 NA
ATOM     31  C   UNL A   1      41.832  31.630  36.809  1.00  0.00     0.031 C 
ATOM     32  C   UNL A   1      43.458  27.635  32.537  1.00  0.00     0.029 A 
ATOM     33  C   UNL A   1      42.811  28.656  33.214  1.00  0.00     0.049 A 
ATOM     34  H   UNL A   1      41.111  29.763  32.637  1.00  0.00     0.167 HD
ATOM     35  C   UNL A   1      42.427  30.204  35.113  1.00  0.00     0.074 A 
ATOM     36  C   UNL A   1      42.723  30.720  36.435  1.00  0.00     0.031 C 
ATOM     37  C   UNL A   1      43.127  29.215  34.504  1.00  0.00     0.034 A 
BRANCH  24  38
ATOM     38  C   UNL A   1      40.850  27.507  29.016  1.00  0.00     0.023 A 
ATOM     39  C   UNL A   1      39.984  26.397  28.940  1.00  0.00     0.012 A 
ATOM     40  C   UNL A   1      41.747  27.756  27.959  1.00  0.00     0.148 A 
ATOM     41  C   UNL A   1      40.032  25.531  27.847  1.00  0.00     0.002 A 
ATOM     42  C   UNL A   1      41.762  26.910  26.855  1.00  0.00     0.091 A 
ATOM     43  F   UNL A   1      42.580  28.802  28.057  1.00  0.00    -0.205 F 
ATOM     44  C   UNL A   1      40.913  25.793  26.802  1.00  0.00     0.022 A 
BRANCH  42  45
ATOM     45  S   UNL A   1      42.812  27.209  25.428  1.00  0.00     0.127 S 
ATOM     46  O   UNL A   1      44.111  27.435  26.060  1.00  0.00    -0.237 OA
ATOM     47  O   UNL A   1      42.706  25.948  24.691  1.00  0.00    -0.237 OA
ATOM     48  O   UNL A   1      42.235  28.358  24.744  1.00  0.00    -0.744 OA
ENDBRANCH  42  45
ENDBRANCH  24  38
BRANCH  25  49
ATOM     49  C   UNL A   1      39.697  33.657  36.805  1.00  0.00     0.023 A 
ATOM     50  C   UNL A   1      40.055  35.014  36.712  1.00  0.00     0.012 A 
ATOM     51  C   UNL A   1      39.091  33.182  37.986  1.00  0.00     0.148 A 
ATOM     52  C   UNL A   1      39.830  35.882  37.781  1.00  0.00     0.002 A 
ATOM     53  C   UNL A   1      38.818  34.064  39.025  1.00  0.00     0.091 A 
ATOM     54  F   UNL A   1      38.769  31.883  38.057  1.00  0.00    -0.205 F 
ATOM     55  C   UNL A   1      39.200  35.410  38.931  1.00  0.00     0.022 A 
BRANCH  53  56
ATOM     56  S   UNL A   1      37.888  33.574  40.481  1.00  0.00     0.127 S 
ATOM     57  O   UNL A   1      37.789  34.838  41.210  1.00  0.00    -0.237 OA
ATOM     58  O   UNL A   1      36.631  33.106  39.890  1.00  0.00    -0.237 OA
ATOM     59  O   UNL A   1      38.673  32.534  41.122  1.00  0.00    -0.744 OA
ENDBRANCH  53  56
ENDBRANCH  25  49
BRANCH  37  60
ATOM     60  C   UNL A   1      44.307  28.639  35.242  1.00  0.00     0.023 A 
ATOM     61  C   UNL A   1      45.594  29.166  35.022  1.00  0.00     0.012 A 
ATOM     62  C   UNL A   1      44.125  27.634  36.212  1.00  0.00     0.148 A 
ATOM     63  C   UNL A   1      46.689  28.681  35.738  1.00  0.00     0.002 A 
ATOM     64  C   UNL A   1      45.213  27.189  36.954  1.00  0.00     0.091 A 
ATOM     65  F   UNL A   1      42.895  27.132  36.392  1.00  0.00    -0.205 F 
ATOM     66  C   UNL A   1      46.497  27.704  36.712  1.00  0.00     0.022 A 
BRANCH  64  67
ATOM     67  S   UNL A   1      45.042  26.001  38.292  1.00  0.00     0.127 S 
ATOM     68  O   UNL A   1      44.104  26.686  39.181  1.00  0.00    -0.237 OA
ATOM     69  O   UNL A   1      44.489  24.834  37.604  1.00  0.00    -0.237 OA
ATOM     70  O   UNL A   1      46.383  25.805  38.827  1.00  0.00    -0.744 OA
ENDBRANCH  64  67
ENDBRANCH  37  60
ENDBRANCH  11  12
ENDBRANCH   4   6
ENDBRANCH   1   2
BRANCH   1  71
ATOM     71  C   UNL A   1      31.446  31.908  26.652  1.00  0.00     0.042 C 
BRANCH  71  72
ATOM     72  C   UNL A   1      31.522  30.410  26.332  1.00  0.00     0.117 C 
BRANCH  72  73
ATOM     73  N   UNL A   1      32.198  30.158  25.073  1.00  0.00    -0.354 N 
ATOM     74  C   UNL A   1      32.609  28.902  24.718  1.00  0.00     0.244 C 
ATOM     75  H   UNL A   1      32.365  30.908  24.458  1.00  0.00     0.163 HD
ATOM     76  O   UNL A   1      33.817  28.721  24.622  1.00  0.00    -0.273 OA
BRANCH  74  77
ATOM     77  C   UNL A   1      31.570  27.797  24.526  1.00  0.00     0.193 C 
ATOM     78  C   UNL A   1      32.310  26.595  23.903  1.00  0.00     0.155 C 
ATOM     79  N   UNL A   1      30.244  27.975  23.831  1.00  0.00    -0.327 N 
ATOM     80  N   UNL A   1      31.491  25.385  23.969  1.00  0.00    -0.336 N 
ATOM     81  C   UNL A   1      29.420  26.749  24.005  1.00  0.00     0.142 C 
ATOM     82  C   UNL A   1      30.130  25.485  23.442  1.00  0.00     0.141 C 
BRANCH  79  83
ATOM     83  C   UNL A   1      29.921  28.739  22.715  1.00  0.00     0.226 C 
ATOM     84  O   UNL A   1      30.487  28.515  21.632  1.00  0.00    -0.275 OA
BRANCH  83  85
ATOM     85  C   UNL A   1      28.825  29.812  22.687  1.00  0.00     0.083 C 
ATOM     86  C   UNL A   1      28.494  30.266  21.265  1.00  0.00     0.042 C 
ATOM     87  C   UNL A   1      28.929  30.891  23.762  1.00  0.00     0.042 C 
ATOM     88  C   UNL A   1      27.741  31.593  21.191  1.00  0.00     0.161 C 
ATOM     89  C   UNL A   1      27.970  32.040  23.500  1.00  0.00     0.161 C 
ATOM     90  O   UNL A   1      28.133  32.538  22.182  1.00  0.00    -0.381 OA
ENDBRANCH  83  85
ENDBRANCH  79  83
BRANCH  80  91
ATOM     91  C   UNL A   1      31.717  24.518  25.012  1.00  0.00     0.225 A 
ATOM     92  N   UNL A   1      32.992  24.290  25.363  1.00  0.00    -0.221 NA
ATOM     93  N   UNL A   1      30.668  24.025  25.694  1.00  0.00    -0.221 NA
ATOM     94  C   UNL A   1      33.207  23.609  26.506  1.00  0.00     0.117 A 
ATOM     95  C   UNL A   1      30.936  23.295  26.797  1.00  0.00     0.117 A 
ATOM     96  C   UNL A   1      32.204  23.075  27.272  1.00  0.00     0.040 A 
ENDBRANCH  80  91
ENDBRANCH  74  77
ENDBRANCH  72  73
ENDBRANCH  71  72
ENDBRANCH   1  71
TORSDOF 16
ENDMDL
MODEL 2
REMARK VINA RESULT:     -12.3      6.440     11.893
REMARK SMILES O=C(NCCCNC(=O)[C@@H]1CN(c2ncccn2)CCN1C(=O)C1CCOCC1)c1ccc(-c2c3nc(c(-c4cccc(S(=O)(=O)[O-])c4F)c4ccc([nH]4)c(-c4cccc(S(=O)(=O)[O-])c4F)c4nc(c(-c5cccc(S(=O)(=O)[O-])c5F)c5ccc2[nH]5)C=C4)C=C3)cc1
REMARK SMILES IDX 4 1 3 2 1 3 2 4 30 6 31 7 92 8 32 9 91 10 33 11 34 12 35 13
REMARK SMILES IDX 85 14 36 15 90 16 84 17 86 18 37 19 89 20 83 21 82 22 38 24
REMARK SMILES IDX 70 25 50 26 69 27 51 28 54 29 68 30 87 31 52 32 53 33 67 35
REMARK SMILES IDX 88 36 55 37 39 38 40 39 48 40 41 41 43 42 49 43 42 44 44 45
REMARK SMILES IDX 45 46 46 47 47 48 71 49 72 50 80 51 73 52 75 53 81 54 74 55
REMARK SMILES IDX 76 56 77 57 78 58 79 59 56 60 57 61 65 62 58 63 60 64 66 65
REMARK SMILES IDX 59 66 61 67 62 68 63 69 64 70 5 71 6 72 7 73 8 74 9 76 10 77
REMARK SMILES IDX 11 78 21 79 12 80 20 81 19 82 22 83 23 84 24 85 25 86 29 87
REMARK SMILES IDX 26 88 28 89 27 90 13 91 14 92 18 93 15 94 17 95 16 96
REMARK H PARENT 3 5 86 23 54 34 7 75
REMARK Flexibility Score: inf
ROOT
ATOM      1  C   UNL A   1      38.964  20.064  26.076  1.00  0.00     0.118 C 
ENDROOT
BRANCH   1   2
ATOM      2  N   UNL A   1      40.139  19.210  26.070  1.00  0.00    -0.352 N 
ATOM      3  O   UNL A   1      42.311  18.693  25.861  1.00  0.00    -0.269 OA
ATOM      4  C   UNL A   1      41.466  19.547  26.122  1.00  0.00     0.251 C 
ATOM      5  H   UNL A   1      39.954  18.245  26.024  1.00  0.00     0.163 HD
BRANCH   4   6
ATOM      6  C   UNL A   1      41.880  20.927  26.459  1.00  0.00     0.039 A 
ATOM      7  C   UNL A   1      42.261  21.275  27.759  1.00  0.00     0.014 A 
ATOM      8  C   UNL A   1      41.934  21.880  25.439  1.00  0.00     0.014 A 
ATOM      9  C   UNL A   1      42.575  22.597  28.063  1.00  0.00     0.010 A 
ATOM     10  C   UNL A   1      42.321  23.189  25.731  1.00  0.00     0.010 A 
ATOM     11  C   UNL A   1      42.618  23.567  27.050  1.00  0.00    -0.014 A 
BRANCH  11  12
ATOM     12  C   UNL A   1      43.031  24.959  27.362  1.00  0.00     0.031 A 
ATOM     13  C   UNL A   1      42.082  25.918  28.025  1.00  0.00     0.074 A 
ATOM     14  C   UNL A   1      44.262  25.372  27.000  1.00  0.00     0.049 A 
ATOM     15  N   UNL A   1      42.260  27.178  28.327  1.00  0.00    -0.248 NA
ATOM     16  C   UNL A   1      40.753  25.398  28.388  1.00  0.00     0.031 C 
ATOM     17  C   UNL A   1      45.257  24.547  26.312  1.00  0.00     0.029 A 
ATOM     18  N   UNL A   1      44.879  26.589  27.142  1.00  0.00    -0.354 N 
ATOM     19  C   UNL A   1      41.060  27.615  28.874  1.00  0.00     0.074 A 
ATOM     20  C   UNL A   1      40.155  26.486  28.855  1.00  0.00     0.031 C 
ATOM     21  C   UNL A   1      46.359  25.279  26.091  1.00  0.00     0.029 A 
ATOM     22  C   UNL A   1      46.133  26.635  26.580  1.00  0.00     0.049 A 
ATOM     23  H   UNL A   1      44.464  27.355  27.599  1.00  0.00     0.167 HD
ATOM     24  C   UNL A   1      40.747  28.839  29.363  1.00  0.00     0.034 A 
ATOM     25  C   UNL A   1      47.001  27.658  26.455  1.00  0.00     0.034 A 
ATOM     26  C   UNL A   1      41.662  29.948  29.412  1.00  0.00     0.049 A 
ATOM     27  C   UNL A   1      46.637  28.999  27.026  1.00  0.00     0.074 A 
ATOM     28  C   UNL A   1      41.461  31.207  29.951  1.00  0.00     0.029 A 
ATOM     29  N   UNL A   1      42.950  29.937  28.898  1.00  0.00    -0.354 N 
ATOM     30  N   UNL A   1      45.546  29.355  27.658  1.00  0.00    -0.248 NA
ATOM     31  C   UNL A   1      47.636  30.069  26.895  1.00  0.00     0.031 C 
ATOM     32  C   UNL A   1      42.621  31.962  29.746  1.00  0.00     0.029 A 
ATOM     33  C   UNL A   1      43.553  31.167  29.098  1.00  0.00     0.049 A 
ATOM     34  H   UNL A   1      43.374  29.166  28.455  1.00  0.00     0.167 HD
ATOM     35  C   UNL A   1      45.737  30.680  28.029  1.00  0.00     0.074 A 
ATOM     36  C   UNL A   1      47.057  31.058  27.566  1.00  0.00     0.031 C 
ATOM     37  C   UNL A   1      44.888  31.513  28.681  1.00  0.00     0.034 A 
BRANCH  24  38
ATOM     38  C   UNL A   1      39.362  29.035  29.924  1.00  0.00     0.023 A 
ATOM     39  C   UNL A   1      39.058  28.546  31.210  1.00  0.00     0.012 A 
ATOM     40  C   UNL A   1      38.381  29.749  29.207  1.00  0.00     0.148 A 
ATOM     41  C   UNL A   1      37.791  28.734  31.762  1.00  0.00     0.002 A 
ATOM     42  C   UNL A   1      37.132  29.966  29.780  1.00  0.00     0.091 A 
ATOM     43  F   UNL A   1      38.678  30.188  27.976  1.00  0.00    -0.205 F 
ATOM     44  C   UNL A   1      36.832  29.452  31.051  1.00  0.00     0.022 A 
BRANCH  42  45
ATOM     45  S   UNL A   1      35.858  30.941  28.970  1.00  0.00     0.127 S 
ATOM     46  O   UNL A   1      35.122  31.473  30.115  1.00  0.00    -0.237 OA
ATOM     47  O   UNL A   1      36.643  31.934  28.237  1.00  0.00    -0.237 OA
ATOM     48  O   UNL A   1      35.123  30.009  28.126  1.00  0.00    -0.744 OA
ENDBRANCH  42  45
ENDBRANCH  24  38
BRANCH  25  49
ATOM     49  C   UNL A   1      48.319  27.422  25.802  1.00  0.00     0.023 A 
ATOM     50  C   UNL A   1      49.402  26.967  26.577  1.00  0.00     0.012 A 
ATOM     51  C   UNL A   1      48.485  27.583  24.411  1.00  0.00     0.148 A 
ATOM     52  C   UNL A   1      50.633  26.691  25.981  1.00  0.00     0.002 A 
ATOM     53  C   UNL A   1      49.697  27.253  23.818  1.00  0.00     0.091 A 
ATOM     54  F   UNL A   1      47.443  28.029  23.696  1.00  0.00    -0.205 F 
ATOM     55  C   UNL A   1      50.776  26.822  24.602  1.00  0.00     0.022 A 
BRANCH  53  56
ATOM     56  S   UNL A   1      49.925  27.257  22.036  1.00  0.00     0.127 S 
ATOM     57  O   UNL A   1      49.724  28.670  21.714  1.00  0.00    -0.237 OA
ATOM     58  O   UNL A   1      51.309  26.791  21.909  1.00  0.00    -0.237 OA
ATOM     59  O   UNL A   1      48.932  26.340  21.507  1.00  0.00    -0.744 OA
ENDBRANCH  53  56
ENDBRANCH  25  49
BRANCH  37  60
ATOM     60  C   UNL A   1      45.367  32.912  28.968  1.00  0.00     0.023 A 
ATOM     61  C   UNL A   1      46.068  33.180  30.159  1.00  0.00     0.012 A 
ATOM     62  C   UNL A   1      45.192  33.939  28.019  1.00  0.00     0.148 A 
ATOM     63  C   UNL A   1      46.566  34.458  30.414  1.00  0.00     0.002 A 
ATOM     64  C   UNL A   1      45.731  35.197  28.260  1.00  0.00     0.091 A 
ATOM     65  F   UNL A   1      44.503  33.667  26.901  1.00  0.00    -0.205 F 
ATOM     66  C   UNL A   1      46.410  35.462  29.460  1.00  0.00     0.022 A 
BRANCH  64  67
ATOM     67  S   UNL A   1      45.658  36.520  27.047  1.00  0.00     0.127 S 
ATOM     68  O   UNL A   1      46.297  35.899  25.888  1.00  0.00    -0.237 OA
ATOM     69  O   UNL A   1      44.218  36.736  26.906  1.00  0.00    -0.237 OA
ATOM     70  O   UNL A   1      46.381  37.642  27.635  1.00  0.00    -0.744 OA
ENDBRANCH  64  67
ENDBRANCH  37  60
ENDBRANCH  11  12
ENDBRANCH   4   6
ENDBRANCH   1   2
BRANCH   1  71
ATOM     71  C   UNL A   1      38.053  19.800  24.878  1.00  0.00     0.042 C 
BRANCH  71  72
ATOM     72  C   UNL A   1      37.010  20.893  24.611  1.00  0.00     0.117 C 
BRANCH  72  73
ATOM     73  N   UNL A   1      36.089  21.047  25.723  1.00  0.00    -0.354 N 
ATOM     74  C   UNL A   1      35.222  22.103  25.795  1.00  0.00     0.244 C 
ATOM     75  H   UNL A   1      36.087  20.375  26.443  1.00  0.00     0.163 HD
ATOM     76  O   UNL A   1      35.394  22.898  26.711  1.00  0.00    -0.273 OA
BRANCH  74  77
ATOM     77  C   UNL A   1      34.149  22.270  24.719  1.00  0.00     0.193 C 
ATOM     78  C   UNL A   1      33.189  23.370  25.217  1.00  0.00     0.155 C 
ATOM     79  N   UNL A   1      33.344  21.143  24.125  1.00  0.00    -0.327 N 
ATOM     80  N   UNL A   1      32.316  23.831  24.138  1.00  0.00    -0.336 N 
ATOM     81  C   UNL A   1      32.544  21.650  22.979  1.00  0.00     0.142 C 
ATOM     82  C   UNL A   1      31.586  22.800  23.400  1.00  0.00     0.141 C 
BRANCH  79  83
ATOM     83  C   UNL A   1      32.832  20.001  24.732  1.00  0.00     0.226 C 
ATOM     84  O   UNL A   1      31.716  20.042  25.275  1.00  0.00    -0.275 OA
BRANCH  83  85
ATOM     85  C   UNL A   1      33.514  18.627  24.708  1.00  0.00     0.083 C 
ATOM     86  C   UNL A   1      33.686  18.089  23.288  1.00  0.00     0.042 C 
ATOM     87  C   UNL A   1      33.052  17.643  25.781  1.00  0.00     0.042 C 
ATOM     88  C   UNL A   1      33.960  16.588  23.215  1.00  0.00     0.161 C 
ATOM     89  C   UNL A   1      33.581  16.242  25.523  1.00  0.00     0.161 C 
ATOM     90  O   UNL A   1      33.272  15.825  24.202  1.00  0.00    -0.381 OA
ENDBRANCH  83  85
ENDBRANCH  79  83
BRANCH  80  91
ATOM     91  C   UNL A   1      32.686  24.969  23.460  1.00  0.00     0.225 A 
ATOM     92  N   UNL A   1      32.125  25.186  22.261  1.00  0.00    -0.221 NA
ATOM     93  N   UNL A   1      33.499  25.856  24.062  1.00  0.00    -0.221 NA
ATOM     94  C   UNL A   1      32.326  26.391  21.692  1.00  0.00     0.117 A 
ATOM     95  C   UNL A   1      33.721  27.023  23.423  1.00  0.00     0.117 A 
ATOM     96  C   UNL A   1      33.131  27.361  22.233  1.00  0.00     0.040 A 
ENDBRANCH  80  91
ENDBRANCH  74  77
ENDBRANCH  72  73
ENDBRANCH  71  72
ENDBRANCH   1  71
TORSDOF 16
ENDMDL
MODEL 3
REMARK VINA RESULT:     -12.2      0.501      7.639
REMARK SMILES O=C(NCCCNC(=O)[C@@H]1CN(c2ncccn2)CCN1C(=O)C1CCOCC1)c1ccc(-c2c3nc(c(-c4cccc(S(=O)(=O)[O-])c4F)c4ccc([nH]4)c(-c4cccc(S(=O)(=O)[O-])c4F)c4nc(c(-c5cccc(S(=O)(=O)[O-])c5F)c5ccc2[nH]5)C=C4)C=C3)cc1
REMARK SMILES IDX 4 1 3 2 1 3 2 4 30 6 31 7 92 8 32 9 91 10 33 11 34 12 35 13
REMARK SMILES IDX 85 14 36 15 90 16 84 17 86 18 37 19 89 20 83 21 82 22 38 24
REMARK SMILES IDX 70 25 50 26 69 27 51 28 54 29 68 30 87 31 52 32 53 33 67 35
REMARK SMILES IDX 88 36 55 37 39 38 40 39 48 40 41 41 43 42 49 43 42 44 44 45
REMARK SMILES IDX 45 46 46 47 47 48 71 49 72 50 80 51 73 52 75 53 81 54 74 55
REMARK SMILES IDX 76 56 77 57 78 58 79 59 56 60 57 61 65 62 58 63 60 64 66 65
REMARK SMILES IDX 59 66 61 67 62 68 63 69 64 70 5 71 6 72 7 73 8 74 9 76 10 77
REMARK SMILES IDX 11 78 21 79 12 80 20 81 19 82 22 83 23 84 24 85 25 86 29 87
REMARK SMILES IDX 26 88 28 89 27 90 13 91 14 92 18 93 15 94 17 95 16 96
REMARK H PARENT 3 5 86 23 54 34 7 75
REMARK Flexibility Score: inf
ROOT
ATOM      1  C   UNL A   1      32.739  32.802  27.258  1.00  0.00     0.118 C 
ENDROOT
BRANCH   1   2
ATOM      2  N   UNL A   1      32.597  34.156  27.763  1.00  0.00    -0.352 N 
ATOM      3  O   UNL A   1      32.745  35.828  29.251  1.00  0.00    -0.269 OA
ATOM      4  C   UNL A   1      33.181  34.750  28.852  1.00  0.00     0.251 C 
ATOM      5  H   UNL A   1      31.991  34.734  27.246  1.00  0.00     0.163 HD
BRANCH   4   6
ATOM      6  C   UNL A   1      34.304  34.092  29.556  1.00  0.00     0.039 A 
ATOM      7  C   UNL A   1      34.077  33.161  30.574  1.00  0.00     0.014 A 
ATOM      8  C   UNL A   1      35.610  34.380  29.153  1.00  0.00     0.014 A 
ATOM      9  C   UNL A   1      35.152  32.613  31.270  1.00  0.00     0.010 A 
ATOM     10  C   UNL A   1      36.687  33.773  29.802  1.00  0.00     0.010 A 
ATOM     11  C   UNL A   1      36.469  32.905  30.885  1.00  0.00    -0.014 A 
BRANCH  11  12
ATOM     12  C   UNL A   1      37.613  32.257  31.575  1.00  0.00     0.031 A 
ATOM     13  C   UNL A   1      38.083  32.744  32.917  1.00  0.00     0.074 A 
ATOM     14  C   UNL A   1      38.261  31.249  30.959  1.00  0.00     0.049 A 
ATOM     15  N   UNL A   1      39.092  32.326  33.638  1.00  0.00    -0.248 NA
ATOM     16  C   UNL A   1      37.329  33.851  33.526  1.00  0.00     0.031 C 
ATOM     17  C   UNL A   1      37.927  30.717  29.636  1.00  0.00     0.029 A 
ATOM     18  N   UNL A   1      39.345  30.505  31.352  1.00  0.00    -0.354 N 
ATOM     19  C   UNL A   1      39.123  33.142  34.763  1.00  0.00     0.074 A 
ATOM     20  C   UNL A   1      38.035  34.087  34.625  1.00  0.00     0.031 C 
ATOM     21  C   UNL A   1      38.786  29.734  29.327  1.00  0.00     0.029 A 
ATOM     22  C   UNL A   1      39.757  29.595  30.407  1.00  0.00     0.049 A 
ATOM     23  H   UNL A   1      39.786  30.612  32.225  1.00  0.00     0.167 HD
ATOM     24  C   UNL A   1      39.968  33.097  35.821  1.00  0.00     0.034 A 
ATOM     25  C   UNL A   1      40.809  28.755  30.398  1.00  0.00     0.034 A 
ATOM     26  C   UNL A   1      41.025  32.131  35.969  1.00  0.00     0.049 A 
ATOM     27  C   UNL A   1      41.718  28.709  31.593  1.00  0.00     0.074 A 
ATOM     28  C   UNL A   1      41.891  31.961  37.035  1.00  0.00     0.029 A 
ATOM     29  N   UNL A   1      41.368  31.179  35.022  1.00  0.00    -0.354 N 
ATOM     30  N   UNL A   1      41.650  29.400  32.704  1.00  0.00    -0.248 NA
ATOM     31  C   UNL A   1      42.828  27.747  31.547  1.00  0.00     0.031 C 
ATOM     32  C   UNL A   1      42.768  30.916  36.724  1.00  0.00     0.029 A 
ATOM     33  C   UNL A   1      42.436  30.421  35.474  1.00  0.00     0.049 A 
ATOM     34  H   UNL A   1      40.917  31.058  34.155  1.00  0.00     0.167 HD
ATOM     35  C   UNL A   1      42.687  28.936  33.504  1.00  0.00     0.074 A 
ATOM     36  C   UNL A   1      43.357  27.891  32.755  1.00  0.00     0.031 C 
ATOM     37  C   UNL A   1      43.059  29.349  34.742  1.00  0.00     0.034 A 
BRANCH  24  38
ATOM     38  C   UNL A   1      39.760  34.099  36.926  1.00  0.00     0.023 A 
ATOM     39  C   UNL A   1      40.067  35.456  36.701  1.00  0.00     0.012 A 
ATOM     40  C   UNL A   1      39.211  33.712  38.165  1.00  0.00     0.148 A 
ATOM     41  C   UNL A   1      39.862  36.407  37.700  1.00  0.00     0.002 A 
ATOM     42  C   UNL A   1      38.974  34.673  39.142  1.00  0.00     0.091 A 
ATOM     43  F   UNL A   1      38.946  32.414  38.372  1.00  0.00    -0.205 F 
ATOM     44  C   UNL A   1      39.307  36.017  38.916  1.00  0.00     0.022 A 
BRANCH  42  45
ATOM     45  S   UNL A   1      38.195  34.275  40.713  1.00  0.00     0.127 S 
ATOM     46  O   UNL A   1      37.878  35.606  41.229  1.00  0.00    -0.237 OA
ATOM     47  O   UNL A   1      37.031  33.492  40.296  1.00  0.00    -0.237 OA
ATOM     48  O   UNL A   1      39.188  33.525  41.469  1.00  0.00    -0.744 OA
ENDBRANCH  42  45
ENDBRANCH  24  38
BRANCH  25  49
ATOM     49  C   UNL A   1      41.016  27.855  29.229  1.00  0.00     0.023 A 
ATOM     50  C   UNL A   1      40.353  26.614  29.186  1.00  0.00     0.012 A 
ATOM     51  C   UNL A   1      41.811  28.250  28.134  1.00  0.00     0.148 A 
ATOM     52  C   UNL A   1      40.490  25.774  28.081  1.00  0.00     0.002 A 
ATOM     53  C   UNL A   1      41.898  27.433  27.013  1.00  0.00     0.091 A 
ATOM     54  F   UNL A   1      42.443  29.430  28.202  1.00  0.00    -0.205 F 
ATOM     55  C   UNL A   1      41.252  26.189  26.990  1.00  0.00     0.022 A 
BRANCH  53  56
ATOM     56  S   UNL A   1      42.740  27.950  25.512  1.00  0.00     0.127 S 
ATOM     57  O   UNL A   1      41.911  29.074  25.079  1.00  0.00    -0.237 OA
ATOM     58  O   UNL A   1      44.062  28.323  26.024  1.00  0.00    -0.237 OA
ATOM     59  O   UNL A   1      42.740  26.790  24.639  1.00  0.00    -0.744 OA
ENDBRANCH  53  56
ENDBRANCH  25  49
BRANCH  37  60
ATOM     60  C   UNL A   1      44.227  28.651  35.388  1.00  0.00     0.023 A 
ATOM     61  C   UNL A   1      45.539  29.074  35.103  1.00  0.00     0.012 A 
ATOM     62  C   UNL A   1      44.017  27.631  36.337  1.00  0.00     0.148 A 
ATOM     63  C   UNL A   1      46.628  28.475  35.735  1.00  0.00     0.002 A 
ATOM     64  C   UNL A   1      45.105  27.071  36.997  1.00  0.00     0.091 A 
ATOM     65  F   UNL A   1      42.761  27.229  36.578  1.00  0.00    -0.205 F 
ATOM     66  C   UNL A   1      46.412  27.484  36.691  1.00  0.00     0.022 A 
BRANCH  64  67
ATOM     67  S   UNL A   1      44.912  25.857  38.307  1.00  0.00     0.127 S 
ATOM     68  O   UNL A   1      44.174  26.619  39.314  1.00  0.00    -0.237 OA
ATOM     69  O   UNL A   1      44.135  24.806  37.647  1.00  0.00    -0.237 OA
ATOM     70  O   UNL A   1      46.262  25.459  38.686  1.00  0.00    -0.744 OA
ENDBRANCH  64  67
ENDBRANCH  37  60
ENDBRANCH  11  12
ENDBRANCH   4   6
ENDBRANCH   1   2
BRANCH   1  71
ATOM     71  C   UNL A   1      31.433  32.263  26.676  1.00  0.00     0.042 C 
BRANCH  71  72
ATOM     72  C   UNL A   1      31.424  30.753  26.406  1.00  0.00     0.117 C 
BRANCH  72  73
ATOM     73  N   UNL A   1      32.457  30.365  25.462  1.00  0.00    -0.354 N 
ATOM     74  C   UNL A   1      32.857  29.063  25.333  1.00  0.00     0.244 C 
ATOM     75  H   UNL A   1      32.879  31.054  24.900  1.00  0.00     0.163 HD
ATOM     76  O   UNL A   1      34.010  28.804  25.659  1.00  0.00    -0.273 OA
BRANCH  74  77
ATOM     77  C   UNL A   1      31.854  28.011  24.861  1.00  0.00     0.193 C 
ATOM     78  C   UNL A   1      32.672  26.882  24.201  1.00  0.00     0.155 C 
ATOM     79  N   UNL A   1      30.638  28.299  24.018  1.00  0.00    -0.327 N 
ATOM     80  N   UNL A   1      31.850  25.689  24.000  1.00  0.00    -0.336 N 
ATOM     81  C   UNL A   1      29.796  27.076  23.921  1.00  0.00     0.142 C 
ATOM     82  C   UNL A   1      30.576  25.879  23.307  1.00  0.00     0.141 C 
BRANCH  79  83
ATOM     83  C   UNL A   1      30.475  29.201  22.973  1.00  0.00     0.226 C 
ATOM     84  O   UNL A   1      31.378  29.335  22.130  1.00  0.00    -0.275 OA
BRANCH  83  85
ATOM     85  C   UNL A   1      29.196  30.007  22.716  1.00  0.00     0.083 C 
ATOM     86  C   UNL A   1      29.091  30.484  21.267  1.00  0.00     0.042 C 
ATOM     87  C   UNL A   1      28.809  30.999  23.811  1.00  0.00     0.042 C 
ATOM     88  C   UNL A   1      28.089  31.617  21.051  1.00  0.00     0.161 C 
ATOM     89  C   UNL A   1      27.693  31.927  23.360  1.00  0.00     0.161 C 
ATOM     90  O   UNL A   1      28.024  32.547  22.127  1.00  0.00    -0.381 OA
ENDBRANCH  83  85
ENDBRANCH  79  83
BRANCH  80  91
ATOM     91  C   UNL A   1      31.928  24.694  24.947  1.00  0.00     0.225 A 
ATOM     92  N   UNL A   1      33.118  24.482  25.527  1.00  0.00    -0.221 NA
ATOM     93  N   UNL A   1      30.803  24.058  25.324  1.00  0.00    -0.221 NA
ATOM     94  C   UNL A   1      33.151  23.657  26.592  1.00  0.00     0.117 A 
ATOM     95  C   UNL A   1      30.899  23.194  26.355  1.00  0.00     0.117 A 
ATOM     96  C   UNL A   1      32.057  22.971  27.054  1.00  0.00     0.040 A 
ENDBRANCH  80  91
ENDBRANCH  74  77
ENDBRANCH  72  73
ENDBRANCH  71  72
ENDBRANCH   1  71
TORSDOF 16
ENDMDL
