MODEL 1
REMARK VINA RESULT:     -12.7      0.000      0.000
REMARK SMILES Cc1ccccc1NC(=O)C[NH+]1CCC(CC(=O)NCCCNC(=O)c2ccc(-c3c4nc(c(-c5cccc(S(=O)(=O)[O-])c5F)c5ccc([nH]5)c(-c5cccc(S(=O)(=O)[O-])c5F)c5nc(c(-c6cccc(S(=O)(=O)[O-])c6F)c6ccc3[nH]6)C=C5)C=C4)cc2)CC1
REMARK SMILES IDX 20 1 19 2 17 3 18 4 16 6 15 7 12 8 13 9 90 10 14 12 89 13
REMARK SMILES IDX 11 14 9 15 8 16 10 18 7 19 1 20 2 21 3 22 4 23 6 24 5 25
REMARK SMILES IDX 21 26 22 27 23 28 24 29 25 31 26 32 27 33 88 34 28 35 87 36
REMARK SMILES IDX 29 37 30 38 31 39 81 40 32 41 86 42 80 43 82 44 33 45 85 46
REMARK SMILES IDX 79 47 78 48 34 50 66 51 46 52 65 53 47 54 50 55 64 56 83 57
REMARK SMILES IDX 48 58 49 59 63 61 84 62 51 63 35 64 36 65 44 66 37 67 39 68
REMARK SMILES IDX 45 69 38 70 40 71 41 72 42 73 43 74 67 75 68 76 76 77 69 78
REMARK SMILES IDX 71 79 77 80 70 81 72 82 73 83 74 84 75 85 52 86 53 87 61 88
REMARK SMILES IDX 54 89 56 90 62 91 55 92 57 93 58 94 59 95 60 96
REMARK H PARENT 19 5 12 11 8 17 23 30 82 49 50 60
REMARK Flexibility Score: inf
ROOT
ATOM      1  C   UNL A   1      37.042  22.030  24.252  1.00  0.00     0.117 C 
ENDROOT
BRANCH   1   2
ATOM      2  N   UNL A   1      35.678  21.574  24.470  1.00  0.00    -0.356 N 
ATOM      3  C   UNL A   1      34.494  22.231  24.265  1.00  0.00     0.220 C 
ATOM      4  O   UNL A   1      33.438  21.597  24.293  1.00  0.00    -0.275 OA
ATOM      5  H   UNL A   1      35.594  20.656  24.816  1.00  0.00     0.163 HD
BRANCH   3   6
ATOM      6  C   UNL A   1      34.473  23.737  24.075  1.00  0.00     0.104 C 
BRANCH   6   7
ATOM      7  C   UNL A   1      33.090  24.265  23.655  1.00  0.00     0.009 C 
ATOM      8  N   UNL A   1      31.278  26.540  23.211  1.00  0.00    -0.327 N 
ATOM      9  C   UNL A   1      31.061  25.650  24.350  1.00  0.00     0.262 C 
ATOM     10  C   UNL A   1      31.889  25.839  22.087  1.00  0.00     0.262 C 
ATOM     11  H   UNL A   1      31.969  27.238  23.488  1.00  0.00     0.348 HD
ATOM     12  C   UNL A   1      32.394  25.049  24.766  1.00  0.00     0.066 C 
ATOM     13  C   UNL A   1      33.229  25.192  22.440  1.00  0.00     0.066 C 
BRANCH   8  14
ATOM     14  C   UNL A   1      30.088  27.356  22.879  1.00  0.00     0.363 C 
BRANCH  14  15
ATOM     15  C   UNL A   1      30.329  28.853  22.623  1.00  0.00     0.279 C 
ATOM     16  N   UNL A   1      31.223  29.605  23.334  1.00  0.00    -0.321 N 
ATOM     17  H   UNL A   1      31.316  30.536  23.026  1.00  0.00     0.170 HD
ATOM     18  O   UNL A   1      29.740  29.423  21.695  1.00  0.00    -0.268 OA
BRANCH  16  19
ATOM     19  C   UNL A   1      32.025  29.265  24.430  1.00  0.00     0.044 A 
ATOM     20  C   UNL A   1      34.015  28.810  22.861  1.00  0.00     0.046 C 
ATOM     21  C   UNL A   1      33.341  28.815  24.208  1.00  0.00    -0.027 A 
ATOM     22  C   UNL A   1      34.061  28.281  25.292  1.00  0.00     0.005 A 
ATOM     23  C   UNL A   1      33.501  28.221  26.568  1.00  0.00     0.000 A 
ATOM     24  C   UNL A   1      31.514  29.297  25.732  1.00  0.00     0.026 A 
ATOM     25  C   UNL A   1      32.240  28.757  26.795  1.00  0.00     0.002 A 
ENDBRANCH  16  19
ENDBRANCH  14  15
ENDBRANCH   8  14
ENDBRANCH   6   7
ENDBRANCH   3   6
ENDBRANCH   1   2
BRANCH   1  26
ATOM     26  C   UNL A   1      38.118  21.441  25.161  1.00  0.00     0.042 C 
BRANCH  26  27
ATOM     27  C   UNL A   1      38.650  22.347  26.258  1.00  0.00     0.118 C 
BRANCH  27  28
ATOM     28  N   UNL A   1      40.108  22.469  26.097  1.00  0.00    -0.352 N 
ATOM     29  C   UNL A   1      40.934  23.562  26.241  1.00  0.00     0.251 C 
ATOM     30  H   UNL A   1      40.568  21.636  25.846  1.00  0.00     0.163 HD
ATOM     31  O   UNL A   1      42.145  23.476  26.052  1.00  0.00    -0.269 OA
BRANCH  29  32
ATOM     32  C   UNL A   1      40.311  24.807  26.692  1.00  0.00     0.039 A 
ATOM     33  C   UNL A   1      40.815  26.000  26.165  1.00  0.00     0.014 A 
ATOM     34  C   UNL A   1      39.556  24.769  27.862  1.00  0.00     0.014 A 
ATOM     35  C   UNL A   1      40.754  27.150  26.938  1.00  0.00     0.010 A 
ATOM     36  C   UNL A   1      39.553  25.897  28.654  1.00  0.00     0.010 A 
ATOM     37  C   UNL A   1      40.210  27.058  28.218  1.00  0.00    -0.014 A 
BRANCH  37  38
ATOM     38  C   UNL A   1      40.326  28.116  29.206  1.00  0.00     0.031 A 
ATOM     39  C   UNL A   1      39.391  29.252  29.159  1.00  0.00     0.074 A 
ATOM     40  C   UNL A   1      41.244  28.040  30.194  1.00  0.00     0.049 A 
ATOM     41  N   UNL A   1      39.664  30.423  29.624  1.00  0.00    -0.248 NA
ATOM     42  C   UNL A   1      38.079  29.155  28.530  1.00  0.00     0.031 C 
ATOM     43  C   UNL A   1      41.263  28.830  31.419  1.00  0.00     0.029 A 
ATOM     44  N   UNL A   1      42.482  27.387  30.181  1.00  0.00    -0.354 N 
ATOM     45  C   UNL A   1      38.495  31.146  29.599  1.00  0.00     0.074 A 
ATOM     46  C   UNL A   1      37.558  30.343  28.845  1.00  0.00     0.031 C 
ATOM     47  C   UNL A   1      42.516  28.857  31.893  1.00  0.00     0.029 A 
ATOM     48  C   UNL A   1      43.365  28.203  30.913  1.00  0.00     0.049 A 
ATOM     49  H   UNL A   1      42.693  26.530  29.746  1.00  0.00     0.167 HD
ATOM     50  C   UNL A   1      38.379  32.273  30.355  1.00  0.00     0.034 A 
ATOM     51  C   UNL A   1      44.550  28.684  30.446  1.00  0.00     0.034 A 
ATOM     52  C   UNL A   1      39.600  32.543  31.113  1.00  0.00     0.049 A 
ATOM     53  C   UNL A   1      44.673  30.191  30.540  1.00  0.00     0.074 A 
ATOM     54  C   UNL A   1      39.990  32.218  32.404  1.00  0.00     0.029 A 
ATOM     55  N   UNL A   1      40.741  32.982  30.457  1.00  0.00    -0.354 N 
ATOM     56  N   UNL A   1      43.687  30.983  30.857  1.00  0.00    -0.248 NA
ATOM     57  C   UNL A   1      45.899  30.932  30.258  1.00  0.00     0.031 C 
ATOM     58  C   UNL A   1      41.387  32.437  32.512  1.00  0.00     0.029 A 
ATOM     59  C   UNL A   1      41.844  32.905  31.294  1.00  0.00     0.049 A 
ATOM     60  H   UNL A   1      40.764  33.305  29.528  1.00  0.00     0.167 HD
ATOM     61  C   UNL A   1      44.070  32.295  30.720  1.00  0.00     0.074 A 
ATOM     62  C   UNL A   1      45.487  32.204  30.412  1.00  0.00     0.031 C 
ATOM     63  C   UNL A   1      43.162  33.318  30.824  1.00  0.00     0.034 A 
BRANCH  50  64
ATOM     64  C   UNL A   1      37.033  32.875  30.684  1.00  0.00     0.023 A 
ATOM     65  C   UNL A   1      36.465  32.569  31.939  1.00  0.00     0.012 A 
ATOM     66  C   UNL A   1      36.247  33.650  29.806  1.00  0.00     0.148 A 
ATOM     67  C   UNL A   1      35.145  32.899  32.259  1.00  0.00     0.002 A 
ATOM     68  C   UNL A   1      34.902  33.906  30.090  1.00  0.00     0.091 A 
ATOM     69  F   UNL A   1      36.811  34.182  28.712  1.00  0.00    -0.205 F 
ATOM     70  C   UNL A   1      34.348  33.528  31.317  1.00  0.00     0.022 A 
BRANCH  68  71
ATOM     71  S   UNL A   1      33.780  34.579  28.853  1.00  0.00     0.127 S 
ATOM     72  O   UNL A   1      33.656  33.471  27.904  1.00  0.00    -0.237 OA
ATOM     73  O   UNL A   1      32.574  34.850  29.630  1.00  0.00    -0.237 OA
ATOM     74  O   UNL A   1      34.463  35.745  28.304  1.00  0.00    -0.744 OA
ENDBRANCH  68  71
ENDBRANCH  50  64
BRANCH  51  75
ATOM     75  C   UNL A   1      45.201  27.811  29.431  1.00  0.00     0.023 A 
ATOM     76  C   UNL A   1      45.474  26.479  29.823  1.00  0.00     0.012 A 
ATOM     77  C   UNL A   1      45.186  28.129  28.064  1.00  0.00     0.148 A 
ATOM     78  C   UNL A   1      45.607  25.463  28.877  1.00  0.00     0.002 A 
ATOM     79  C   UNL A   1      45.313  27.107  27.123  1.00  0.00     0.091 A 
ATOM     80  F   UNL A   1      44.963  29.399  27.703  1.00  0.00    -0.205 F 
ATOM     81  C   UNL A   1      45.492  25.774  27.528  1.00  0.00     0.022 A 
BRANCH  79  82
ATOM     82  S   UNL A   1      45.102  27.407  25.363  1.00  0.00     0.127 S 
ATOM     83  O   UNL A   1      43.694  27.785  25.299  1.00  0.00    -0.237 OA
ATOM     84  O   UNL A   1      46.046  28.497  25.121  1.00  0.00    -0.237 OA
ATOM     85  O   UNL A   1      45.467  26.150  24.727  1.00  0.00    -0.744 OA
ENDBRANCH  79  82
ENDBRANCH  51  75
BRANCH  63  86
ATOM     86  C   UNL A   1      43.385  34.793  30.503  1.00  0.00     0.023 A 
ATOM     87  C   UNL A   1      43.796  35.734  31.464  1.00  0.00     0.012 A 
ATOM     88  C   UNL A   1      43.308  35.264  29.161  1.00  0.00     0.148 A 
ATOM     89  C   UNL A   1      44.091  37.064  31.128  1.00  0.00     0.002 A 
ATOM     90  C   UNL A   1      43.704  36.555  28.817  1.00  0.00     0.091 A 
ATOM     91  F   UNL A   1      42.816  34.474  28.195  1.00  0.00    -0.205 F 
ATOM     92  C   UNL A   1      44.075  37.468  29.802  1.00  0.00     0.022 A 
BRANCH  90  93
ATOM     93  S   UNL A   1      43.896  37.032  27.092  1.00  0.00     0.127 S 
ATOM     94  O   UNL A   1      44.457  38.375  27.206  1.00  0.00    -0.237 OA
ATOM     95  O   UNL A   1      44.830  36.024  26.586  1.00  0.00    -0.237 OA
ATOM     96  O   UNL A   1      42.556  36.935  26.528  1.00  0.00    -0.744 OA
ENDBRANCH  90  93
ENDBRANCH  63  86
ENDBRANCH  37  38
ENDBRANCH  29  32
ENDBRANCH  27  28
ENDBRANCH  26  27
ENDBRANCH   1  26
TORSDOF 17
ENDMDL
MODEL 2
REMARK VINA RESULT:     -12.7      3.960      9.781
REMARK SMILES Cc1ccccc1NC(=O)C[NH+]1CCC(CC(=O)NCCCNC(=O)c2ccc(-c3c4nc(c(-c5cccc(S(=O)(=O)[O-])c5F)c5ccc([nH]5)c(-c5cccc(S(=O)(=O)[O-])c5F)c5nc(c(-c6cccc(S(=O)(=O)[O-])c6F)c6ccc3[nH]6)C=C5)C=C4)cc2)CC1
REMARK SMILES IDX 20 1 19 2 17 3 18 4 16 6 15 7 12 8 13 9 90 10 14 12 89 13
REMARK SMILES IDX 11 14 9 15 8 16 10 18 7 19 1 20 2 21 3 22 4 23 6 24 5 25
REMARK SMILES IDX 21 26 22 27 23 28 24 29 25 31 26 32 27 33 88 34 28 35 87 36
REMARK SMILES IDX 29 37 30 38 31 39 81 40 32 41 86 42 80 43 82 44 33 45 85 46
REMARK SMILES IDX 79 47 78 48 34 50 66 51 46 52 65 53 47 54 50 55 64 56 83 57
REMARK SMILES IDX 48 58 49 59 63 61 84 62 51 63 35 64 36 65 44 66 37 67 39 68
REMARK SMILES IDX 45 69 38 70 40 71 41 72 42 73 43 74 67 75 68 76 76 77 69 78
REMARK SMILES IDX 71 79 77 80 70 81 72 82 73 83 74 84 75 85 52 86 53 87 61 88
REMARK SMILES IDX 54 89 56 90 62 91 55 92 57 93 58 94 59 95 60 96
REMARK H PARENT 19 5 12 11 8 17 23 30 82 49 50 60
REMARK Flexibility Score: inf
ROOT
ATOM      1  C   UNL A   1      33.089  29.405  25.246  1.00  0.00     0.117 C 
ENDROOT
BRANCH   1   2
ATOM      2  N   UNL A   1      32.045  29.420  24.233  1.00  0.00    -0.356 N 
ATOM      3  C   UNL A   1      30.949  28.611  24.096  1.00  0.00     0.220 C 
ATOM      4  O   UNL A   1      30.059  28.928  23.304  1.00  0.00    -0.275 OA
ATOM      5  H   UNL A   1      32.141  30.117  23.544  1.00  0.00     0.163 HD
BRANCH   3   6
ATOM      6  C   UNL A   1      30.859  27.302  24.859  1.00  0.00     0.104 C 
BRANCH   6   7
ATOM      7  C   UNL A   1      31.449  26.116  24.076  1.00  0.00     0.009 C 
ATOM      8  N   UNL A   1      32.300  23.300  24.010  1.00  0.00    -0.327 N 
ATOM      9  C   UNL A   1      33.303  24.363  23.981  1.00  0.00     0.262 C 
ATOM     10  C   UNL A   1      31.051  23.720  23.384  1.00  0.00     0.262 C 
ATOM     11  H   UNL A   1      32.056  23.128  24.986  1.00  0.00     0.348 HD
ATOM     12  C   UNL A   1      32.744  25.587  24.690  1.00  0.00     0.066 C 
ATOM     13  C   UNL A   1      30.440  24.960  24.036  1.00  0.00     0.066 C 
BRANCH   8  14
ATOM     14  C   UNL A   1      32.830  21.993  23.558  1.00  0.00     0.363 C 
BRANCH  14  15
ATOM     15  C   UNL A   1      32.909  20.880  24.616  1.00  0.00     0.279 C 
ATOM     16  N   UNL A   1      33.969  20.720  25.466  1.00  0.00    -0.321 N 
ATOM     17  H   UNL A   1      33.862  20.002  26.130  1.00  0.00     0.170 HD
ATOM     18  O   UNL A   1      31.954  20.106  24.771  1.00  0.00    -0.268 OA
BRANCH  16  19
ATOM     19  C   UNL A   1      35.183  21.414  25.540  1.00  0.00     0.044 A 
ATOM     20  C   UNL A   1      34.168  23.054  27.245  1.00  0.00     0.046 C 
ATOM     21  C   UNL A   1      35.267  22.574  26.335  1.00  0.00    -0.027 A 
ATOM     22  C   UNL A   1      36.420  23.373  26.237  1.00  0.00     0.005 A 
ATOM     23  C   UNL A   1      37.474  23.018  25.397  1.00  0.00     0.000 A 
ATOM     24  C   UNL A   1      36.288  21.013  24.782  1.00  0.00     0.026 A 
ATOM     25  C   UNL A   1      37.422  21.822  24.692  1.00  0.00     0.002 A 
ENDBRANCH  16  19
ENDBRANCH  14  15
ENDBRANCH   8  14
ENDBRANCH   6   7
ENDBRANCH   3   6
ENDBRANCH   1   2
BRANCH   1  26
ATOM     26  C   UNL A   1      33.062  30.528  26.280  1.00  0.00     0.042 C 
BRANCH  26  27
ATOM     27  C   UNL A   1      33.614  30.197  27.656  1.00  0.00     0.118 C 
BRANCH  27  28
ATOM     28  N   UNL A   1      34.459  31.317  28.102  1.00  0.00    -0.352 N 
ATOM     29  C   UNL A   1      35.786  31.343  28.471  1.00  0.00     0.251 C 
ATOM     30  H   UNL A   1      34.002  32.188  28.145  1.00  0.00     0.163 HD
ATOM     31  O   UNL A   1      36.327  32.385  28.833  1.00  0.00    -0.269 OA
BRANCH  29  32
ATOM     32  C   UNL A   1      36.530  30.088  28.350  1.00  0.00     0.039 A 
ATOM     33  C   UNL A   1      36.790  29.384  29.529  1.00  0.00     0.014 A 
ATOM     34  C   UNL A   1      37.252  29.873  27.178  1.00  0.00     0.014 A 
ATOM     35  C   UNL A   1      37.937  28.608  29.604  1.00  0.00     0.010 A 
ATOM     36  C   UNL A   1      38.423  29.153  27.275  1.00  0.00     0.010 A 
ATOM     37  C   UNL A   1      38.793  28.583  28.504  1.00  0.00    -0.014 A 
BRANCH  37  38
ATOM     38  C   UNL A   1      40.132  28.027  28.555  1.00  0.00     0.031 A 
ATOM     39  C   UNL A   1      40.321  26.582  28.348  1.00  0.00     0.074 A 
ATOM     40  C   UNL A   1      41.206  28.827  28.735  1.00  0.00     0.049 A 
ATOM     41  N   UNL A   1      41.317  25.915  28.822  1.00  0.00    -0.248 NA
ATOM     42  C   UNL A   1      39.357  25.767  27.617  1.00  0.00     0.031 C 
ATOM     43  C   UNL A   1      42.598  28.476  28.481  1.00  0.00     0.029 A 
ATOM     44  N   UNL A   1      41.272  30.053  29.407  1.00  0.00    -0.354 N 
ATOM     45  C   UNL A   1      41.271  24.665  28.252  1.00  0.00     0.074 A 
ATOM     46  C   UNL A   1      39.998  24.597  27.569  1.00  0.00     0.031 C 
ATOM     47  C   UNL A   1      43.383  29.278  29.213  1.00  0.00     0.029 A 
ATOM     48  C   UNL A   1      42.517  30.075  30.064  1.00  0.00     0.049 A 
ATOM     49  H   UNL A   1      40.586  30.759  29.418  1.00  0.00     0.167 HD
ATOM     50  C   UNL A   1      42.377  23.871  28.269  1.00  0.00     0.034 A 
ATOM     51  C   UNL A   1      42.689  30.280  31.399  1.00  0.00     0.034 A 
ATOM     52  C   UNL A   1      43.501  24.524  28.939  1.00  0.00     0.049 A 
ATOM     53  C   UNL A   1      43.478  29.182  32.084  1.00  0.00     0.074 A 
ATOM     54  C   UNL A   1      44.561  25.280  28.464  1.00  0.00     0.029 A 
ATOM     55  N   UNL A   1      43.482  24.695  30.315  1.00  0.00    -0.354 N 
ATOM     56  N   UNL A   1      43.805  28.057  31.514  1.00  0.00    -0.248 NA
ATOM     57  C   UNL A   1      43.934  29.245  33.469  1.00  0.00     0.031 C 
ATOM     58  C   UNL A   1      45.166  25.936  29.565  1.00  0.00     0.029 A 
ATOM     59  C   UNL A   1      44.482  25.571  30.711  1.00  0.00     0.049 A 
ATOM     60  H   UNL A   1      42.848  24.256  30.927  1.00  0.00     0.167 HD
ATOM     61  C   UNL A   1      44.388  27.214  32.429  1.00  0.00     0.074 A 
ATOM     62  C   UNL A   1      44.509  28.037  33.620  1.00  0.00     0.031 C 
ATOM     63  C   UNL A   1      44.662  25.906  32.119  1.00  0.00     0.034 A 
BRANCH  50  64
ATOM     64  C   UNL A   1      42.523  22.690  27.337  1.00  0.00     0.023 A 
ATOM     65  C   UNL A   1      41.874  21.488  27.693  1.00  0.00     0.012 A 
ATOM     66  C   UNL A   1      43.328  22.655  26.180  1.00  0.00     0.148 A 
ATOM     67  C   UNL A   1      42.110  20.288  27.019  1.00  0.00     0.002 A 
ATOM     68  C   UNL A   1      43.631  21.441  25.557  1.00  0.00     0.091 A 
ATOM     69  F   UNL A   1      43.767  23.805  25.648  1.00  0.00    -0.205 F 
ATOM     70  C   UNL A   1      43.024  20.254  25.979  1.00  0.00     0.022 A 
BRANCH  68  71
ATOM     71  S   UNL A   1      44.919  21.308  24.307  1.00  0.00     0.127 S 
ATOM     72  O   UNL A   1      44.513  22.318  23.327  1.00  0.00    -0.237 OA
ATOM     73  O   UNL A   1      46.127  21.642  25.055  1.00  0.00    -0.237 OA
ATOM     74  O   UNL A   1      44.834  19.940  23.806  1.00  0.00    -0.744 OA
ENDBRANCH  68  71
ENDBRANCH  50  64
BRANCH  51  75
ATOM     75  C   UNL A   1      41.638  31.127  32.023  1.00  0.00     0.023 A 
ATOM     76  C   UNL A   1      41.470  32.427  31.488  1.00  0.00     0.012 A 
ATOM     77  C   UNL A   1      40.608  30.574  32.802  1.00  0.00     0.148 A 
ATOM     78  C   UNL A   1      40.262  33.110  31.621  1.00  0.00     0.002 A 
ATOM     79  C   UNL A   1      39.400  31.260  32.925  1.00  0.00     0.091 A 
ATOM     80  F   UNL A   1      40.789  29.359  33.334  1.00  0.00    -0.205 F 
ATOM     81  C   UNL A   1      39.216  32.510  32.311  1.00  0.00     0.022 A 
BRANCH  79  82
ATOM     82  S   UNL A   1      37.971  30.527  33.733  1.00  0.00     0.127 S 
ATOM     83  O   UNL A   1      36.987  31.596  33.610  1.00  0.00    -0.237 OA
ATOM     84  O   UNL A   1      37.715  29.353  32.900  1.00  0.00    -0.237 OA
ATOM     85  O   UNL A   1      38.427  30.214  35.079  1.00  0.00    -0.744 OA
ENDBRANCH  79  82
ENDBRANCH  51  75
BRANCH  63  86
ATOM     86  C   UNL A   1      45.115  24.802  33.071  1.00  0.00     0.023 A 
ATOM     87  C   UNL A   1      44.374  23.628  33.291  1.00  0.00     0.012 A 
ATOM     88  C   UNL A   1      46.395  24.859  33.693  1.00  0.00     0.148 A 
ATOM     89  C   UNL A   1      44.854  22.581  34.094  1.00  0.00     0.002 A 
ATOM     90  C   UNL A   1      46.912  23.775  34.400  1.00  0.00     0.091 A 
ATOM     91  F   UNL A   1      47.125  25.983  33.635  1.00  0.00    -0.205 F 
ATOM     92  C   UNL A   1      46.135  22.640  34.623  1.00  0.00     0.022 A 
BRANCH  90  93
ATOM     93  S   UNL A   1      48.638  23.744  34.908  1.00  0.00     0.127 S 
ATOM     94  O   UNL A   1      49.336  23.766  33.625  1.00  0.00    -0.237 OA
ATOM     95  O   UNL A   1      48.762  24.977  35.688  1.00  0.00    -0.237 OA
ATOM     96  O   UNL A   1      48.772  22.526  35.698  1.00  0.00    -0.744 OA
ENDBRANCH  90  93
ENDBRANCH  63  86
ENDBRANCH  37  38
ENDBRANCH  29  32
ENDBRANCH  27  28
ENDBRANCH  26  27
ENDBRANCH   1  26
TORSDOF 17
ENDMDL
MODEL 3
REMARK VINA RESULT:     -12.6      4.335     10.287
REMARK SMILES Cc1ccccc1NC(=O)C[NH+]1CCC(CC(=O)NCCCNC(=O)c2ccc(-c3c4nc(c(-c5cccc(S(=O)(=O)[O-])c5F)c5ccc([nH]5)c(-c5cccc(S(=O)(=O)[O-])c5F)c5nc(c(-c6cccc(S(=O)(=O)[O-])c6F)c6ccc3[nH]6)C=C5)C=C4)cc2)CC1
REMARK SMILES IDX 20 1 19 2 17 3 18 4 16 6 15 7 12 8 13 9 90 10 14 12 89 13
REMARK SMILES IDX 11 14 9 15 8 16 10 18 7 19 1 20 2 21 3 22 4 23 6 24 5 25
REMARK SMILES IDX 21 26 22 27 23 28 24 29 25 31 26 32 27 33 88 34 28 35 87 36
REMARK SMILES IDX 29 37 30 38 31 39 81 40 32 41 86 42 80 43 82 44 33 45 85 46
REMARK SMILES IDX 79 47 78 48 34 50 66 51 46 52 65 53 47 54 50 55 64 56 83 57
REMARK SMILES IDX 48 58 49 59 63 61 84 62 51 63 35 64 36 65 44 66 37 67 39 68
REMARK SMILES IDX 45 69 38 70 40 71 41 72 42 73 43 74 67 75 68 76 76 77 69 78
REMARK SMILES IDX 71 79 77 80 70 81 72 82 73 83 74 84 75 85 52 86 53 87 61 88
REMARK SMILES IDX 54 89 56 90 62 91 55 92 57 93 58 94 59 95 60 96
REMARK H PARENT 19 5 12 11 8 17 23 30 82 49 50 60
REMARK Flexibility Score: inf
ROOT
ATOM      1  C   UNL A   1      31.771  30.524  26.618  1.00  0.00     0.117 C 
ENDROOT
BRANCH   1   2
ATOM      2  N   UNL A   1      31.617  29.828  25.350  1.00  0.00    -0.356 N 
ATOM      3  C   UNL A   1      31.697  28.489  25.073  1.00  0.00     0.220 C 
ATOM      4  O   UNL A   1      31.311  28.074  23.979  1.00  0.00    -0.275 OA
ATOM      5  H   UNL A   1      31.427  30.406  24.576  1.00  0.00     0.163 HD
BRANCH   3   6
ATOM      6  C   UNL A   1      32.318  27.533  26.075  1.00  0.00     0.104 C 
BRANCH   6   7
ATOM      7  C   UNL A   1      32.556  26.130  25.490  1.00  0.00     0.009 C 
ATOM      8  N   UNL A   1      33.822  23.482  25.700  1.00  0.00    -0.327 N 
ATOM      9  C   UNL A   1      34.302  24.439  24.705  1.00  0.00     0.262 C 
ATOM     10  C   UNL A   1      32.400  23.656  25.975  1.00  0.00     0.262 C 
ATOM     11  H   UNL A   1      34.285  23.693  26.584  1.00  0.00     0.348 HD
ATOM     12  C   UNL A   1      34.031  25.849  25.208  1.00  0.00     0.066 C 
ATOM     13  C   UNL A   1      32.052  25.061  26.469  1.00  0.00     0.066 C 
BRANCH   8  14
ATOM     14  C   UNL A   1      34.249  22.093  25.418  1.00  0.00     0.363 C 
BRANCH  14  15
ATOM     15  C   UNL A   1      33.811  21.020  26.429  1.00  0.00     0.279 C 
ATOM     16  N   UNL A   1      33.236  19.832  26.068  1.00  0.00    -0.321 N 
ATOM     17  H   UNL A   1      33.058  19.216  26.814  1.00  0.00     0.170 HD
ATOM     18  O   UNL A   1      34.029  21.185  27.637  1.00  0.00    -0.268 OA
BRANCH  16  19
ATOM     19  C   UNL A   1      32.859  19.354  24.807  1.00  0.00     0.044 A 
ATOM     20  C   UNL A   1      33.577  16.972  25.469  1.00  0.00     0.046 C 
ATOM     21  C   UNL A   1      33.083  18.002  24.487  1.00  0.00    -0.027 A 
ATOM     22  C   UNL A   1      32.895  17.586  23.156  1.00  0.00     0.005 A 
ATOM     23  C   UNL A   1      32.468  18.480  22.175  1.00  0.00     0.000 A 
ATOM     24  C   UNL A   1      32.330  20.217  23.840  1.00  0.00     0.026 A 
ATOM     25  C   UNL A   1      32.155  19.788  22.523  1.00  0.00     0.002 A 
ENDBRANCH  16  19
ENDBRANCH  14  15
ENDBRANCH   8  14
ENDBRANCH   6   7
ENDBRANCH   3   6
ENDBRANCH   1   2
BRANCH   1  26
ATOM     26  C   UNL A   1      33.102  31.235  26.855  1.00  0.00     0.042 C 
BRANCH  26  27
ATOM     27  C   UNL A   1      34.089  30.537  27.775  1.00  0.00     0.118 C 
BRANCH  27  28
ATOM     28  N   UNL A   1      34.989  31.550  28.350  1.00  0.00    -0.352 N 
ATOM     29  C   UNL A   1      36.296  31.448  28.771  1.00  0.00     0.251 C 
ATOM     30  H   UNL A   1      34.592  32.446  28.451  1.00  0.00     0.163 HD
ATOM     31  O   UNL A   1      36.892  32.413  29.243  1.00  0.00    -0.269 OA
BRANCH  29  32
ATOM     32  C   UNL A   1      36.957  30.157  28.569  1.00  0.00     0.039 A 
ATOM     33  C   UNL A   1      37.076  29.321  29.683  1.00  0.00     0.014 A 
ATOM     34  C   UNL A   1      37.747  30.004  27.433  1.00  0.00     0.014 A 
ATOM     35  C   UNL A   1      38.156  28.453  29.753  1.00  0.00     0.010 A 
ATOM     36  C   UNL A   1      38.854  29.188  27.533  1.00  0.00     0.010 A 
ATOM     37  C   UNL A   1      39.088  28.471  28.717  1.00  0.00    -0.014 A 
BRANCH  37  38
ATOM     38  C   UNL A   1      40.377  27.809  28.800  1.00  0.00     0.031 A 
ATOM     39  C   UNL A   1      40.461  26.362  28.546  1.00  0.00     0.074 A 
ATOM     40  C   UNL A   1      41.501  28.515  29.053  1.00  0.00     0.049 A 
ATOM     41  N   UNL A   1      41.381  25.602  29.033  1.00  0.00    -0.248 NA
ATOM     42  C   UNL A   1      39.469  25.652  27.747  1.00  0.00     0.031 C 
ATOM     43  C   UNL A   1      42.871  28.063  28.842  1.00  0.00     0.029 A 
ATOM     44  N   UNL A   1      41.633  29.707  29.774  1.00  0.00    -0.354 N 
ATOM     45  C   UNL A   1      41.262  24.380  28.414  1.00  0.00     0.074 A 
ATOM     46  C   UNL A   1      40.018  24.437  27.679  1.00  0.00     0.031 C 
ATOM     47  C   UNL A   1      43.684  28.775  29.634  1.00  0.00     0.029 A 
ATOM     48  C   UNL A   1      42.847  29.607  30.480  1.00  0.00     0.049 A 
ATOM     49  H   UNL A   1      41.004  30.464  29.784  1.00  0.00     0.167 HD
ATOM     50  C   UNL A   1      42.302  23.501  28.445  1.00  0.00     0.034 A 
ATOM     51  C   UNL A   1      42.978  29.752  31.828  1.00  0.00     0.034 A 
ATOM     52  C   UNL A   1      43.443  24.039  29.184  1.00  0.00     0.049 A 
ATOM     53  C   UNL A   1      43.648  28.571  32.501  1.00  0.00     0.074 A 
ATOM     54  C   UNL A   1      44.579  24.725  28.780  1.00  0.00     0.029 A 
ATOM     55  N   UNL A   1      43.379  24.163  30.564  1.00  0.00    -0.354 N 
ATOM     56  N   UNL A   1      43.911  27.444  31.902  1.00  0.00    -0.248 NA
ATOM     57  C   UNL A   1      44.049  28.549  33.905  1.00  0.00     0.031 C 
ATOM     58  C   UNL A   1      45.185  25.292  29.929  1.00  0.00     0.029 A 
ATOM     59  C   UNL A   1      44.426  24.943  31.032  1.00  0.00     0.049 A 
ATOM     60  H   UNL A   1      42.688  23.754  31.132  1.00  0.00     0.167 HD
ATOM     61  C   UNL A   1      44.387  26.526  32.806  1.00  0.00     0.074 A 
ATOM     62  C   UNL A   1      44.521  27.295  34.031  1.00  0.00     0.031 C 
ATOM     63  C   UNL A   1      44.572  25.212  32.458  1.00  0.00     0.034 A 
BRANCH  50  64
ATOM     64  C   UNL A   1      42.394  22.345  27.475  1.00  0.00     0.023 A 
ATOM     65  C   UNL A   1      41.571  21.224  27.709  1.00  0.00     0.012 A 
ATOM     66  C   UNL A   1      43.302  22.251  26.399  1.00  0.00     0.148 A 
ATOM     67  C   UNL A   1      41.725  20.028  27.003  1.00  0.00     0.002 A 
ATOM     68  C   UNL A   1      43.515  21.032  25.750  1.00  0.00     0.091 A 
ATOM     69  F   UNL A   1      43.930  23.354  25.968  1.00  0.00    -0.205 F 
ATOM     70  C   UNL A   1      42.728  19.916  26.054  1.00  0.00     0.022 A 
BRANCH  68  71
ATOM     71  S   UNL A   1      44.896  20.782  24.624  1.00  0.00     0.127 S 
ATOM     72  O   UNL A   1      44.844  19.339  24.377  1.00  0.00    -0.237 OA
ATOM     73  O   UNL A   1      44.528  21.606  23.477  1.00  0.00    -0.237 OA
ATOM     74  O   UNL A   1      46.081  21.205  25.362  1.00  0.00    -0.744 OA
ENDBRANCH  68  71
ENDBRANCH  50  64
BRANCH  51  75
ATOM     75  C   UNL A   1      41.969  30.657  32.442  1.00  0.00     0.023 A 
ATOM     76  C   UNL A   1      41.966  31.999  31.992  1.00  0.00     0.012 A 
ATOM     77  C   UNL A   1      40.838  30.159  33.109  1.00  0.00     0.148 A 
ATOM     78  C   UNL A   1      40.821  32.789  32.095  1.00  0.00     0.002 A 
ATOM     79  C   UNL A   1      39.695  30.954  33.202  1.00  0.00     0.091 A 
ATOM     80  F   UNL A   1      40.863  28.900  33.563  1.00  0.00    -0.205 F 
ATOM     81  C   UNL A   1      39.676  32.254  32.670  1.00  0.00     0.022 A 
BRANCH  79  82
ATOM     82  S   UNL A   1      38.149  30.316  33.860  1.00  0.00     0.127 S 
ATOM     83  O   UNL A   1      38.425  30.301  35.293  1.00  0.00    -0.237 OA
ATOM     84  O   UNL A   1      37.188  31.331  33.428  1.00  0.00    -0.237 OA
ATOM     85  O   UNL A   1      37.978  29.023  33.217  1.00  0.00    -0.744 OA
ENDBRANCH  79  82
ENDBRANCH  51  75
BRANCH  63  86
ATOM     86  C   UNL A   1      44.896  24.044  33.384  1.00  0.00     0.023 A 
ATOM     87  C   UNL A   1      44.027  22.955  33.580  1.00  0.00     0.012 A 
ATOM     88  C   UNL A   1      46.174  23.941  34.005  1.00  0.00     0.148 A 
ATOM     89  C   UNL A   1      44.385  21.844  34.358  1.00  0.00     0.002 A 
ATOM     90  C   UNL A   1      46.565  22.790  34.687  1.00  0.00     0.091 A 
ATOM     91  F   UNL A   1      47.026  24.976  33.970  1.00  0.00    -0.205 F 
ATOM     92  C   UNL A   1      45.664  21.746  34.886  1.00  0.00     0.022 A 
BRANCH  90  93
ATOM     93  S   UNL A   1      48.276  22.553  35.191  1.00  0.00     0.127 S 
ATOM     94  O   UNL A   1      48.288  21.145  35.580  1.00  0.00    -0.237 OA
ATOM     95  O   UNL A   1      49.014  22.849  33.961  1.00  0.00    -0.237 OA
ATOM     96  O   UNL A   1      48.487  23.522  36.258  1.00  0.00    -0.744 OA
ENDBRANCH  90  93
ENDBRANCH  63  86
ENDBRANCH  37  38
ENDBRANCH  29  32
ENDBRANCH  27  28
ENDBRANCH  26  27
ENDBRANCH   1  26
TORSDOF 17
ENDMDL
