MODEL 1
REMARK VINA RESULT:     -11.6      0.000      0.000
REMARK SMILES CCCCC(=O)Nc1ccc(C(=O)N2CCC[C@H](C(=O)NCCCNC(=O)c3ccc(-c4c5nc(c(-c6cccc(S(=O)(=O)[O-])c6F)c6ccc([nH]6)c(-c6cccc(S(=O)(=O)[O-])c6F)c6nc(c(-c7cccc(S(=O)(=O)[O-])c7F)c7ccc4[nH]7)C=C6)C=C5)cc3)C2)cc1
REMARK SMILES IDX 19 1 20 2 21 3 18 5 14 6 15 7 91 8 16 9 17 10 12 11 13 12
REMARK SMILES IDX 11 13 8 14 9 15 93 16 10 17 92 18 7 19 5 20 6 21 4 23 3 24
REMARK SMILES IDX 2 25 1 26 22 27 23 28 24 29 25 30 26 31 27 33 28 34 29 35
REMARK SMILES IDX 90 36 30 37 89 38 31 39 32 40 33 41 83 42 34 43 88 44 82 45
REMARK SMILES IDX 84 46 35 47 87 48 81 49 80 50 36 52 68 53 48 54 67 55 49 56
REMARK SMILES IDX 52 57 66 58 85 59 50 60 51 61 65 63 86 64 53 65 37 66 38 67
REMARK SMILES IDX 46 68 39 69 41 70 47 71 40 72 42 73 43 74 44 75 45 76 69 77
REMARK SMILES IDX 70 78 78 79 71 80 73 81 79 82 72 83 74 84 75 85 76 86 77 87
REMARK SMILES IDX 54 88 55 89 63 90 56 91 58 92 64 93 57 94 59 95 60 96 61 97
REMARK SMILES IDX 62 98
REMARK H PARENT 21 4 7 22 25 32 84 51 52 62
REMARK Flexibility Score: inf
ROOT
ATOM      1  C   UNL A   1      34.963  21.674  25.238  1.00  0.00     0.224 C 
ATOM      2  O   UNL A   1      33.856  21.285  24.848  1.00  0.00    -0.275 OA
ATOM      3  N   UNL A   1      36.046  20.988  24.792  1.00  0.00    -0.356 N 
ATOM      4  H   UNL A   1      35.851  20.128  24.352  1.00  0.00     0.163 HD
ENDROOT
BRANCH   1   5
ATOM      5  C   UNL A   1      35.048  22.875  26.188  1.00  0.00     0.098 C 
ATOM      6  N   UNL A   1      32.895  24.079  26.742  1.00  0.00    -0.338 N 
ATOM      7  C   UNL A   1      33.456  25.355  26.299  1.00  0.00     0.120 C 
ATOM      8  C   UNL A   1      33.852  23.043  27.134  1.00  0.00     0.133 C 
ATOM      9  C   UNL A   1      34.500  25.202  25.203  1.00  0.00     0.022 C 
ATOM     10  C   UNL A   1      35.563  24.164  25.539  1.00  0.00     0.017 C 
BRANCH   6  11
ATOM     11  C   UNL A   1      31.518  23.876  26.596  1.00  0.00     0.253 C 
ATOM     12  O   UNL A   1      30.927  23.029  27.269  1.00  0.00    -0.269 OA
BRANCH  11  13
ATOM     13  C   UNL A   1      30.749  24.547  25.499  1.00  0.00     0.040 A 
ATOM     14  C   UNL A   1      30.178  26.373  23.469  1.00  0.00     0.041 A 
ATOM     15  C   UNL A   1      30.840  25.196  23.144  1.00  0.00     0.027 A 
ATOM     16  C   UNL A   1      29.604  26.524  24.725  1.00  0.00     0.027 A 
ATOM     17  C   UNL A   1      31.145  24.293  24.172  1.00  0.00     0.016 A 
ATOM     18  C   UNL A   1      29.884  25.614  25.739  1.00  0.00     0.016 A 
BRANCH  14  19
ATOM     19  N   UNL A   1      30.123  27.435  22.566  1.00  0.00    -0.326 N 
ATOM     20  C   UNL A   1      30.948  28.540  22.592  1.00  0.00     0.224 C 
ATOM     21  O   UNL A   1      30.560  29.615  22.131  1.00  0.00    -0.275 OA
ATOM     22  H   UNL A   1      29.444  27.392  21.855  1.00  0.00     0.169 HD
BRANCH  20  23
ATOM     23  C   UNL A   1      32.414  28.327  22.991  1.00  0.00     0.100 C 
BRANCH  23  24
ATOM     24  C   UNL A   1      32.990  29.171  24.130  1.00  0.00     0.010 C 
BRANCH  24  25
ATOM     25  C   UNL A   1      32.055  29.601  25.276  1.00  0.00    -0.003 C 
ATOM     26  C   UNL A   1      31.922  28.653  26.459  1.00  0.00     0.004 C 
ENDBRANCH  24  25
ENDBRANCH  23  24
ENDBRANCH  20  23
ENDBRANCH  14  19
ENDBRANCH  11  13
ENDBRANCH   6  11
ENDBRANCH   1   5
BRANCH   3  27
ATOM     27  C   UNL A   1      37.442  21.338  24.869  1.00  0.00     0.117 C 
BRANCH  27  28
ATOM     28  C   UNL A   1      38.390  20.160  24.934  1.00  0.00     0.042 C 
BRANCH  28  29
ATOM     29  C   UNL A   1      39.450  20.318  26.002  1.00  0.00     0.118 C 
BRANCH  29  30
ATOM     30  N   UNL A   1      40.439  19.241  25.998  1.00  0.00    -0.352 N 
ATOM     31  C   UNL A   1      41.804  19.287  26.155  1.00  0.00     0.251 C 
ATOM     32  H   UNL A   1      40.068  18.339  25.861  1.00  0.00     0.163 HD
ATOM     33  O   UNL A   1      42.465  18.256  26.053  1.00  0.00    -0.269 OA
BRANCH  31  34
ATOM     34  C   UNL A   1      42.479  20.579  26.399  1.00  0.00     0.039 A 
ATOM     35  C   UNL A   1      42.857  21.363  25.307  1.00  0.00     0.014 A 
ATOM     36  C   UNL A   1      42.695  21.039  27.698  1.00  0.00     0.014 A 
ATOM     37  C   UNL A   1      43.379  22.641  25.522  1.00  0.00     0.010 A 
ATOM     38  C   UNL A   1      43.085  22.353  27.905  1.00  0.00     0.010 A 
ATOM     39  C   UNL A   1      43.454  23.162  26.822  1.00  0.00    -0.014 A 
BRANCH  39  40
ATOM     40  C   UNL A   1      43.942  24.538  27.092  1.00  0.00     0.031 A 
ATOM     41  C   UNL A   1      42.988  25.571  27.635  1.00  0.00     0.074 A 
ATOM     42  C   UNL A   1      45.199  24.885  26.753  1.00  0.00     0.049 A 
ATOM     43  N   UNL A   1      43.183  26.846  27.842  1.00  0.00    -0.248 NA
ATOM     44  C   UNL A   1      41.619  25.121  27.943  1.00  0.00     0.031 C 
ATOM     45  C   UNL A   1      46.187  24.000  26.129  1.00  0.00     0.029 A 
ATOM     46  N   UNL A   1      45.856  26.084  26.862  1.00  0.00    -0.354 N 
ATOM     47  C   UNL A   1      41.955  27.356  28.247  1.00  0.00     0.074 A 
ATOM     48  C   UNL A   1      41.009  26.265  28.207  1.00  0.00     0.031 C 
ATOM     49  C   UNL A   1      47.327  24.680  25.931  1.00  0.00     0.029 A 
ATOM     50  C   UNL A   1      47.144  26.055  26.383  1.00  0.00     0.049 A 
ATOM     51  H   UNL A   1      45.442  26.891  27.248  1.00  0.00     0.167 HD
ATOM     52  C   UNL A   1      41.648  28.608  28.660  1.00  0.00     0.034 A 
ATOM     53  C   UNL A   1      48.075  27.028  26.322  1.00  0.00     0.034 A 
ATOM     54  C   UNL A   1      42.613  29.665  28.776  1.00  0.00     0.049 A 
ATOM     55  C   UNL A   1      47.735  28.390  26.865  1.00  0.00     0.074 A 
ATOM     56  C   UNL A   1      42.438  30.941  29.281  1.00  0.00     0.029 A 
ATOM     57  N   UNL A   1      43.941  29.565  28.388  1.00  0.00    -0.354 N 
ATOM     58  N   UNL A   1      46.610  28.811  27.391  1.00  0.00    -0.248 NA
ATOM     59  C   UNL A   1      48.801  29.400  26.841  1.00  0.00     0.031 C 
ATOM     60  C   UNL A   1      43.659  31.615  29.190  1.00  0.00     0.029 A 
ATOM     61  C   UNL A   1      44.599  30.754  28.643  1.00  0.00     0.049 A 
ATOM     62  H   UNL A   1      44.354  28.765  27.990  1.00  0.00     0.167 HD
ATOM     63  C   UNL A   1      46.843  30.120  27.794  1.00  0.00     0.074 A 
ATOM     64  C   UNL A   1      48.224  30.416  27.469  1.00  0.00     0.031 C 
ATOM     65  C   UNL A   1      45.989  31.005  28.366  1.00  0.00     0.034 A 
BRANCH  52  66
ATOM     66  C   UNL A   1      40.227  28.871  29.088  1.00  0.00     0.023 A 
ATOM     67  C   UNL A   1      39.243  29.122  28.110  1.00  0.00     0.012 A 
ATOM     68  C   UNL A   1      39.858  28.844  30.447  1.00  0.00     0.148 A 
ATOM     69  C   UNL A   1      37.925  29.387  28.476  1.00  0.00     0.002 A 
ATOM     70  C   UNL A   1      38.531  29.062  30.802  1.00  0.00     0.091 A 
ATOM     71  F   UNL A   1      40.810  28.629  31.366  1.00  0.00    -0.205 F 
ATOM     72  C   UNL A   1      37.567  29.346  29.820  1.00  0.00     0.022 A 
BRANCH  70  73
ATOM     73  S   UNL A   1      37.954  28.952  32.500  1.00  0.00     0.127 S 
ATOM     74  O   UNL A   1      38.102  27.523  32.771  1.00  0.00    -0.237 OA
ATOM     75  O   UNL A   1      38.909  29.808  33.206  1.00  0.00    -0.237 OA
ATOM     76  O   UNL A   1      36.587  29.452  32.490  1.00  0.00    -0.744 OA
ENDBRANCH  70  73
ENDBRANCH  52  66
BRANCH  53  77
ATOM     77  C   UNL A   1      49.443  26.720  25.816  1.00  0.00     0.023 A 
ATOM     78  C   UNL A   1      50.319  25.969  26.626  1.00  0.00     0.012 A 
ATOM     79  C   UNL A   1      49.870  27.124  24.537  1.00  0.00     0.148 A 
ATOM     80  C   UNL A   1      51.604  25.654  26.186  1.00  0.00     0.002 A 
ATOM     81  C   UNL A   1      51.133  26.761  24.082  1.00  0.00     0.091 A 
ATOM     82  F   UNL A   1      49.027  27.844  23.784  1.00  0.00    -0.205 F 
ATOM     83  C   UNL A   1      52.008  26.040  24.911  1.00  0.00     0.022 A 
BRANCH  81  84
ATOM     84  S   UNL A   1      51.691  27.102  22.408  1.00  0.00     0.127 S 
ATOM     85  O   UNL A   1      51.971  28.534  22.472  1.00  0.00    -0.237 OA
ATOM     86  O   UNL A   1      52.873  26.247  22.301  1.00  0.00    -0.237 OA
ATOM     87  O   UNL A   1      50.588  26.709  21.541  1.00  0.00    -0.744 OA
ENDBRANCH  81  84
ENDBRANCH  53  77
BRANCH  65  88
ATOM     88  C   UNL A   1      46.527  32.368  28.711  1.00  0.00     0.023 A 
ATOM     89  C   UNL A   1      47.135  32.582  29.963  1.00  0.00     0.012 A 
ATOM     90  C   UNL A   1      46.506  33.409  27.763  1.00  0.00     0.148 A 
ATOM     91  C   UNL A   1      47.688  33.822  30.277  1.00  0.00     0.002 A 
ATOM     92  C   UNL A   1      47.102  34.627  28.065  1.00  0.00     0.091 A 
ATOM     93  F   UNL A   1      45.905  33.189  26.584  1.00  0.00    -0.205 F 
ATOM     94  C   UNL A   1      47.683  34.838  29.326  1.00  0.00     0.022 A 
BRANCH  92  95
ATOM     95  S   UNL A   1      47.228  35.957  26.865  1.00  0.00     0.127 S 
ATOM     96  O   UNL A   1      45.823  36.245  26.589  1.00  0.00    -0.237 OA
ATOM     97  O   UNL A   1      47.926  36.996  27.623  1.00  0.00    -0.237 OA
ATOM     98  O   UNL A   1      47.990  35.415  25.747  1.00  0.00    -0.744 OA
ENDBRANCH  92  95
ENDBRANCH  65  88
ENDBRANCH  39  40
ENDBRANCH  31  34
ENDBRANCH  29  30
ENDBRANCH  28  29
ENDBRANCH  27  28
ENDBRANCH   3  27
TORSDOF 19
ENDMDL
MODEL 2
REMARK VINA RESULT:     -11.6      2.239      7.843
REMARK SMILES CCCCC(=O)Nc1ccc(C(=O)N2CCC[C@H](C(=O)NCCCNC(=O)c3ccc(-c4c5nc(c(-c6cccc(S(=O)(=O)[O-])c6F)c6ccc([nH]6)c(-c6cccc(S(=O)(=O)[O-])c6F)c6nc(c(-c7cccc(S(=O)(=O)[O-])c7F)c7ccc4[nH]7)C=C6)C=C5)cc3)C2)cc1
REMARK SMILES IDX 19 1 20 2 21 3 18 5 14 6 15 7 91 8 16 9 17 10 12 11 13 12
REMARK SMILES IDX 11 13 8 14 9 15 93 16 10 17 92 18 7 19 5 20 6 21 4 23 3 24
REMARK SMILES IDX 2 25 1 26 22 27 23 28 24 29 25 30 26 31 27 33 28 34 29 35
REMARK SMILES IDX 90 36 30 37 89 38 31 39 32 40 33 41 83 42 34 43 88 44 82 45
REMARK SMILES IDX 84 46 35 47 87 48 81 49 80 50 36 52 68 53 48 54 67 55 49 56
REMARK SMILES IDX 52 57 66 58 85 59 50 60 51 61 65 63 86 64 53 65 37 66 38 67
REMARK SMILES IDX 46 68 39 69 41 70 47 71 40 72 42 73 43 74 44 75 45 76 69 77
REMARK SMILES IDX 70 78 78 79 71 80 73 81 79 82 72 83 74 84 75 85 76 86 77 87
REMARK SMILES IDX 54 88 55 89 63 90 56 91 58 92 64 93 57 94 59 95 60 96 61 97
REMARK SMILES IDX 62 98
REMARK H PARENT 21 4 7 22 25 32 84 51 52 62
REMARK Flexibility Score: inf
ROOT
ATOM      1  C   UNL A   1      35.106  22.580  26.182  1.00  0.00     0.224 C 
ATOM      2  O   UNL A   1      34.485  22.886  27.207  1.00  0.00    -0.275 OA
ATOM      3  N   UNL A   1      35.727  21.372  26.181  1.00  0.00    -0.356 N 
ATOM      4  H   UNL A   1      35.792  20.929  27.058  1.00  0.00     0.163 HD
ENDROOT
BRANCH   1   5
ATOM      5  C   UNL A   1      35.145  23.559  25.003  1.00  0.00     0.098 C 
ATOM      6  N   UNL A   1      33.242  25.209  24.792  1.00  0.00    -0.338 N 
ATOM      7  C   UNL A   1      32.961  24.762  23.429  1.00  0.00     0.120 C 
ATOM      8  C   UNL A   1      34.592  24.958  25.300  1.00  0.00     0.133 C 
ATOM      9  C   UNL A   1      33.319  23.302  23.192  1.00  0.00     0.022 C 
ATOM     10  C   UNL A   1      34.726  22.953  23.659  1.00  0.00     0.017 C 
BRANCH   6  11
ATOM     11  C   UNL A   1      32.174  25.675  25.568  1.00  0.00     0.253 C 
ATOM     12  O   UNL A   1      31.847  25.099  26.607  1.00  0.00    -0.269 OA
BRANCH  11  13
ATOM     13  C   UNL A   1      31.282  26.774  25.077  1.00  0.00     0.040 A 
ATOM     14  C   UNL A   1      30.074  28.530  23.276  1.00  0.00     0.041 A 
ATOM     15  C   UNL A   1      29.483  27.294  23.506  1.00  0.00     0.027 A 
ATOM     16  C   UNL A   1      31.103  28.973  24.100  1.00  0.00     0.027 A 
ATOM     17  C   UNL A   1      30.106  26.407  24.394  1.00  0.00     0.016 A 
ATOM     18  C   UNL A   1      31.705  28.100  25.000  1.00  0.00     0.016 A 
BRANCH  14  19
ATOM     19  N   UNL A   1      29.686  29.318  22.193  1.00  0.00    -0.326 N 
ATOM     20  C   UNL A   1      28.410  29.793  21.976  1.00  0.00     0.224 C 
ATOM     21  O   UNL A   1      28.023  30.032  20.831  1.00  0.00    -0.275 OA
ATOM     22  H   UNL A   1      30.377  29.554  21.532  1.00  0.00     0.169 HD
BRANCH  20  23
ATOM     23  C   UNL A   1      27.592  30.227  23.200  1.00  0.00     0.100 C 
BRANCH  23  24
ATOM     24  C   UNL A   1      27.853  31.610  23.798  1.00  0.00     0.010 C 
BRANCH  24  25
ATOM     25  C   UNL A   1      28.268  32.757  22.856  1.00  0.00    -0.003 C 
ATOM     26  C   UNL A   1      29.391  33.671  23.325  1.00  0.00     0.004 C 
ENDBRANCH  24  25
ENDBRANCH  23  24
ENDBRANCH  20  23
ENDBRANCH  14  19
ENDBRANCH  11  13
ENDBRANCH   6  11
ENDBRANCH   1   5
BRANCH   3  27
ATOM     27  C   UNL A   1      36.306  20.647  25.078  1.00  0.00     0.117 C 
BRANCH  27  28
ATOM     28  C   UNL A   1      37.736  21.023  24.752  1.00  0.00     0.042 C 
BRANCH  28  29
ATOM     29  C   UNL A   1      38.597  21.180  25.986  1.00  0.00     0.118 C 
BRANCH  29  30
ATOM     30  N   UNL A   1      39.669  20.190  26.074  1.00  0.00    -0.352 N 
ATOM     31  C   UNL A   1      40.999  20.343  26.384  1.00  0.00     0.251 C 
ATOM     32  H   UNL A   1      39.393  19.264  25.879  1.00  0.00     0.163 HD
ATOM     33  O   UNL A   1      41.752  19.373  26.338  1.00  0.00    -0.269 OA
BRANCH  31  34
ATOM     34  C   UNL A   1      41.530  21.679  26.726  1.00  0.00     0.039 A 
ATOM     35  C   UNL A   1      41.856  22.564  25.695  1.00  0.00     0.014 A 
ATOM     36  C   UNL A   1      41.663  22.077  28.056  1.00  0.00     0.014 A 
ATOM     37  C   UNL A   1      42.237  23.872  26.002  1.00  0.00     0.010 A 
ATOM     38  C   UNL A   1      41.909  23.409  28.353  1.00  0.00     0.010 A 
ATOM     39  C   UNL A   1      42.223  24.317  27.333  1.00  0.00    -0.014 A 
BRANCH  39  40
ATOM     40  C   UNL A   1      42.559  25.716  27.700  1.00  0.00     0.031 A 
ATOM     41  C   UNL A   1      43.982  26.195  27.576  1.00  0.00     0.074 A 
ATOM     42  C   UNL A   1      41.617  26.515  28.239  1.00  0.00     0.049 A 
ATOM     43  N   UNL A   1      44.503  27.337  27.938  1.00  0.00    -0.248 NA
ATOM     44  C   UNL A   1      44.961  25.246  27.015  1.00  0.00     0.031 C 
ATOM     45  C   UNL A   1      40.226  26.133  28.499  1.00  0.00     0.029 A 
ATOM     46  N   UNL A   1      41.692  27.808  28.688  1.00  0.00    -0.354 N 
ATOM     47  C   UNL A   1      45.867  27.223  27.701  1.00  0.00     0.074 A 
ATOM     48  C   UNL A   1      46.103  25.883  27.214  1.00  0.00     0.031 C 
ATOM     49  C   UNL A   1      39.577  27.175  29.042  1.00  0.00     0.029 A 
ATOM     50  C   UNL A   1      40.508  28.287  29.198  1.00  0.00     0.049 A 
ATOM     51  H   UNL A   1      42.518  28.344  28.650  1.00  0.00     0.167 HD
ATOM     52  C   UNL A   1      46.835  28.160  27.831  1.00  0.00     0.034 A 
ATOM     53  C   UNL A   1      40.209  29.490  29.726  1.00  0.00     0.034 A 
ATOM     54  C   UNL A   1      46.580  29.514  28.236  1.00  0.00     0.049 A 
ATOM     55  C   UNL A   1      41.282  30.544  29.783  1.00  0.00     0.074 A 
ATOM     56  C   UNL A   1      47.464  30.575  28.303  1.00  0.00     0.029 A 
ATOM     57  N   UNL A   1      45.342  29.996  28.637  1.00  0.00    -0.354 N 
ATOM     58  N   UNL A   1      42.536  30.465  29.406  1.00  0.00    -0.248 NA
ATOM     59  C   UNL A   1      40.893  31.862  30.301  1.00  0.00     0.031 C 
ATOM     60  C   UNL A   1      46.762  31.698  28.752  1.00  0.00     0.029 A 
ATOM     61  C   UNL A   1      45.437  31.340  28.950  1.00  0.00     0.049 A 
ATOM     62  H   UNL A   1      44.518  29.460  28.690  1.00  0.00     0.167 HD
ATOM     63  C   UNL A   1      43.075  31.729  29.606  1.00  0.00     0.074 A 
ATOM     64  C   UNL A   1      42.005  32.561  30.120  1.00  0.00     0.031 C 
ATOM     65  C   UNL A   1      44.344  32.162  29.402  1.00  0.00     0.034 A 
BRANCH  52  66
ATOM     66  C   UNL A   1      48.241  27.767  27.457  1.00  0.00     0.023 A 
ATOM     67  C   UNL A   1      49.118  27.293  28.454  1.00  0.00     0.012 A 
ATOM     68  C   UNL A   1      48.688  27.838  26.123  1.00  0.00     0.148 A 
ATOM     69  C   UNL A   1      50.429  26.940  28.142  1.00  0.00     0.002 A 
ATOM     70  C   UNL A   1      49.982  27.438  25.811  1.00  0.00     0.091 A 
ATOM     71  F   UNL A   1      47.850  28.313  25.191  1.00  0.00    -0.205 F 
ATOM     72  C   UNL A   1      50.857  27.002  26.819  1.00  0.00     0.022 A 
BRANCH  70  73
ATOM     73  S   UNL A   1      50.603  27.405  24.125  1.00  0.00     0.127 S 
ATOM     74  O   UNL A   1      51.799  26.574  24.267  1.00  0.00    -0.237 OA
ATOM     75  O   UNL A   1      49.501  26.769  23.402  1.00  0.00    -0.237 OA
ATOM     76  O   UNL A   1      50.843  28.794  23.761  1.00  0.00    -0.744 OA
ENDBRANCH  70  73
ENDBRANCH  52  66
BRANCH  53  77
ATOM     77  C   UNL A   1      38.811  29.791  30.148  1.00  0.00     0.023 A 
ATOM     78  C   UNL A   1      38.392  29.425  31.443  1.00  0.00     0.012 A 
ATOM     79  C   UNL A   1      37.910  30.467  29.302  1.00  0.00     0.148 A 
ATOM     80  C   UNL A   1      37.095  29.697  31.877  1.00  0.00     0.002 A 
ATOM     81  C   UNL A   1      36.635  30.781  29.760  1.00  0.00     0.091 A 
ATOM     82  F   UNL A   1      38.322  30.799  28.071  1.00  0.00    -0.205 F 
ATOM     83  C   UNL A   1      36.220  30.383  31.040  1.00  0.00     0.022 A 
BRANCH  81  84
ATOM     84  S   UNL A   1      35.484  31.775  28.802  1.00  0.00     0.127 S 
ATOM     85  O   UNL A   1      34.496  32.145  29.811  1.00  0.00    -0.237 OA
ATOM     86  O   UNL A   1      36.337  32.871  28.342  1.00  0.00    -0.237 OA
ATOM     87  O   UNL A   1      35.006  30.902  27.737  1.00  0.00    -0.744 OA
ENDBRANCH  81  84
ENDBRANCH  53  77
BRANCH  65  88
ATOM     88  C   UNL A   1      44.644  33.606  29.698  1.00  0.00     0.023 A 
ATOM     89  C   UNL A   1      45.189  33.964  30.946  1.00  0.00     0.012 A 
ATOM     90  C   UNL A   1      44.467  34.594  28.709  1.00  0.00     0.148 A 
ATOM     91  C   UNL A   1      45.525  35.290  31.217  1.00  0.00     0.002 A 
ATOM     92  C   UNL A   1      44.849  35.904  28.969  1.00  0.00     0.091 A 
ATOM     93  F   UNL A   1      43.930  34.234  27.534  1.00  0.00    -0.205 F 
ATOM     94  C   UNL A   1      45.367  36.255  30.226  1.00  0.00     0.022 A 
BRANCH  92  95
ATOM     95  S   UNL A   1      44.774  37.191  27.719  1.00  0.00     0.127 S 
ATOM     96  O   UNL A   1      44.812  38.402  28.535  1.00  0.00    -0.237 OA
ATOM     97  O   UNL A   1      45.988  36.942  26.940  1.00  0.00    -0.237 OA
ATOM     98  O   UNL A   1      43.534  36.965  26.988  1.00  0.00    -0.744 OA
ENDBRANCH  92  95
ENDBRANCH  65  88
ENDBRANCH  39  40
ENDBRANCH  31  34
ENDBRANCH  29  30
ENDBRANCH  28  29
ENDBRANCH  27  28
ENDBRANCH   3  27
TORSDOF 19
ENDMDL
MODEL 3
REMARK VINA RESULT:     -11.5      5.422      9.135
REMARK SMILES CCCCC(=O)Nc1ccc(C(=O)N2CCC[C@H](C(=O)NCCCNC(=O)c3ccc(-c4c5nc(c(-c6cccc(S(=O)(=O)[O-])c6F)c6ccc([nH]6)c(-c6cccc(S(=O)(=O)[O-])c6F)c6nc(c(-c7cccc(S(=O)(=O)[O-])c7F)c7ccc4[nH]7)C=C6)C=C5)cc3)C2)cc1
REMARK SMILES IDX 19 1 20 2 21 3 18 5 14 6 15 7 91 8 16 9 17 10 12 11 13 12
REMARK SMILES IDX 11 13 8 14 9 15 93 16 10 17 92 18 7 19 5 20 6 21 4 23 3 24
REMARK SMILES IDX 2 25 1 26 22 27 23 28 24 29 25 30 26 31 27 33 28 34 29 35
REMARK SMILES IDX 90 36 30 37 89 38 31 39 32 40 33 41 83 42 34 43 88 44 82 45
REMARK SMILES IDX 84 46 35 47 87 48 81 49 80 50 36 52 68 53 48 54 67 55 49 56
REMARK SMILES IDX 52 57 66 58 85 59 50 60 51 61 65 63 86 64 53 65 37 66 38 67
REMARK SMILES IDX 46 68 39 69 41 70 47 71 40 72 42 73 43 74 44 75 45 76 69 77
REMARK SMILES IDX 70 78 78 79 71 80 73 81 79 82 72 83 74 84 75 85 76 86 77 87
REMARK SMILES IDX 54 88 55 89 63 90 56 91 58 92 64 93 57 94 59 95 60 96 61 97
REMARK SMILES IDX 62 98
REMARK H PARENT 21 4 7 22 25 32 84 51 52 62
REMARK Flexibility Score: inf
ROOT
ATOM      1  C   UNL A   1      30.024  26.023  25.658  1.00  0.00     0.224 C 
ATOM      2  O   UNL A   1      29.409  25.111  26.222  1.00  0.00    -0.275 OA
ATOM      3  N   UNL A   1      30.978  26.659  26.384  1.00  0.00    -0.356 N 
ATOM      4  H   UNL A   1      30.970  26.471  27.351  1.00  0.00     0.163 HD
ENDROOT
BRANCH   1   5
ATOM      5  C   UNL A   1      29.676  26.382  24.209  1.00  0.00     0.098 C 
ATOM      6  N   UNL A   1      31.592  26.673  22.586  1.00  0.00    -0.338 N 
ATOM      7  C   UNL A   1      31.131  28.014  22.230  1.00  0.00     0.120 C 
ATOM      8  C   UNL A   1      30.593  25.762  23.147  1.00  0.00     0.133 C 
ATOM      9  C   UNL A   1      30.398  28.716  23.363  1.00  0.00     0.022 C 
ATOM     10  C   UNL A   1      29.309  27.854  23.988  1.00  0.00     0.017 C 
BRANCH   6  11
ATOM     11  C   UNL A   1      32.967  26.413  22.537  1.00  0.00     0.253 C 
ATOM     12  O   UNL A   1      33.717  27.099  21.841  1.00  0.00    -0.269 OA
BRANCH  11  13
ATOM     13  C   UNL A   1      33.547  25.191  23.180  1.00  0.00     0.040 A 
ATOM     14  C   UNL A   1      35.482  23.357  23.999  1.00  0.00     0.041 A 
ATOM     15  C   UNL A   1      35.175  24.422  24.834  1.00  0.00     0.027 A 
ATOM     16  C   UNL A   1      34.679  23.079  22.900  1.00  0.00     0.027 A 
ATOM     17  C   UNL A   1      34.218  25.354  24.408  1.00  0.00     0.016 A 
ATOM     18  C   UNL A   1      33.710  23.991  22.491  1.00  0.00     0.016 A 
BRANCH  14  19
ATOM     19  N   UNL A   1      36.624  22.584  24.216  1.00  0.00    -0.326 N 
ATOM     20  C   UNL A   1      36.689  21.480  25.039  1.00  0.00     0.224 C 
ATOM     21  O   UNL A   1      37.756  21.160  25.566  1.00  0.00    -0.275 OA
ATOM     22  H   UNL A   1      37.448  22.848  23.745  1.00  0.00     0.169 HD
BRANCH  20  23
ATOM     23  C   UNL A   1      35.468  20.551  25.084  1.00  0.00     0.100 C 
BRANCH  23  24
ATOM     24  C   UNL A   1      34.257  20.978  25.916  1.00  0.00     0.010 C 
BRANCH  24  25
ATOM     25  C   UNL A   1      32.874  21.020  25.239  1.00  0.00    -0.003 C 
ATOM     26  C   UNL A   1      31.987  22.219  25.543  1.00  0.00     0.004 C 
ENDBRANCH  24  25
ENDBRANCH  23  24
ENDBRANCH  20  23
ENDBRANCH  14  19
ENDBRANCH  11  13
ENDBRANCH   6  11
ENDBRANCH   1   5
BRANCH   3  27
ATOM     27  C   UNL A   1      32.003  27.571  25.942  1.00  0.00     0.117 C 
BRANCH  27  28
ATOM     28  C   UNL A   1      32.062  28.878  26.703  1.00  0.00     0.042 C 
BRANCH  28  29
ATOM     29  C   UNL A   1      32.874  29.936  25.989  1.00  0.00     0.118 C 
BRANCH  29  30
ATOM     30  N   UNL A   1      32.662  31.283  26.518  1.00  0.00    -0.352 N 
ATOM     31  C   UNL A   1      33.416  32.021  27.399  1.00  0.00     0.251 C 
ATOM     32  H   UNL A   1      31.848  31.732  26.192  1.00  0.00     0.163 HD
ATOM     33  O   UNL A   1      33.019  33.124  27.766  1.00  0.00    -0.269 OA
BRANCH  31  34
ATOM     34  C   UNL A   1      34.677  31.470  27.937  1.00  0.00     0.039 A 
ATOM     35  C   UNL A   1      35.794  32.303  28.034  1.00  0.00     0.014 A 
ATOM     36  C   UNL A   1      34.747  30.152  28.389  1.00  0.00     0.014 A 
ATOM     37  C   UNL A   1      36.953  31.834  28.658  1.00  0.00     0.010 A 
ATOM     38  C   UNL A   1      35.846  29.736  29.125  1.00  0.00     0.010 A 
ATOM     39  C   UNL A   1      36.971  30.562  29.248  1.00  0.00    -0.014 A 
BRANCH  39  40
ATOM     40  C   UNL A   1      38.159  30.048  29.976  1.00  0.00     0.031 A 
ATOM     41  C   UNL A   1      38.443  30.538  31.373  1.00  0.00     0.074 A 
ATOM     42  C   UNL A   1      39.030  29.232  29.351  1.00  0.00     0.049 A 
ATOM     43  N   UNL A   1      39.474  30.296  32.138  1.00  0.00    -0.248 NA
ATOM     44  C   UNL A   1      37.461  31.461  31.971  1.00  0.00     0.031 C 
ATOM     45  C   UNL A   1      38.915  28.765  27.966  1.00  0.00     0.029 A 
ATOM     46  N   UNL A   1      40.201  28.669  29.791  1.00  0.00    -0.354 N 
ATOM     47  C   UNL A   1      39.292  31.075  33.275  1.00  0.00     0.074 A 
ATOM     48  C   UNL A   1      38.080  31.836  33.078  1.00  0.00     0.031 C 
ATOM     49  C   UNL A   1      39.959  27.973  27.680  1.00  0.00     0.029 A 
ATOM     50  C   UNL A   1      40.834  27.898  28.845  1.00  0.00     0.049 A 
ATOM     51  H   UNL A   1      40.555  28.805  30.700  1.00  0.00     0.167 HD
ATOM     52  C   UNL A   1      40.038  31.121  34.403  1.00  0.00     0.034 A 
ATOM     53  C   UNL A   1      41.988  27.205  28.914  1.00  0.00     0.034 A 
ATOM     54  C   UNL A   1      41.195  30.300  34.624  1.00  0.00     0.049 A 
ATOM     55  C   UNL A   1      42.757  27.205  30.208  1.00  0.00     0.074 A 
ATOM     56  C   UNL A   1      41.966  30.186  35.766  1.00  0.00     0.029 A 
ATOM     57  N   UNL A   1      41.743  29.442  33.682  1.00  0.00    -0.354 N 
ATOM     58  N   UNL A   1      42.483  27.827  31.330  1.00  0.00    -0.248 NA
ATOM     59  C   UNL A   1      43.971  26.381  30.260  1.00  0.00     0.031 C 
ATOM     60  C   UNL A   1      42.987  29.264  35.511  1.00  0.00     0.029 A 
ATOM     61  C   UNL A   1      42.841  28.792  34.215  1.00  0.00     0.049 A 
ATOM     62  H   UNL A   1      41.400  29.314  32.768  1.00  0.00     0.167 HD
ATOM     63  C   UNL A   1      43.468  27.441  32.230  1.00  0.00     0.074 A 
ATOM     64  C   UNL A   1      44.334  26.515  31.528  1.00  0.00     0.031 C 
ATOM     65  C   UNL A   1      43.652  27.829  33.517  1.00  0.00     0.034 A 
BRANCH  52  66
ATOM     66  C   UNL A   1      39.576  32.036  35.508  1.00  0.00     0.023 A 
ATOM     67  C   UNL A   1      38.692  31.546  36.491  1.00  0.00     0.012 A 
ATOM     68  C   UNL A   1      40.033  33.365  35.593  1.00  0.00     0.148 A 
ATOM     69  C   UNL A   1      38.233  32.373  37.514  1.00  0.00     0.002 A 
ATOM     70  C   UNL A   1      39.609  34.171  36.643  1.00  0.00     0.091 A 
ATOM     71  F   UNL A   1      40.854  33.824  34.637  1.00  0.00    -0.205 F 
ATOM     72  C   UNL A   1      38.699  33.681  37.596  1.00  0.00     0.022 A 
BRANCH  70  73
ATOM     73  S   UNL A   1      40.213  35.846  36.883  1.00  0.00     0.127 S 
ATOM     74  O   UNL A   1      39.570  36.215  38.143  1.00  0.00    -0.237 OA
ATOM     75  O   UNL A   1      41.660  35.642  36.974  1.00  0.00    -0.237 OA
ATOM     76  O   UNL A   1      39.781  36.598  35.713  1.00  0.00    -0.744 OA
ENDBRANCH  70  73
ENDBRANCH  52  66
BRANCH  53  77
ATOM     77  C   UNL A   1      42.429  26.377  27.756  1.00  0.00     0.023 A 
ATOM     78  C   UNL A   1      43.135  26.992  26.702  1.00  0.00     0.012 A 
ATOM     79  C   UNL A   1      42.194  24.989  27.704  1.00  0.00     0.148 A 
ATOM     80  C   UNL A   1      43.571  26.249  25.605  1.00  0.00     0.002 A 
ATOM     81  C   UNL A   1      42.678  24.245  26.633  1.00  0.00     0.091 A 
ATOM     82  F   UNL A   1      41.514  24.422  28.710  1.00  0.00    -0.205 F 
ATOM     83  C   UNL A   1      43.352  24.875  25.575  1.00  0.00     0.022 A 
BRANCH  81  84
ATOM     84  S   UNL A   1      42.557  22.453  26.570  1.00  0.00     0.127 S 
ATOM     85  O   UNL A   1      43.739  22.100  25.790  1.00  0.00    -0.237 OA
ATOM     86  O   UNL A   1      42.622  22.093  27.986  1.00  0.00    -0.237 OA
ATOM     87  O   UNL A   1      41.274  22.170  25.940  1.00  0.00    -0.744 OA
ENDBRANCH  81  84
ENDBRANCH  53  77
BRANCH  65  88
ATOM     88  C   UNL A   1      44.812  27.231  34.265  1.00  0.00     0.023 A 
ATOM     89  C   UNL A   1      46.062  27.880  34.252  1.00  0.00     0.012 A 
ATOM     90  C   UNL A   1      44.640  26.074  35.051  1.00  0.00     0.148 A 
ATOM     91  C   UNL A   1      47.131  27.370  34.985  1.00  0.00     0.002 A 
ATOM     92  C   UNL A   1      45.697  25.599  35.816  1.00  0.00     0.091 A 
ATOM     93  F   UNL A   1      43.447  25.461  35.034  1.00  0.00    -0.205 F 
ATOM     94  C   UNL A   1      46.946  26.239  35.776  1.00  0.00     0.022 A 
BRANCH  92  95
ATOM     95  S   UNL A   1      45.519  24.208  36.939  1.00  0.00     0.127 S 
ATOM     96  O   UNL A   1      44.568  24.733  37.916  1.00  0.00    -0.237 OA
ATOM     97  O   UNL A   1      44.982  23.166  36.063  1.00  0.00    -0.237 OA
ATOM     98  O   UNL A   1      46.857  23.934  37.449  1.00  0.00    -0.744 OA
ENDBRANCH  92  95
ENDBRANCH  65  88
ENDBRANCH  39  40
ENDBRANCH  31  34
ENDBRANCH  29  30
ENDBRANCH  28  29
ENDBRANCH  27  28
ENDBRANCH   3  27
TORSDOF 19
ENDMDL
