MODEL 1
REMARK VINA RESULT:     -12.1      0.000      0.000
REMARK SMILES CC(C)c1ccc(C(=O)N2CCC[C@@H](C(=O)NCCCNC(=O)c3ccc(-c4c5nc(c(-c6cccc(S(=O)(=O)[O-])c6F)c6ccc([nH]6)c(-c6cccc(S(=O)(=O)[O-])c6F)c6nc(c(-c7cccc(S(=O)(=O)[O-])c7F)c7ccc4[nH]7)C=C6)C=C5)cc3)C2)cc1
REMARK SMILES IDX 19 1 18 2 17 3 15 4 16 5 14 7 10 8 11 9 87 10 12 11 13 12
REMARK SMILES IDX 8 13 9 14 7 15 4 16 5 17 89 18 6 19 88 20 2 21 1 22 3 23
REMARK SMILES IDX 20 24 21 25 22 26 23 28 24 29 25 30 86 31 26 32 85 33 27 34
REMARK SMILES IDX 28 35 29 36 79 37 30 38 84 39 78 40 80 41 31 42 83 43 77 44
REMARK SMILES IDX 76 45 32 47 64 48 44 49 63 50 45 51 48 52 62 53 81 54 46 55
REMARK SMILES IDX 47 56 61 58 82 59 49 60 33 61 34 62 42 63 35 64 37 65 43 66
REMARK SMILES IDX 36 67 38 68 39 69 40 70 41 71 65 72 66 73 74 74 67 75 69 76
REMARK SMILES IDX 75 77 68 78 70 79 71 80 72 81 73 82 50 83 51 84 59 85 52 86
REMARK SMILES IDX 54 87 60 88 53 89 55 90 56 91 57 92 58 93
REMARK H PARENT 17 6 21 27 80 46 48 57
REMARK Flexibility Score: inf
ROOT
ATOM      1  C   UNL A   1      31.452  32.341  26.742  1.00  0.00     0.042 C 
ENDROOT
BRANCH   1   2
ATOM      2  C   UNL A   1      31.539  30.827  26.559  1.00  0.00     0.117 C 
BRANCH   2   3
ATOM      3  N   UNL A   1      32.747  30.270  27.138  1.00  0.00    -0.356 N 
ATOM      4  C   UNL A   1      33.417  29.102  26.998  1.00  0.00     0.224 C 
ATOM      5  O   UNL A   1      34.431  28.998  27.702  1.00  0.00    -0.275 OA
ATOM      6  H   UNL A   1      33.177  30.879  27.781  1.00  0.00     0.163 HD
BRANCH   4   7
ATOM      7  C   UNL A   1      33.055  27.957  26.043  1.00  0.00     0.098 C 
ATOM      8  N   UNL A   1      33.729  27.122  23.771  1.00  0.00    -0.338 N 
ATOM      9  C   UNL A   1      33.921  25.770  24.248  1.00  0.00     0.120 C 
ATOM     10  C   UNL A   1      33.848  28.209  24.740  1.00  0.00     0.133 C 
ATOM     11  C   UNL A   1      32.996  25.488  25.412  1.00  0.00     0.022 C 
ATOM     12  C   UNL A   1      33.217  26.512  26.520  1.00  0.00     0.017 C 
BRANCH   8  13
ATOM     13  C   UNL A   1      33.159  27.305  22.524  1.00  0.00     0.253 C 
ATOM     14  O   UNL A   1      33.817  27.261  21.488  1.00  0.00    -0.269 OA
BRANCH  13  15
ATOM     15  C   UNL A   1      31.740  27.779  22.511  1.00  0.00     0.040 A 
ATOM     16  C   UNL A   1      29.130  28.853  22.687  1.00  0.00    -0.045 A 
ATOM     17  C   UNL A   1      30.183  29.606  22.143  1.00  0.00     0.005 A 
ATOM     18  C   UNL A   1      29.405  27.558  23.141  1.00  0.00     0.005 A 
ATOM     19  C   UNL A   1      31.473  29.074  22.051  1.00  0.00     0.014 A 
ATOM     20  C   UNL A   1      30.695  27.026  23.055  1.00  0.00     0.014 A 
BRANCH  16  21
ATOM     21  C   UNL A   1      27.752  29.481  22.821  1.00  0.00     0.013 C 
ATOM     22  C   UNL A   1      26.724  28.577  23.509  1.00  0.00     0.012 C 
ATOM     23  C   UNL A   1      27.851  30.823  23.550  1.00  0.00     0.012 C 
ENDBRANCH  16  21
ENDBRANCH  13  15
ENDBRANCH   8  13
ENDBRANCH   4   7
ENDBRANCH   2   3
ENDBRANCH   1   2
BRANCH   1  24
ATOM     24  C   UNL A   1      32.778  32.974  27.159  1.00  0.00     0.118 C 
BRANCH  24  25
ATOM     25  N   UNL A   1      32.587  34.282  27.777  1.00  0.00    -0.352 N 
ATOM     26  C   UNL A   1      33.133  34.818  28.916  1.00  0.00     0.251 C 
ATOM     27  H   UNL A   1      31.965  34.877  27.299  1.00  0.00     0.163 HD
ATOM     28  O   UNL A   1      32.641  35.840  29.391  1.00  0.00    -0.269 OA
BRANCH  26  29
ATOM     29  C   UNL A   1      34.299  34.187  29.567  1.00  0.00     0.039 A 
ATOM     30  C   UNL A   1      35.586  34.527  29.134  1.00  0.00     0.014 A 
ATOM     31  C   UNL A   1      34.130  33.220  30.560  1.00  0.00     0.014 A 
ATOM     32  C   UNL A   1      36.699  33.936  29.735  1.00  0.00     0.010 A 
ATOM     33  C   UNL A   1      35.239  32.692  31.212  1.00  0.00     0.010 A 
ATOM     34  C   UNL A   1      36.535  33.033  30.798  1.00  0.00    -0.014 A 
BRANCH  34  35
ATOM     35  C   UNL A   1      37.701  32.433  31.494  1.00  0.00     0.031 A 
ATOM     36  C   UNL A   1      38.457  31.296  30.862  1.00  0.00     0.074 A 
ATOM     37  C   UNL A   1      38.015  32.847  32.736  1.00  0.00     0.049 A 
ATOM     38  N   UNL A   1      39.452  30.599  31.343  1.00  0.00    -0.248 NA
ATOM     39  C   UNL A   1      38.016  30.867  29.524  1.00  0.00     0.031 C 
ATOM     40  C   UNL A   1      37.311  33.892  33.482  1.00  0.00     0.029 A 
ATOM     41  N   UNL A   1      38.993  32.424  33.600  1.00  0.00    -0.354 N 
ATOM     42  C   UNL A   1      39.731  29.626  30.389  1.00  0.00     0.074 A 
ATOM     43  C   UNL A   1      38.772  29.799  29.320  1.00  0.00     0.031 C 
ATOM     44  C   UNL A   1      37.888  34.038  34.685  1.00  0.00     0.029 A 
ATOM     45  C   UNL A   1      38.981  33.079  34.808  1.00  0.00     0.049 A 
ATOM     46  H   UNL A   1      39.641  31.718  33.375  1.00  0.00     0.167 HD
ATOM     47  C   UNL A   1      40.716  28.696  30.385  1.00  0.00     0.034 A 
ATOM     48  C   UNL A   1      39.763  32.924  35.894  1.00  0.00     0.034 A 
ATOM     49  C   UNL A   1      41.691  28.558  31.433  1.00  0.00     0.049 A 
ATOM     50  C   UNL A   1      40.867  31.903  35.857  1.00  0.00     0.074 A 
ATOM     51  C   UNL A   1      42.781  27.708  31.490  1.00  0.00     0.029 A 
ATOM     52  N   UNL A   1      41.691  29.287  32.613  1.00  0.00    -0.354 N 
ATOM     53  N   UNL A   1      41.210  31.094  34.885  1.00  0.00    -0.248 NA
ATOM     54  C   UNL A   1      41.710  31.797  37.055  1.00  0.00     0.031 C 
ATOM     55  C   UNL A   1      43.428  27.909  32.715  1.00  0.00     0.029 A 
ATOM     56  C   UNL A   1      42.754  28.901  33.411  1.00  0.00     0.049 A 
ATOM     57  H   UNL A   1      41.031  29.978  32.849  1.00  0.00     0.167 HD
ATOM     58  C   UNL A   1      42.332  30.409  35.336  1.00  0.00     0.074 A 
ATOM     59  C   UNL A   1      42.619  30.911  36.665  1.00  0.00     0.031 C 
ATOM     60  C   UNL A   1      43.054  29.444  34.713  1.00  0.00     0.034 A 
BRANCH  47  61
ATOM     61  C   UNL A   1      40.810  27.792  29.181  1.00  0.00     0.023 A 
ATOM     62  C   UNL A   1      40.029  26.618  29.131  1.00  0.00     0.012 A 
ATOM     63  C   UNL A   1      41.650  28.106  28.095  1.00  0.00     0.148 A 
ATOM     64  C   UNL A   1      40.121  25.745  28.048  1.00  0.00     0.002 A 
ATOM     65  C   UNL A   1      41.701  27.255  26.996  1.00  0.00     0.091 A 
ATOM     66  F   UNL A   1      42.403  29.213  28.164  1.00  0.00    -0.205 F 
ATOM     67  C   UNL A   1      40.950  26.067  26.978  1.00  0.00     0.022 A 
BRANCH  65  68
ATOM     68  S   UNL A   1      42.679  27.626  25.536  1.00  0.00     0.127 S 
ATOM     69  O   UNL A   1      42.381  26.479  24.680  1.00  0.00    -0.237 OA
ATOM     70  O   UNL A   1      42.098  28.890  25.084  1.00  0.00    -0.237 OA
ATOM     71  O   UNL A   1      44.055  27.728  25.998  1.00  0.00    -0.744 OA
ENDBRANCH  65  68
ENDBRANCH  47  61
BRANCH  48  72
ATOM     72  C   UNL A   1      39.585  33.827  37.066  1.00  0.00     0.023 A 
ATOM     73  C   UNL A   1      39.983  35.174  36.955  1.00  0.00     0.012 A 
ATOM     74  C   UNL A   1      38.979  33.384  38.257  1.00  0.00     0.148 A 
ATOM     75  C   UNL A   1      39.800  36.060  38.017  1.00  0.00     0.002 A 
ATOM     76  C   UNL A   1      38.753  34.284  39.293  1.00  0.00     0.091 A 
ATOM     77  F   UNL A   1      38.613  32.098  38.343  1.00  0.00    -0.205 F 
ATOM     78  C   UNL A   1      39.177  35.618  39.180  1.00  0.00     0.022 A 
BRANCH  76  79
ATOM     79  S   UNL A   1      37.843  33.842  40.777  1.00  0.00     0.127 S 
ATOM     80  O   UNL A   1      36.657  33.192  40.217  1.00  0.00    -0.237 OA
ATOM     81  O   UNL A   1      38.781  32.937  41.445  1.00  0.00    -0.237 OA
ATOM     82  O   UNL A   1      37.603  35.089  41.483  1.00  0.00    -0.744 OA
ENDBRANCH  76  79
ENDBRANCH  48  72
BRANCH  60  83
ATOM     83  C   UNL A   1      44.244  28.883  35.444  1.00  0.00     0.023 A 
ATOM     84  C   UNL A   1      45.519  29.449  35.247  1.00  0.00     0.012 A 
ATOM     85  C   UNL A   1      44.086  27.844  36.383  1.00  0.00     0.148 A 
ATOM     86  C   UNL A   1      46.623  28.971  35.950  1.00  0.00     0.002 A 
ATOM     87  C   UNL A   1      45.182  27.404  37.115  1.00  0.00     0.091 A 
ATOM     88  F   UNL A   1      42.869  27.304  36.542  1.00  0.00    -0.205 F 
ATOM     89  C   UNL A   1      46.454  27.958  36.891  1.00  0.00     0.022 A 
BRANCH  87  90
ATOM     90  S   UNL A   1      45.040  26.174  38.416  1.00  0.00     0.127 S 
ATOM     91  O   UNL A   1      44.120  26.827  39.344  1.00  0.00    -0.237 OA
ATOM     92  O   UNL A   1      44.474  25.029  37.700  1.00  0.00    -0.237 OA
ATOM     93  O   UNL A   1      46.391  25.963  38.917  1.00  0.00    -0.744 OA
ENDBRANCH  87  90
ENDBRANCH  60  83
ENDBRANCH  34  35
ENDBRANCH  26  29
ENDBRANCH  24  25
ENDBRANCH   1  24
TORSDOF 16
ENDMDL
MODEL 2
REMARK VINA RESULT:     -11.9      1.583      2.981
REMARK SMILES CC(C)c1ccc(C(=O)N2CCC[C@@H](C(=O)NCCCNC(=O)c3ccc(-c4c5nc(c(-c6cccc(S(=O)(=O)[O-])c6F)c6ccc([nH]6)c(-c6cccc(S(=O)(=O)[O-])c6F)c6nc(c(-c7cccc(S(=O)(=O)[O-])c7F)c7ccc4[nH]7)C=C6)C=C5)cc3)C2)cc1
REMARK SMILES IDX 19 1 18 2 17 3 15 4 16 5 14 7 10 8 11 9 87 10 12 11 13 12
REMARK SMILES IDX 8 13 9 14 7 15 4 16 5 17 89 18 6 19 88 20 2 21 1 22 3 23
REMARK SMILES IDX 20 24 21 25 22 26 23 28 24 29 25 30 86 31 26 32 85 33 27 34
REMARK SMILES IDX 28 35 29 36 79 37 30 38 84 39 78 40 80 41 31 42 83 43 77 44
REMARK SMILES IDX 76 45 32 47 64 48 44 49 63 50 45 51 48 52 62 53 81 54 46 55
REMARK SMILES IDX 47 56 61 58 82 59 49 60 33 61 34 62 42 63 35 64 37 65 43 66
REMARK SMILES IDX 36 67 38 68 39 69 40 70 41 71 65 72 66 73 74 74 67 75 69 76
REMARK SMILES IDX 75 77 68 78 70 79 71 80 72 81 73 82 50 83 51 84 59 85 52 86
REMARK SMILES IDX 54 87 60 88 53 89 55 90 56 91 57 92 58 93
REMARK H PARENT 17 6 21 27 80 46 48 57
REMARK Flexibility Score: inf
ROOT
ATOM      1  C   UNL A   1      31.465  32.094  26.546  1.00  0.00     0.042 C 
ENDROOT
BRANCH   1   2
ATOM      2  C   UNL A   1      31.608  30.667  26.021  1.00  0.00     0.117 C 
BRANCH   2   3
ATOM      3  N   UNL A   1      30.858  30.452  24.797  1.00  0.00    -0.356 N 
ATOM      4  C   UNL A   1      30.665  29.395  23.975  1.00  0.00     0.224 C 
ATOM      5  O   UNL A   1      29.946  29.627  22.993  1.00  0.00    -0.275 OA
ATOM      6  H   UNL A   1      30.382  31.260  24.497  1.00  0.00     0.163 HD
BRANCH   4   7
ATOM      7  C   UNL A   1      31.214  27.977  24.176  1.00  0.00     0.098 C 
ATOM      8  N   UNL A   1      33.295  26.675  23.640  1.00  0.00    -0.338 N 
ATOM      9  C   UNL A   1      33.432  26.199  24.999  1.00  0.00     0.120 C 
ATOM     10  C   UNL A   1      32.564  27.921  23.425  1.00  0.00     0.133 C 
ATOM     11  C   UNL A   1      32.072  26.086  25.654  1.00  0.00     0.022 C 
ATOM     12  C   UNL A   1      31.347  27.426  25.597  1.00  0.00     0.017 C 
BRANCH   8  13
ATOM     13  C   UNL A   1      33.586  25.803  22.605  1.00  0.00     0.253 C 
ATOM     14  O   UNL A   1      33.774  26.189  21.455  1.00  0.00    -0.269 OA
BRANCH  13  15
ATOM     15  C   UNL A   1      33.443  24.346  22.911  1.00  0.00     0.040 A 
ATOM     16  C   UNL A   1      33.023  21.666  23.710  1.00  0.00    -0.045 A 
ATOM     17  C   UNL A   1      31.970  22.436  23.191  1.00  0.00     0.005 A 
ATOM     18  C   UNL A   1      34.286  22.259  23.822  1.00  0.00     0.005 A 
ATOM     19  C   UNL A   1      32.178  23.760  22.790  1.00  0.00     0.014 A 
ATOM     20  C   UNL A   1      34.495  23.584  23.428  1.00  0.00     0.014 A 
BRANCH  16  21
ATOM     21  C   UNL A   1      32.751  20.248  24.184  1.00  0.00     0.013 C 
ATOM     22  C   UNL A   1      32.273  19.305  23.075  1.00  0.00     0.012 C 
ATOM     23  C   UNL A   1      33.991  19.673  24.873  1.00  0.00     0.012 C 
ENDBRANCH  16  21
ENDBRANCH  13  15
ENDBRANCH   8  13
ENDBRANCH   4   7
ENDBRANCH   2   3
ENDBRANCH   1   2
BRANCH   1  24
ATOM     24  C   UNL A   1      32.704  32.589  27.292  1.00  0.00     0.118 C 
BRANCH  24  25
ATOM     25  N   UNL A   1      32.592  33.996  27.661  1.00  0.00    -0.352 N 
ATOM     26  C   UNL A   1      33.194  34.703  28.671  1.00  0.00     0.251 C 
ATOM     27  H   UNL A   1      31.986  34.524  27.094  1.00  0.00     0.163 HD
ATOM     28  O   UNL A   1      32.765  35.818  28.959  1.00  0.00    -0.269 OA
BRANCH  26  29
ATOM     29  C   UNL A   1      34.346  34.142  29.406  1.00  0.00     0.039 A 
ATOM     30  C   UNL A   1      34.112  33.306  30.503  1.00  0.00     0.014 A 
ATOM     31  C   UNL A   1      35.655  34.481  29.056  1.00  0.00     0.014 A 
ATOM     32  C   UNL A   1      35.189  32.772  31.213  1.00  0.00     0.010 A 
ATOM     33  C   UNL A   1      36.727  33.886  29.711  1.00  0.00     0.010 A 
ATOM     34  C   UNL A   1      36.506  33.036  30.805  1.00  0.00    -0.014 A 
BRANCH  34  35
ATOM     35  C   UNL A   1      37.671  32.437  31.504  1.00  0.00     0.031 A 
ATOM     36  C   UNL A   1      38.429  31.299  30.874  1.00  0.00     0.074 A 
ATOM     37  C   UNL A   1      37.984  32.854  32.745  1.00  0.00     0.049 A 
ATOM     38  N   UNL A   1      39.424  30.603  31.357  1.00  0.00    -0.248 NA
ATOM     39  C   UNL A   1      37.989  30.868  29.536  1.00  0.00     0.031 C 
ATOM     40  C   UNL A   1      37.279  33.900  33.488  1.00  0.00     0.029 A 
ATOM     41  N   UNL A   1      38.962  32.432  33.611  1.00  0.00    -0.354 N 
ATOM     42  C   UNL A   1      39.704  29.629  30.406  1.00  0.00     0.074 A 
ATOM     43  C   UNL A   1      38.745  29.800  29.335  1.00  0.00     0.031 C 
ATOM     44  C   UNL A   1      37.856  34.049  34.692  1.00  0.00     0.029 A 
ATOM     45  C   UNL A   1      38.948  33.090  34.817  1.00  0.00     0.049 A 
ATOM     46  H   UNL A   1      39.610  31.726  33.388  1.00  0.00     0.167 HD
ATOM     47  C   UNL A   1      40.688  28.699  30.404  1.00  0.00     0.034 A 
ATOM     48  C   UNL A   1      39.730  32.937  35.905  1.00  0.00     0.034 A 
ATOM     49  C   UNL A   1      41.663  28.563  31.453  1.00  0.00     0.049 A 
ATOM     50  C   UNL A   1      40.834  31.916  35.871  1.00  0.00     0.074 A 
ATOM     51  C   UNL A   1      42.753  27.713  31.513  1.00  0.00     0.029 A 
ATOM     52  N   UNL A   1      41.662  29.294  32.632  1.00  0.00    -0.354 N 
ATOM     53  N   UNL A   1      41.178  31.106  34.900  1.00  0.00    -0.248 NA
ATOM     54  C   UNL A   1      41.676  31.812  37.070  1.00  0.00     0.031 C 
ATOM     55  C   UNL A   1      43.399  27.917  32.738  1.00  0.00     0.029 A 
ATOM     56  C   UNL A   1      42.724  28.910  33.431  1.00  0.00     0.049 A 
ATOM     57  H   UNL A   1      41.001  29.985  32.866  1.00  0.00     0.167 HD
ATOM     58  C   UNL A   1      42.300  30.421  35.354  1.00  0.00     0.074 A 
ATOM     59  C   UNL A   1      42.585  30.926  36.682  1.00  0.00     0.031 C 
ATOM     60  C   UNL A   1      43.022  29.455  34.732  1.00  0.00     0.034 A 
BRANCH  47  61
ATOM     61  C   UNL A   1      40.784  27.793  29.202  1.00  0.00     0.023 A 
ATOM     62  C   UNL A   1      39.997  26.623  29.149  1.00  0.00     0.012 A 
ATOM     63  C   UNL A   1      41.631  28.101  28.120  1.00  0.00     0.148 A 
ATOM     64  C   UNL A   1      40.090  25.748  28.068  1.00  0.00     0.002 A 
ATOM     65  C   UNL A   1      41.683  27.247  27.022  1.00  0.00     0.091 A 
ATOM     66  F   UNL A   1      42.390  29.203  28.191  1.00  0.00    -0.205 F 
ATOM     67  C   UNL A   1      40.926  26.064  27.002  1.00  0.00     0.022 A 
BRANCH  65  68
ATOM     68  S   UNL A   1      42.671  27.612  25.567  1.00  0.00     0.127 S 
ATOM     69  O   UNL A   1      42.448  26.419  24.751  1.00  0.00    -0.237 OA
ATOM     70  O   UNL A   1      42.036  28.826  25.055  1.00  0.00    -0.237 OA
ATOM     71  O   UNL A   1      44.031  27.801  26.050  1.00  0.00    -0.744 OA
ENDBRANCH  65  68
ENDBRANCH  47  61
BRANCH  48  72
ATOM     72  C   UNL A   1      39.551  33.842  37.075  1.00  0.00     0.023 A 
ATOM     73  C   UNL A   1      39.931  35.193  36.955  1.00  0.00     0.012 A 
ATOM     74  C   UNL A   1      38.960  33.396  38.272  1.00  0.00     0.148 A 
ATOM     75  C   UNL A   1      39.747  36.080  38.016  1.00  0.00     0.002 A 
ATOM     76  C   UNL A   1      38.731  34.298  39.306  1.00  0.00     0.091 A 
ATOM     77  F   UNL A   1      38.609  32.106  38.366  1.00  0.00    -0.205 F 
ATOM     78  C   UNL A   1      39.139  35.636  39.185  1.00  0.00     0.022 A 
BRANCH  76  79
ATOM     79  S   UNL A   1      37.838  33.850  40.799  1.00  0.00     0.127 S 
ATOM     80  O   UNL A   1      37.673  35.150  41.450  1.00  0.00    -0.237 OA
ATOM     81  O   UNL A   1      36.606  33.277  40.250  1.00  0.00    -0.237 OA
ATOM     82  O   UNL A   1      38.685  32.898  41.498  1.00  0.00    -0.744 OA
ENDBRANCH  76  79
ENDBRANCH  48  72
BRANCH  60  83
ATOM     83  C   UNL A   1      44.212  28.896  35.466  1.00  0.00     0.023 A 
ATOM     84  C   UNL A   1      45.486  29.464  35.271  1.00  0.00     0.012 A 
ATOM     85  C   UNL A   1      44.054  27.856  36.404  1.00  0.00     0.148 A 
ATOM     86  C   UNL A   1      46.590  28.987  35.976  1.00  0.00     0.002 A 
ATOM     87  C   UNL A   1      45.149  27.418  37.138  1.00  0.00     0.091 A 
ATOM     88  F   UNL A   1      42.837  27.314  36.560  1.00  0.00    -0.205 F 
ATOM     89  C   UNL A   1      46.421  27.974  36.917  1.00  0.00     0.022 A 
BRANCH  87  90
ATOM     90  S   UNL A   1      45.007  26.187  38.438  1.00  0.00     0.127 S 
ATOM     91  O   UNL A   1      44.481  25.038  37.703  1.00  0.00    -0.237 OA
ATOM     92  O   UNL A   1      46.394  26.043  38.884  1.00  0.00    -0.237 OA
ATOM     93  O   UNL A   1      44.110  26.757  39.433  1.00  0.00    -0.744 OA
ENDBRANCH  87  90
ENDBRANCH  60  83
ENDBRANCH  34  35
ENDBRANCH  26  29
ENDBRANCH  24  25
ENDBRANCH   1  24
TORSDOF 16
ENDMDL
MODEL 3
REMARK VINA RESULT:     -11.9      0.681      7.849
REMARK SMILES CC(C)c1ccc(C(=O)N2CCC[C@@H](C(=O)NCCCNC(=O)c3ccc(-c4c5nc(c(-c6cccc(S(=O)(=O)[O-])c6F)c6ccc([nH]6)c(-c6cccc(S(=O)(=O)[O-])c6F)c6nc(c(-c7cccc(S(=O)(=O)[O-])c7F)c7ccc4[nH]7)C=C6)C=C5)cc3)C2)cc1
REMARK SMILES IDX 19 1 18 2 17 3 15 4 16 5 14 7 10 8 11 9 87 10 12 11 13 12
REMARK SMILES IDX 8 13 9 14 7 15 4 16 5 17 89 18 6 19 88 20 2 21 1 22 3 23
REMARK SMILES IDX 20 24 21 25 22 26 23 28 24 29 25 30 86 31 26 32 85 33 27 34
REMARK SMILES IDX 28 35 29 36 79 37 30 38 84 39 78 40 80 41 31 42 83 43 77 44
REMARK SMILES IDX 76 45 32 47 64 48 44 49 63 50 45 51 48 52 62 53 81 54 46 55
REMARK SMILES IDX 47 56 61 58 82 59 49 60 33 61 34 62 42 63 35 64 37 65 43 66
REMARK SMILES IDX 36 67 38 68 39 69 40 70 41 71 65 72 66 73 74 74 67 75 69 76
REMARK SMILES IDX 75 77 68 78 70 79 71 80 72 81 73 82 50 83 51 84 59 85 52 86
REMARK SMILES IDX 54 87 60 88 53 89 55 90 56 91 57 92 58 93
REMARK H PARENT 17 6 21 27 80 46 48 57
REMARK Flexibility Score: inf
ROOT
ATOM      1  C   UNL A   1      31.340  32.608  26.792  1.00  0.00     0.042 C 
ENDROOT
BRANCH   1   2
ATOM      2  C   UNL A   1      31.442  31.211  26.184  1.00  0.00     0.117 C 
BRANCH   2   3
ATOM      3  N   UNL A   1      32.429  30.387  26.858  1.00  0.00    -0.356 N 
ATOM      4  C   UNL A   1      32.676  29.058  26.917  1.00  0.00     0.224 C 
ATOM      5  O   UNL A   1      33.632  28.739  27.637  1.00  0.00    -0.275 OA
ATOM      6  H   UNL A   1      33.063  30.915  27.394  1.00  0.00     0.163 HD
BRANCH   4   7
ATOM      7  C   UNL A   1      31.917  27.959  26.160  1.00  0.00     0.098 C 
ATOM      8  N   UNL A   1      32.205  26.561  24.093  1.00  0.00    -0.338 N 
ATOM      9  C   UNL A   1      31.931  25.330  24.802  1.00  0.00     0.120 C 
ATOM     10  C   UNL A   1      32.716  27.692  24.864  1.00  0.00     0.133 C 
ATOM     11  C   UNL A   1      30.995  25.591  25.962  1.00  0.00     0.022 C 
ATOM     12  C   UNL A   1      31.583  26.653  26.885  1.00  0.00     0.017 C 
BRANCH   8  13
ATOM     13  C   UNL A   1      31.702  26.709  22.812  1.00  0.00     0.253 C 
ATOM     14  O   UNL A   1      32.228  26.183  21.835  1.00  0.00    -0.269 OA
BRANCH  13  15
ATOM     15  C   UNL A   1      30.613  27.722  22.644  1.00  0.00     0.040 A 
ATOM     16  C   UNL A   1      28.691  29.791  22.513  1.00  0.00    -0.045 A 
ATOM     17  C   UNL A   1      29.976  29.966  21.971  1.00  0.00     0.005 A 
ATOM     18  C   UNL A   1      28.388  28.567  23.121  1.00  0.00     0.005 A 
ATOM     19  C   UNL A   1      30.925  28.940  22.031  1.00  0.00     0.014 A 
ATOM     20  C   UNL A   1      29.337  27.544  23.187  1.00  0.00     0.014 A 
BRANCH  16  21
ATOM     21  C   UNL A   1      27.702  30.944  22.477  1.00  0.00     0.013 C 
ATOM     22  C   UNL A   1      27.419  31.560  23.851  1.00  0.00     0.012 C 
ATOM     23  C   UNL A   1      28.179  32.022  21.500  1.00  0.00     0.012 C 
ENDBRANCH  16  21
ENDBRANCH  13  15
ENDBRANCH   8  13
ENDBRANCH   4   7
ENDBRANCH   2   3
ENDBRANCH   1   2
BRANCH   1  24
ATOM     24  C   UNL A   1      32.663  33.113  27.368  1.00  0.00     0.118 C 
BRANCH  24  25
ATOM     25  N   UNL A   1      32.540  34.460  27.915  1.00  0.00    -0.352 N 
ATOM     26  C   UNL A   1      33.120  35.029  29.020  1.00  0.00     0.251 C 
ATOM     27  H   UNL A   1      31.945  35.058  27.408  1.00  0.00     0.163 HD
ATOM     28  O   UNL A   1      32.683  36.098  29.442  1.00  0.00    -0.269 OA
BRANCH  26  29
ATOM     29  C   UNL A   1      34.259  34.377  29.700  1.00  0.00     0.039 A 
ATOM     30  C   UNL A   1      34.018  33.608  30.843  1.00  0.00     0.014 A 
ATOM     31  C   UNL A   1      35.567  34.566  29.249  1.00  0.00     0.014 A 
ATOM     32  C   UNL A   1      35.083  32.989  31.501  1.00  0.00     0.010 A 
ATOM     33  C   UNL A   1      36.616  33.886  29.856  1.00  0.00     0.010 A 
ATOM     34  C   UNL A   1      36.388  33.101  30.996  1.00  0.00    -0.014 A 
BRANCH  34  35
ATOM     35  C   UNL A   1      37.533  32.408  31.640  1.00  0.00     0.031 A 
ATOM     36  C   UNL A   1      38.040  32.867  32.980  1.00  0.00     0.074 A 
ATOM     37  C   UNL A   1      38.174  31.430  30.972  1.00  0.00     0.049 A 
ATOM     38  N   UNL A   1      39.066  32.436  33.665  1.00  0.00    -0.248 NA
ATOM     39  C   UNL A   1      37.316  33.979  33.619  1.00  0.00     0.031 C 
ATOM     40  C   UNL A   1      37.819  30.945  29.637  1.00  0.00     0.029 A 
ATOM     41  N   UNL A   1      39.271  30.682  31.317  1.00  0.00    -0.354 N 
ATOM     42  C   UNL A   1      39.136  33.246  34.794  1.00  0.00     0.074 A 
ATOM     43  C   UNL A   1      38.072  34.220  34.679  1.00  0.00     0.031 C 
ATOM     44  C   UNL A   1      38.674  29.973  29.281  1.00  0.00     0.029 A 
ATOM     45  C   UNL A   1      39.653  29.787  30.347  1.00  0.00     0.049 A 
ATOM     46  H   UNL A   1      39.740  30.779  32.176  1.00  0.00     0.167 HD
ATOM     47  C   UNL A   1      39.984  33.166  35.847  1.00  0.00     0.034 A 
ATOM     48  C   UNL A   1      40.678  28.913  30.319  1.00  0.00     0.034 A 
ATOM     49  C   UNL A   1      41.012  32.168  35.973  1.00  0.00     0.049 A 
ATOM     50  C   UNL A   1      41.592  28.823  31.510  1.00  0.00     0.074 A 
ATOM     51  C   UNL A   1      41.870  31.944  37.035  1.00  0.00     0.029 A 
ATOM     52  N   UNL A   1      41.326  31.230  35.001  1.00  0.00    -0.354 N 
ATOM     53  N   UNL A   1      41.549  29.496  32.635  1.00  0.00    -0.248 NA
ATOM     54  C   UNL A   1      42.674  27.832  31.442  1.00  0.00     0.031 C 
ATOM     55  C   UNL A   1      42.716  30.882  36.695  1.00  0.00     0.029 A 
ATOM     56  C   UNL A   1      42.371  30.430  35.431  1.00  0.00     0.049 A 
ATOM     57  H   UNL A   1      40.873  31.146  34.131  1.00  0.00     0.167 HD
ATOM     58  C   UNL A   1      42.574  28.985  33.424  1.00  0.00     0.074 A 
ATOM     59  C   UNL A   1      43.208  27.934  32.653  1.00  0.00     0.031 C 
ATOM     60  C   UNL A   1      42.961  29.358  34.669  1.00  0.00     0.034 A 
BRANCH  47  61
ATOM     61  C   UNL A   1      39.793  34.159  36.966  1.00  0.00     0.023 A 
ATOM     62  C   UNL A   1      40.175  35.504  36.774  1.00  0.00     0.012 A 
ATOM     63  C   UNL A   1      39.225  33.775  38.196  1.00  0.00     0.148 A 
ATOM     64  C   UNL A   1      40.045  36.437  37.802  1.00  0.00     0.002 A 
ATOM     65  C   UNL A   1      39.054  34.722  39.201  1.00  0.00     0.091 A 
ATOM     66  F   UNL A   1      38.888  32.490  38.374  1.00  0.00    -0.205 F 
ATOM     67  C   UNL A   1      39.477  36.049  39.011  1.00  0.00     0.022 A 
BRANCH  65  68
ATOM     68  S   UNL A   1      38.260  34.333  40.764  1.00  0.00     0.127 S 
ATOM     69  O   UNL A   1      38.022  35.666  41.316  1.00  0.00    -0.237 OA
ATOM     70  O   UNL A   1      37.052  33.629  40.333  1.00  0.00    -0.237 OA
ATOM     71  O   UNL A   1      39.209  33.507  41.495  1.00  0.00    -0.744 OA
ENDBRANCH  65  68
ENDBRANCH  47  61
BRANCH  48  72
ATOM     72  C   UNL A   1      40.829  27.989  29.159  1.00  0.00     0.023 A 
ATOM     73  C   UNL A   1      40.065  26.806  29.127  1.00  0.00     0.012 A 
ATOM     74  C   UNL A   1      41.669  28.296  28.072  1.00  0.00     0.148 A 
ATOM     75  C   UNL A   1      40.151  25.933  28.043  1.00  0.00     0.002 A 
ATOM     76  C   UNL A   1      41.710  27.448  26.971  1.00  0.00     0.091 A 
ATOM     77  F   UNL A   1      42.390  29.425  28.125  1.00  0.00    -0.205 F 
ATOM     78  C   UNL A   1      40.965  26.258  26.962  1.00  0.00     0.022 A 
BRANCH  76  79
ATOM     79  S   UNL A   1      42.627  27.846  25.478  1.00  0.00     0.127 S 
ATOM     80  O   UNL A   1      42.413  26.647  24.667  1.00  0.00    -0.237 OA
ATOM     81  O   UNL A   1      41.924  29.040  25.005  1.00  0.00    -0.237 OA
ATOM     82  O   UNL A   1      43.996  28.083  25.904  1.00  0.00    -0.744 OA
ENDBRANCH  76  79
ENDBRANCH  48  72
BRANCH  60  83
ATOM     83  C   UNL A   1      44.107  28.609  35.295  1.00  0.00     0.023 A 
ATOM     84  C   UNL A   1      45.433  28.977  34.993  1.00  0.00     0.012 A 
ATOM     85  C   UNL A   1      43.870  27.590  36.239  1.00  0.00     0.148 A 
ATOM     86  C   UNL A   1      46.506  28.323  35.597  1.00  0.00     0.002 A 
ATOM     87  C   UNL A   1      44.943  26.975  36.873  1.00  0.00     0.091 A 
ATOM     88  F   UNL A   1      42.602  27.240  36.498  1.00  0.00    -0.205 F 
ATOM     89  C   UNL A   1      46.261  27.331  36.545  1.00  0.00     0.022 A 
BRANCH  87  90
ATOM     90  S   UNL A   1      44.721  25.758  38.176  1.00  0.00     0.127 S 
ATOM     91  O   UNL A   1      46.083  25.619  38.688  1.00  0.00    -0.237 OA
ATOM     92  O   UNL A   1      43.796  26.440  39.083  1.00  0.00    -0.237 OA
ATOM     93  O   UNL A   1      44.171  24.575  37.530  1.00  0.00    -0.744 OA
ENDBRANCH  87  90
ENDBRANCH  60  83
ENDBRANCH  34  35
ENDBRANCH  26  29
ENDBRANCH  24  25
ENDBRANCH   1  24
TORSDOF 16
ENDMDL
