MODEL 1
REMARK VINA RESULT:     -11.5      0.000      0.000
REMARK SMILES CC[C@H](C)[C@@H](NC(=O)[C@@H]1CCCN1C(=O)C1CC1)C(=O)NCCCNC(=O)c1ccc(-c2c3nc(c(-c4cccc(S(=O)(=O)[O-])c4F)c4ccc([nH]4)c(-c4cccc(S(=O)(=O)[O-])c4F)c4nc(c(-c5cccc(S(=O)(=O)[O-])c5F)c5ccc2[nH]5)C=C4)C=C3)cc1
REMARK SMILES IDX 22 1 21 2 19 3 20 4 5 6 3 7 4 8 2 9 1 10 6 11 7 12 8 14 9 15
REMARK SMILES IDX 10 16 13 17 11 18 12 19 14 20 15 21 16 22 17 23 18 24 23 25
REMARK SMILES IDX 24 26 25 27 26 28 27 30 28 31 29 32 90 33 30 34 89 35 31 36
REMARK SMILES IDX 32 37 33 38 83 39 34 40 88 41 82 42 84 43 35 44 87 45 81 46
REMARK SMILES IDX 80 47 36 49 68 50 48 51 67 52 49 53 52 54 66 55 85 56 50 57
REMARK SMILES IDX 51 58 65 60 86 61 53 62 37 63 38 64 46 65 39 66 41 67 47 68
REMARK SMILES IDX 40 69 42 70 43 71 44 72 45 73 69 74 70 75 78 76 71 77 73 78
REMARK SMILES IDX 79 79 72 80 74 81 75 82 76 83 77 84 54 85 55 86 63 87 56 88
REMARK SMILES IDX 58 89 64 90 57 91 59 92 60 93 61 94 62 95
REMARK H PARENT 21 5 6 13 25 29 84 48 52 59
REMARK Flexibility Score: inf
ROOT
ATOM      1  C   UNL A   1      32.187  28.627  24.841  1.00  0.00     0.117 C 
ENDROOT
BRANCH   1   2
ATOM      2  N   UNL A   1      32.300  27.444  25.683  1.00  0.00    -0.354 N 
ATOM      3  C   UNL A   1      33.486  26.794  25.953  1.00  0.00     0.242 C 
ATOM      4  O   UNL A   1      34.467  27.406  26.381  1.00  0.00    -0.273 OA
ATOM      5  H   UNL A   1      31.478  27.086  26.086  1.00  0.00     0.163 HD
BRANCH   3   6
ATOM      6  C   UNL A   1      33.487  25.234  25.856  1.00  0.00     0.174 C 
BRANCH   6   7
ATOM      7  C   UNL A   1      34.898  24.553  25.799  1.00  0.00     0.018 C 
ATOM      8  C   UNL A   1      35.030  23.272  26.639  1.00  0.00     0.010 C 
BRANCH   7   9
ATOM      9  C   UNL A   1      35.342  24.213  24.339  1.00  0.00     0.002 C 
ATOM     10  C   UNL A   1      36.628  23.401  24.198  1.00  0.00     0.004 C 
ENDBRANCH   7   9
ENDBRANCH   6   7
BRANCH   6  11
ATOM     11  N   UNL A   1      32.420  24.399  26.500  1.00  0.00    -0.342 N 
ATOM     12  C   UNL A   1      31.338  23.635  26.230  1.00  0.00     0.243 C 
ATOM     13  H   UNL A   1      32.559  24.411  27.475  1.00  0.00     0.164 HD
ATOM     14  O   UNL A   1      30.538  23.565  27.182  1.00  0.00    -0.273 OA
BRANCH  12  15
ATOM     15  C   UNL A   1      31.107  22.649  25.065  1.00  0.00     0.174 C 
ATOM     16  C   UNL A   1      31.709  21.282  25.448  1.00  0.00     0.037 C 
ATOM     17  N   UNL A   1      31.668  22.972  23.787  1.00  0.00    -0.330 N 
ATOM     18  C   UNL A   1      32.644  20.876  24.317  1.00  0.00     0.024 C 
ATOM     19  C   UNL A   1      32.786  22.113  23.465  1.00  0.00     0.120 C 
BRANCH  17  20
ATOM     20  C   UNL A   1      31.429  24.122  23.081  1.00  0.00     0.226 C 
ATOM     21  O   UNL A   1      30.389  24.730  23.254  1.00  0.00    -0.275 OA
BRANCH  20  22
ATOM     22  C   UNL A   1      32.396  24.769  22.167  1.00  0.00     0.079 C 
ATOM     23  C   UNL A   1      32.194  25.779  21.083  1.00  0.00     0.014 C 
ATOM     24  C   UNL A   1      32.861  26.183  22.369  1.00  0.00     0.014 C 
ENDBRANCH  20  22
ENDBRANCH  17  20
ENDBRANCH  12  15
ENDBRANCH   6  11
ENDBRANCH   3   6
ENDBRANCH   1   2
BRANCH   1  25
ATOM     25  C   UNL A   1      31.668  29.828  25.644  1.00  0.00     0.042 C 
BRANCH  25  26
ATOM     26  C   UNL A   1      32.691  30.349  26.642  1.00  0.00     0.118 C 
BRANCH  26  27
ATOM     27  N   UNL A   1      32.560  31.736  27.090  1.00  0.00    -0.352 N 
ATOM     28  C   UNL A   1      33.551  32.490  27.708  1.00  0.00     0.251 C 
ATOM     29  H   UNL A   1      31.691  32.174  26.939  1.00  0.00     0.163 HD
ATOM     30  O   UNL A   1      33.337  33.618  28.139  1.00  0.00    -0.269 OA
BRANCH  28  31
ATOM     31  C   UNL A   1      34.879  31.852  27.898  1.00  0.00     0.039 A 
ATOM     32  C   UNL A   1      36.023  32.639  28.049  1.00  0.00     0.014 A 
ATOM     33  C   UNL A   1      34.937  30.482  28.140  1.00  0.00     0.014 A 
ATOM     34  C   UNL A   1      37.187  32.066  28.581  1.00  0.00     0.010 A 
ATOM     35  C   UNL A   1      36.030  29.959  28.812  1.00  0.00     0.010 A 
ATOM     36  C   UNL A   1      37.175  30.738  29.042  1.00  0.00    -0.014 A 
BRANCH  36  37
ATOM     37  C   UNL A   1      38.321  30.117  29.764  1.00  0.00     0.031 A 
ATOM     38  C   UNL A   1      38.643  30.567  31.169  1.00  0.00     0.074 A 
ATOM     39  C   UNL A   1      39.160  29.276  29.124  1.00  0.00     0.049 A 
ATOM     40  N   UNL A   1      39.688  30.299  31.907  1.00  0.00    -0.248 NA
ATOM     41  C   UNL A   1      37.694  31.501  31.802  1.00  0.00     0.031 C 
ATOM     42  C   UNL A   1      39.041  28.848  27.727  1.00  0.00     0.029 A 
ATOM     43  N   UNL A   1      40.306  28.652  29.558  1.00  0.00    -0.354 N 
ATOM     44  C   UNL A   1      39.558  31.087  33.046  1.00  0.00     0.074 A 
ATOM     45  C   UNL A   1      38.367  31.886  32.874  1.00  0.00     0.031 C 
ATOM     46  C   UNL A   1      40.055  28.018  27.429  1.00  0.00     0.029 A 
ATOM     47  C   UNL A   1      40.916  27.876  28.597  1.00  0.00     0.049 A 
ATOM     48  H   UNL A   1      40.658  28.751  30.472  1.00  0.00     0.167 HD
ATOM     49  C   UNL A   1      40.328  31.110  34.160  1.00  0.00     0.034 A 
ATOM     50  C   UNL A   1      42.038  27.130  28.656  1.00  0.00     0.034 A 
ATOM     51  C   UNL A   1      41.440  30.230  34.375  1.00  0.00     0.049 A 
ATOM     52  C   UNL A   1      42.803  27.067  29.952  1.00  0.00     0.074 A 
ATOM     53  C   UNL A   1      42.206  30.070  35.516  1.00  0.00     0.029 A 
ATOM     54  N   UNL A   1      41.932  29.340  33.432  1.00  0.00    -0.354 N 
ATOM     55  N   UNL A   1      42.568  27.697  31.078  1.00  0.00    -0.248 NA
ATOM     56  C   UNL A   1      43.961  26.162  30.001  1.00  0.00     0.031 C 
ATOM     57  C   UNL A   1      43.162  29.082  35.262  1.00  0.00     0.029 A 
ATOM     58  C   UNL A   1      42.984  28.620  33.966  1.00  0.00     0.049 A 
ATOM     59  H   UNL A   1      41.584  29.237  32.518  1.00  0.00     0.167 HD
ATOM     60  C   UNL A   1      43.524  27.238  31.978  1.00  0.00     0.074 A 
ATOM     61  C   UNL A   1      44.328  26.262  31.272  1.00  0.00     0.031 C 
ATOM     62  C   UNL A   1      43.730  27.605  33.267  1.00  0.00     0.034 A 
BRANCH  49  63
ATOM     63  C   UNL A   1      39.927  32.059  35.262  1.00  0.00     0.023 A 
ATOM     64  C   UNL A   1      40.505  33.345  35.316  1.00  0.00     0.012 A 
ATOM     65  C   UNL A   1      38.972  31.692  36.230  1.00  0.00     0.148 A 
ATOM     66  C   UNL A   1      40.184  34.228  36.345  1.00  0.00     0.002 A 
ATOM     67  C   UNL A   1      38.619  32.599  37.225  1.00  0.00     0.091 A 
ATOM     68  F   UNL A   1      38.445  30.460  36.178  1.00  0.00    -0.205 F 
ATOM     69  C   UNL A   1      39.237  33.859  37.294  1.00  0.00     0.022 A 
BRANCH  67  70
ATOM     70  S   UNL A   1      37.347  32.249  38.444  1.00  0.00     0.127 S 
ATOM     71  O   UNL A   1      36.195  32.950  37.879  1.00  0.00    -0.237 OA
ATOM     72  O   UNL A   1      37.259  30.789  38.388  1.00  0.00    -0.237 OA
ATOM     73  O   UNL A   1      37.847  32.776  39.705  1.00  0.00    -0.744 OA
ENDBRANCH  67  70
ENDBRANCH  49  63
BRANCH  50  74
ATOM     74  C   UNL A   1      42.443  26.297  27.485  1.00  0.00     0.023 A 
ATOM     75  C   UNL A   1      43.242  26.876  26.479  1.00  0.00     0.012 A 
ATOM     76  C   UNL A   1      42.082  24.940  27.373  1.00  0.00     0.148 A 
ATOM     77  C   UNL A   1      43.650  26.131  25.371  1.00  0.00     0.002 A 
ATOM     78  C   UNL A   1      42.534  24.189  26.293  1.00  0.00     0.091 A 
ATOM     79  F   UNL A   1      41.314  24.407  28.335  1.00  0.00    -0.205 F 
ATOM     80  C   UNL A   1      43.304  24.787  25.283  1.00  0.00     0.022 A 
BRANCH  78  81
ATOM     81  S   UNL A   1      42.247  22.420  26.158  1.00  0.00     0.127 S 
ATOM     82  O   UNL A   1      40.790  22.358  26.077  1.00  0.00    -0.237 OA
ATOM     83  O   UNL A   1      42.947  22.093  24.915  1.00  0.00    -0.237 OA
ATOM     84  O   UNL A   1      42.841  21.834  27.352  1.00  0.00    -0.744 OA
ENDBRANCH  78  81
ENDBRANCH  50  74
BRANCH  62  85
ATOM     85  C   UNL A   1      44.841  26.928  34.021  1.00  0.00     0.023 A 
ATOM     86  C   UNL A   1      46.141  27.468  33.978  1.00  0.00     0.012 A 
ATOM     87  C   UNL A   1      44.575  25.821  34.851  1.00  0.00     0.148 A 
ATOM     88  C   UNL A   1      47.166  26.901  34.734  1.00  0.00     0.002 A 
ATOM     89  C   UNL A   1      45.591  25.290  35.636  1.00  0.00     0.091 A 
ATOM     90  F   UNL A   1      43.335  25.312  34.861  1.00  0.00    -0.205 F 
ATOM     91  C   UNL A   1      46.889  25.822  35.572  1.00  0.00     0.022 A 
BRANCH  89  92
ATOM     92  S   UNL A   1      45.298  23.968  36.816  1.00  0.00     0.127 S 
ATOM     93  O   UNL A   1      44.766  22.914  35.956  1.00  0.00    -0.237 OA
ATOM     94  O   UNL A   1      46.642  23.709  37.337  1.00  0.00    -0.237 OA
ATOM     95  O   UNL A   1      44.367  24.509  37.797  1.00  0.00    -0.744 OA
ENDBRANCH  89  92
ENDBRANCH  62  85
ENDBRANCH  36  37
ENDBRANCH  28  31
ENDBRANCH  26  27
ENDBRANCH  25  26
ENDBRANCH   1  25
TORSDOF 19
ENDMDL
MODEL 2
REMARK VINA RESULT:     -11.4      1.639      2.602
REMARK SMILES CC[C@H](C)[C@@H](NC(=O)[C@@H]1CCCN1C(=O)C1CC1)C(=O)NCCCNC(=O)c1ccc(-c2c3nc(c(-c4cccc(S(=O)(=O)[O-])c4F)c4ccc([nH]4)c(-c4cccc(S(=O)(=O)[O-])c4F)c4nc(c(-c5cccc(S(=O)(=O)[O-])c5F)c5ccc2[nH]5)C=C4)C=C3)cc1
REMARK SMILES IDX 22 1 21 2 19 3 20 4 5 6 3 7 4 8 2 9 1 10 6 11 7 12 8 14 9 15
REMARK SMILES IDX 10 16 13 17 11 18 12 19 14 20 15 21 16 22 17 23 18 24 23 25
REMARK SMILES IDX 24 26 25 27 26 28 27 30 28 31 29 32 90 33 30 34 89 35 31 36
REMARK SMILES IDX 32 37 33 38 83 39 34 40 88 41 82 42 84 43 35 44 87 45 81 46
REMARK SMILES IDX 80 47 36 49 68 50 48 51 67 52 49 53 52 54 66 55 85 56 50 57
REMARK SMILES IDX 51 58 65 60 86 61 53 62 37 63 38 64 46 65 39 66 41 67 47 68
REMARK SMILES IDX 40 69 42 70 43 71 44 72 45 73 69 74 70 75 78 76 71 77 73 78
REMARK SMILES IDX 79 79 72 80 74 81 75 82 76 83 77 84 54 85 55 86 63 87 56 88
REMARK SMILES IDX 58 89 64 90 57 91 59 92 60 93 61 94 62 95
REMARK H PARENT 21 5 6 13 25 29 84 48 52 59
REMARK Flexibility Score: inf
ROOT
ATOM      1  C   UNL A   1      32.068  28.075  27.210  1.00  0.00     0.117 C 
ENDROOT
BRANCH   1   2
ATOM      2  N   UNL A   1      32.031  26.894  26.359  1.00  0.00    -0.354 N 
ATOM      3  C   UNL A   1      32.997  26.576  25.428  1.00  0.00     0.242 C 
ATOM      4  O   UNL A   1      34.190  26.530  25.736  1.00  0.00    -0.273 OA
ATOM      5  H   UNL A   1      31.267  26.282  26.455  1.00  0.00     0.163 HD
BRANCH   3   6
ATOM      6  C   UNL A   1      32.510  26.115  24.017  1.00  0.00     0.174 C 
BRANCH   6   7
ATOM      7  C   UNL A   1      31.948  27.243  23.084  1.00  0.00     0.018 C 
ATOM      8  C   UNL A   1      30.491  27.646  23.366  1.00  0.00     0.010 C 
BRANCH   7   9
ATOM      9  C   UNL A   1      32.818  28.541  23.122  1.00  0.00     0.002 C 
ATOM     10  C   UNL A   1      34.128  28.496  22.337  1.00  0.00     0.004 C 
ENDBRANCH   7   9
ENDBRANCH   6   7
BRANCH   6  11
ATOM     11  N   UNL A   1      33.154  24.972  23.290  1.00  0.00    -0.342 N 
ATOM     12  C   UNL A   1      33.510  23.675  23.417  1.00  0.00     0.243 C 
ATOM     13  H   UNL A   1      33.411  25.279  22.389  1.00  0.00     0.164 HD
ATOM     14  O   UNL A   1      34.449  23.347  22.666  1.00  0.00    -0.273 OA
BRANCH  12  15
ATOM     15  C   UNL A   1      32.762  22.523  24.123  1.00  0.00     0.174 C 
ATOM     16  C   UNL A   1      31.391  23.044  24.599  1.00  0.00     0.037 C 
ATOM     17  N   UNL A   1      33.370  21.930  25.276  1.00  0.00    -0.330 N 
ATOM     18  C   UNL A   1      31.283  22.719  26.082  1.00  0.00     0.024 C 
ATOM     19  C   UNL A   1      32.671  22.292  26.490  1.00  0.00     0.120 C 
BRANCH  17  20
ATOM     20  C   UNL A   1      34.618  21.365  25.316  1.00  0.00     0.226 C 
ATOM     21  O   UNL A   1      34.806  20.283  24.792  1.00  0.00    -0.275 OA
BRANCH  20  22
ATOM     22  C   UNL A   1      35.825  22.018  25.870  1.00  0.00     0.079 C 
ATOM     23  C   UNL A   1      36.929  22.767  25.196  1.00  0.00     0.014 C 
ATOM     24  C   UNL A   1      35.923  23.508  26.032  1.00  0.00     0.014 C 
ENDBRANCH  20  22
ENDBRANCH  17  20
ENDBRANCH  12  15
ENDBRANCH   6  11
ENDBRANCH   3   6
ENDBRANCH   1   2
BRANCH   1  25
ATOM     25  C   UNL A   1      31.606  29.322  26.442  1.00  0.00     0.042 C 
BRANCH  25  26
ATOM     26  C   UNL A   1      32.711  30.355  26.287  1.00  0.00     0.118 C 
BRANCH  26  27
ATOM     27  N   UNL A   1      32.493  31.679  26.873  1.00  0.00    -0.352 N 
ATOM     28  C   UNL A   1      33.408  32.394  27.636  1.00  0.00     0.251 C 
ATOM     29  H   UNL A   1      31.617  32.100  26.711  1.00  0.00     0.163 HD
ATOM     30  O   UNL A   1      33.119  33.459  28.171  1.00  0.00    -0.269 OA
BRANCH  28  31
ATOM     31  C   UNL A   1      34.747  31.786  27.846  1.00  0.00     0.039 A 
ATOM     32  C   UNL A   1      35.872  32.599  28.009  1.00  0.00     0.014 A 
ATOM     33  C   UNL A   1      34.832  30.419  28.094  1.00  0.00     0.014 A 
ATOM     34  C   UNL A   1      37.040  32.054  28.559  1.00  0.00     0.010 A 
ATOM     35  C   UNL A   1      35.928  29.923  28.783  1.00  0.00     0.010 A 
ATOM     36  C   UNL A   1      37.051  30.728  29.025  1.00  0.00    -0.014 A 
BRANCH  36  37
ATOM     37  C   UNL A   1      38.202  30.136  29.765  1.00  0.00     0.031 A 
ATOM     38  C   UNL A   1      38.467  30.564  31.189  1.00  0.00     0.074 A 
ATOM     39  C   UNL A   1      39.091  29.344  29.130  1.00  0.00     0.049 A 
ATOM     40  N   UNL A   1      39.501  30.319  31.950  1.00  0.00    -0.248 NA
ATOM     41  C   UNL A   1      37.464  31.445  31.815  1.00  0.00     0.031 C 
ATOM     42  C   UNL A   1      39.027  28.944  27.721  1.00  0.00     0.029 A 
ATOM     43  N   UNL A   1      40.249  28.754  29.582  1.00  0.00    -0.354 N 
ATOM     44  C   UNL A   1      39.309  31.074  33.102  1.00  0.00     0.074 A 
ATOM     45  C   UNL A   1      38.092  31.829  32.915  1.00  0.00     0.031 C 
ATOM     46  C   UNL A   1      40.081  28.163  27.432  1.00  0.00     0.029 A 
ATOM     47  C   UNL A   1      40.915  28.026  28.621  1.00  0.00     0.049 A 
ATOM     48  H   UNL A   1      40.571  28.846  30.507  1.00  0.00     0.167 HD
ATOM     49  C   UNL A   1      40.046  31.101  34.238  1.00  0.00     0.034 A 
ATOM     50  C   UNL A   1      42.064  27.324  28.694  1.00  0.00     0.034 A 
ATOM     51  C   UNL A   1      41.186  30.260  34.464  1.00  0.00     0.049 A 
ATOM     52  C   UNL A   1      42.795  27.260  30.010  1.00  0.00     0.074 A 
ATOM     53  C   UNL A   1      41.926  30.103  35.622  1.00  0.00     0.029 A 
ATOM     54  N   UNL A   1      41.739  29.413  33.516  1.00  0.00    -0.354 N 
ATOM     55  N   UNL A   1      42.505  27.853  31.143  1.00  0.00    -0.248 NA
ATOM     56  C   UNL A   1      43.986  26.400  30.071  1.00  0.00     0.031 C 
ATOM     57  C   UNL A   1      42.928  29.160  35.373  1.00  0.00     0.029 A 
ATOM     58  C   UNL A   1      42.804  28.723  34.063  1.00  0.00     0.049 A 
ATOM     59  H   UNL A   1      41.420  29.319  32.590  1.00  0.00     0.167 HD
ATOM     60  C   UNL A   1      43.452  27.411  32.060  1.00  0.00     0.074 A 
ATOM     61  C   UNL A   1      44.314  26.484  31.354  1.00  0.00     0.031 C 
ATOM     62  C   UNL A   1      43.608  27.754  33.362  1.00  0.00     0.034 A 
BRANCH  49  63
ATOM     63  C   UNL A   1      39.577  32.006  35.349  1.00  0.00     0.023 A 
ATOM     64  C   UNL A   1      38.633  31.528  36.282  1.00  0.00     0.012 A 
ATOM     65  C   UNL A   1      40.076  33.316  35.484  1.00  0.00     0.148 A 
ATOM     66  C   UNL A   1      38.151  32.354  37.296  1.00  0.00     0.002 A 
ATOM     67  C   UNL A   1      39.627  34.118  36.529  1.00  0.00     0.091 A 
ATOM     68  F   UNL A   1      40.957  33.763  34.579  1.00  0.00    -0.205 F 
ATOM     69  C   UNL A   1      38.653  33.645  37.424  1.00  0.00     0.022 A 
BRANCH  67  70
ATOM     70  S   UNL A   1      40.276  35.766  36.830  1.00  0.00     0.127 S 
ATOM     71  O   UNL A   1      39.801  36.028  38.188  1.00  0.00    -0.237 OA
ATOM     72  O   UNL A   1      41.720  35.554  36.720  1.00  0.00    -0.237 OA
ATOM     73  O   UNL A   1      39.708  36.613  35.791  1.00  0.00    -0.744 OA
ENDBRANCH  67  70
ENDBRANCH  49  63
BRANCH  50  74
ATOM     74  C   UNL A   1      42.534  26.536  27.517  1.00  0.00     0.023 A 
ATOM     75  C   UNL A   1      43.351  27.165  26.557  1.00  0.00     0.012 A 
ATOM     76  C   UNL A   1      42.216  25.173  27.356  1.00  0.00     0.148 A 
ATOM     77  C   UNL A   1      43.819  26.464  25.444  1.00  0.00     0.002 A 
ATOM     78  C   UNL A   1      42.727  24.466  26.272  1.00  0.00     0.091 A 
ATOM     79  F   UNL A   1      41.429  24.592  28.273  1.00  0.00    -0.205 F 
ATOM     80  C   UNL A   1      43.516  25.113  25.307  1.00  0.00     0.022 A 
BRANCH  78  81
ATOM     81  S   UNL A   1      42.496  22.694  26.079  1.00  0.00     0.127 S 
ATOM     82  O   UNL A   1      43.156  22.174  27.274  1.00  0.00    -0.237 OA
ATOM     83  O   UNL A   1      41.038  22.577  26.080  1.00  0.00    -0.237 OA
ATOM     84  O   UNL A   1      43.124  22.352  24.810  1.00  0.00    -0.744 OA
ENDBRANCH  78  81
ENDBRANCH  50  74
BRANCH  62  85
ATOM     85  C   UNL A   1      44.724  27.104  34.131  1.00  0.00     0.023 A 
ATOM     86  C   UNL A   1      46.006  27.688  34.127  1.00  0.00     0.012 A 
ATOM     87  C   UNL A   1      44.478  25.976  34.938  1.00  0.00     0.148 A 
ATOM     88  C   UNL A   1      47.033  27.145  34.898  1.00  0.00     0.002 A 
ATOM     89  C   UNL A   1      45.493  25.467  35.738  1.00  0.00     0.091 A 
ATOM     90  F   UNL A   1      43.256  25.424  34.912  1.00  0.00    -0.205 F 
ATOM     91  C   UNL A   1      46.773  26.044  35.713  1.00  0.00     0.022 A 
BRANCH  89  92
ATOM     92  S   UNL A   1      45.219  24.117  36.892  1.00  0.00     0.127 S 
ATOM     93  O   UNL A   1      44.744  23.059  36.003  1.00  0.00    -0.237 OA
ATOM     94  O   UNL A   1      46.558  23.897  37.440  1.00  0.00    -0.237 OA
ATOM     95  O   UNL A   1      44.247  24.610  37.857  1.00  0.00    -0.744 OA
ENDBRANCH  89  92
ENDBRANCH  62  85
ENDBRANCH  36  37
ENDBRANCH  28  31
ENDBRANCH  26  27
ENDBRANCH  25  26
ENDBRANCH   1  25
TORSDOF 19
ENDMDL
MODEL 3
REMARK VINA RESULT:     -11.4      5.007     10.067
REMARK SMILES CC[C@H](C)[C@@H](NC(=O)[C@@H]1CCCN1C(=O)C1CC1)C(=O)NCCCNC(=O)c1ccc(-c2c3nc(c(-c4cccc(S(=O)(=O)[O-])c4F)c4ccc([nH]4)c(-c4cccc(S(=O)(=O)[O-])c4F)c4nc(c(-c5cccc(S(=O)(=O)[O-])c5F)c5ccc2[nH]5)C=C4)C=C3)cc1
REMARK SMILES IDX 22 1 21 2 19 3 20 4 5 6 3 7 4 8 2 9 1 10 6 11 7 12 8 14 9 15
REMARK SMILES IDX 10 16 13 17 11 18 12 19 14 20 15 21 16 22 17 23 18 24 23 25
REMARK SMILES IDX 24 26 25 27 26 28 27 30 28 31 29 32 90 33 30 34 89 35 31 36
REMARK SMILES IDX 32 37 33 38 83 39 34 40 88 41 82 42 84 43 35 44 87 45 81 46
REMARK SMILES IDX 80 47 36 49 68 50 48 51 67 52 49 53 52 54 66 55 85 56 50 57
REMARK SMILES IDX 51 58 65 60 86 61 53 62 37 63 38 64 46 65 39 66 41 67 47 68
REMARK SMILES IDX 40 69 42 70 43 71 44 72 45 73 69 74 70 75 78 76 71 77 73 78
REMARK SMILES IDX 79 79 72 80 74 81 75 82 76 83 77 84 54 85 55 86 63 87 56 88
REMARK SMILES IDX 58 89 64 90 57 91 59 92 60 93 61 94 62 95
REMARK H PARENT 21 5 6 13 25 29 84 48 52 59
REMARK Flexibility Score: inf
ROOT
ATOM      1  C   UNL A   1      36.716  22.634  23.530  1.00  0.00     0.117 C 
ENDROOT
BRANCH   1   2
ATOM      2  N   UNL A   1      35.639  23.486  23.045  1.00  0.00    -0.354 N 
ATOM      3  C   UNL A   1      34.714  24.107  23.856  1.00  0.00     0.242 C 
ATOM      4  O   UNL A   1      35.066  24.802  24.811  1.00  0.00    -0.273 OA
ATOM      5  H   UNL A   1      35.567  23.627  22.074  1.00  0.00     0.163 HD
BRANCH   3   6
ATOM      6  C   UNL A   1      33.214  24.034  23.421  1.00  0.00     0.174 C 
BRANCH   6   7
ATOM      7  C   UNL A   1      32.241  23.338  24.434  1.00  0.00     0.018 C 
ATOM      8  C   UNL A   1      32.441  21.820  24.580  1.00  0.00     0.010 C 
BRANCH   7   9
ATOM      9  C   UNL A   1      32.309  23.968  25.862  1.00  0.00     0.002 C 
ATOM     10  C   UNL A   1      32.881  23.078  26.965  1.00  0.00     0.004 C 
ENDBRANCH   7   9
ENDBRANCH   6   7
BRANCH   6  11
ATOM     11  N   UNL A   1      32.578  25.104  22.585  1.00  0.00    -0.342 N 
ATOM     12  C   UNL A   1      31.543  25.972  22.548  1.00  0.00     0.243 C 
ATOM     13  H   UNL A   1      33.109  25.215  21.762  1.00  0.00     0.164 HD
ATOM     14  O   UNL A   1      31.219  26.300  21.390  1.00  0.00    -0.273 OA
BRANCH  12  15
ATOM     15  C   UNL A   1      30.922  26.799  23.694  1.00  0.00     0.174 C 
ATOM     16  C   UNL A   1      29.629  27.463  23.179  1.00  0.00     0.037 C 
ATOM     17  N   UNL A   1      31.701  27.859  24.260  1.00  0.00    -0.330 N 
ATOM     18  C   UNL A   1      29.745  28.951  23.479  1.00  0.00     0.024 C 
ATOM     19  C   UNL A   1      31.184  29.157  23.884  1.00  0.00     0.120 C 
BRANCH  17  20
ATOM     20  C   UNL A   1      32.949  27.724  24.811  1.00  0.00     0.226 C 
ATOM     21  O   UNL A   1      33.931  27.761  24.093  1.00  0.00    -0.275 OA
BRANCH  20  22
ATOM     22  C   UNL A   1      33.228  27.635  26.261  1.00  0.00     0.079 C 
ATOM     23  C   UNL A   1      33.901  28.593  27.189  1.00  0.00     0.014 C 
ATOM     24  C   UNL A   1      32.414  28.383  27.278  1.00  0.00     0.014 C 
ENDBRANCH  20  22
ENDBRANCH  17  20
ENDBRANCH  12  15
ENDBRANCH   6  11
ENDBRANCH   3   6
ENDBRANCH   1   2
BRANCH   1  25
ATOM     25  C   UNL A   1      36.189  21.596  24.532  1.00  0.00     0.042 C 
BRANCH  25  26
ATOM     26  C   UNL A   1      37.095  21.441  25.743  1.00  0.00     0.118 C 
BRANCH  26  27
ATOM     27  N   UNL A   1      38.262  20.566  25.612  1.00  0.00    -0.352 N 
ATOM     28  C   UNL A   1      39.549  20.853  26.052  1.00  0.00     0.251 C 
ATOM     29  H   UNL A   1      38.121  19.696  25.172  1.00  0.00     0.163 HD
ATOM     30  O   UNL A   1      40.496  20.108  25.823  1.00  0.00    -0.269 OA
BRANCH  28  31
ATOM     31  C   UNL A   1      39.760  22.143  26.756  1.00  0.00     0.039 A 
ATOM     32  C   UNL A   1      40.716  22.243  27.771  1.00  0.00     0.014 A 
ATOM     33  C   UNL A   1      39.156  23.291  26.252  1.00  0.00     0.014 A 
ATOM     34  C   UNL A   1      41.163  23.510  28.172  1.00  0.00     0.010 A 
ATOM     35  C   UNL A   1      39.713  24.529  26.533  1.00  0.00     0.010 A 
ATOM     36  C   UNL A   1      40.721  24.662  27.499  1.00  0.00    -0.014 A 
BRANCH  36  37
ATOM     37  C   UNL A   1      41.275  26.020  27.763  1.00  0.00     0.031 A 
ATOM     38  C   UNL A   1      42.687  26.342  27.333  1.00  0.00     0.074 A 
ATOM     39  C   UNL A   1      40.588  26.907  28.513  1.00  0.00     0.049 A 
ATOM     40  N   UNL A   1      43.423  27.383  27.617  1.00  0.00    -0.248 NA
ATOM     41  C   UNL A   1      43.386  25.321  26.532  1.00  0.00     0.031 C 
ATOM     42  C   UNL A   1      39.262  26.686  29.099  1.00  0.00     0.029 A 
ATOM     43  N   UNL A   1      40.925  28.170  28.942  1.00  0.00    -0.354 N 
ATOM     44  C   UNL A   1      44.684  27.105  27.101  1.00  0.00     0.074 A 
ATOM     45  C   UNL A   1      44.629  25.775  26.540  1.00  0.00     0.031 C 
ATOM     46  C   UNL A   1      38.893  27.778  29.788  1.00  0.00     0.029 A 
ATOM     47  C   UNL A   1      39.962  28.769  29.723  1.00  0.00     0.049 A 
ATOM     48  H   UNL A   1      41.778  28.604  28.712  1.00  0.00     0.167 HD
ATOM     49  C   UNL A   1      45.780  27.900  27.048  1.00  0.00     0.034 A 
ATOM     50  C   UNL A   1      39.943  29.981  30.313  1.00  0.00     0.034 A 
ATOM     51  C   UNL A   1      45.795  29.262  27.500  1.00  0.00     0.049 A 
ATOM     52  C   UNL A   1      41.121  30.901  30.126  1.00  0.00     0.074 A 
ATOM     53  C   UNL A   1      46.802  30.201  27.373  1.00  0.00     0.029 A 
ATOM     54  N   UNL A   1      44.740  29.887  28.147  1.00  0.00    -0.354 N 
ATOM     55  N   UNL A   1      42.246  30.679  29.490  1.00  0.00    -0.248 NA
ATOM     56  C   UNL A   1      41.013  32.250  30.700  1.00  0.00     0.031 C 
ATOM     57  C   UNL A   1      46.354  31.397  27.945  1.00  0.00     0.029 A 
ATOM     58  C   UNL A   1      45.065  31.202  28.418  1.00  0.00     0.049 A 
ATOM     59  H   UNL A   1      43.886  29.456  28.379  1.00  0.00     0.167 HD
ATOM     60  C   UNL A   1      42.963  31.868  29.555  1.00  0.00     0.074 A 
ATOM     61  C   UNL A   1      42.136  32.815  30.276  1.00  0.00     0.031 C 
ATOM     62  C   UNL A   1      44.201  32.148  29.078  1.00  0.00     0.034 A 
BRANCH  49  63
ATOM     63  C   UNL A   1      47.017  27.336  26.396  1.00  0.00     0.023 A 
ATOM     64  C   UNL A   1      47.227  27.536  25.015  1.00  0.00     0.012 A 
ATOM     65  C   UNL A   1      47.978  26.626  27.142  1.00  0.00     0.148 A 
ATOM     66  C   UNL A   1      48.340  26.992  24.377  1.00  0.00     0.002 A 
ATOM     67  C   UNL A   1      49.112  26.131  26.507  1.00  0.00     0.091 A 
ATOM     68  F   UNL A   1      47.756  26.427  28.450  1.00  0.00    -0.205 F 
ATOM     69  C   UNL A   1      49.286  26.298  25.123  1.00  0.00     0.022 A 
BRANCH  67  70
ATOM     70  S   UNL A   1      50.430  25.294  27.397  1.00  0.00     0.127 S 
ATOM     71  O   UNL A   1      51.359  24.972  26.315  1.00  0.00    -0.237 OA
ATOM     72  O   UNL A   1      50.898  26.339  28.309  1.00  0.00    -0.237 OA
ATOM     73  O   UNL A   1      49.807  24.154  28.053  1.00  0.00    -0.744 OA
ENDBRANCH  67  70
ENDBRANCH  49  63
BRANCH  50  74
ATOM     74  C   UNL A   1      38.723  30.437  31.043  1.00  0.00     0.023 A 
ATOM     75  C   UNL A   1      38.634  30.212  32.432  1.00  0.00     0.012 A 
ATOM     76  C   UNL A   1      37.674  31.117  30.394  1.00  0.00     0.148 A 
ATOM     77  C   UNL A   1      37.515  30.628  33.155  1.00  0.00     0.002 A 
ATOM     78  C   UNL A   1      36.585  31.574  31.128  1.00  0.00     0.091 A 
ATOM     79  F   UNL A   1      37.770  31.314  29.071  1.00  0.00    -0.205 F 
ATOM     80  C   UNL A   1      36.496  31.317  32.505  1.00  0.00     0.022 A 
BRANCH  78  81
ATOM     81  S   UNL A   1      35.285  32.582  30.403  1.00  0.00     0.127 S 
ATOM     82  O   UNL A   1      34.812  31.725  29.319  1.00  0.00    -0.237 OA
ATOM     83  O   UNL A   1      34.354  32.728  31.523  1.00  0.00    -0.237 OA
ATOM     84  O   UNL A   1      35.931  33.821  29.995  1.00  0.00    -0.744 OA
ENDBRANCH  78  81
ENDBRANCH  50  74
BRANCH  62  85
ATOM     85  C   UNL A   1      44.734  33.540  29.280  1.00  0.00     0.023 A 
ATOM     86  C   UNL A   1      45.440  33.851  30.458  1.00  0.00     0.012 A 
ATOM     87  C   UNL A   1      44.624  34.505  28.260  1.00  0.00     0.148 A 
ATOM     88  C   UNL A   1      46.011  35.112  30.628  1.00  0.00     0.002 A 
ATOM     89  C   UNL A   1      45.233  35.744  28.417  1.00  0.00     0.091 A 
ATOM     90  F   UNL A   1      43.930  34.194  27.156  1.00  0.00    -0.205 F 
ATOM     91  C   UNL A   1      45.919  36.052  29.603  1.00  0.00     0.022 A 
BRANCH  89  92
ATOM     92  S   UNL A   1      45.251  36.975  27.109  1.00  0.00     0.127 S 
ATOM     93  O   UNL A   1      43.823  37.202  26.895  1.00  0.00    -0.237 OA
ATOM     94  O   UNL A   1      45.957  38.091  27.740  1.00  0.00    -0.237 OA
ATOM     95  O   UNL A   1      45.963  36.364  25.996  1.00  0.00    -0.744 OA
ENDBRANCH  89  92
ENDBRANCH  62  85
ENDBRANCH  36  37
ENDBRANCH  28  31
ENDBRANCH  26  27
ENDBRANCH  25  26
ENDBRANCH   1  25
TORSDOF 19
ENDMDL
