MODEL 1
REMARK VINA RESULT:     -12.8      0.000      0.000
REMARK SMILES C[C@@H]1[C@H](C(=O)NCCCNC(=O)c2ccc(-c3c4nc(c(-c5cccc(S(=O)(=O)[O-])c5F)c5ccc([nH]5)c(-c5cccc(S(=O)(=O)[O-])c5F)c5nc(c(-c6cccc(S(=O)(=O)[O-])c6F)c6ccc3[nH]6)C=C5)C=C4)cc2)CCN1S(=O)(=O)c1cc(F)cc(F)c1
REMARK SMILES IDX 8 1 7 2 6 3 4 4 5 5 3 7 1 8 2 9 78 10 76 11 77 12 79 13
REMARK SMILES IDX 80 14 81 15 82 16 83 17 89 18 84 19 87 20 85 21 86 22 88 23
REMARK SMILES IDX 9 24 10 25 11 26 12 28 13 29 14 30 75 31 15 32 74 33 16 34
REMARK SMILES IDX 17 35 18 36 68 37 19 38 73 39 67 40 69 41 20 42 72 43 66 44
REMARK SMILES IDX 65 45 21 47 53 48 33 49 52 50 34 51 37 52 51 53 70 54 35 55
REMARK SMILES IDX 36 56 50 58 71 59 38 60 22 61 23 62 31 63 24 64 26 65 32 66
REMARK SMILES IDX 25 67 27 68 28 69 29 70 30 71 54 72 55 73 63 74 56 75 58 76
REMARK SMILES IDX 64 77 57 78 59 79 60 80 61 81 62 82 39 83 40 84 48 85 41 86
REMARK SMILES IDX 43 87 49 88 42 89 44 90 45 91 46 92 47 93
REMARK H PARENT 6 6 10 27 69 46 37 57
REMARK Flexibility Score: inf
ROOT
ATOM      1  C   UNL A   1      31.440  32.284  26.736  1.00  0.00     0.042 C 
ENDROOT
BRANCH   1   2
ATOM      2  C   UNL A   1      31.459  30.770  26.498  1.00  0.00     0.117 C 
BRANCH   2   3
ATOM      3  N   UNL A   1      32.627  30.092  27.053  1.00  0.00    -0.356 N 
ATOM      4  C   UNL A   1      33.524  29.185  26.596  1.00  0.00     0.224 C 
ATOM      5  O   UNL A   1      34.436  28.905  27.386  1.00  0.00    -0.275 OA
ATOM      6  H   UNL A   1      32.806  30.358  27.984  1.00  0.00     0.163 HD
BRANCH   4   7
ATOM      7  C   UNL A   1      33.497  28.472  25.249  1.00  0.00     0.098 C 
ATOM      8  C   UNL A   1      31.219  27.435  25.771  1.00  0.00     0.026 C 
ATOM      9  C   UNL A   1      32.553  27.266  25.085  1.00  0.00     0.082 C 
ATOM     10  N   UNL A   1      32.483  27.032  23.593  1.00  0.00    -0.194 NA
ATOM     11  C   UNL A   1      33.306  29.275  23.986  1.00  0.00     0.032 C 
ATOM     12  C   UNL A   1      33.202  28.182  22.932  1.00  0.00     0.104 C 
BRANCH  10  13
ATOM     13  S   UNL A   1      31.069  26.613  22.737  1.00  0.00     0.243 S 
ATOM     14  O   UNL A   1      31.468  26.421  21.351  1.00  0.00    -0.207 OA
ATOM     15  O   UNL A   1      30.467  25.527  23.471  1.00  0.00    -0.207 OA
BRANCH  13  16
ATOM     16  C   UNL A   1      29.888  27.930  22.765  1.00  0.00     0.088 A 
ATOM     17  C   UNL A   1      28.629  27.612  23.291  1.00  0.00     0.061 A 
ATOM     18  C   UNL A   1      30.119  29.205  22.256  1.00  0.00     0.061 A 
ATOM     19  C   UNL A   1      27.600  28.545  23.236  1.00  0.00     0.127 A 
ATOM     20  C   UNL A   1      29.054  30.101  22.161  1.00  0.00     0.127 A 
ATOM     21  F   UNL A   1      26.412  28.233  23.765  1.00  0.00    -0.207 F 
ATOM     22  C   UNL A   1      27.789  29.781  22.638  1.00  0.00     0.078 A 
ATOM     23  F   UNL A   1      29.261  31.289  21.580  1.00  0.00    -0.207 F 
ENDBRANCH  13  16
ENDBRANCH  10  13
ENDBRANCH   4   7
ENDBRANCH   2   3
ENDBRANCH   1   2
BRANCH   1  24
ATOM     24  C   UNL A   1      32.755  32.881  27.219  1.00  0.00     0.118 C 
BRANCH  24  25
ATOM     25  N   UNL A   1      32.592  34.261  27.636  1.00  0.00    -0.352 N 
ATOM     26  C   UNL A   1      33.107  34.931  28.720  1.00  0.00     0.251 C 
ATOM     27  H   UNL A   1      32.020  34.805  27.048  1.00  0.00     0.163 HD
ATOM     28  O   UNL A   1      32.600  36.008  29.031  1.00  0.00    -0.269 OA
BRANCH  26  29
ATOM     29  C   UNL A   1      34.244  34.402  29.521  1.00  0.00     0.039 A 
ATOM     30  C   UNL A   1      35.541  34.535  29.007  1.00  0.00     0.014 A 
ATOM     31  C   UNL A   1      34.056  33.678  30.702  1.00  0.00     0.014 A 
ATOM     32  C   UNL A   1      36.633  33.963  29.674  1.00  0.00     0.010 A 
ATOM     33  C   UNL A   1      35.154  33.177  31.409  1.00  0.00     0.010 A 
ATOM     34  C   UNL A   1      36.452  33.283  30.888  1.00  0.00    -0.014 A 
BRANCH  34  35
ATOM     35  C   UNL A   1      37.591  32.628  31.592  1.00  0.00     0.031 A 
ATOM     36  C   UNL A   1      38.324  31.477  30.944  1.00  0.00     0.074 A 
ATOM     37  C   UNL A   1      37.934  33.013  32.837  1.00  0.00     0.049 A 
ATOM     38  N   UNL A   1      39.294  30.740  31.423  1.00  0.00    -0.248 NA
ATOM     39  C   UNL A   1      37.893  31.088  29.591  1.00  0.00     0.031 C 
ATOM     40  C   UNL A   1      37.269  34.064  33.610  1.00  0.00     0.029 A 
ATOM     41  N   UNL A   1      38.912  32.548  33.682  1.00  0.00    -0.354 N 
ATOM     42  C   UNL A   1      39.556  29.776  30.455  1.00  0.00     0.074 A 
ATOM     43  C   UNL A   1      38.624  30.004  29.372  1.00  0.00     0.031 C 
ATOM     44  C   UNL A   1      37.859  34.164  34.812  1.00  0.00     0.029 A 
ATOM     45  C   UNL A   1      38.929  33.174  34.907  1.00  0.00     0.049 A 
ATOM     46  H   UNL A   1      39.542  31.834  33.433  1.00  0.00     0.167 HD
ATOM     47  C   UNL A   1      40.506  28.810  30.446  1.00  0.00     0.034 A 
ATOM     48  C   UNL A   1      39.715  32.975  35.984  1.00  0.00     0.034 A 
ATOM     49  C   UNL A   1      41.485  28.627  31.482  1.00  0.00     0.049 A 
ATOM     50  C   UNL A   1      40.809  31.943  35.922  1.00  0.00     0.074 A 
ATOM     51  C   UNL A   1      42.544  27.736  31.519  1.00  0.00     0.029 A 
ATOM     52  N   UNL A   1      41.534  29.354  32.661  1.00  0.00    -0.354 N 
ATOM     53  N   UNL A   1      41.134  31.145  34.934  1.00  0.00    -0.248 NA
ATOM     54  C   UNL A   1      41.671  31.811  37.107  1.00  0.00     0.031 C 
ATOM     55  C   UNL A   1      43.235  27.925  32.721  1.00  0.00     0.029 A 
ATOM     56  C   UNL A   1      42.606  28.936  33.430  1.00  0.00     0.049 A 
ATOM     57  H   UNL A   1      40.900  30.064  32.913  1.00  0.00     0.167 HD
ATOM     58  C   UNL A   1      42.253  30.439  35.365  1.00  0.00     0.074 A 
ATOM     59  C   UNL A   1      42.564  30.921  36.695  1.00  0.00     0.031 C 
ATOM     60  C   UNL A   1      42.946  29.467  34.724  1.00  0.00     0.034 A 
BRANCH  47  61
ATOM     61  C   UNL A   1      40.584  27.918  29.234  1.00  0.00     0.023 A 
ATOM     62  C   UNL A   1      39.714  26.813  29.135  1.00  0.00     0.012 A 
ATOM     63  C   UNL A   1      41.467  28.198  28.174  1.00  0.00     0.148 A 
ATOM     64  C   UNL A   1      39.742  25.982  28.017  1.00  0.00     0.002 A 
ATOM     65  C   UNL A   1      41.464  27.386  27.044  1.00  0.00     0.091 A 
ATOM     66  F   UNL A   1      42.305  29.238  28.294  1.00  0.00    -0.205 F 
ATOM     67  C   UNL A   1      40.610  26.274  26.968  1.00  0.00     0.022 A 
BRANCH  65  68
ATOM     68  S   UNL A   1      42.497  27.725  25.612  1.00  0.00     0.127 S 
ATOM     69  O   UNL A   1      43.820  27.842  26.223  1.00  0.00    -0.237 OA
ATOM     70  O   UNL A   1      42.306  26.523  24.798  1.00  0.00    -0.237 OA
ATOM     71  O   UNL A   1      41.964  28.944  25.020  1.00  0.00    -0.744 OA
ENDBRANCH  65  68
ENDBRANCH  47  61
BRANCH  48  72
ATOM     72  C   UNL A   1      39.550  33.840  37.187  1.00  0.00     0.023 A 
ATOM     73  C   UNL A   1      40.026  35.166  37.147  1.00  0.00     0.012 A 
ATOM     74  C   UNL A   1      38.894  33.379  38.344  1.00  0.00     0.148 A 
ATOM     75  C   UNL A   1      39.872  36.009  38.248  1.00  0.00     0.002 A 
ATOM     76  C   UNL A   1      38.698  34.242  39.417  1.00  0.00     0.091 A 
ATOM     77  F   UNL A   1      38.467  32.109  38.372  1.00  0.00    -0.205 F 
ATOM     78  C   UNL A   1      39.198  35.552  39.377  1.00  0.00     0.022 A 
BRANCH  76  79
ATOM     79  S   UNL A   1      37.724  33.766  40.850  1.00  0.00     0.127 S 
ATOM     80  O   UNL A   1      37.485  35.053  41.493  1.00  0.00    -0.237 OA
ATOM     81  O   UNL A   1      36.545  33.156  40.232  1.00  0.00    -0.237 OA
ATOM     82  O   UNL A   1      38.560  32.826  41.587  1.00  0.00    -0.744 OA
ENDBRANCH  76  79
ENDBRANCH  48  72
BRANCH  60  83
ATOM     83  C   UNL A   1      44.130  28.865  35.434  1.00  0.00     0.023 A 
ATOM     84  C   UNL A   1      45.412  29.405  35.222  1.00  0.00     0.012 A 
ATOM     85  C   UNL A   1      43.961  27.828  36.373  1.00  0.00     0.148 A 
ATOM     86  C   UNL A   1      46.515  28.907  35.914  1.00  0.00     0.002 A 
ATOM     87  C   UNL A   1      45.059  27.363  37.088  1.00  0.00     0.091 A 
ATOM     88  F   UNL A   1      42.736  27.311  36.546  1.00  0.00    -0.205 F 
ATOM     89  C   UNL A   1      46.337  27.895  36.856  1.00  0.00     0.022 A 
BRANCH  87  90
ATOM     90  S   UNL A   1      44.900  26.124  38.382  1.00  0.00     0.127 S 
ATOM     91  O   UNL A   1      44.474  24.951  37.620  1.00  0.00    -0.237 OA
ATOM     92  O   UNL A   1      46.261  26.044  38.912  1.00  0.00    -0.237 OA
ATOM     93  O   UNL A   1      43.922  26.657  39.321  1.00  0.00    -0.744 OA
ENDBRANCH  87  90
ENDBRANCH  60  83
ENDBRANCH  34  35
ENDBRANCH  26  29
ENDBRANCH  24  25
ENDBRANCH   1  24
TORSDOF 15
ENDMDL
MODEL 2
REMARK VINA RESULT:     -12.7      2.998      8.534
REMARK SMILES C[C@@H]1[C@H](C(=O)NCCCNC(=O)c2ccc(-c3c4nc(c(-c5cccc(S(=O)(=O)[O-])c5F)c5ccc([nH]5)c(-c5cccc(S(=O)(=O)[O-])c5F)c5nc(c(-c6cccc(S(=O)(=O)[O-])c6F)c6ccc3[nH]6)C=C5)C=C4)cc2)CCN1S(=O)(=O)c1cc(F)cc(F)c1
REMARK SMILES IDX 8 1 7 2 6 3 4 4 5 5 3 7 1 8 2 9 78 10 76 11 77 12 79 13
REMARK SMILES IDX 80 14 81 15 82 16 83 17 89 18 84 19 87 20 85 21 86 22 88 23
REMARK SMILES IDX 9 24 10 25 11 26 12 28 13 29 14 30 75 31 15 32 74 33 16 34
REMARK SMILES IDX 17 35 18 36 68 37 19 38 73 39 67 40 69 41 20 42 72 43 66 44
REMARK SMILES IDX 65 45 21 47 53 48 33 49 52 50 34 51 37 52 51 53 70 54 35 55
REMARK SMILES IDX 36 56 50 58 71 59 38 60 22 61 23 62 31 63 24 64 26 65 32 66
REMARK SMILES IDX 25 67 27 68 28 69 29 70 30 71 54 72 55 73 63 74 56 75 58 76
REMARK SMILES IDX 64 77 57 78 59 79 60 80 61 81 62 82 39 83 40 84 48 85 41 86
REMARK SMILES IDX 43 87 49 88 42 89 44 90 45 91 46 92 47 93
REMARK H PARENT 6 6 10 27 69 46 37 57
REMARK Flexibility Score: inf
ROOT
ATOM      1  C   UNL A   1      31.111  31.085  25.702  1.00  0.00     0.042 C 
ENDROOT
BRANCH   1   2
ATOM      2  C   UNL A   1      31.272  29.758  24.953  1.00  0.00     0.117 C 
BRANCH   2   3
ATOM      3  N   UNL A   1      30.720  29.763  23.601  1.00  0.00    -0.356 N 
ATOM      4  C   UNL A   1      30.352  28.816  22.706  1.00  0.00     0.224 C 
ATOM      5  O   UNL A   1      29.850  29.249  21.659  1.00  0.00    -0.275 OA
ATOM      6  H   UNL A   1      30.581  30.676  23.259  1.00  0.00     0.163 HD
BRANCH   4   7
ATOM      7  C   UNL A   1      30.525  27.307  22.848  1.00  0.00     0.098 C 
ATOM      8  C   UNL A   1      33.048  27.496  22.487  1.00  0.00     0.026 C 
ATOM      9  C   UNL A   1      31.804  26.667  22.281  1.00  0.00     0.082 C 
ATOM     10  N   UNL A   1      31.846  25.284  22.893  1.00  0.00    -0.194 NA
ATOM     11  C   UNL A   1      30.347  26.664  24.202  1.00  0.00     0.032 C 
ATOM     12  C   UNL A   1      30.739  25.221  23.916  1.00  0.00     0.104 C 
BRANCH  10  13
ATOM     13  S   UNL A   1      33.256  24.511  23.458  1.00  0.00     0.243 S 
ATOM     14  O   UNL A   1      34.190  24.490  22.343  1.00  0.00    -0.207 OA
ATOM     15  O   UNL A   1      33.613  25.180  24.685  1.00  0.00    -0.207 OA
BRANCH  13  16
ATOM     16  C   UNL A   1      32.931  22.829  23.901  1.00  0.00     0.088 A 
ATOM     17  C   UNL A   1      33.266  22.466  25.213  1.00  0.00     0.061 A 
ATOM     18  C   UNL A   1      32.432  21.868  23.027  1.00  0.00     0.061 A 
ATOM     19  C   UNL A   1      33.166  21.137  25.609  1.00  0.00     0.127 A 
ATOM     20  C   UNL A   1      32.396  20.533  23.434  1.00  0.00     0.127 A 
ATOM     21  F   UNL A   1      33.467  20.812  26.871  1.00  0.00    -0.207 F 
ATOM     22  C   UNL A   1      32.769  20.153  24.717  1.00  0.00     0.078 A 
ATOM     23  F   UNL A   1      32.008  19.602  22.554  1.00  0.00    -0.207 F 
ENDBRANCH  13  16
ENDBRANCH  10  13
ENDBRANCH   4   7
ENDBRANCH   2   3
ENDBRANCH   1   2
BRANCH   1  24
ATOM     24  C   UNL A   1      32.149  31.349  26.785  1.00  0.00     0.118 C 
BRANCH  24  25
ATOM     25  N   UNL A   1      32.389  32.769  26.957  1.00  0.00    -0.352 N 
ATOM     26  C   UNL A   1      33.346  33.428  27.692  1.00  0.00     0.251 C 
ATOM     27  H   UNL A   1      31.767  33.356  26.469  1.00  0.00     0.163 HD
ATOM     28  O   UNL A   1      33.176  34.625  27.924  1.00  0.00    -0.269 OA
BRANCH  26  29
ATOM     29  C   UNL A   1      34.564  32.751  28.212  1.00  0.00     0.039 A 
ATOM     30  C   UNL A   1      34.438  31.453  28.725  1.00  0.00     0.014 A 
ATOM     31  C   UNL A   1      35.797  33.401  28.316  1.00  0.00     0.014 A 
ATOM     32  C   UNL A   1      35.534  30.812  29.319  1.00  0.00     0.010 A 
ATOM     33  C   UNL A   1      36.910  32.732  28.836  1.00  0.00     0.010 A 
ATOM     34  C   UNL A   1      36.785  31.443  29.375  1.00  0.00    -0.014 A 
BRANCH  34  35
ATOM     35  C   UNL A   1      37.953  30.801  30.042  1.00  0.00     0.031 A 
ATOM     36  C   UNL A   1      38.297  31.147  31.471  1.00  0.00     0.074 A 
ATOM     37  C   UNL A   1      38.749  29.957  29.355  1.00  0.00     0.049 A 
ATOM     38  N   UNL A   1      39.308  30.744  32.200  1.00  0.00    -0.248 NA
ATOM     39  C   UNL A   1      37.403  32.089  32.164  1.00  0.00     0.031 C 
ATOM     40  C   UNL A   1      38.576  29.586  27.951  1.00  0.00     0.029 A 
ATOM     41  N   UNL A   1      39.879  29.277  29.742  1.00  0.00    -0.354 N 
ATOM     42  C   UNL A   1      39.198  31.415  33.412  1.00  0.00     0.074 A 
ATOM     43  C   UNL A   1      38.037  32.274  33.313  1.00  0.00     0.031 C 
ATOM     44  C   UNL A   1      39.561  28.745  27.594  1.00  0.00     0.029 A 
ATOM     45  C   UNL A   1      40.448  28.532  28.734  1.00  0.00     0.049 A 
ATOM     46  H   UNL A   1      40.246  29.319  30.654  1.00  0.00     0.167 HD
ATOM     47  C   UNL A   1      39.966  31.306  34.523  1.00  0.00     0.034 A 
ATOM     48  C   UNL A   1      41.557  27.765  28.728  1.00  0.00     0.034 A 
ATOM     49  C   UNL A   1      41.072  30.398  34.656  1.00  0.00     0.049 A 
ATOM     50  C   UNL A   1      42.353  27.605  29.996  1.00  0.00     0.074 A 
ATOM     51  C   UNL A   1      41.852  30.150  35.772  1.00  0.00     0.029 A 
ATOM     52  N   UNL A   1      41.551  29.581  33.644  1.00  0.00    -0.354 N 
ATOM     53  N   UNL A   1      42.140  28.134  31.177  1.00  0.00    -0.248 NA
ATOM     54  C   UNL A   1      43.520  26.710  29.942  1.00  0.00     0.031 C 
ATOM     55  C   UNL A   1      42.804  29.181  35.435  1.00  0.00     0.029 A 
ATOM     56  C   UNL A   1      42.613  28.825  34.109  1.00  0.00     0.049 A 
ATOM     57  H   UNL A   1      41.189  29.544  32.729  1.00  0.00     0.167 HD
ATOM     58  C   UNL A   1      43.124  27.615  32.011  1.00  0.00     0.074 A 
ATOM     59  C   UNL A   1      43.921  26.712  31.208  1.00  0.00     0.031 C 
ATOM     60  C   UNL A   1      43.357  27.880  33.320  1.00  0.00     0.034 A 
BRANCH  47  61
ATOM     61  C   UNL A   1      39.587  32.140  35.720  1.00  0.00     0.023 A 
ATOM     62  C   UNL A   1      40.141  33.427  35.865  1.00  0.00     0.012 A 
ATOM     63  C   UNL A   1      38.648  31.681  36.664  1.00  0.00     0.148 A 
ATOM     64  C   UNL A   1      39.793  34.234  36.947  1.00  0.00     0.002 A 
ATOM     65  C   UNL A   1      38.277  32.506  37.720  1.00  0.00     0.091 A 
ATOM     66  F   UNL A   1      38.148  30.444  36.524  1.00  0.00    -0.205 F 
ATOM     67  C   UNL A   1      38.854  33.778  37.868  1.00  0.00     0.022 A 
BRANCH  65  68
ATOM     68  S   UNL A   1      37.023  32.032  38.918  1.00  0.00     0.127 S 
ATOM     69  O   UNL A   1      37.622  32.490  40.170  1.00  0.00    -0.237 OA
ATOM     70  O   UNL A   1      35.861  32.808  38.479  1.00  0.00    -0.237 OA
ATOM     71  O   UNL A   1      36.870  30.590  38.781  1.00  0.00    -0.744 OA
ENDBRANCH  65  68
ENDBRANCH  47  61
BRANCH  48  72
ATOM     72  C   UNL A   1      41.927  27.015  27.495  1.00  0.00     0.023 A 
ATOM     73  C   UNL A   1      42.477  27.718  26.404  1.00  0.00     0.012 A 
ATOM     74  C   UNL A   1      41.781  25.618  27.408  1.00  0.00     0.148 A 
ATOM     75  C   UNL A   1      42.853  27.046  25.241  1.00  0.00     0.002 A 
ATOM     76  C   UNL A   1      42.206  24.948  26.266  1.00  0.00     0.091 A 
ATOM     77  F   UNL A   1      41.237  24.967  28.447  1.00  0.00    -0.205 F 
ATOM     78  C   UNL A   1      42.729  25.661  25.176  1.00  0.00     0.022 A 
BRANCH  76  79
ATOM     79  S   UNL A   1      42.202  23.154  26.162  1.00  0.00     0.127 S 
ATOM     80  O   UNL A   1      43.032  22.785  27.305  1.00  0.00    -0.237 OA
ATOM     81  O   UNL A   1      40.779  22.840  26.306  1.00  0.00    -0.237 OA
ATOM     82  O   UNL A   1      42.749  22.844  24.846  1.00  0.00    -0.744 OA
ENDBRANCH  76  79
ENDBRANCH  48  72
BRANCH  60  83
ATOM     83  C   UNL A   1      44.507  27.170  33.984  1.00  0.00     0.023 A 
ATOM     84  C   UNL A   1      45.808  27.692  33.859  1.00  0.00     0.012 A 
ATOM     85  C   UNL A   1      44.288  26.042  34.800  1.00  0.00     0.148 A 
ATOM     86  C   UNL A   1      46.880  27.089  34.516  1.00  0.00     0.002 A 
ATOM     87  C   UNL A   1      45.356  25.470  35.483  1.00  0.00     0.091 A 
ATOM     88  F   UNL A   1      43.045  25.545  34.890  1.00  0.00    -0.205 F 
ATOM     89  C   UNL A   1      46.653  25.987  35.337  1.00  0.00     0.022 A 
BRANCH  87  90
ATOM     90  S   UNL A   1      45.132  24.102  36.629  1.00  0.00     0.127 S 
ATOM     91  O   UNL A   1      44.598  23.063  35.752  1.00  0.00    -0.237 OA
ATOM     92  O   UNL A   1      46.496  23.859  37.101  1.00  0.00    -0.237 OA
ATOM     93  O   UNL A   1      44.222  24.592  37.656  1.00  0.00    -0.744 OA
ENDBRANCH  87  90
ENDBRANCH  60  83
ENDBRANCH  34  35
ENDBRANCH  26  29
ENDBRANCH  24  25
ENDBRANCH   1  24
TORSDOF 15
ENDMDL
MODEL 3
REMARK VINA RESULT:     -12.6      5.879      9.047
REMARK SMILES C[C@@H]1[C@H](C(=O)NCCCNC(=O)c2ccc(-c3c4nc(c(-c5cccc(S(=O)(=O)[O-])c5F)c5ccc([nH]5)c(-c5cccc(S(=O)(=O)[O-])c5F)c5nc(c(-c6cccc(S(=O)(=O)[O-])c6F)c6ccc3[nH]6)C=C5)C=C4)cc2)CCN1S(=O)(=O)c1cc(F)cc(F)c1
REMARK SMILES IDX 8 1 7 2 6 3 4 4 5 5 3 7 1 8 2 9 78 10 76 11 77 12 79 13
REMARK SMILES IDX 80 14 81 15 82 16 83 17 89 18 84 19 87 20 85 21 86 22 88 23
REMARK SMILES IDX 9 24 10 25 11 26 12 28 13 29 14 30 75 31 15 32 74 33 16 34
REMARK SMILES IDX 17 35 18 36 68 37 19 38 73 39 67 40 69 41 20 42 72 43 66 44
REMARK SMILES IDX 65 45 21 47 53 48 33 49 52 50 34 51 37 52 51 53 70 54 35 55
REMARK SMILES IDX 36 56 50 58 71 59 38 60 22 61 23 62 31 63 24 64 26 65 32 66
REMARK SMILES IDX 25 67 27 68 28 69 29 70 30 71 54 72 55 73 63 74 56 75 58 76
REMARK SMILES IDX 64 77 57 78 59 79 60 80 61 81 62 82 39 83 40 84 48 85 41 86
REMARK SMILES IDX 43 87 49 88 42 89 44 90 45 91 46 92 47 93
REMARK H PARENT 6 6 10 27 69 46 37 57
REMARK Flexibility Score: inf
ROOT
ATOM      1  C   UNL A   1      36.298  20.892  24.704  1.00  0.00     0.042 C 
ENDROOT
BRANCH   1   2
ATOM      2  C   UNL A   1      35.246  21.115  25.796  1.00  0.00     0.117 C 
BRANCH   2   3
ATOM      3  N   UNL A   1      34.100  20.213  25.715  1.00  0.00    -0.356 N 
ATOM      4  C   UNL A   1      32.837  20.298  25.233  1.00  0.00     0.224 C 
ATOM      5  O   UNL A   1      32.177  19.252  25.301  1.00  0.00    -0.275 OA
ATOM      6  H   UNL A   1      34.292  19.330  26.106  1.00  0.00     0.163 HD
BRANCH   4   7
ATOM      7  C   UNL A   1      32.159  21.538  24.660  1.00  0.00     0.098 C 
ATOM      8  C   UNL A   1      32.117  22.657  26.958  1.00  0.00     0.026 C 
ATOM      9  C   UNL A   1      31.420  22.475  25.632  1.00  0.00     0.082 C 
ATOM     10  N   UNL A   1      31.196  23.747  24.844  1.00  0.00    -0.194 NA
ATOM     11  C   UNL A   1      32.942  22.465  23.762  1.00  0.00     0.032 C 
ATOM     12  C   UNL A   1      31.953  23.602  23.547  1.00  0.00     0.104 C 
BRANCH  10  13
ATOM     13  S   UNL A   1      31.348  25.324  25.475  1.00  0.00     0.243 S 
ATOM     14  O   UNL A   1      30.459  25.394  26.626  1.00  0.00    -0.207 OA
ATOM     15  O   UNL A   1      32.762  25.552  25.641  1.00  0.00    -0.207 OA
BRANCH  13  16
ATOM     16  C   UNL A   1      30.794  26.536  24.311  1.00  0.00     0.088 A 
ATOM     17  C   UNL A   1      31.791  27.351  23.757  1.00  0.00     0.061 A 
ATOM     18  C   UNL A   1      29.461  26.753  23.975  1.00  0.00     0.061 A 
ATOM     19  C   UNL A   1      31.436  28.413  22.933  1.00  0.00     0.127 A 
ATOM     20  C   UNL A   1      29.130  27.860  23.192  1.00  0.00     0.127 A 
ATOM     21  F   UNL A   1      32.400  29.165  22.393  1.00  0.00    -0.207 F 
ATOM     22  C   UNL A   1      30.105  28.702  22.673  1.00  0.00     0.078 A 
ATOM     23  F   UNL A   1      27.838  28.117  22.955  1.00  0.00    -0.207 F 
ENDBRANCH  13  16
ENDBRANCH  10  13
ENDBRANCH   4   7
ENDBRANCH   2   3
ENDBRANCH   1   2
BRANCH   1  24
ATOM     24  C   UNL A   1      37.662  21.509  24.983  1.00  0.00     0.118 C 
BRANCH  24  25
ATOM     25  N   UNL A   1      38.535  20.580  25.675  1.00  0.00    -0.352 N 
ATOM     26  C   UNL A   1      39.705  20.799  26.362  1.00  0.00     0.251 C 
ATOM     27  H   UNL A   1      38.242  19.640  25.648  1.00  0.00     0.163 HD
ATOM     28  O   UNL A   1      40.421  19.831  26.612  1.00  0.00    -0.269 OA
BRANCH  26  29
ATOM     29  C   UNL A   1      40.130  22.154  26.807  1.00  0.00     0.039 A 
ATOM     30  C   UNL A   1      39.551  23.271  26.190  1.00  0.00     0.014 A 
ATOM     31  C   UNL A   1      41.165  22.351  27.726  1.00  0.00     0.014 A 
ATOM     32  C   UNL A   1      39.991  24.564  26.501  1.00  0.00     0.010 A 
ATOM     33  C   UNL A   1      41.548  23.644  28.095  1.00  0.00     0.010 A 
ATOM     34  C   UNL A   1      40.992  24.766  27.464  1.00  0.00    -0.014 A 
BRANCH  34  35
ATOM     35  C   UNL A   1      41.508  26.129  27.778  1.00  0.00     0.031 A 
ATOM     36  C   UNL A   1      42.906  26.524  27.368  1.00  0.00     0.074 A 
ATOM     37  C   UNL A   1      40.756  26.994  28.487  1.00  0.00     0.049 A 
ATOM     38  N   UNL A   1      43.555  27.636  27.607  1.00  0.00    -0.248 NA
ATOM     39  C   UNL A   1      43.688  25.530  26.613  1.00  0.00     0.031 C 
ATOM     40  C   UNL A   1      39.415  26.721  29.005  1.00  0.00     0.029 A 
ATOM     41  N   UNL A   1      41.024  28.272  28.914  1.00  0.00    -0.354 N 
ATOM     42  C   UNL A   1      44.828  27.459  27.077  1.00  0.00     0.074 A 
ATOM     43  C   UNL A   1      44.871  26.121  26.526  1.00  0.00     0.031 C 
ATOM     44  C   UNL A   1      38.977  27.798  29.679  1.00  0.00     0.029 A 
ATOM     45  C   UNL A   1      40.011  28.830  29.659  1.00  0.00     0.049 A 
ATOM     46  H   UNL A   1      41.862  28.744  28.706  1.00  0.00     0.167 HD
ATOM     47  C   UNL A   1      45.859  28.335  27.016  1.00  0.00     0.034 A 
ATOM     48  C   UNL A   1      39.921  30.035  30.257  1.00  0.00     0.034 A 
ATOM     49  C   UNL A   1      45.798  29.692  27.490  1.00  0.00     0.049 A 
ATOM     50  C   UNL A   1      41.053  31.018  30.115  1.00  0.00     0.074 A 
ATOM     51  C   UNL A   1      46.759  30.682  27.390  1.00  0.00     0.029 A 
ATOM     52  N   UNL A   1      44.712  30.252  28.144  1.00  0.00    -0.354 N 
ATOM     53  N   UNL A   1      42.190  30.880  29.477  1.00  0.00    -0.248 NA
ATOM     54  C   UNL A   1      40.875  32.337  30.743  1.00  0.00     0.031 C 
ATOM     55  C   UNL A   1      46.254  31.844  27.984  1.00  0.00     0.029 A 
ATOM     56  C   UNL A   1      44.977  31.575  28.451  1.00  0.00     0.049 A 
ATOM     57  H   UNL A   1      43.876  29.779  28.359  1.00  0.00     0.167 HD
ATOM     58  C   UNL A   1      42.847  32.099  29.599  1.00  0.00     0.074 A 
ATOM     59  C   UNL A   1      41.972  32.973  30.353  1.00  0.00     0.031 C 
ATOM     60  C   UNL A   1      44.073  32.456  29.144  1.00  0.00     0.034 A 
BRANCH  47  61
ATOM     61  C   UNL A   1      47.127  27.879  26.342  1.00  0.00     0.023 A 
ATOM     62  C   UNL A   1      48.141  27.280  27.116  1.00  0.00     0.012 A 
ATOM     63  C   UNL A   1      47.295  27.987  24.948  1.00  0.00     0.148 A 
ATOM     64  C   UNL A   1      49.316  26.824  26.521  1.00  0.00     0.002 A 
ATOM     65  C   UNL A   1      48.453  27.495  24.356  1.00  0.00     0.091 A 
ATOM     66  F   UNL A   1      46.331  28.580  24.229  1.00  0.00    -0.205 F 
ATOM     67  C   UNL A   1      49.467  26.922  25.140  1.00  0.00     0.022 A 
BRANCH  65  68
ATOM     68  S   UNL A   1      48.708  27.515  22.576  1.00  0.00     0.127 S 
ATOM     69  O   UNL A   1      50.016  28.160  22.472  1.00  0.00    -0.237 OA
ATOM     70  O   UNL A   1      48.704  26.088  22.244  1.00  0.00    -0.237 OA
ATOM     71  O   UNL A   1      47.588  28.264  22.025  1.00  0.00    -0.744 OA
ENDBRANCH  65  68
ENDBRANCH  47  61
BRANCH  48  72
ATOM     72  C   UNL A   1      38.670  30.412  30.973  1.00  0.00     0.023 A 
ATOM     73  C   UNL A   1      38.541  30.097  32.340  1.00  0.00     0.012 A 
ATOM     74  C   UNL A   1      37.632  31.111  30.328  1.00  0.00     0.148 A 
ATOM     75  C   UNL A   1      37.391  30.451  33.046  1.00  0.00     0.002 A 
ATOM     76  C   UNL A   1      36.511  31.507  31.051  1.00  0.00     0.091 A 
ATOM     77  F   UNL A   1      37.762  31.384  29.022  1.00  0.00    -0.205 F 
ATOM     78  C   UNL A   1      36.382  31.166  32.406  1.00  0.00     0.022 A 
BRANCH  76  79
ATOM     79  S   UNL A   1      35.235  32.544  30.328  1.00  0.00     0.127 S 
ATOM     80  O   UNL A   1      34.770  31.720  29.217  1.00  0.00    -0.237 OA
ATOM     81  O   UNL A   1      34.286  32.682  31.434  1.00  0.00    -0.237 OA
ATOM     82  O   UNL A   1      35.909  33.786  29.966  1.00  0.00    -0.744 OA
ENDBRANCH  76  79
ENDBRANCH  48  72
BRANCH  60  83
ATOM     83  C   UNL A   1      44.544  33.858  29.423  1.00  0.00     0.023 A 
ATOM     84  C   UNL A   1      45.150  34.152  30.659  1.00  0.00     0.012 A 
ATOM     85  C   UNL A   1      44.465  34.859  28.435  1.00  0.00     0.148 A 
ATOM     86  C   UNL A   1      45.651  35.427  30.918  1.00  0.00     0.002 A 
ATOM     87  C   UNL A   1      45.002  36.118  28.686  1.00  0.00     0.091 A 
ATOM     88  F   UNL A   1      43.865  34.568  27.271  1.00  0.00    -0.205 F 
ATOM     89  C   UNL A   1      45.589  36.405  29.928  1.00  0.00     0.022 A 
BRANCH  87  90
ATOM     90  S   UNL A   1      45.041  37.406  27.432  1.00  0.00     0.127 S 
ATOM     91  O   UNL A   1      45.919  36.815  26.425  1.00  0.00    -0.237 OA
ATOM     92  O   UNL A   1      43.636  37.502  27.035  1.00  0.00    -0.237 OA
ATOM     93  O   UNL A   1      45.556  38.593  28.102  1.00  0.00    -0.744 OA
ENDBRANCH  87  90
ENDBRANCH  60  83
ENDBRANCH  34  35
ENDBRANCH  26  29
ENDBRANCH  24  25
ENDBRANCH   1  24
TORSDOF 15
ENDMDL
