MODEL 1
REMARK VINA RESULT:     -13.4      0.000      0.000
REMARK SMILES O=C(NCCCNC(=O)[C@]12C[NH2+]C[C@H]1CN(C(=O)c1ccccc1-n1cncn1)C2)c1ccc(-c2c3nc(c(-c4cccc(S(=O)(=O)[O-])c4F)c4ccc([nH]4)c(-c4cccc(S(=O)(=O)[O-])c4F)c4nc(c(-c5cccc(S(=O)(=O)[O-])c5F)c5ccc2[nH]5)C=C4)C=C3)cc1
REMARK SMILES IDX 5 1 4 2 3 3 1 4 2 5 31 7 32 8 93 9 33 10 92 11 34 12 35 13
REMARK SMILES IDX 36 14 86 15 37 16 91 17 85 18 87 19 38 20 90 21 84 22 83 23
REMARK SMILES IDX 39 25 71 26 51 27 70 28 52 29 55 30 69 31 88 32 53 33 54 34
REMARK SMILES IDX 68 36 89 37 56 38 40 39 41 40 49 41 42 42 44 43 50 44 43 45
REMARK SMILES IDX 45 46 46 47 47 48 48 49 72 50 73 51 81 52 74 53 76 54 82 55
REMARK SMILES IDX 75 56 77 57 78 58 79 59 80 60 57 61 58 62 66 63 59 64 61 65
REMARK SMILES IDX 67 66 60 67 62 68 63 69 64 70 65 71 6 72 7 73 8 74 9 76
REMARK SMILES IDX 10 77 11 78 14 79 30 80 12 81 13 82 15 83 16 84 17 87 18 88
REMARK SMILES IDX 19 89 20 90 24 91 21 92 23 93 22 94 25 95 26 96 29 97 27 98
REMARK SMILES IDX 28 99
REMARK H PARENT 3 6 87 24 55 35 7 75 12 85 12 86
REMARK Flexibility Score: inf
ROOT
ATOM      1  C   UNL A   1      32.352  29.594  26.852  1.00  0.00     0.042 C 
ENDROOT
BRANCH   1   2
ATOM      2  C   UNL A   1      33.681  30.338  26.976  1.00  0.00     0.118 C 
BRANCH   2   3
ATOM      3  N   UNL A   1      33.701  31.265  28.091  1.00  0.00    -0.352 N 
ATOM      4  O   UNL A   1      34.237  32.478  29.840  1.00  0.00    -0.269 OA
ATOM      5  C   UNL A   1      34.642  31.678  28.992  1.00  0.00     0.251 C 
ATOM      6  H   UNL A   1      32.830  31.699  28.234  1.00  0.00     0.163 HD
BRANCH   5   7
ATOM      7  C   UNL A   1      36.052  31.204  29.056  1.00  0.00     0.039 A 
ATOM      8  C   UNL A   1      37.191  32.012  29.096  1.00  0.00     0.014 A 
ATOM      9  C   UNL A   1      36.220  29.806  29.062  1.00  0.00     0.014 A 
ATOM     10  C   UNL A   1      38.462  31.442  29.059  1.00  0.00     0.010 A 
ATOM     11  C   UNL A   1      37.484  29.231  29.037  1.00  0.00     0.010 A 
ATOM     12  C   UNL A   1      38.603  30.053  29.001  1.00  0.00    -0.014 A 
BRANCH  12  13
ATOM     13  C   UNL A   1      39.942  29.480  29.111  1.00  0.00     0.031 A 
ATOM     14  C   UNL A   1      40.404  29.324  30.521  1.00  0.00     0.074 A 
ATOM     15  C   UNL A   1      40.622  28.979  28.058  1.00  0.00     0.049 A 
ATOM     16  N   UNL A   1      41.405  29.901  31.104  1.00  0.00    -0.248 NA
ATOM     17  C   UNL A   1      39.546  28.557  31.440  1.00  0.00     0.031 C 
ATOM     18  C   UNL A   1      40.133  28.806  26.687  1.00  0.00     0.029 A 
ATOM     19  N   UNL A   1      41.846  28.375  28.022  1.00  0.00    -0.354 N 
ATOM     20  C   UNL A   1      41.439  29.375  32.398  1.00  0.00     0.074 A 
ATOM     21  C   UNL A   1      40.166  28.744  32.604  1.00  0.00     0.031 C 
ATOM     22  C   UNL A   1      40.928  27.927  26.038  1.00  0.00     0.029 A 
ATOM     23  C   UNL A   1      42.044  27.573  26.897  1.00  0.00     0.049 A 
ATOM     24  H   UNL A   1      42.526  28.494  28.723  1.00  0.00     0.167 HD
ATOM     25  C   UNL A   1      42.612  29.264  33.085  1.00  0.00     0.034 A 
ATOM     26  C   UNL A   1      43.002  26.625  26.726  1.00  0.00     0.034 A 
ATOM     27  C   UNL A   1      43.630  30.104  32.501  1.00  0.00     0.049 A 
ATOM     28  C   UNL A   1      44.074  26.894  27.710  1.00  0.00     0.074 A 
ATOM     29  C   UNL A   1      43.775  31.454  32.254  1.00  0.00     0.029 A 
ATOM     30  N   UNL A   1      44.575  29.476  31.729  1.00  0.00    -0.354 N 
ATOM     31  N   UNL A   1      44.842  27.944  27.666  1.00  0.00    -0.248 NA
ATOM     32  C   UNL A   1      44.002  26.215  28.992  1.00  0.00     0.031 C 
ATOM     33  C   UNL A   1      44.464  31.525  31.006  1.00  0.00     0.029 A 
ATOM     34  C   UNL A   1      44.760  30.222  30.603  1.00  0.00     0.049 A 
ATOM     35  H   UNL A   1      45.038  28.634  31.950  1.00  0.00     0.167 HD
ATOM     36  C   UNL A   1      44.954  28.333  28.993  1.00  0.00     0.074 A 
ATOM     37  C   UNL A   1      44.511  27.175  29.769  1.00  0.00     0.031 C 
ATOM     38  C   UNL A   1      45.106  29.648  29.323  1.00  0.00     0.034 A 
BRANCH  25  39
ATOM     39  C   UNL A   1      42.998  28.088  33.976  1.00  0.00     0.023 A 
ATOM     40  C   UNL A   1      43.794  27.079  33.379  1.00  0.00     0.012 A 
ATOM     41  C   UNL A   1      42.383  27.756  35.205  1.00  0.00     0.148 A 
ATOM     42  C   UNL A   1      43.856  25.780  33.895  1.00  0.00     0.002 A 
ATOM     43  C   UNL A   1      42.494  26.478  35.747  1.00  0.00     0.091 A 
ATOM     44  F   UNL A   1      41.593  28.630  35.828  1.00  0.00    -0.205 F 
ATOM     45  C   UNL A   1      43.193  25.476  35.074  1.00  0.00     0.022 A 
BRANCH  43  46
ATOM     46  S   UNL A   1      41.686  26.035  37.292  1.00  0.00     0.127 S 
ATOM     47  O   UNL A   1      41.380  24.624  37.061  1.00  0.00    -0.237 OA
ATOM     48  O   UNL A   1      42.753  26.285  38.265  1.00  0.00    -0.237 OA
ATOM     49  O   UNL A   1      40.543  26.923  37.416  1.00  0.00    -0.744 OA
ENDBRANCH  43  46
ENDBRANCH  25  39
BRANCH  26  50
ATOM     50  C   UNL A   1      42.948  25.338  25.987  1.00  0.00     0.023 A 
ATOM     51  C   UNL A   1      43.952  25.021  25.047  1.00  0.00     0.012 A 
ATOM     52  C   UNL A   1      42.088  24.301  26.412  1.00  0.00     0.148 A 
ATOM     53  C   UNL A   1      44.111  23.712  24.570  1.00  0.00     0.002 A 
ATOM     54  C   UNL A   1      42.245  23.004  25.931  1.00  0.00     0.091 A 
ATOM     55  F   UNL A   1      41.179  24.567  27.358  1.00  0.00    -0.205 F 
ATOM     56  C   UNL A   1      43.264  22.703  25.018  1.00  0.00     0.022 A 
BRANCH  54  57
ATOM     57  S   UNL A   1      41.207  21.645  26.487  1.00  0.00     0.127 S 
ATOM     58  O   UNL A   1      39.883  22.075  26.037  1.00  0.00    -0.237 OA
ATOM     59  O   UNL A   1      41.767  20.516  25.751  1.00  0.00    -0.237 OA
ATOM     60  O   UNL A   1      41.360  21.595  27.936  1.00  0.00    -0.744 OA
ENDBRANCH  54  57
ENDBRANCH  26  50
BRANCH  38  61
ATOM     61  C   UNL A   1      45.431  30.625  28.225  1.00  0.00     0.023 A 
ATOM     62  C   UNL A   1      44.438  31.322  27.506  1.00  0.00     0.012 A 
ATOM     63  C   UNL A   1      46.777  30.973  28.043  1.00  0.00     0.148 A 
ATOM     64  C   UNL A   1      44.788  32.336  26.609  1.00  0.00     0.002 A 
ATOM     65  C   UNL A   1      47.118  32.012  27.189  1.00  0.00     0.091 A 
ATOM     66  F   UNL A   1      47.705  30.298  28.738  1.00  0.00    -0.205 F 
ATOM     67  C   UNL A   1      46.127  32.690  26.462  1.00  0.00     0.022 A 
BRANCH  65  68
ATOM     68  S   UNL A   1      48.808  32.596  27.061  1.00  0.00     0.127 S 
ATOM     69  O   UNL A   1      49.502  31.414  26.557  1.00  0.00    -0.237 OA
ATOM     70  O   UNL A   1      48.689  33.693  26.099  1.00  0.00    -0.237 OA
ATOM     71  O   UNL A   1      49.188  33.022  28.403  1.00  0.00    -0.744 OA
ENDBRANCH  65  68
ENDBRANCH  38  61
ENDBRANCH  12  13
ENDBRANCH   5   7
ENDBRANCH   2   3
ENDBRANCH   1   2
BRANCH   1  72
ATOM     72  C   UNL A   1      31.655  29.914  25.519  1.00  0.00     0.117 C 
BRANCH  72  73
ATOM     73  N   UNL A   1      32.575  29.675  24.386  1.00  0.00    -0.355 N 
ATOM     74  C   UNL A   1      33.116  28.494  23.874  1.00  0.00     0.234 C 
ATOM     75  H   UNL A   1      32.856  30.490  23.910  1.00  0.00     0.163 HD
ATOM     76  O   UNL A   1      34.314  28.516  23.581  1.00  0.00    -0.274 OA
BRANCH  74  77
ATOM     77  C   UNL A   1      32.166  27.406  23.318  1.00  0.00     0.125 C 
ATOM     78  C   UNL A   1      31.231  28.057  22.308  1.00  0.00     0.280 C 
ATOM     79  C   UNL A   1      31.129  26.549  24.103  1.00  0.00     0.087 C 
ATOM     80  C   UNL A   1      33.237  26.291  23.029  1.00  0.00     0.143 C 
ATOM     81  N   UNL A   1      29.877  28.091  22.846  1.00  0.00    -0.345 N 
ATOM     82  C   UNL A   1      29.719  27.051  23.824  1.00  0.00     0.267 C 
ATOM     83  C   UNL A   1      31.204  25.169  23.417  1.00  0.00     0.130 C 
ATOM     84  N   UNL A   1      32.583  24.991  23.094  1.00  0.00    -0.337 N 
ATOM     85  H   UNL A   1      29.207  27.949  22.089  1.00  0.00     0.346 HD
ATOM     86  H   UNL A   1      29.710  28.997  23.285  1.00  0.00     0.346 HD
BRANCH  84  87
ATOM     87  C   UNL A   1      33.109  23.725  22.978  1.00  0.00     0.256 C 
ATOM     88  O   UNL A   1      32.649  22.852  22.235  1.00  0.00    -0.269 OA
BRANCH  87  89
ATOM     89  C   UNL A   1      34.188  23.316  23.893  1.00  0.00     0.065 A 
ATOM     90  C   UNL A   1      35.464  23.135  23.349  1.00  0.00     0.016 A 
ATOM     91  C   UNL A   1      33.969  23.109  25.267  1.00  0.00     0.079 A 
ATOM     92  C   UNL A   1      36.535  22.799  24.180  1.00  0.00     0.001 A 
ATOM     93  C   UNL A   1      35.062  22.822  26.102  1.00  0.00     0.029 A 
ATOM     94  C   UNL A   1      36.337  22.657  25.554  1.00  0.00     0.002 A 
BRANCH  91  95
ATOM     95  N   UNL A   1      32.680  23.170  25.848  1.00  0.00    -0.220 N 
ATOM     96  C   UNL A   1      32.148  24.092  26.717  1.00  0.00     0.225 A 
ATOM     97  N   UNL A   1      31.733  22.244  25.559  1.00  0.00    -0.155 NA
ATOM     98  N   UNL A   1      30.968  23.699  27.139  1.00  0.00    -0.223 NA
ATOM     99  C   UNL A   1      30.778  22.544  26.442  1.00  0.00     0.246 A 
ENDBRANCH  91  95
ENDBRANCH  87  89
ENDBRANCH  84  87
ENDBRANCH  74  77
ENDBRANCH  72  73
ENDBRANCH   1  72
TORSDOF 16
ENDMDL
MODEL 2
REMARK VINA RESULT:     -13.2      2.482      7.392
REMARK SMILES O=C(NCCCNC(=O)[C@]12C[NH2+]C[C@H]1CN(C(=O)c1ccccc1-n1cncn1)C2)c1ccc(-c2c3nc(c(-c4cccc(S(=O)(=O)[O-])c4F)c4ccc([nH]4)c(-c4cccc(S(=O)(=O)[O-])c4F)c4nc(c(-c5cccc(S(=O)(=O)[O-])c5F)c5ccc2[nH]5)C=C4)C=C3)cc1
REMARK SMILES IDX 5 1 4 2 3 3 1 4 2 5 31 7 32 8 93 9 33 10 92 11 34 12 35 13
REMARK SMILES IDX 36 14 86 15 37 16 91 17 85 18 87 19 38 20 90 21 84 22 83 23
REMARK SMILES IDX 39 25 71 26 51 27 70 28 52 29 55 30 69 31 88 32 53 33 54 34
REMARK SMILES IDX 68 36 89 37 56 38 40 39 41 40 49 41 42 42 44 43 50 44 43 45
REMARK SMILES IDX 45 46 46 47 47 48 48 49 72 50 73 51 81 52 74 53 76 54 82 55
REMARK SMILES IDX 75 56 77 57 78 58 79 59 80 60 57 61 58 62 66 63 59 64 61 65
REMARK SMILES IDX 67 66 60 67 62 68 63 69 64 70 65 71 6 72 7 73 8 74 9 76
REMARK SMILES IDX 10 77 11 78 14 79 30 80 12 81 13 82 15 83 16 84 17 87 18 88
REMARK SMILES IDX 19 89 20 90 24 91 21 92 23 93 22 94 25 95 26 96 29 97 27 98
REMARK SMILES IDX 28 99
REMARK H PARENT 3 6 87 24 55 35 7 75 12 85 12 86
REMARK Flexibility Score: inf
ROOT
ATOM      1  C   UNL A   1      38.165  20.306  24.853  1.00  0.00     0.042 C 
ENDROOT
BRANCH   1   2
ATOM      2  C   UNL A   1      38.644  19.248  25.846  1.00  0.00     0.118 C 
BRANCH   2   3
ATOM      3  N   UNL A   1      40.017  18.844  25.614  1.00  0.00    -0.352 N 
ATOM      4  O   UNL A   1      42.202  18.735  25.440  1.00  0.00    -0.269 OA
ATOM      5  C   UNL A   1      41.243  19.409  25.825  1.00  0.00     0.251 C 
ATOM      6  H   UNL A   1      40.082  17.951  25.207  1.00  0.00     0.163 HD
BRANCH   5   7
ATOM      7  C   UNL A   1      41.491  20.755  26.412  1.00  0.00     0.039 A 
ATOM      8  C   UNL A   1      42.056  21.849  25.751  1.00  0.00     0.014 A 
ATOM      9  C   UNL A   1      41.123  20.903  27.763  1.00  0.00     0.014 A 
ATOM     10  C   UNL A   1      42.323  23.029  26.443  1.00  0.00     0.010 A 
ATOM     11  C   UNL A   1      41.375  22.080  28.455  1.00  0.00     0.010 A 
ATOM     12  C   UNL A   1      42.007  23.131  27.800  1.00  0.00    -0.014 A 
BRANCH  12  13
ATOM     13  C   UNL A   1      42.161  24.424  28.461  1.00  0.00     0.031 A 
ATOM     14  C   UNL A   1      41.019  25.353  28.217  1.00  0.00     0.074 A 
ATOM     15  C   UNL A   1      43.146  24.691  29.344  1.00  0.00     0.049 A 
ATOM     16  N   UNL A   1      41.031  26.493  27.606  1.00  0.00    -0.248 NA
ATOM     17  C   UNL A   1      39.667  24.874  28.550  1.00  0.00     0.031 C 
ATOM     18  C   UNL A   1      44.135  23.752  29.882  1.00  0.00     0.029 A 
ATOM     19  N   UNL A   1      43.382  25.826  30.066  1.00  0.00    -0.354 N 
ATOM     20  C   UNL A   1      39.725  26.981  27.697  1.00  0.00     0.074 A 
ATOM     21  C   UNL A   1      38.909  25.863  28.078  1.00  0.00     0.031 C 
ATOM     22  C   UNL A   1      44.675  24.270  31.007  1.00  0.00     0.029 A 
ATOM     23  C   UNL A   1      44.169  25.618  31.200  1.00  0.00     0.049 A 
ATOM     24  H   UNL A   1      43.029  26.709  29.812  1.00  0.00     0.167 HD
ATOM     25  C   UNL A   1      39.472  28.321  27.722  1.00  0.00     0.034 A 
ATOM     26  C   UNL A   1      44.320  26.457  32.257  1.00  0.00     0.034 A 
ATOM     27  C   UNL A   1      40.607  29.066  27.233  1.00  0.00     0.049 A 
ATOM     28  C   UNL A   1      43.898  27.805  31.819  1.00  0.00     0.074 A 
ATOM     29  C   UNL A   1      41.326  29.113  26.056  1.00  0.00     0.029 A 
ATOM     30  N   UNL A   1      41.389  29.681  28.178  1.00  0.00    -0.354 N 
ATOM     31  N   UNL A   1      44.545  28.506  30.932  1.00  0.00    -0.248 NA
ATOM     32  C   UNL A   1      42.516  28.190  32.045  1.00  0.00     0.031 C 
ATOM     33  C   UNL A   1      42.678  29.319  26.463  1.00  0.00     0.029 A 
ATOM     34  C   UNL A   1      42.694  29.457  27.852  1.00  0.00     0.049 A 
ATOM     35  H   UNL A   1      41.065  30.194  28.954  1.00  0.00     0.167 HD
ATOM     36  C   UNL A   1      43.543  29.077  30.161  1.00  0.00     0.074 A 
ATOM     37  C   UNL A   1      42.323  28.938  30.955  1.00  0.00     0.031 C 
ATOM     38  C   UNL A   1      43.744  29.333  28.836  1.00  0.00     0.034 A 
BRANCH  25  39
ATOM     39  C   UNL A   1      38.420  28.998  28.593  1.00  0.00     0.023 A 
ATOM     40  C   UNL A   1      37.638  30.003  27.970  1.00  0.00     0.012 A 
ATOM     41  C   UNL A   1      38.373  28.952  30.006  1.00  0.00     0.148 A 
ATOM     42  C   UNL A   1      36.970  30.987  28.707  1.00  0.00     0.002 A 
ATOM     43  C   UNL A   1      37.660  29.899  30.736  1.00  0.00     0.091 A 
ATOM     44  F   UNL A   1      39.096  28.061  30.681  1.00  0.00    -0.205 F 
ATOM     45  C   UNL A   1      36.993  30.943  30.093  1.00  0.00     0.022 A 
BRANCH  43  46
ATOM     46  S   UNL A   1      37.623  29.871  32.535  1.00  0.00     0.127 S 
ATOM     47  O   UNL A   1      38.983  30.306  32.855  1.00  0.00    -0.237 OA
ATOM     48  O   UNL A   1      36.576  30.855  32.823  1.00  0.00    -0.237 OA
ATOM     49  O   UNL A   1      37.285  28.509  32.908  1.00  0.00    -0.744 OA
ENDBRANCH  43  46
ENDBRANCH  25  39
BRANCH  26  50
ATOM     50  C   UNL A   1      44.520  26.149  33.696  1.00  0.00     0.023 A 
ATOM     51  C   UNL A   1      45.821  26.154  34.245  1.00  0.00     0.012 A 
ATOM     52  C   UNL A   1      43.426  26.143  34.589  1.00  0.00     0.148 A 
ATOM     53  C   UNL A   1      46.022  26.180  35.632  1.00  0.00     0.002 A 
ATOM     54  C   UNL A   1      43.630  26.162  35.966  1.00  0.00     0.091 A 
ATOM     55  F   UNL A   1      42.186  26.213  34.088  1.00  0.00    -0.205 F 
ATOM     56  C   UNL A   1      44.928  26.193  36.492  1.00  0.00     0.022 A 
BRANCH  54  57
ATOM     57  S   UNL A   1      42.265  26.209  37.135  1.00  0.00     0.127 S 
ATOM     58  O   UNL A   1      42.967  26.329  38.413  1.00  0.00    -0.237 OA
ATOM     59  O   UNL A   1      41.548  27.410  36.715  1.00  0.00    -0.237 OA
ATOM     60  O   UNL A   1      41.548  24.952  36.961  1.00  0.00    -0.744 OA
ENDBRANCH  54  57
ENDBRANCH  26  50
BRANCH  38  61
ATOM     61  C   UNL A   1      45.148  29.248  28.300  1.00  0.00     0.023 A 
ATOM     62  C   UNL A   1      45.697  28.057  27.782  1.00  0.00     0.012 A 
ATOM     63  C   UNL A   1      45.861  30.448  28.155  1.00  0.00     0.148 A 
ATOM     64  C   UNL A   1      46.944  28.063  27.150  1.00  0.00     0.002 A 
ATOM     65  C   UNL A   1      47.075  30.459  27.484  1.00  0.00     0.091 A 
ATOM     66  F   UNL A   1      45.320  31.570  28.654  1.00  0.00    -0.205 F 
ATOM     67  C   UNL A   1      47.625  29.267  26.987  1.00  0.00     0.022 A 
BRANCH  65  68
ATOM     68  S   UNL A   1      47.930  31.995  27.131  1.00  0.00     0.127 S 
ATOM     69  O   UNL A   1      49.189  31.519  26.566  1.00  0.00    -0.237 OA
ATOM     70  O   UNL A   1      47.032  32.640  26.172  1.00  0.00    -0.237 OA
ATOM     71  O   UNL A   1      48.039  32.695  28.405  1.00  0.00    -0.744 OA
ENDBRANCH  65  68
ENDBRANCH  38  61
ENDBRANCH  12  13
ENDBRANCH   5   7
ENDBRANCH   2   3
ENDBRANCH   1   2
BRANCH   1  72
ATOM     72  C   UNL A   1      36.683  20.651  25.077  1.00  0.00     0.117 C 
BRANCH  72  73
ATOM     73  N   UNL A   1      36.557  21.833  25.958  1.00  0.00    -0.355 N 
ATOM     74  C   UNL A   1      36.219  23.157  25.678  1.00  0.00     0.234 C 
ATOM     75  H   UNL A   1      36.744  21.653  26.909  1.00  0.00     0.163 HD
ATOM     76  O   UNL A   1      36.897  24.030  26.228  1.00  0.00    -0.274 OA
BRANCH  74  77
ATOM     77  C   UNL A   1      34.829  23.473  25.076  1.00  0.00     0.125 C 
ATOM     78  C   UNL A   1      33.833  22.450  25.608  1.00  0.00     0.280 C 
ATOM     79  C   UNL A   1      34.414  23.469  23.574  1.00  0.00     0.087 C 
ATOM     80  C   UNL A   1      34.813  25.024  25.331  1.00  0.00     0.143 C 
ATOM     81  N   UNL A   1      33.417  21.565  24.527  1.00  0.00    -0.345 N 
ATOM     82  C   UNL A   1      33.584  22.230  23.265  1.00  0.00     0.267 C 
ATOM     83  C   UNL A   1      33.423  24.647  23.468  1.00  0.00     0.130 C 
ATOM     84  N   UNL A   1      33.945  25.648  24.341  1.00  0.00    -0.337 N 
ATOM     85  H   UNL A   1      32.435  21.315  24.652  1.00  0.00     0.346 HD
ATOM     86  H   UNL A   1      33.990  20.720  24.543  1.00  0.00     0.346 HD
BRANCH  84  87
ATOM     87  C   UNL A   1      33.666  26.977  24.116  1.00  0.00     0.256 C 
ATOM     88  O   UNL A   1      33.818  27.540  23.027  1.00  0.00    -0.269 OA
BRANCH  87  89
ATOM     89  C   UNL A   1      33.311  27.832  25.261  1.00  0.00     0.065 A 
ATOM     90  C   UNL A   1      34.349  28.262  26.095  1.00  0.00     0.016 A 
ATOM     91  C   UNL A   1      31.985  28.217  25.529  1.00  0.00     0.079 A 
ATOM     92  C   UNL A   1      34.077  29.117  27.164  1.00  0.00     0.001 A 
ATOM     93  C   UNL A   1      31.728  29.118  26.575  1.00  0.00     0.029 A 
ATOM     94  C   UNL A   1      32.771  29.556  27.394  1.00  0.00     0.002 A 
BRANCH  91  95
ATOM     95  N   UNL A   1      30.887  27.723  24.785  1.00  0.00    -0.220 N 
ATOM     96  C   UNL A   1      30.237  26.514  24.869  1.00  0.00     0.225 A 
ATOM     97  N   UNL A   1      30.286  28.477  23.832  1.00  0.00    -0.155 NA
ATOM     98  N   UNL A   1      29.369  26.390  23.892  1.00  0.00    -0.223 NA
ATOM     99  C   UNL A   1      29.467  27.592  23.259  1.00  0.00     0.246 A 
ENDBRANCH  91  95
ENDBRANCH  87  89
ENDBRANCH  84  87
ENDBRANCH  74  77
ENDBRANCH  72  73
ENDBRANCH   1  72
TORSDOF 16
ENDMDL
MODEL 3
REMARK VINA RESULT:     -13.1      2.888      7.554
REMARK SMILES O=C(NCCCNC(=O)[C@]12C[NH2+]C[C@H]1CN(C(=O)c1ccccc1-n1cncn1)C2)c1ccc(-c2c3nc(c(-c4cccc(S(=O)(=O)[O-])c4F)c4ccc([nH]4)c(-c4cccc(S(=O)(=O)[O-])c4F)c4nc(c(-c5cccc(S(=O)(=O)[O-])c5F)c5ccc2[nH]5)C=C4)C=C3)cc1
REMARK SMILES IDX 5 1 4 2 3 3 1 4 2 5 31 7 32 8 93 9 33 10 92 11 34 12 35 13
REMARK SMILES IDX 36 14 86 15 37 16 91 17 85 18 87 19 38 20 90 21 84 22 83 23
REMARK SMILES IDX 39 25 71 26 51 27 70 28 52 29 55 30 69 31 88 32 53 33 54 34
REMARK SMILES IDX 68 36 89 37 56 38 40 39 41 40 49 41 42 42 44 43 50 44 43 45
REMARK SMILES IDX 45 46 46 47 47 48 48 49 72 50 73 51 81 52 74 53 76 54 82 55
REMARK SMILES IDX 75 56 77 57 78 58 79 59 80 60 57 61 58 62 66 63 59 64 61 65
REMARK SMILES IDX 67 66 60 67 62 68 63 69 64 70 65 71 6 72 7 73 8 74 9 76
REMARK SMILES IDX 10 77 11 78 14 79 30 80 12 81 13 82 15 83 16 84 17 87 18 88
REMARK SMILES IDX 19 89 20 90 24 91 21 92 23 93 22 94 25 95 26 96 29 97 27 98
REMARK SMILES IDX 28 99
REMARK H PARENT 3 6 87 24 55 35 7 75 12 85 12 86
REMARK Flexibility Score: inf
ROOT
ATOM      1  C   UNL A   1      37.706  19.548  24.596  1.00  0.00     0.042 C 
ENDROOT
BRANCH   1   2
ATOM      2  C   UNL A   1      38.491  19.404  25.899  1.00  0.00     0.118 C 
BRANCH   2   3
ATOM      3  N   UNL A   1      39.847  18.937  25.686  1.00  0.00    -0.352 N 
ATOM      4  O   UNL A   1      42.027  18.730  25.535  1.00  0.00    -0.269 OA
ATOM      5  C   UNL A   1      41.095  19.450  25.903  1.00  0.00     0.251 C 
ATOM      6  H   UNL A   1      39.876  18.037  25.289  1.00  0.00     0.163 HD
BRANCH   5   7
ATOM      7  C   UNL A   1      41.397  20.791  26.476  1.00  0.00     0.039 A 
ATOM      8  C   UNL A   1      42.063  21.832  25.826  1.00  0.00     0.014 A 
ATOM      9  C   UNL A   1      40.969  20.991  27.803  1.00  0.00     0.014 A 
ATOM     10  C   UNL A   1      42.368  23.009  26.509  1.00  0.00     0.010 A 
ATOM     11  C   UNL A   1      41.258  22.165  28.485  1.00  0.00     0.010 A 
ATOM     12  C   UNL A   1      41.989  23.160  27.845  1.00  0.00    -0.014 A 
BRANCH  12  13
ATOM     13  C   UNL A   1      42.190  24.455  28.489  1.00  0.00     0.031 A 
ATOM     14  C   UNL A   1      41.059  25.405  28.272  1.00  0.00     0.074 A 
ATOM     15  C   UNL A   1      43.207  24.710  29.338  1.00  0.00     0.049 A 
ATOM     16  N   UNL A   1      41.075  26.539  27.650  1.00  0.00    -0.248 NA
ATOM     17  C   UNL A   1      39.709  24.957  28.651  1.00  0.00     0.031 C 
ATOM     18  C   UNL A   1      44.193  23.755  29.853  1.00  0.00     0.029 A 
ATOM     19  N   UNL A   1      43.488  25.846  30.042  1.00  0.00    -0.354 N 
ATOM     20  C   UNL A   1      39.783  27.055  27.778  1.00  0.00     0.074 A 
ATOM     21  C   UNL A   1      38.957  25.957  28.194  1.00  0.00     0.031 C 
ATOM     22  C   UNL A   1      44.779  24.272  30.956  1.00  0.00     0.029 A 
ATOM     23  C   UNL A   1      44.307  25.631  31.152  1.00  0.00     0.049 A 
ATOM     24  H   UNL A   1      43.146  26.733  29.790  1.00  0.00     0.167 HD
ATOM     25  C   UNL A   1      39.558  28.400  27.797  1.00  0.00     0.034 A 
ATOM     26  C   UNL A   1      44.507  26.476  32.197  1.00  0.00     0.034 A 
ATOM     27  C   UNL A   1      40.691  29.118  27.266  1.00  0.00     0.049 A 
ATOM     28  C   UNL A   1      44.100  27.829  31.759  1.00  0.00     0.074 A 
ATOM     29  C   UNL A   1      41.374  29.139  26.067  1.00  0.00     0.029 A 
ATOM     30  N   UNL A   1      41.515  29.725  28.181  1.00  0.00    -0.354 N 
ATOM     31  N   UNL A   1      44.732  28.509  30.846  1.00  0.00    -0.248 NA
ATOM     32  C   UNL A   1      42.733  28.244  32.024  1.00  0.00     0.031 C 
ATOM     33  C   UNL A   1      42.742  29.321  26.430  1.00  0.00     0.029 A 
ATOM     34  C   UNL A   1      42.805  29.471  27.816  1.00  0.00     0.049 A 
ATOM     35  H   UNL A   1      41.226  30.251  28.962  1.00  0.00     0.167 HD
ATOM     36  C   UNL A   1      43.718  29.094  30.101  1.00  0.00     0.074 A 
ATOM     37  C   UNL A   1      42.520  28.986  30.935  1.00  0.00     0.031 C 
ATOM     38  C   UNL A   1      43.882  29.334  28.768  1.00  0.00     0.034 A 
BRANCH  25  39
ATOM     39  C   UNL A   1      38.547  29.106  28.695  1.00  0.00     0.023 A 
ATOM     40  C   UNL A   1      37.832  30.183  28.113  1.00  0.00     0.012 A 
ATOM     41  C   UNL A   1      38.493  29.005  30.105  1.00  0.00     0.148 A 
ATOM     42  C   UNL A   1      37.226  31.176  28.890  1.00  0.00     0.002 A 
ATOM     43  C   UNL A   1      37.838  29.965  30.873  1.00  0.00     0.091 A 
ATOM     44  F   UNL A   1      39.156  28.043  30.743  1.00  0.00    -0.205 F 
ATOM     45  C   UNL A   1      37.241  31.074  30.272  1.00  0.00     0.022 A 
BRANCH  43  46
ATOM     46  S   UNL A   1      37.794  29.866  32.669  1.00  0.00     0.127 S 
ATOM     47  O   UNL A   1      39.179  30.193  33.007  1.00  0.00    -0.237 OA
ATOM     48  O   UNL A   1      36.815  30.906  32.996  1.00  0.00    -0.237 OA
ATOM     49  O   UNL A   1      37.362  28.516  32.985  1.00  0.00    -0.744 OA
ENDBRANCH  43  46
ENDBRANCH  25  39
BRANCH  26  50
ATOM     50  C   UNL A   1      44.746  26.177  33.631  1.00  0.00     0.023 A 
ATOM     51  C   UNL A   1      46.060  26.201  34.148  1.00  0.00     0.012 A 
ATOM     52  C   UNL A   1      43.674  26.159  34.550  1.00  0.00     0.148 A 
ATOM     53  C   UNL A   1      46.294  26.236  35.530  1.00  0.00     0.002 A 
ATOM     54  C   UNL A   1      43.911  26.187  35.922  1.00  0.00     0.091 A 
ATOM     55  F   UNL A   1      42.422  26.211  34.079  1.00  0.00    -0.205 F 
ATOM     56  C   UNL A   1      45.221  26.238  36.416  1.00  0.00     0.022 A 
BRANCH  54  57
ATOM     57  S   UNL A   1      42.574  26.220  37.124  1.00  0.00     0.127 S 
ATOM     58  O   UNL A   1      41.880  27.458  36.767  1.00  0.00    -0.237 OA
ATOM     59  O   UNL A   1      41.847  24.995  36.801  1.00  0.00    -0.237 OA
ATOM     60  O   UNL A   1      43.216  26.249  38.433  1.00  0.00    -0.744 OA
ENDBRANCH  54  57
ENDBRANCH  26  50
BRANCH  38  61
ATOM     61  C   UNL A   1      45.267  29.216  28.189  1.00  0.00     0.023 A 
ATOM     62  C   UNL A   1      46.226  30.245  28.289  1.00  0.00     0.012 A 
ATOM     63  C   UNL A   1      45.657  27.964  27.690  1.00  0.00     0.148 A 
ATOM     64  C   UNL A   1      47.545  30.030  27.879  1.00  0.00     0.002 A 
ATOM     65  C   UNL A   1      46.978  27.739  27.331  1.00  0.00     0.091 A 
ATOM     66  F   UNL A   1      44.729  26.999  27.605  1.00  0.00    -0.205 F 
ATOM     67  C   UNL A   1      47.925  28.773  27.415  1.00  0.00     0.022 A 
BRANCH  65  68
ATOM     68  S   UNL A   1      47.549  26.109  26.853  1.00  0.00     0.127 S 
ATOM     69  O   UNL A   1      46.840  25.895  25.594  1.00  0.00    -0.237 OA
ATOM     70  O   UNL A   1      48.992  26.309  26.717  1.00  0.00    -0.237 OA
ATOM     71  O   UNL A   1      47.173  25.216  27.943  1.00  0.00    -0.744 OA
ENDBRANCH  65  68
ENDBRANCH  38  61
ENDBRANCH  12  13
ENDBRANCH   5   7
ENDBRANCH   2   3
ENDBRANCH   1   2
BRANCH   1  72
ATOM     72  C   UNL A   1      37.431  21.026  24.271  1.00  0.00     0.117 C 
BRANCH  72  73
ATOM     73  N   UNL A   1      37.209  21.795  25.515  1.00  0.00    -0.355 N 
ATOM     74  C   UNL A   1      36.287  22.794  25.826  1.00  0.00     0.234 C 
ATOM     75  H   UNL A   1      37.819  21.560  26.252  1.00  0.00     0.163 HD
ATOM     76  O   UNL A   1      36.715  23.769  26.450  1.00  0.00    -0.274 OA
BRANCH  74  77
ATOM     77  C   UNL A   1      34.774  22.472  25.769  1.00  0.00     0.125 C 
ATOM     78  C   UNL A   1      34.534  21.164  26.511  1.00  0.00     0.280 C 
ATOM     79  C   UNL A   1      33.899  22.209  24.508  1.00  0.00     0.087 C 
ATOM     80  C   UNL A   1      34.220  23.891  26.159  1.00  0.00     0.143 C 
ATOM     81  N   UNL A   1      34.164  20.123  25.560  1.00  0.00    -0.345 N 
ATOM     82  C   UNL A   1      33.593  20.722  24.385  1.00  0.00     0.267 C 
ATOM     83  C   UNL A   1      32.548  22.865  24.859  1.00  0.00     0.130 C 
ATOM     84  N   UNL A   1      32.888  24.043  25.590  1.00  0.00    -0.337 N 
ATOM     85  H   UNL A   1      33.480  19.499  25.989  1.00  0.00     0.346 HD
ATOM     86  H   UNL A   1      34.995  19.592  25.298  1.00  0.00     0.346 HD
BRANCH  84  87
ATOM     87  C   UNL A   1      32.035  25.123  25.602  1.00  0.00     0.256 C 
ATOM     88  O   UNL A   1      30.804  25.030  25.538  1.00  0.00    -0.269 OA
BRANCH  87  89
ATOM     89  C   UNL A   1      32.603  26.479  25.533  1.00  0.00     0.065 A 
ATOM     90  C   UNL A   1      32.703  27.201  26.727  1.00  0.00     0.016 A 
ATOM     91  C   UNL A   1      33.035  27.051  24.323  1.00  0.00     0.079 A 
ATOM     92  C   UNL A   1      33.282  28.471  26.728  1.00  0.00     0.001 A 
ATOM     93  C   UNL A   1      33.663  28.308  24.342  1.00  0.00     0.029 A 
ATOM     94  C   UNL A   1      33.774  29.016  25.541  1.00  0.00     0.002 A 
BRANCH  91  95
ATOM     95  N   UNL A   1      32.856  26.411  23.074  1.00  0.00    -0.220 N 
ATOM     96  C   UNL A   1      33.710  25.599  22.368  1.00  0.00     0.225 A 
ATOM     97  N   UNL A   1      31.694  26.527  22.385  1.00  0.00    -0.155 NA
ATOM     98  N   UNL A   1      33.220  25.339  21.178  1.00  0.00    -0.223 NA
ATOM     99  C   UNL A   1      32.011  25.964  21.217  1.00  0.00     0.246 A 
ENDBRANCH  91  95
ENDBRANCH  87  89
ENDBRANCH  84  87
ENDBRANCH  74  77
ENDBRANCH  72  73
ENDBRANCH   1  72
TORSDOF 16
ENDMDL
