MODEL 1
REMARK VINA RESULT:     -10.7      0.000      0.000
REMARK SMILES [NH3+][C@@H](CSCc1nccs1)C(=O)NCCCNC(=O)c1ccc(-c2c3nc(c(-c4cccc(S(=O)(=O)[O-])c4F)c4ccc([nH]4)c(-c4cccc(S(=O)(=O)[O-])c4F)c4nc(c(-c5cccc(S(=O)(=O)[O-])c5F)c5ccc2[nH]5)C=C4)C=C3)cc1
REMARK SMILES IDX 14 1 13 2 11 3 12 4 2 6 1 7 3 11 4 12 5 13 6 14 7 15 10 16
REMARK SMILES IDX 8 17 9 18 15 19 16 20 17 21 18 22 19 24 20 25 21 26 82 27
REMARK SMILES IDX 22 28 81 29 23 30 24 31 25 32 75 33 26 34 80 35 74 36 76 37
REMARK SMILES IDX 27 38 79 39 73 40 72 41 28 43 60 44 40 45 59 46 41 47 44 48
REMARK SMILES IDX 58 49 77 50 42 51 43 52 57 54 78 55 45 56 29 57 30 58 38 59
REMARK SMILES IDX 31 60 33 61 39 62 32 63 34 64 35 65 36 66 37 67 61 68 62 69
REMARK SMILES IDX 70 70 63 71 65 72 71 73 64 74 66 75 67 76 68 77 69 78 46 79
REMARK SMILES IDX 47 80 55 81 48 82 50 83 56 84 49 85 51 86 52 87 53 88 54 89
REMARK H PARENT 13 5 1 8 1 9 1 10 17 23 76 42 44 53
REMARK Flexibility Score: inf
ROOT
ATOM      1  C   UNL A   1      33.915  21.582  25.052  1.00  0.00     0.118 C 
ENDROOT
BRANCH   1   2
ATOM      2  N   UNL A   1      33.637  22.261  26.289  1.00  0.00    -0.351 N 
ATOM      3  C   UNL A   1      32.418  22.635  26.784  1.00  0.00     0.279 C 
ATOM      4  O   UNL A   1      32.369  22.929  27.984  1.00  0.00    -0.268 OA
ATOM      5  H   UNL A   1      34.418  22.485  26.846  1.00  0.00     0.163 HD
BRANCH   3   6
ATOM      6  C   UNL A   1      31.146  22.719  25.894  1.00  0.00     0.280 C 
BRANCH   6   7
ATOM      7  N   UNL A   1      29.939  22.309  26.631  1.00  0.00    -0.347 N 
ATOM      8  H   UNL A   1      30.103  22.403  27.633  1.00  0.00     0.345 HD
ATOM      9  H   UNL A   1      29.721  21.336  26.412  1.00  0.00     0.345 HD
ATOM     10  H   UNL A   1      29.155  22.903  26.358  1.00  0.00     0.345 HD
ENDBRANCH   6   7
BRANCH   6  11
ATOM     11  C   UNL A   1      31.027  23.926  24.930  1.00  0.00     0.145 C 
BRANCH  11  12
ATOM     12  S   UNL A   1      30.399  25.603  25.364  1.00  0.00    -0.148 SA
BRANCH  12  13
ATOM     13  C   UNL A   1      31.663  26.734  24.679  1.00  0.00     0.137 C 
BRANCH  13  14
ATOM     14  C   UNL A   1      31.882  28.001  25.436  1.00  0.00     0.102 A 
ATOM     15  N   UNL A   1      31.994  29.210  24.923  1.00  0.00    -0.249 NA
ATOM     16  S   UNL A   1      31.882  27.929  27.161  1.00  0.00    -0.126 S 
ATOM     17  C   UNL A   1      32.128  30.132  25.941  1.00  0.00     0.123 A 
ATOM     18  C   UNL A   1      32.075  29.626  27.220  1.00  0.00     0.087 A 
ENDBRANCH  13  14
ENDBRANCH  12  13
ENDBRANCH  11  12
ENDBRANCH   6  11
ENDBRANCH   3   6
ENDBRANCH   1   2
BRANCH   1  19
ATOM     19  C   UNL A   1      35.299  21.806  24.481  1.00  0.00     0.042 C 
BRANCH  19  20
ATOM     20  C   UNL A   1      36.355  22.047  25.542  1.00  0.00     0.118 C 
BRANCH  20  21
ATOM     21  N   UNL A   1      37.372  20.995  25.577  1.00  0.00    -0.352 N 
ATOM     22  C   UNL A   1      38.709  21.041  25.889  1.00  0.00     0.251 C 
ATOM     23  H   UNL A   1      37.040  20.101  25.334  1.00  0.00     0.163 HD
ATOM     24  O   UNL A   1      39.413  20.058  25.667  1.00  0.00    -0.269 OA
BRANCH  22  25
ATOM     25  C   UNL A   1      39.307  22.265  26.461  1.00  0.00     0.039 A 
ATOM     26  C   UNL A   1      40.400  22.152  27.327  1.00  0.00     0.014 A 
ATOM     27  C   UNL A   1      38.799  23.525  26.145  1.00  0.00     0.014 A 
ATOM     28  C   UNL A   1      41.036  23.306  27.791  1.00  0.00     0.010 A 
ATOM     29  C   UNL A   1      39.502  24.664  26.509  1.00  0.00     0.010 A 
ATOM     30  C   UNL A   1      40.626  24.570  27.340  1.00  0.00    -0.014 A 
BRANCH  30  31
ATOM     31  C   UNL A   1      41.357  25.811  27.705  1.00  0.00     0.031 A 
ATOM     32  C   UNL A   1      40.655  26.905  28.461  1.00  0.00     0.074 A 
ATOM     33  C   UNL A   1      42.613  25.998  27.251  1.00  0.00     0.049 A 
ATOM     34  N   UNL A   1      41.086  28.100  28.772  1.00  0.00    -0.248 NA
ATOM     35  C   UNL A   1      39.273  26.638  28.895  1.00  0.00     0.031 C 
ATOM     36  C   UNL A   1      43.371  25.046  26.434  1.00  0.00     0.029 A 
ATOM     37  N   UNL A   1      43.462  27.068  27.382  1.00  0.00    -0.354 N 
ATOM     38  C   UNL A   1      40.020  28.738  29.395  1.00  0.00     0.074 A 
ATOM     39  C   UNL A   1      38.909  27.813  29.385  1.00  0.00     0.031 C 
ATOM     40  C   UNL A   1      44.571  25.571  26.143  1.00  0.00     0.029 A 
ATOM     41  C   UNL A   1      44.655  26.911  26.714  1.00  0.00     0.049 A 
ATOM     42  H   UNL A   1      43.239  27.873  27.904  1.00  0.00     0.167 HD
ATOM     43  C   UNL A   1      39.978  29.971  29.954  1.00  0.00     0.034 A 
ATOM     44  C   UNL A   1      45.693  27.757  26.563  1.00  0.00     0.034 A 
ATOM     45  C   UNL A   1      41.100  30.867  30.002  1.00  0.00     0.049 A 
ATOM     46  C   UNL A   1      45.633  29.107  27.223  1.00  0.00     0.074 A 
ATOM     47  C   UNL A   1      41.192  32.095  30.631  1.00  0.00     0.029 A 
ATOM     48  N   UNL A   1      42.323  30.639  29.390  1.00  0.00    -0.354 N 
ATOM     49  N   UNL A   1      44.675  29.628  27.950  1.00  0.00    -0.248 NA
ATOM     50  C   UNL A   1      46.809  29.975  27.067  1.00  0.00     0.031 C 
ATOM     51  C   UNL A   1      42.461  32.624  30.372  1.00  0.00     0.029 A 
ATOM     52  C   UNL A   1      43.170  31.711  29.609  1.00  0.00     0.049 A 
ATOM     53  H   UNL A   1      42.554  29.833  28.873  1.00  0.00     0.167 HD
ATOM     54  C   UNL A   1      45.142  30.871  28.363  1.00  0.00     0.074 A 
ATOM     55  C   UNL A   1      46.480  31.011  27.827  1.00  0.00     0.031 C 
ATOM     56  C   UNL A   1      44.516  31.817  29.106  1.00  0.00     0.034 A 
BRANCH  43  57
ATOM     57  C   UNL A   1      38.689  30.402  30.603  1.00  0.00     0.023 A 
ATOM     58  C   UNL A   1      38.493  30.182  31.982  1.00  0.00     0.012 A 
ATOM     59  C   UNL A   1      37.694  31.072  29.863  1.00  0.00     0.148 A 
ATOM     60  C   UNL A   1      37.315  30.586  32.607  1.00  0.00     0.002 A 
ATOM     61  C   UNL A   1      36.543  31.516  30.504  1.00  0.00     0.091 A 
ATOM     62  F   UNL A   1      37.887  31.253  28.549  1.00  0.00    -0.205 F 
ATOM     63  C   UNL A   1      36.346  31.261  31.872  1.00  0.00     0.022 A 
BRANCH  61  64
ATOM     64  S   UNL A   1      35.271  32.466  29.664  1.00  0.00     0.127 S 
ATOM     65  O   UNL A   1      34.345  32.751  30.759  1.00  0.00    -0.237 OA
ATOM     66  O   UNL A   1      36.022  33.625  29.185  1.00  0.00    -0.237 OA
ATOM     67  O   UNL A   1      34.749  31.602  28.616  1.00  0.00    -0.744 OA
ENDBRANCH  61  64
ENDBRANCH  43  57
BRANCH  44  68
ATOM     68  C   UNL A   1      46.899  27.329  25.799  1.00  0.00     0.023 A 
ATOM     69  C   UNL A   1      47.854  26.501  26.421  1.00  0.00     0.012 A 
ATOM     70  C   UNL A   1      47.093  27.711  24.458  1.00  0.00     0.148 A 
ATOM     71  C   UNL A   1      48.997  26.091  25.734  1.00  0.00     0.002 A 
ATOM     72  C   UNL A   1      48.205  27.251  23.760  1.00  0.00     0.091 A 
ATOM     73  F   UNL A   1      46.178  28.506  23.885  1.00  0.00    -0.205 F 
ATOM     74  C   UNL A   1      49.167  26.457  24.402  1.00  0.00     0.022 A 
BRANCH  72  75
ATOM     75  S   UNL A   1      48.434  27.557  22.005  1.00  0.00     0.127 S 
ATOM     76  O   UNL A   1      49.619  28.410  22.001  1.00  0.00    -0.237 OA
ATOM     77  O   UNL A   1      48.645  26.204  21.488  1.00  0.00    -0.237 OA
ATOM     78  O   UNL A   1      47.200  28.185  21.550  1.00  0.00    -0.744 OA
ENDBRANCH  72  75
ENDBRANCH  44  68
BRANCH  56  79
ATOM     79  C   UNL A   1      45.276  33.082  29.408  1.00  0.00     0.023 A 
ATOM     80  C   UNL A   1      46.026  33.182  30.597  1.00  0.00     0.012 A 
ATOM     81  C   UNL A   1      45.306  34.141  28.480  1.00  0.00     0.148 A 
ATOM     82  C   UNL A   1      46.765  34.331  30.873  1.00  0.00     0.002 A 
ATOM     83  C   UNL A   1      46.086  35.260  28.736  1.00  0.00     0.091 A 
ATOM     84  F   UNL A   1      44.572  34.031  27.362  1.00  0.00    -0.205 F 
ATOM     85  C   UNL A   1      46.806  35.363  29.938  1.00  0.00     0.022 A 
BRANCH  83  86
ATOM     86  S   UNL A   1      46.278  36.596  27.551  1.00  0.00     0.127 S 
ATOM     87  O   UNL A   1      47.044  35.946  26.490  1.00  0.00    -0.237 OA
ATOM     88  O   UNL A   1      44.890  36.901  27.203  1.00  0.00    -0.237 OA
ATOM     89  O   UNL A   1      46.973  37.664  28.258  1.00  0.00    -0.744 OA
ENDBRANCH  83  86
ENDBRANCH  56  79
ENDBRANCH  30  31
ENDBRANCH  22  25
ENDBRANCH  20  21
ENDBRANCH  19  20
ENDBRANCH   1  19
TORSDOF 18
ENDMDL
MODEL 2
REMARK VINA RESULT:     -10.6      5.472     10.604
REMARK SMILES [NH3+][C@@H](CSCc1nccs1)C(=O)NCCCNC(=O)c1ccc(-c2c3nc(c(-c4cccc(S(=O)(=O)[O-])c4F)c4ccc([nH]4)c(-c4cccc(S(=O)(=O)[O-])c4F)c4nc(c(-c5cccc(S(=O)(=O)[O-])c5F)c5ccc2[nH]5)C=C4)C=C3)cc1
REMARK SMILES IDX 14 1 13 2 11 3 12 4 2 6 1 7 3 11 4 12 5 13 6 14 7 15 10 16
REMARK SMILES IDX 8 17 9 18 15 19 16 20 17 21 18 22 19 24 20 25 21 26 82 27
REMARK SMILES IDX 22 28 81 29 23 30 24 31 25 32 75 33 26 34 80 35 74 36 76 37
REMARK SMILES IDX 27 38 79 39 73 40 72 41 28 43 60 44 40 45 59 46 41 47 44 48
REMARK SMILES IDX 58 49 77 50 42 51 43 52 57 54 78 55 45 56 29 57 30 58 38 59
REMARK SMILES IDX 31 60 33 61 39 62 32 63 34 64 35 65 36 66 37 67 61 68 62 69
REMARK SMILES IDX 70 70 63 71 65 72 71 73 64 74 66 75 67 76 68 77 69 78 46 79
REMARK SMILES IDX 47 80 55 81 48 82 50 83 56 84 49 85 51 86 52 87 53 88 54 89
REMARK H PARENT 13 5 1 8 1 9 1 10 17 23 76 42 44 53
REMARK Flexibility Score: inf
ROOT
ATOM      1  C   UNL A   1      32.082  26.654  25.946  1.00  0.00     0.118 C 
ENDROOT
BRANCH   1   2
ATOM      2  N   UNL A   1      31.064  25.749  26.408  1.00  0.00    -0.351 N 
ATOM      3  C   UNL A   1      31.152  24.392  26.552  1.00  0.00     0.279 C 
ATOM      4  O   UNL A   1      30.284  23.846  27.242  1.00  0.00    -0.268 OA
ATOM      5  H   UNL A   1      30.200  26.155  26.650  1.00  0.00     0.163 HD
BRANCH   3   6
ATOM      6  C   UNL A   1      32.268  23.551  25.870  1.00  0.00     0.280 C 
BRANCH   6   7
ATOM      7  N   UNL A   1      33.329  23.181  26.821  1.00  0.00    -0.347 N 
ATOM      8  H   UNL A   1      33.855  22.388  26.453  1.00  0.00     0.345 HD
ATOM      9  H   UNL A   1      32.910  22.924  27.715  1.00  0.00     0.345 HD
ATOM     10  H   UNL A   1      33.958  23.972  26.955  1.00  0.00     0.345 HD
ENDBRANCH   6   7
BRANCH   6  11
ATOM     11  C   UNL A   1      31.828  22.488  24.832  1.00  0.00     0.145 C 
BRANCH  11  12
ATOM     12  S   UNL A   1      32.895  21.173  24.106  1.00  0.00    -0.148 SA
BRANCH  12  13
ATOM     13  C   UNL A   1      32.644  19.743  25.220  1.00  0.00     0.137 C 
BRANCH  13  14
ATOM     14  C   UNL A   1      33.020  18.411  24.664  1.00  0.00     0.102 A 
ATOM     15  N   UNL A   1      33.640  18.185  23.524  1.00  0.00    -0.249 NA
ATOM     16  S   UNL A   1      32.733  17.013  25.636  1.00  0.00    -0.126 S 
ATOM     17  C   UNL A   1      33.867  16.830  23.382  1.00  0.00     0.123 A 
ATOM     18  C   UNL A   1      33.459  16.041  24.433  1.00  0.00     0.087 A 
ENDBRANCH  13  14
ENDBRANCH  12  13
ENDBRANCH  11  12
ENDBRANCH   6  11
ENDBRANCH   3   6
ENDBRANCH   1   2
BRANCH   1  19
ATOM     19  C   UNL A   1      31.591  28.014  25.497  1.00  0.00     0.042 C 
BRANCH  19  20
ATOM     20  C   UNL A   1      32.688  29.061  25.445  1.00  0.00     0.118 C 
BRANCH  20  21
ATOM     21  N   UNL A   1      32.249  30.363  25.947  1.00  0.00    -0.352 N 
ATOM     22  C   UNL A   1      32.798  31.199  26.889  1.00  0.00     0.251 C 
ATOM     23  H   UNL A   1      31.418  30.697  25.539  1.00  0.00     0.163 HD
ATOM     24  O   UNL A   1      32.149  32.166  27.286  1.00  0.00    -0.269 OA
BRANCH  22  25
ATOM     25  C   UNL A   1      34.141  30.933  27.442  1.00  0.00     0.039 A 
ATOM     26  C   UNL A   1      35.015  32.003  27.665  1.00  0.00     0.014 A 
ATOM     27  C   UNL A   1      34.543  29.633  27.748  1.00  0.00     0.014 A 
ATOM     28  C   UNL A   1      36.246  31.773  28.283  1.00  0.00     0.010 A 
ATOM     29  C   UNL A   1      35.712  29.422  28.467  1.00  0.00     0.010 A 
ATOM     30  C   UNL A   1      36.579  30.488  28.740  1.00  0.00    -0.014 A 
BRANCH  30  31
ATOM     31  C   UNL A   1      37.818  30.226  29.517  1.00  0.00     0.031 A 
ATOM     32  C   UNL A   1      38.863  29.288  28.977  1.00  0.00     0.074 A 
ATOM     33  C   UNL A   1      37.943  30.739  30.757  1.00  0.00     0.049 A 
ATOM     34  N   UNL A   1      39.951  28.848  29.552  1.00  0.00    -0.248 NA
ATOM     35  C   UNL A   1      38.639  28.742  27.627  1.00  0.00     0.031 C 
ATOM     36  C   UNL A   1      36.957  31.593  31.426  1.00  0.00     0.029 A 
ATOM     37  N   UNL A   1      38.936  30.589  31.693  1.00  0.00    -0.354 N 
ATOM     38  C   UNL A   1      40.516  27.946  28.658  1.00  0.00     0.074 A 
ATOM     39  C   UNL A   1      39.631  27.871  27.517  1.00  0.00     0.031 C 
ATOM     40  C   UNL A   1      37.398  31.895  32.657  1.00  0.00     0.029 A 
ATOM     41  C   UNL A   1      38.672  31.224  32.884  1.00  0.00     0.049 A 
ATOM     42  H   UNL A   1      39.759  30.074  31.527  1.00  0.00     0.167 HD
ATOM     43  C   UNL A   1      41.681  27.264  28.761  1.00  0.00     0.034 A 
ATOM     44  C   UNL A   1      39.371  31.251  34.036  1.00  0.00     0.034 A 
ATOM     45  C   UNL A   1      42.580  27.379  29.877  1.00  0.00     0.049 A 
ATOM     46  C   UNL A   1      40.679  30.512  34.112  1.00  0.00     0.074 A 
ATOM     47  C   UNL A   1      43.831  26.810  30.035  1.00  0.00     0.029 A 
ATOM     48  N   UNL A   1      42.321  28.102  31.031  1.00  0.00    -0.354 N 
ATOM     49  N   UNL A   1      41.276  29.796  33.191  1.00  0.00    -0.248 NA
ATOM     50  C   UNL A   1      41.425  30.609  35.374  1.00  0.00     0.031 C 
ATOM     51  C   UNL A   1      44.315  27.164  31.298  1.00  0.00     0.029 A 
ATOM     52  C   UNL A   1      43.380  27.980  31.914  1.00  0.00     0.049 A 
ATOM     53  H   UNL A   1      41.503  28.625  31.198  1.00  0.00     0.167 HD
ATOM     54  C   UNL A   1      42.480  29.382  33.750  1.00  0.00     0.074 A 
ATOM     55  C   UNL A   1      42.538  29.951  35.081  1.00  0.00     0.031 C 
ATOM     56  C   UNL A   1      43.443  28.589  33.217  1.00  0.00     0.034 A 
BRANCH  43  57
ATOM     57  C   UNL A   1      42.075  26.372  27.613  1.00  0.00     0.023 A 
ATOM     58  C   UNL A   1      42.896  26.878  26.584  1.00  0.00     0.012 A 
ATOM     59  C   UNL A   1      41.679  25.021  27.578  1.00  0.00     0.148 A 
ATOM     60  C   UNL A   1      43.286  26.067  25.521  1.00  0.00     0.002 A 
ATOM     61  C   UNL A   1      42.112  24.204  26.539  1.00  0.00     0.091 A 
ATOM     62  F   UNL A   1      40.881  24.562  28.553  1.00  0.00    -0.205 F 
ATOM     63  C   UNL A   1      42.903  24.729  25.503  1.00  0.00     0.022 A 
BRANCH  61  64
ATOM     64  S   UNL A   1      41.742  22.448  26.467  1.00  0.00     0.127 S 
ATOM     65  O   UNL A   1      42.449  22.048  25.251  1.00  0.00    -0.237 OA
ATOM     66  O   UNL A   1      42.340  21.959  27.708  1.00  0.00    -0.237 OA
ATOM     67  O   UNL A   1      40.292  22.344  26.406  1.00  0.00    -0.744 OA
ENDBRANCH  61  64
ENDBRANCH  43  57
BRANCH  44  68
ATOM     68  C   UNL A   1      38.872  32.048  35.193  1.00  0.00     0.023 A 
ATOM     69  C   UNL A   1      38.893  33.455  35.123  1.00  0.00     0.012 A 
ATOM     70  C   UNL A   1      38.354  31.426  36.345  1.00  0.00     0.148 A 
ATOM     71  C   UNL A   1      38.440  34.228  36.193  1.00  0.00     0.002 A 
ATOM     72  C   UNL A   1      37.850  32.202  37.384  1.00  0.00     0.091 A 
ATOM     73  F   UNL A   1      38.350  30.087  36.397  1.00  0.00    -0.205 F 
ATOM     74  C   UNL A   1      37.910  33.603  37.318  1.00  0.00     0.022 A 
BRANCH  72  75
ATOM     75  S   UNL A   1      37.024  31.484  38.808  1.00  0.00     0.127 S 
ATOM     76  O   UNL A   1      38.014  31.685  39.862  1.00  0.00    -0.237 OA
ATOM     77  O   UNL A   1      35.828  32.321  38.917  1.00  0.00    -0.237 OA
ATOM     78  O   UNL A   1      36.752  30.099  38.449  1.00  0.00    -0.744 OA
ENDBRANCH  72  75
ENDBRANCH  44  68
BRANCH  56  79
ATOM     79  C   UNL A   1      44.658  28.307  34.061  1.00  0.00     0.023 A 
ATOM     80  C   UNL A   1      45.766  29.177  34.009  1.00  0.00     0.012 A 
ATOM     81  C   UNL A   1      44.673  27.222  34.960  1.00  0.00     0.148 A 
ATOM     82  C   UNL A   1      46.882  28.951  34.811  1.00  0.00     0.002 A 
ATOM     83  C   UNL A   1      45.767  27.034  35.795  1.00  0.00     0.091 A 
ATOM     84  F   UNL A   1      43.615  26.397  34.983  1.00  0.00    -0.205 F 
ATOM     85  C   UNL A   1      46.878  27.889  35.713  1.00  0.00     0.022 A 
BRANCH  83  86
ATOM     86  S   UNL A   1      45.812  25.752  37.053  1.00  0.00     0.127 S 
ATOM     87  O   UNL A   1      46.020  24.551  36.247  1.00  0.00    -0.237 OA
ATOM     88  O   UNL A   1      46.963  26.153  37.861  1.00  0.00    -0.237 OA
ATOM     89  O   UNL A   1      44.532  25.825  37.745  1.00  0.00    -0.744 OA
ENDBRANCH  83  86
ENDBRANCH  56  79
ENDBRANCH  30  31
ENDBRANCH  22  25
ENDBRANCH  20  21
ENDBRANCH  19  20
ENDBRANCH   1  19
TORSDOF 18
ENDMDL
MODEL 3
REMARK VINA RESULT:     -10.6      5.475     10.407
REMARK SMILES [NH3+][C@@H](CSCc1nccs1)C(=O)NCCCNC(=O)c1ccc(-c2c3nc(c(-c4cccc(S(=O)(=O)[O-])c4F)c4ccc([nH]4)c(-c4cccc(S(=O)(=O)[O-])c4F)c4nc(c(-c5cccc(S(=O)(=O)[O-])c5F)c5ccc2[nH]5)C=C4)C=C3)cc1
REMARK SMILES IDX 14 1 13 2 11 3 12 4 2 6 1 7 3 11 4 12 5 13 6 14 7 15 10 16
REMARK SMILES IDX 8 17 9 18 15 19 16 20 17 21 18 22 19 24 20 25 21 26 82 27
REMARK SMILES IDX 22 28 81 29 23 30 24 31 25 32 75 33 26 34 80 35 74 36 76 37
REMARK SMILES IDX 27 38 79 39 73 40 72 41 28 43 60 44 40 45 59 46 41 47 44 48
REMARK SMILES IDX 58 49 77 50 42 51 43 52 57 54 78 55 45 56 29 57 30 58 38 59
REMARK SMILES IDX 31 60 33 61 39 62 32 63 34 64 35 65 36 66 37 67 61 68 62 69
REMARK SMILES IDX 70 70 63 71 65 72 71 73 64 74 66 75 67 76 68 77 69 78 46 79
REMARK SMILES IDX 47 80 55 81 48 82 50 83 56 84 49 85 51 86 52 87 53 88 54 89
REMARK H PARENT 13 5 1 8 1 9 1 10 17 23 76 42 44 53
REMARK Flexibility Score: inf
ROOT
ATOM      1  C   UNL A   1      32.119  27.676  26.704  1.00  0.00     0.118 C 
ENDROOT
BRANCH   1   2
ATOM      2  N   UNL A   1      31.027  26.745  26.798  1.00  0.00    -0.351 N 
ATOM      3  C   UNL A   1      30.782  25.657  26.007  1.00  0.00     0.279 C 
ATOM      4  O   UNL A   1      29.975  24.824  26.436  1.00  0.00    -0.268 OA
ATOM      5  H   UNL A   1      30.377  26.911  27.519  1.00  0.00     0.163 HD
BRANCH   3   6
ATOM      6  C   UNL A   1      31.455  25.466  24.618  1.00  0.00     0.280 C 
BRANCH   6   7
ATOM      7  N   UNL A   1      32.023  24.117  24.469  1.00  0.00    -0.347 N 
ATOM      8  H   UNL A   1      31.845  23.577  25.316  1.00  0.00     0.345 HD
ATOM      9  H   UNL A   1      33.030  24.186  24.316  1.00  0.00     0.345 HD
ATOM     10  H   UNL A   1      31.589  23.650  23.672  1.00  0.00     0.345 HD
ENDBRANCH   6   7
BRANCH   6  11
ATOM     11  C   UNL A   1      30.746  26.090  23.390  1.00  0.00     0.145 C 
BRANCH  11  12
ATOM     12  S   UNL A   1      30.975  27.807  22.761  1.00  0.00    -0.148 SA
BRANCH  12  13
ATOM     13  C   UNL A   1      29.571  28.728  23.486  1.00  0.00     0.137 C 
BRANCH  13  14
ATOM     14  C   UNL A   1      29.066  29.882  22.686  1.00  0.00     0.102 A 
ATOM     15  N   UNL A   1      28.727  29.864  21.413  1.00  0.00    -0.249 NA
ATOM     16  S   UNL A   1      28.779  31.376  23.504  1.00  0.00    -0.126 S 
ATOM     17  C   UNL A   1      28.252  31.106  21.045  1.00  0.00     0.123 A 
ATOM     18  C   UNL A   1      28.192  32.048  22.047  1.00  0.00     0.087 A 
ENDBRANCH  13  14
ENDBRANCH  12  13
ENDBRANCH  11  12
ENDBRANCH   6  11
ENDBRANCH   3   6
ENDBRANCH   1   2
BRANCH   1  19
ATOM     19  C   UNL A   1      31.779  29.117  27.018  1.00  0.00     0.042 C 
BRANCH  19  20
ATOM     20  C   UNL A   1      32.380  30.103  26.035  1.00  0.00     0.118 C 
BRANCH  20  21
ATOM     21  N   UNL A   1      32.163  31.496  26.429  1.00  0.00    -0.352 N 
ATOM     22  C   UNL A   1      32.881  32.322  27.258  1.00  0.00     0.251 C 
ATOM     23  H   UNL A   1      31.364  31.912  26.030  1.00  0.00     0.163 HD
ATOM     24  O   UNL A   1      32.403  33.405  27.591  1.00  0.00    -0.269 OA
BRANCH  22  25
ATOM     25  C   UNL A   1      34.204  31.911  27.770  1.00  0.00     0.039 A 
ATOM     26  C   UNL A   1      35.224  32.862  27.878  1.00  0.00     0.014 A 
ATOM     27  C   UNL A   1      34.445  30.590  28.151  1.00  0.00     0.014 A 
ATOM     28  C   UNL A   1      36.444  32.506  28.457  1.00  0.00     0.010 A 
ATOM     29  C   UNL A   1      35.610  30.268  28.831  1.00  0.00     0.010 A 
ATOM     30  C   UNL A   1      36.626  31.220  28.989  1.00  0.00    -0.014 A 
BRANCH  30  31
ATOM     31  C   UNL A   1      37.857  30.842  29.728  1.00  0.00     0.031 A 
ATOM     32  C   UNL A   1      38.842  29.885  29.114  1.00  0.00     0.074 A 
ATOM     33  C   UNL A   1      38.026  31.267  30.997  1.00  0.00     0.049 A 
ATOM     34  N   UNL A   1      39.912  29.350  29.642  1.00  0.00    -0.248 NA
ATOM     35  C   UNL A   1      38.572  29.440  27.736  1.00  0.00     0.031 C 
ATOM     36  C   UNL A   1      37.098  32.129  31.733  1.00  0.00     0.029 A 
ATOM     37  N   UNL A   1      39.021  31.003  31.905  1.00  0.00    -0.354 N 
ATOM     38  C   UNL A   1      40.414  28.478  28.684  1.00  0.00     0.074 A 
ATOM     39  C   UNL A   1      39.512  28.525  27.555  1.00  0.00     0.031 C 
ATOM     40  C   UNL A   1      37.569  32.327  32.974  1.00  0.00     0.029 A 
ATOM     41  C   UNL A   1      38.808  31.575  33.138  1.00  0.00     0.049 A 
ATOM     42  H   UNL A   1      39.812  30.456  31.694  1.00  0.00     0.167 HD
ATOM     43  C   UNL A   1      41.541  27.729  28.725  1.00  0.00     0.034 A 
ATOM     44  C   UNL A   1      39.521  31.489  34.278  1.00  0.00     0.034 A 
ATOM     45  C   UNL A   1      42.458  27.723  29.832  1.00  0.00     0.049 A 
ATOM     46  C   UNL A   1      40.787  30.677  34.286  1.00  0.00     0.074 A 
ATOM     47  C   UNL A   1      43.678  27.077  29.933  1.00  0.00     0.029 A 
ATOM     48  N   UNL A   1      42.255  28.383  31.033  1.00  0.00    -0.354 N 
ATOM     49  N   UNL A   1      41.332  29.990  33.312  1.00  0.00    -0.248 NA
ATOM     50  C   UNL A   1      41.552  30.653  35.540  1.00  0.00     0.031 C 
ATOM     51  C   UNL A   1      44.197  27.323  31.209  1.00  0.00     0.029 A 
ATOM     52  C   UNL A   1      43.316  28.147  31.889  1.00  0.00     0.049 A 
ATOM     53  H   UNL A   1      41.469  28.938  31.246  1.00  0.00     0.167 HD
ATOM     54  C   UNL A   1      42.518  29.475  33.825  1.00  0.00     0.074 A 
ATOM     55  C   UNL A   1      42.624  29.954  35.188  1.00  0.00     0.031 C 
ATOM     56  C   UNL A   1      43.429  28.668  33.228  1.00  0.00     0.034 A 
BRANCH  43  57
ATOM     57  C   UNL A   1      41.870  26.892  27.517  1.00  0.00     0.023 A 
ATOM     58  C   UNL A   1      42.451  27.498  26.384  1.00  0.00     0.012 A 
ATOM     59  C   UNL A   1      41.657  25.499  27.521  1.00  0.00     0.148 A 
ATOM     60  C   UNL A   1      42.779  26.741  25.261  1.00  0.00     0.002 A 
ATOM     61  C   UNL A   1      42.032  24.743  26.416  1.00  0.00     0.091 A 
ATOM     62  F   UNL A   1      41.085  24.943  28.598  1.00  0.00    -0.205 F 
ATOM     63  C   UNL A   1      42.579  25.364  25.281  1.00  0.00     0.022 A 
BRANCH  61  64
ATOM     64  S   UNL A   1      41.891  22.953  26.373  1.00  0.00     0.127 S 
ATOM     65  O   UNL A   1      40.441  22.771  26.432  1.00  0.00    -0.237 OA
ATOM     66  O   UNL A   1      42.492  22.630  25.079  1.00  0.00    -0.237 OA
ATOM     67  O   UNL A   1      42.629  22.463  27.527  1.00  0.00    -0.744 OA
ENDBRANCH  61  64
ENDBRANCH  43  57
BRANCH  44  68
ATOM     68  C   UNL A   1      39.082  32.237  35.491  1.00  0.00     0.023 A 
ATOM     69  C   UNL A   1      39.311  33.625  35.568  1.00  0.00     0.012 A 
ATOM     70  C   UNL A   1      38.416  31.592  36.550  1.00  0.00     0.148 A 
ATOM     71  C   UNL A   1      38.918  34.349  36.694  1.00  0.00     0.002 A 
ATOM     72  C   UNL A   1      37.975  32.330  37.644  1.00  0.00     0.091 A 
ATOM     73  F   UNL A   1      38.214  30.269  36.463  1.00  0.00    -0.205 F 
ATOM     74  C   UNL A   1      38.242  33.705  37.726  1.00  0.00     0.022 A 
BRANCH  72  75
ATOM     75  S   UNL A   1      36.976  31.611  38.952  1.00  0.00     0.127 S 
ATOM     76  O   UNL A   1      35.756  32.409  38.871  1.00  0.00    -0.237 OA
ATOM     77  O   UNL A   1      36.839  30.225  38.499  1.00  0.00    -0.237 OA
ATOM     78  O   UNL A   1      37.755  31.766  40.173  1.00  0.00    -0.744 OA
ENDBRANCH  72  75
ENDBRANCH  44  68
BRANCH  56  79
ATOM     79  C   UNL A   1      44.637  28.266  34.033  1.00  0.00     0.023 A 
ATOM     80  C   UNL A   1      45.781  29.090  34.040  1.00  0.00     0.012 A 
ATOM     81  C   UNL A   1      44.612  27.112  34.840  1.00  0.00     0.148 A 
ATOM     82  C   UNL A   1      46.892  28.752  34.809  1.00  0.00     0.002 A 
ATOM     83  C   UNL A   1      45.702  26.810  35.645  1.00  0.00     0.091 A 
ATOM     84  F   UNL A   1      43.520  26.333  34.807  1.00  0.00    -0.205 F 
ATOM     85  C   UNL A   1      46.848  27.621  35.621  1.00  0.00     0.022 A 
BRANCH  83  86
ATOM     86  S   UNL A   1      45.701  25.429  36.794  1.00  0.00     0.127 S 
ATOM     87  O   UNL A   1      45.185  26.054  38.010  1.00  0.00    -0.237 OA
ATOM     88  O   UNL A   1      44.780  24.492  36.150  1.00  0.00    -0.237 OA
ATOM     89  O   UNL A   1      47.081  24.966  36.867  1.00  0.00    -0.744 OA
ENDBRANCH  83  86
ENDBRANCH  56  79
ENDBRANCH  30  31
ENDBRANCH  22  25
ENDBRANCH  20  21
ENDBRANCH  19  20
ENDBRANCH   1  19
TORSDOF 18
ENDMDL
