MODEL 1
REMARK VINA RESULT:     -10.8      0.000      0.000
REMARK SMILES Cc1cccc(S(=O)(=O)Nc2cc(C(=O)NCCCNC(=O)c3ccc(-c4c5nc(c(-c6cccc(S(=O)(=O)[O-])c6F)c6ccc([nH]6)c(-c6cccc(S(=O)(=O)[O-])c6F)c6nc(c(-c7cccc(S(=O)(=O)[O-])c7F)c7ccc4[nH]7)C=C6)C=C5)cc3)ccc2N2CCC[C@H](C[NH+]3CCCC3)C2)c1
REMARK SMILES IDX 18 1 17 2 16 3 14 4 15 5 13 7 11 8 12 9 88 10 87 11 86 12
REMARK SMILES IDX 10 13 7 15 8 16 9 17 6 18 1 19 2 20 3 21 101 22 4 23 5 24
REMARK SMILES IDX 89 25 90 26 100 27 91 28 93 29 92 30 94 31 95 32 96 33 99 34
REMARK SMILES IDX 97 36 98 37 19 38 20 39 21 40 22 42 23 43 24 44 85 45 25 46
REMARK SMILES IDX 84 47 26 48 27 49 28 50 78 51 29 52 83 53 77 54 79 55 30 56
REMARK SMILES IDX 82 57 76 58 75 59 31 61 63 62 43 63 62 64 44 65 47 66 61 67
REMARK SMILES IDX 80 68 45 69 46 70 60 72 81 73 48 74 32 75 33 76 41 77 34 78
REMARK SMILES IDX 36 79 42 80 35 81 37 82 38 83 39 84 40 85 64 86 65 87 73 88
REMARK SMILES IDX 66 89 68 90 74 91 67 92 69 93 70 94 71 95 72 96 49 97 50 98
REMARK SMILES IDX 58 99 51 100 53 101 59 102 52 103 54 104 55 105 56 106
REMARK SMILES IDX 57 107
REMARK H PARENT 16 6 10 14 95 35 20 41 79 60 47 71
REMARK Flexibility Score: inf
ROOT
ATOM      1  C   UNL A   1      43.622  31.929  33.726  1.00  0.00     0.042 C 
ENDROOT
BRANCH   1   2
ATOM      2  C   UNL A   1      42.723  33.049  33.213  1.00  0.00     0.118 C 
BRANCH   2   3
ATOM      3  N   UNL A   1      41.926  33.673  34.258  1.00  0.00    -0.352 N 
ATOM      4  C   UNL A   1      40.564  33.825  34.413  1.00  0.00     0.251 C 
ATOM      5  O   UNL A   1      40.141  34.254  35.487  1.00  0.00    -0.269 OA
ATOM      6  H   UNL A   1      42.459  34.057  34.992  1.00  0.00     0.163 HD
BRANCH   4   7
ATOM      7  C   UNL A   1      39.568  33.451  33.367  1.00  0.00     0.042 A 
ATOM      8  C   UNL A   1      37.984  31.915  32.356  1.00  0.00     0.073 A 
ATOM      9  C   UNL A   1      39.024  32.182  33.234  1.00  0.00     0.042 A 
ATOM     10  C   UNL A   1      37.573  32.873  31.421  1.00  0.00     0.061 A 
ATOM     11  C   UNL A   1      38.182  34.135  31.483  1.00  0.00     0.029 A 
ATOM     12  C   UNL A   1      39.142  34.431  32.463  1.00  0.00     0.016 A 
BRANCH   8  13
ATOM     13  N   UNL A   1      37.370  30.631  32.421  1.00  0.00    -0.277 N 
ATOM     14  H   UNL A   1      36.393  30.576  32.521  1.00  0.00     0.180 HD
BRANCH  13  15
ATOM     15  S   UNL A   1      38.271  29.193  32.331  1.00  0.00     0.261 S 
ATOM     16  O   UNL A   1      37.455  28.217  33.057  1.00  0.00    -0.201 OA
ATOM     17  O   UNL A   1      39.584  29.524  32.809  1.00  0.00    -0.201 OA
BRANCH  15  18
ATOM     18  C   UNL A   1      38.479  28.526  30.684  1.00  0.00     0.088 A 
ATOM     19  C   UNL A   1      40.195  25.721  28.773  1.00  0.00     0.044 C 
ATOM     20  C   UNL A   1      39.343  26.923  29.076  1.00  0.00    -0.050 A 
ATOM     21  C   UNL A   1      38.977  27.773  28.027  1.00  0.00     0.003 A 
ATOM     22  C   UNL A   1      39.009  27.268  30.401  1.00  0.00     0.025 A 
ATOM     23  C   UNL A   1      38.338  28.983  28.294  1.00  0.00     0.002 A 
ATOM     24  C   UNL A   1      38.118  29.370  29.615  1.00  0.00     0.022 A 
ENDBRANCH  15  18
ENDBRANCH  13  15
ENDBRANCH   8  13
BRANCH  10  25
ATOM     25  N   UNL A   1      36.641  32.609  30.437  1.00  0.00    -0.369 N 
ATOM     26  C   UNL A   1      37.118  32.419  29.072  1.00  0.00     0.116 C 
ATOM     27  C   UNL A   1      35.263  32.253  30.748  1.00  0.00     0.126 C 
ATOM     28  C   UNL A   1      36.198  33.172  28.116  1.00  0.00     0.022 C 
ATOM     29  C   UNL A   1      34.314  33.053  29.842  1.00  0.00     0.064 C 
ATOM     30  C   UNL A   1      34.732  32.819  28.376  1.00  0.00     0.013 C 
BRANCH  29  31
ATOM     31  C   UNL A   1      34.294  34.529  30.319  1.00  0.00     0.267 C 
BRANCH  31  32
ATOM     32  N   UNL A   1      33.482  34.919  31.474  1.00  0.00    -0.335 N 
ATOM     33  C   UNL A   1      32.588  36.052  31.251  1.00  0.00     0.262 C 
ATOM     34  C   UNL A   1      34.208  35.156  32.717  1.00  0.00     0.262 C 
ATOM     35  H   UNL A   1      32.925  34.071  31.586  1.00  0.00     0.348 HD
ATOM     36  C   UNL A   1      33.291  37.238  31.879  1.00  0.00     0.067 C 
ATOM     37  C   UNL A   1      34.044  36.635  33.052  1.00  0.00     0.067 C 
ENDBRANCH  31  32
ENDBRANCH  29  31
ENDBRANCH  10  25
ENDBRANCH   4   7
ENDBRANCH   2   3
ENDBRANCH   1   2
BRANCH   1  38
ATOM     38  C   UNL A   1      42.890  30.640  33.984  1.00  0.00     0.118 C 
BRANCH  38  39
ATOM     39  N   UNL A   1      43.051  30.137  35.343  1.00  0.00    -0.352 N 
ATOM     40  C   UNL A   1      43.151  28.812  35.742  1.00  0.00     0.251 C 
ATOM     41  H   UNL A   1      43.095  30.813  36.057  1.00  0.00     0.163 HD
ATOM     42  O   UNL A   1      43.209  28.519  36.929  1.00  0.00    -0.269 OA
BRANCH  40  43
ATOM     43  C   UNL A   1      43.309  27.796  34.675  1.00  0.00     0.039 A 
ATOM     44  C   UNL A   1      44.562  27.742  34.060  1.00  0.00     0.014 A 
ATOM     45  C   UNL A   1      42.173  27.320  34.028  1.00  0.00     0.014 A 
ATOM     46  C   UNL A   1      44.625  27.514  32.692  1.00  0.00     0.010 A 
ATOM     47  C   UNL A   1      42.216  27.222  32.653  1.00  0.00     0.010 A 
ATOM     48  C   UNL A   1      43.433  27.398  31.984  1.00  0.00    -0.014 A 
BRANCH  48  49
ATOM     49  C   UNL A   1      43.353  27.348  30.535  1.00  0.00     0.031 A 
ATOM     50  C   UNL A   1      43.653  26.056  29.892  1.00  0.00     0.074 A 
ATOM     51  C   UNL A   1      42.909  28.410  29.829  1.00  0.00     0.049 A 
ATOM     52  N   UNL A   1      43.938  25.897  28.649  1.00  0.00    -0.248 NA
ATOM     53  C   UNL A   1      43.697  24.821  30.664  1.00  0.00     0.031 C 
ATOM     54  C   UNL A   1      42.491  28.434  28.431  1.00  0.00     0.029 A 
ATOM     55  N   UNL A   1      42.960  29.762  30.184  1.00  0.00    -0.354 N 
ATOM     56  C   UNL A   1      43.912  24.540  28.397  1.00  0.00     0.074 A 
ATOM     57  C   UNL A   1      43.855  23.919  29.695  1.00  0.00     0.031 C 
ATOM     58  C   UNL A   1      42.608  29.688  27.965  1.00  0.00     0.029 A 
ATOM     59  C   UNL A   1      43.285  30.455  28.999  1.00  0.00     0.049 A 
ATOM     60  H   UNL A   1      42.803  30.149  31.075  1.00  0.00     0.167 HD
ATOM     61  C   UNL A   1      43.777  24.121  27.107  1.00  0.00     0.034 A 
ATOM     62  C   UNL A   1      44.447  31.160  28.827  1.00  0.00     0.034 A 
ATOM     63  C   UNL A   1      43.928  25.259  26.184  1.00  0.00     0.049 A 
ATOM     64  C   UNL A   1      45.273  30.653  27.652  1.00  0.00     0.074 A 
ATOM     65  C   UNL A   1      43.014  26.088  25.552  1.00  0.00     0.029 A 
ATOM     66  N   UNL A   1      45.163  25.897  26.086  1.00  0.00    -0.354 N 
ATOM     67  N   UNL A   1      45.031  29.541  27.013  1.00  0.00    -0.248 NA
ATOM     68  C   UNL A   1      46.456  31.338  27.132  1.00  0.00     0.031 C 
ATOM     69  C   UNL A   1      43.687  27.289  25.195  1.00  0.00     0.029 A 
ATOM     70  C   UNL A   1      45.016  27.177  25.569  1.00  0.00     0.049 A 
ATOM     71  H   UNL A   1      46.022  25.496  26.350  1.00  0.00     0.167 HD
ATOM     72  C   UNL A   1      46.046  29.279  26.130  1.00  0.00     0.074 A 
ATOM     73  C   UNL A   1      46.871  30.476  26.186  1.00  0.00     0.031 C 
ATOM     74  C   UNL A   1      46.163  28.080  25.479  1.00  0.00     0.034 A 
BRANCH  61  75
ATOM     75  C   UNL A   1      43.167  22.779  26.708  1.00  0.00     0.023 A 
ATOM     76  C   UNL A   1      41.897  22.465  27.245  1.00  0.00     0.012 A 
ATOM     77  C   UNL A   1      43.768  21.756  25.934  1.00  0.00     0.148 A 
ATOM     78  C   UNL A   1      41.312  21.200  27.115  1.00  0.00     0.002 A 
ATOM     79  C   UNL A   1      43.217  20.471  25.855  1.00  0.00     0.091 A 
ATOM     80  F   UNL A   1      44.839  22.026  25.187  1.00  0.00    -0.205 F 
ATOM     81  C   UNL A   1      41.988  20.189  26.450  1.00  0.00     0.022 A 
BRANCH  79  82
ATOM     82  S   UNL A   1      44.070  19.095  25.057  1.00  0.00     0.127 S 
ATOM     83  O   UNL A   1      43.173  17.973  25.338  1.00  0.00    -0.237 OA
ATOM     84  O   UNL A   1      44.098  19.515  23.658  1.00  0.00    -0.237 OA
ATOM     85  O   UNL A   1      45.372  18.992  25.706  1.00  0.00    -0.744 OA
ENDBRANCH  79  82
ENDBRANCH  61  75
BRANCH  62  86
ATOM     86  C   UNL A   1      45.011  31.688  30.110  1.00  0.00     0.023 A 
ATOM     87  C   UNL A   1      45.919  30.843  30.799  1.00  0.00     0.012 A 
ATOM     88  C   UNL A   1      45.028  33.064  30.393  1.00  0.00     0.148 A 
ATOM     89  C   UNL A   1      46.972  31.382  31.538  1.00  0.00     0.002 A 
ATOM     90  C   UNL A   1      46.057  33.590  31.171  1.00  0.00     0.091 A 
ATOM     91  F   UNL A   1      44.090  33.851  29.851  1.00  0.00    -0.205 F 
ATOM     92  C   UNL A   1      47.072  32.761  31.679  1.00  0.00     0.022 A 
BRANCH  90  93
ATOM     93  S   UNL A   1      46.162  35.360  31.461  1.00  0.00     0.127 S 
ATOM     94  O   UNL A   1      44.909  35.616  32.164  1.00  0.00    -0.237 OA
ATOM     95  O   UNL A   1      47.362  35.484  32.287  1.00  0.00    -0.237 OA
ATOM     96  O   UNL A   1      46.294  35.931  30.128  1.00  0.00    -0.744 OA
ENDBRANCH  90  93
ENDBRANCH  62  86
BRANCH  74  97
ATOM     97  C   UNL A   1      47.388  27.658  24.692  1.00  0.00     0.023 A 
ATOM     98  C   UNL A   1      47.482  27.851  23.299  1.00  0.00     0.012 A 
ATOM     99  C   UNL A   1      48.547  27.175  25.349  1.00  0.00     0.148 A 
ATOM    100  C   UNL A   1      48.625  27.493  22.578  1.00  0.00     0.002 A 
ATOM    101  C   UNL A   1      49.721  26.926  24.642  1.00  0.00     0.091 A 
ATOM    102  F   UNL A   1      48.512  26.936  26.668  1.00  0.00    -0.205 F 
ATOM    103  C   UNL A   1      49.752  27.044  23.251  1.00  0.00     0.022 A 
BRANCH 101 104
ATOM    104  S   UNL A   1      51.268  26.592  25.496  1.00  0.00     0.127 S 
ATOM    105  O   UNL A   1      50.952  25.372  26.235  1.00  0.00    -0.237 OA
ATOM    106  O   UNL A   1      52.208  26.405  24.388  1.00  0.00    -0.237 OA
ATOM    107  O   UNL A   1      51.524  27.781  26.297  1.00  0.00    -0.744 OA
ENDBRANCH 101 104
ENDBRANCH  74  97
ENDBRANCH  48  49
ENDBRANCH  40  43
ENDBRANCH  38  39
ENDBRANCH   1  38
TORSDOF 19
ENDMDL
MODEL 2
REMARK VINA RESULT:     -10.8      4.743      7.381
REMARK SMILES Cc1cccc(S(=O)(=O)Nc2cc(C(=O)NCCCNC(=O)c3ccc(-c4c5nc(c(-c6cccc(S(=O)(=O)[O-])c6F)c6ccc([nH]6)c(-c6cccc(S(=O)(=O)[O-])c6F)c6nc(c(-c7cccc(S(=O)(=O)[O-])c7F)c7ccc4[nH]7)C=C6)C=C5)cc3)ccc2N2CCC[C@H](C[NH+]3CCCC3)C2)c1
REMARK SMILES IDX 18 1 17 2 16 3 14 4 15 5 13 7 11 8 12 9 88 10 87 11 86 12
REMARK SMILES IDX 10 13 7 15 8 16 9 17 6 18 1 19 2 20 3 21 101 22 4 23 5 24
REMARK SMILES IDX 89 25 90 26 100 27 91 28 93 29 92 30 94 31 95 32 96 33 99 34
REMARK SMILES IDX 97 36 98 37 19 38 20 39 21 40 22 42 23 43 24 44 85 45 25 46
REMARK SMILES IDX 84 47 26 48 27 49 28 50 78 51 29 52 83 53 77 54 79 55 30 56
REMARK SMILES IDX 82 57 76 58 75 59 31 61 63 62 43 63 62 64 44 65 47 66 61 67
REMARK SMILES IDX 80 68 45 69 46 70 60 72 81 73 48 74 32 75 33 76 41 77 34 78
REMARK SMILES IDX 36 79 42 80 35 81 37 82 38 83 39 84 40 85 64 86 65 87 73 88
REMARK SMILES IDX 66 89 68 90 74 91 67 92 69 93 70 94 71 95 72 96 49 97 50 98
REMARK SMILES IDX 58 99 51 100 53 101 59 102 52 103 54 104 55 105 56 106
REMARK SMILES IDX 57 107
REMARK H PARENT 16 6 10 14 95 35 20 41 79 60 47 71
REMARK Flexibility Score: inf
ROOT
ATOM      1  C   UNL A   1      37.004  29.317  28.598  1.00  0.00     0.042 C 
ENDROOT
BRANCH   1   2
ATOM      2  C   UNL A   1      36.681  30.246  27.433  1.00  0.00     0.118 C 
BRANCH   2   3
ATOM      3  N   UNL A   1      35.460  31.013  27.629  1.00  0.00    -0.352 N 
ATOM      4  C   UNL A   1      34.148  30.764  27.284  1.00  0.00     0.251 C 
ATOM      5  O   UNL A   1      33.275  31.515  27.720  1.00  0.00    -0.269 OA
ATOM      6  H   UNL A   1      35.596  31.870  28.096  1.00  0.00     0.163 HD
BRANCH   4   7
ATOM      7  C   UNL A   1      33.721  29.604  26.448  1.00  0.00     0.042 A 
ATOM      8  C   UNL A   1      32.709  28.640  24.463  1.00  0.00     0.073 A 
ATOM      9  C   UNL A   1      32.949  29.719  25.301  1.00  0.00     0.042 A 
ATOM     10  C   UNL A   1      33.070  27.343  24.847  1.00  0.00     0.061 A 
ATOM     11  C   UNL A   1      33.772  27.201  26.052  1.00  0.00     0.029 A 
ATOM     12  C   UNL A   1      34.122  28.317  26.826  1.00  0.00     0.016 A 
BRANCH   8  13
ATOM     13  N   UNL A   1      32.061  28.893  23.220  1.00  0.00    -0.277 N 
ATOM     14  H   UNL A   1      32.599  29.215  22.461  1.00  0.00     0.180 HD
BRANCH  13  15
ATOM     15  S   UNL A   1      30.393  28.658  23.005  1.00  0.00     0.261 S 
ATOM     16  O   UNL A   1      29.935  28.154  24.302  1.00  0.00    -0.201 OA
ATOM     17  O   UNL A   1      30.262  27.837  21.834  1.00  0.00    -0.201 OA
BRANCH  15  18
ATOM     18  C   UNL A   1      29.446  30.144  22.696  1.00  0.00     0.088 A 
ATOM     19  C   UNL A   1      27.999  32.254  19.882  1.00  0.00     0.044 C 
ATOM     20  C   UNL A   1      28.339  31.763  21.263  1.00  0.00    -0.050 A 
ATOM     21  C   UNL A   1      28.234  32.650  22.339  1.00  0.00     0.003 A 
ATOM     22  C   UNL A   1      28.868  30.473  21.471  1.00  0.00     0.025 A 
ATOM     23  C   UNL A   1      28.703  32.282  23.600  1.00  0.00     0.002 A 
ATOM     24  C   UNL A   1      29.333  31.050  23.769  1.00  0.00     0.022 A 
ENDBRANCH  15  18
ENDBRANCH  13  15
ENDBRANCH   8  13
BRANCH  10  25
ATOM     25  N   UNL A   1      32.730  26.223  24.115  1.00  0.00    -0.369 N 
ATOM     26  C   UNL A   1      31.583  25.436  24.555  1.00  0.00     0.116 C 
ATOM     27  C   UNL A   1      33.292  25.955  22.797  1.00  0.00     0.126 C 
ATOM     28  C   UNL A   1      31.937  23.955  24.473  1.00  0.00     0.022 C 
ATOM     29  C   UNL A   1      33.720  24.481  22.716  1.00  0.00     0.064 C 
ATOM     30  C   UNL A   1      32.510  23.605  23.098  1.00  0.00     0.013 C 
BRANCH  29  31
ATOM     31  C   UNL A   1      35.002  24.286  23.568  1.00  0.00     0.267 C 
BRANCH  31  32
ATOM     32  N   UNL A   1      35.066  23.217  24.567  1.00  0.00    -0.335 N 
ATOM     33  C   UNL A   1      35.361  23.656  25.929  1.00  0.00     0.262 C 
ATOM     34  C   UNL A   1      35.951  22.100  24.254  1.00  0.00     0.262 C 
ATOM     35  H   UNL A   1      34.103  22.883  24.524  1.00  0.00     0.348 HD
ATOM     36  C   UNL A   1      36.832  23.357  26.130  1.00  0.00     0.067 C 
ATOM     37  C   UNL A   1      37.068  22.112  25.292  1.00  0.00     0.067 C 
ENDBRANCH  31  32
ENDBRANCH  29  31
ENDBRANCH  10  25
ENDBRANCH   4   7
ENDBRANCH   2   3
ENDBRANCH   1   2
BRANCH   1  38
ATOM     38  C   UNL A   1      37.930  29.926  29.615  1.00  0.00     0.118 C 
BRANCH  38  39
ATOM     39  N   UNL A   1      37.442  29.823  30.986  1.00  0.00    -0.352 N 
ATOM     40  C   UNL A   1      37.756  28.843  31.917  1.00  0.00     0.251 C 
ATOM     41  H   UNL A   1      36.822  30.527  31.284  1.00  0.00     0.163 HD
ATOM     42  O   UNL A   1      37.217  28.830  33.016  1.00  0.00    -0.269 OA
BRANCH  40  43
ATOM     43  C   UNL A   1      38.849  27.905  31.568  1.00  0.00     0.039 A 
ATOM     44  C   UNL A   1      40.142  28.327  31.881  1.00  0.00     0.014 A 
ATOM     45  C   UNL A   1      38.625  26.953  30.578  1.00  0.00     0.014 A 
ATOM     46  C   UNL A   1      41.171  28.042  30.993  1.00  0.00     0.010 A 
ATOM     47  C   UNL A   1      39.611  26.777  29.630  1.00  0.00     0.010 A 
ATOM     48  C   UNL A   1      40.857  27.389  29.805  1.00  0.00    -0.014 A 
BRANCH  48  49
ATOM     49  C   UNL A   1      41.796  27.199  28.713  1.00  0.00     0.031 A 
ATOM     50  C   UNL A   1      42.365  25.850  28.546  1.00  0.00     0.074 A 
ATOM     51  C   UNL A   1      42.039  28.191  27.828  1.00  0.00     0.049 A 
ATOM     52  N   UNL A   1      43.417  25.570  27.862  1.00  0.00    -0.248 NA
ATOM     53  C   UNL A   1      41.776  24.695  29.212  1.00  0.00     0.031 C 
ATOM     54  C   UNL A   1      42.705  28.082  26.534  1.00  0.00     0.029 A 
ATOM     55  N   UNL A   1      41.927  29.570  28.029  1.00  0.00    -0.354 N 
ATOM     56  C   UNL A   1      43.476  24.195  27.753  1.00  0.00     0.074 A 
ATOM     57  C   UNL A   1      42.495  23.703  28.686  1.00  0.00     0.031 C 
ATOM     58  C   UNL A   1      43.199  29.284  26.199  1.00  0.00     0.029 A 
ATOM     59  C   UNL A   1      43.027  30.144  27.359  1.00  0.00     0.049 A 
ATOM     60  H   UNL A   1      41.226  30.043  28.534  1.00  0.00     0.167 HD
ATOM     61  C   UNL A   1      44.239  23.654  26.762  1.00  0.00     0.034 A 
ATOM     62  C   UNL A   1      44.032  30.823  27.995  1.00  0.00     0.034 A 
ATOM     63  C   UNL A   1      45.065  24.696  26.129  1.00  0.00     0.049 A 
ATOM     64  C   UNL A   1      45.403  30.201  27.758  1.00  0.00     0.074 A 
ATOM     65  C   UNL A   1      44.901  25.465  24.987  1.00  0.00     0.029 A 
ATOM     66  N   UNL A   1      46.067  25.317  26.874  1.00  0.00    -0.354 N 
ATOM     67  N   UNL A   1      45.591  29.033  27.206  1.00  0.00    -0.248 NA
ATOM     68  C   UNL A   1      46.662  30.826  28.161  1.00  0.00     0.031 C 
ATOM     69  C   UNL A   1      45.718  26.623  25.119  1.00  0.00     0.029 A 
ATOM     70  C   UNL A   1      46.409  26.541  26.316  1.00  0.00     0.049 A 
ATOM     71  H   UNL A   1      46.475  24.938  27.685  1.00  0.00     0.167 HD
ATOM     72  C   UNL A   1      46.912  28.682  27.294  1.00  0.00     0.074 A 
ATOM     73  C   UNL A   1      47.553  29.874  27.828  1.00  0.00     0.031 C 
ATOM     74  C   UNL A   1      47.361  27.425  26.988  1.00  0.00     0.034 A 
BRANCH  61  75
ATOM     75  C   UNL A   1      43.980  22.283  26.141  1.00  0.00     0.023 A 
ATOM     76  C   UNL A   1      42.679  21.749  26.284  1.00  0.00     0.012 A 
ATOM     77  C   UNL A   1      44.923  21.428  25.519  1.00  0.00     0.148 A 
ATOM     78  C   UNL A   1      42.358  20.432  25.931  1.00  0.00     0.002 A 
ATOM     79  C   UNL A   1      44.624  20.092  25.225  1.00  0.00     0.091 A 
ATOM     80  F   UNL A   1      46.099  21.910  25.117  1.00  0.00    -0.205 F 
ATOM     81  C   UNL A   1      43.340  19.589  25.435  1.00  0.00     0.022 A 
BRANCH  79  82
ATOM     82  S   UNL A   1      45.868  18.926  24.632  1.00  0.00     0.127 S 
ATOM     83  O   UNL A   1      47.117  19.614  24.961  1.00  0.00    -0.237 OA
ATOM     84  O   UNL A   1      45.595  17.741  25.442  1.00  0.00    -0.237 OA
ATOM     85  O   UNL A   1      45.633  18.772  23.200  1.00  0.00    -0.744 OA
ENDBRANCH  79  82
ENDBRANCH  61  75
BRANCH  62  86
ATOM     86  C   UNL A   1      43.591  31.470  29.272  1.00  0.00     0.023 A 
ATOM     87  C   UNL A   1      43.683  30.681  30.447  1.00  0.00     0.012 A 
ATOM     88  C   UNL A   1      43.531  32.867  29.403  1.00  0.00     0.148 A 
ATOM     89  C   UNL A   1      43.970  31.270  31.679  1.00  0.00     0.002 A 
ATOM     90  C   UNL A   1      43.771  33.448  30.647  1.00  0.00     0.091 A 
ATOM     91  F   UNL A   1      43.309  33.614  28.315  1.00  0.00    -0.205 F 
ATOM     92  C   UNL A   1      44.067  32.654  31.767  1.00  0.00     0.022 A 
BRANCH  90  93
ATOM     93  S   UNL A   1      43.804  35.235  30.822  1.00  0.00     0.127 S 
ATOM     94  O   UNL A   1      44.884  35.599  29.911  1.00  0.00    -0.237 OA
ATOM     95  O   UNL A   1      42.469  35.631  30.376  1.00  0.00    -0.237 OA
ATOM     96  O   UNL A   1      44.045  35.449  32.242  1.00  0.00    -0.744 OA
ENDBRANCH  90  93
ENDBRANCH  62  86
BRANCH  74  97
ATOM     97  C   UNL A   1      48.756  26.922  27.301  1.00  0.00     0.023 A 
ATOM     98  C   UNL A   1      49.002  25.999  28.336  1.00  0.00     0.012 A 
ATOM     99  C   UNL A   1      49.856  27.257  26.471  1.00  0.00     0.148 A 
ATOM    100  C   UNL A   1      50.283  25.509  28.604  1.00  0.00     0.002 A 
ATOM    101  C   UNL A   1      51.108  26.680  26.672  1.00  0.00     0.091 A 
ATOM    102  F   UNL A   1      49.698  28.157  25.490  1.00  0.00    -0.205 F 
ATOM    103  C   UNL A   1      51.335  25.837  27.762  1.00  0.00     0.022 A 
BRANCH 101 104
ATOM    104  S   UNL A   1      52.426  26.875  25.464  1.00  0.00     0.127 S 
ATOM    105  O   UNL A   1      51.758  26.497  24.221  1.00  0.00    -0.237 OA
ATOM    106  O   UNL A   1      52.747  28.300  25.572  1.00  0.00    -0.237 OA
ATOM    107  O   UNL A   1      53.490  25.991  25.917  1.00  0.00    -0.744 OA
ENDBRANCH 101 104
ENDBRANCH  74  97
ENDBRANCH  48  49
ENDBRANCH  40  43
ENDBRANCH  38  39
ENDBRANCH   1  38
TORSDOF 19
ENDMDL
MODEL 3
REMARK VINA RESULT:     -10.1      2.056      2.562
REMARK SMILES Cc1cccc(S(=O)(=O)Nc2cc(C(=O)NCCCNC(=O)c3ccc(-c4c5nc(c(-c6cccc(S(=O)(=O)[O-])c6F)c6ccc([nH]6)c(-c6cccc(S(=O)(=O)[O-])c6F)c6nc(c(-c7cccc(S(=O)(=O)[O-])c7F)c7ccc4[nH]7)C=C6)C=C5)cc3)ccc2N2CCC[C@H](C[NH+]3CCCC3)C2)c1
REMARK SMILES IDX 18 1 17 2 16 3 14 4 15 5 13 7 11 8 12 9 88 10 87 11 86 12
REMARK SMILES IDX 10 13 7 15 8 16 9 17 6 18 1 19 2 20 3 21 101 22 4 23 5 24
REMARK SMILES IDX 89 25 90 26 100 27 91 28 93 29 92 30 94 31 95 32 96 33 99 34
REMARK SMILES IDX 97 36 98 37 19 38 20 39 21 40 22 42 23 43 24 44 85 45 25 46
REMARK SMILES IDX 84 47 26 48 27 49 28 50 78 51 29 52 83 53 77 54 79 55 30 56
REMARK SMILES IDX 82 57 76 58 75 59 31 61 63 62 43 63 62 64 44 65 47 66 61 67
REMARK SMILES IDX 80 68 45 69 46 70 60 72 81 73 48 74 32 75 33 76 41 77 34 78
REMARK SMILES IDX 36 79 42 80 35 81 37 82 38 83 39 84 40 85 64 86 65 87 73 88
REMARK SMILES IDX 66 89 68 90 74 91 67 92 69 93 70 94 71 95 72 96 49 97 50 98
REMARK SMILES IDX 58 99 51 100 53 101 59 102 52 103 54 104 55 105 56 106
REMARK SMILES IDX 57 107
REMARK H PARENT 16 6 10 14 95 35 20 41 79 60 47 71
REMARK Flexibility Score: inf
ROOT
ATOM      1  C   UNL A   1      41.697  29.427  35.279  1.00  0.00     0.042 C 
ENDROOT
BRANCH   1   2
ATOM      2  C   UNL A   1      41.284  30.804  35.787  1.00  0.00     0.118 C 
BRANCH   2   3
ATOM      3  N   UNL A   1      39.998  30.806  36.468  1.00  0.00    -0.352 N 
ATOM      4  C   UNL A   1      38.708  30.942  36.001  1.00  0.00     0.251 C 
ATOM      5  O   UNL A   1      37.778  30.740  36.784  1.00  0.00    -0.269 OA
ATOM      6  H   UNL A   1      40.062  30.687  37.444  1.00  0.00     0.163 HD
BRANCH   4   7
ATOM      7  C   UNL A   1      38.372  31.274  34.585  1.00  0.00     0.042 A 
ATOM      8  C   UNL A   1      38.651  31.003  32.190  1.00  0.00     0.073 A 
ATOM      9  C   UNL A   1      39.087  30.807  33.492  1.00  0.00     0.042 A 
ATOM     10  C   UNL A   1      37.573  31.855  31.916  1.00  0.00     0.061 A 
ATOM     11  C   UNL A   1      36.898  32.409  33.013  1.00  0.00     0.029 A 
ATOM     12  C   UNL A   1      37.270  32.097  34.329  1.00  0.00     0.016 A 
BRANCH   8  13
ATOM     13  N   UNL A   1      39.351  30.333  31.145  1.00  0.00    -0.277 N 
ATOM     14  H   UNL A   1      39.875  30.867  30.506  1.00  0.00     0.180 HD
BRANCH  13  15
ATOM     15  S   UNL A   1      39.309  28.644  30.967  1.00  0.00     0.261 S 
ATOM     16  O   UNL A   1      37.915  28.292  31.246  1.00  0.00    -0.201 OA
ATOM     17  O   UNL A   1      40.357  28.136  31.808  1.00  0.00    -0.201 OA
BRANCH  15  18
ATOM     18  C   UNL A   1      39.643  28.043  29.315  1.00  0.00     0.088 A 
ATOM     19  C   UNL A   1      40.602  24.902  27.396  1.00  0.00     0.044 C 
ATOM     20  C   UNL A   1      40.209  26.324  27.695  1.00  0.00    -0.050 A 
ATOM     21  C   UNL A   1      40.446  27.307  26.729  1.00  0.00     0.003 A 
ATOM     22  C   UNL A   1      39.720  26.697  28.964  1.00  0.00     0.025 A 
ATOM     23  C   UNL A   1      40.256  28.654  27.036  1.00  0.00     0.002 A 
ATOM     24  C   UNL A   1      39.886  29.020  28.330  1.00  0.00     0.022 A 
ENDBRANCH  15  18
ENDBRANCH  13  15
ENDBRANCH   8  13
BRANCH  10  25
ATOM     25  N   UNL A   1      37.191  32.190  30.634  1.00  0.00    -0.369 N 
ATOM     26  C   UNL A   1      38.064  33.069  29.864  1.00  0.00     0.116 C 
ATOM     27  C   UNL A   1      36.110  31.502  29.939  1.00  0.00     0.126 C 
ATOM     28  C   UNL A   1      37.212  34.110  29.145  1.00  0.00     0.022 C 
ATOM     29  C   UNL A   1      35.198  32.538  29.263  1.00  0.00     0.064 C 
ATOM     30  C   UNL A   1      36.071  33.444  28.372  1.00  0.00     0.013 C 
BRANCH  29  31
ATOM     31  C   UNL A   1      34.362  33.255  30.356  1.00  0.00     0.267 C 
BRANCH  31  32
ATOM     32  N   UNL A   1      34.484  34.702  30.546  1.00  0.00    -0.335 N 
ATOM     33  C   UNL A   1      34.566  35.142  31.936  1.00  0.00     0.262 C 
ATOM     34  C   UNL A   1      33.482  35.523  29.873  1.00  0.00     0.262 C 
ATOM     35  H   UNL A   1      35.383  34.859  30.091  1.00  0.00     0.348 HD
ATOM     36  C   UNL A   1      33.176  35.640  32.274  1.00  0.00     0.067 C 
ATOM     37  C   UNL A   1      32.663  36.206  30.962  1.00  0.00     0.067 C 
ENDBRANCH  31  32
ENDBRANCH  29  31
ENDBRANCH  10  25
ENDBRANCH   4   7
ENDBRANCH   2   3
ENDBRANCH   1   2
BRANCH   1  38
ATOM     38  C   UNL A   1      43.135  29.086  35.564  1.00  0.00     0.118 C 
BRANCH  38  39
ATOM     39  N   UNL A   1      43.332  28.390  36.830  1.00  0.00    -0.352 N 
ATOM     40  C   UNL A   1      43.528  27.029  37.018  1.00  0.00     0.251 C 
ATOM     41  H   UNL A   1      43.324  28.947  37.642  1.00  0.00     0.163 HD
ATOM     42  O   UNL A   1      43.606  26.559  38.145  1.00  0.00    -0.269 OA
BRANCH  40  43
ATOM     43  C   UNL A   1      43.762  26.207  35.807  1.00  0.00     0.039 A 
ATOM     44  C   UNL A   1      45.043  26.277  35.257  1.00  0.00     0.014 A 
ATOM     45  C   UNL A   1      42.670  25.826  35.033  1.00  0.00     0.014 A 
ATOM     46  C   UNL A   1      45.178  26.280  33.875  1.00  0.00     0.010 A 
ATOM     47  C   UNL A   1      42.781  25.959  33.665  1.00  0.00     0.010 A 
ATOM     48  C   UNL A   1      44.024  26.264  33.098  1.00  0.00    -0.014 A 
BRANCH  48  49
ATOM     49  C   UNL A   1      44.014  26.454  31.658  1.00  0.00     0.031 A 
ATOM     50  C   UNL A   1      44.394  25.297  30.827  1.00  0.00     0.074 A 
ATOM     51  C   UNL A   1      43.563  27.606  31.114  1.00  0.00     0.049 A 
ATOM     52  N   UNL A   1      44.742  25.357  29.591  1.00  0.00    -0.248 NA
ATOM     53  C   UNL A   1      44.448  23.953  31.386  1.00  0.00     0.031 C 
ATOM     54  C   UNL A   1      43.211  27.850  29.719  1.00  0.00     0.029 A 
ATOM     55  N   UNL A   1      43.546  28.880  31.690  1.00  0.00    -0.354 N 
ATOM     56  C   UNL A   1      44.781  24.061  29.118  1.00  0.00     0.074 A 
ATOM     57  C   UNL A   1      44.686  23.231  30.291  1.00  0.00     0.031 C 
ATOM     58  C   UNL A   1      43.302  29.167  29.475  1.00  0.00     0.029 A 
ATOM     59  C   UNL A   1      43.899  29.771  30.655  1.00  0.00     0.049 A 
ATOM     60  H   UNL A   1      43.332  29.108  32.624  1.00  0.00     0.167 HD
ATOM     61  C   UNL A   1      44.722  23.859  27.771  1.00  0.00     0.034 A 
ATOM     62  C   UNL A   1      45.039  30.529  30.664  1.00  0.00     0.034 A 
ATOM     63  C   UNL A   1      44.873  25.139  27.058  1.00  0.00     0.049 A 
ATOM     64  C   UNL A   1      45.940  30.251  29.466  1.00  0.00     0.074 A 
ATOM     65  C   UNL A   1      43.958  26.034  26.525  1.00  0.00     0.029 A 
ATOM     66  N   UNL A   1      46.086  25.822  27.133  1.00  0.00    -0.354 N 
ATOM     67  N   UNL A   1      45.771  29.254  28.640  1.00  0.00    -0.248 NA
ATOM     68  C   UNL A   1      47.118  31.048  29.129  1.00  0.00     0.031 C 
ATOM     69  C   UNL A   1      44.601  27.298  26.407  1.00  0.00     0.029 A 
ATOM     70  C   UNL A   1      45.915  27.165  26.827  1.00  0.00     0.049 A 
ATOM     71  H   UNL A   1      46.946  25.407  27.372  1.00  0.00     0.167 HD
ATOM     72  C   UNL A   1      46.835  29.173  27.782  1.00  0.00     0.074 A 
ATOM     73  C   UNL A   1      47.611  30.368  28.078  1.00  0.00     0.031 C 
ATOM     74  C   UNL A   1      47.029  28.104  26.948  1.00  0.00     0.034 A 
BRANCH  61  75
ATOM     75  C   UNL A   1      44.184  22.585  27.124  1.00  0.00     0.023 A 
ATOM     76  C   UNL A   1      44.966  22.007  26.096  1.00  0.00     0.012 A 
ATOM     77  C   UNL A   1      42.935  21.959  27.361  1.00  0.00     0.148 A 
ATOM     78  C   UNL A   1      44.505  20.955  25.295  1.00  0.00     0.002 A 
ATOM     79  C   UNL A   1      42.446  20.951  26.522  1.00  0.00     0.091 A 
ATOM     80  F   UNL A   1      42.233  22.263  28.453  1.00  0.00    -0.205 F 
ATOM     81  C   UNL A   1      43.229  20.449  25.483  1.00  0.00     0.022 A 
BRANCH  79  82
ATOM     82  S   UNL A   1      40.773  20.288  26.673  1.00  0.00     0.127 S 
ATOM     83  O   UNL A   1      40.772  19.223  25.669  1.00  0.00    -0.237 OA
ATOM     84  O   UNL A   1      40.748  19.818  28.056  1.00  0.00    -0.237 OA
ATOM     85  O   UNL A   1      39.869  21.392  26.371  1.00  0.00    -0.744 OA
ENDBRANCH  79  82
ENDBRANCH  61  75
BRANCH  62  86
ATOM     86  C   UNL A   1      45.522  30.852  32.044  1.00  0.00     0.023 A 
ATOM     87  C   UNL A   1      46.629  30.103  32.520  1.00  0.00     0.012 A 
ATOM     88  C   UNL A   1      45.234  32.085  32.652  1.00  0.00     0.148 A 
ATOM     89  C   UNL A   1      47.561  30.681  33.383  1.00  0.00     0.002 A 
ATOM     90  C   UNL A   1      46.148  32.635  33.549  1.00  0.00     0.091 A 
ATOM     91  F   UNL A   1      44.117  32.737  32.304  1.00  0.00    -0.205 F 
ATOM     92  C   UNL A   1      47.347  31.971  33.855  1.00  0.00     0.022 A 
BRANCH  90  93
ATOM     93  S   UNL A   1      45.854  34.259  34.261  1.00  0.00     0.127 S 
ATOM     94  O   UNL A   1      46.901  34.328  35.275  1.00  0.00    -0.237 OA
ATOM     95  O   UNL A   1      46.048  35.153  33.121  1.00  0.00    -0.237 OA
ATOM     96  O   UNL A   1      44.481  34.193  34.741  1.00  0.00    -0.744 OA
ENDBRANCH  90  93
ENDBRANCH  62  86
BRANCH  74  97
ATOM     97  C   UNL A   1      48.304  27.856  26.168  1.00  0.00     0.023 A 
ATOM     98  C   UNL A   1      49.510  27.499  26.804  1.00  0.00     0.012 A 
ATOM     99  C   UNL A   1      48.302  27.838  24.751  1.00  0.00     0.148 A 
ATOM    100  C   UNL A   1      50.679  27.237  26.083  1.00  0.00     0.002 A 
ATOM    101  C   UNL A   1      49.438  27.468  24.036  1.00  0.00     0.091 A 
ATOM    102  F   UNL A   1      47.197  28.203  24.084  1.00  0.00    -0.205 F 
ATOM    103  C   UNL A   1      50.640  27.206  24.697  1.00  0.00     0.022 A 
BRANCH 101 104
ATOM    104  S   UNL A   1      49.365  27.167  22.264  1.00  0.00     0.127 S 
ATOM    105  O   UNL A   1      48.951  28.470  21.750  1.00  0.00    -0.237 OA
ATOM    106  O   UNL A   1      50.748  26.800  21.947  1.00  0.00    -0.237 OA
ATOM    107  O   UNL A   1      48.411  26.078  22.103  1.00  0.00    -0.744 OA
ENDBRANCH 101 104
ENDBRANCH  74  97
ENDBRANCH  48  49
ENDBRANCH  40  43
ENDBRANCH  38  39
ENDBRANCH   1  38
TORSDOF 19
ENDMDL
