MODEL 1
REMARK VINA RESULT:      -9.0      0.000      0.000
REMARK SMILES Cc1cc(C)cc(Oc2nc3ccccn3c(=O)c2/C=C2\SC(=S)N(CCC(=O)NCCCNC(=O)c3ccc(-c4c5nc(c(-c6cccc(S(=O)(=O)[O-])c6F)c6ccc([nH]6)c(-c6cccc(S(=O)(=O)[O-])c6F)c6nc(c(-c7cccc(S(=O)(=O)[O-])c7F)c7ccc4[nH]7)C=C6)C=C5)cc3)C2=O)c1
REMARK SMILES IDX 31 1 30 2 28 3 29 4 27 6 26 7 25 8 20 9 21 10 22 11 100 12
REMARK SMILES IDX 23 13 101 14 24 15 19 16 9 17 10 18 11 19 17 20 12 21 16 22
REMARK SMILES IDX 18 23 13 24 15 25 14 26 8 27 7 28 1 29 2 30 3 31 102 32 4 33
REMARK SMILES IDX 5 34 6 35 32 36 33 37 34 38 35 39 36 41 37 42 38 43 99 44
REMARK SMILES IDX 39 45 98 46 40 47 41 48 42 49 92 50 43 51 97 52 91 53 93 54
REMARK SMILES IDX 44 55 96 56 90 57 89 58 45 60 77 61 57 62 76 63 58 64 61 65
REMARK SMILES IDX 75 66 94 67 59 68 60 69 74 71 95 72 62 73 46 74 47 75 55 76
REMARK SMILES IDX 48 77 50 78 56 79 49 80 51 81 52 82 53 83 54 84 78 85 79 86
REMARK SMILES IDX 87 87 80 88 82 89 88 90 81 91 83 92 84 93 85 94 86 95 63 96
REMARK SMILES IDX 64 97 72 98 65 99 67 100 73 101 66 102 68 103 69 104 70 105
REMARK SMILES IDX 71 106
REMARK H PARENT 30 5 34 40 93 59 61 70
REMARK Flexibility Score: inf
ROOT
ATOM      1  C   UNL A   1      45.885  27.734  25.658  1.00  0.00     0.117 C 
ENDROOT
BRANCH   1   2
ATOM      2  N   UNL A   1      46.520  26.576  25.045  1.00  0.00    -0.356 N 
ATOM      3  C   UNL A   1      46.074  25.302  24.857  1.00  0.00     0.221 C 
ATOM      4  O   UNL A   1      46.861  24.481  24.381  1.00  0.00    -0.275 OA
ATOM      5  H   UNL A   1      47.431  26.743  24.710  1.00  0.00     0.163 HD
BRANCH   3   6
ATOM      6  C   UNL A   1      44.647  24.893  25.169  1.00  0.00     0.122 C 
BRANCH   6   7
ATOM      7  C   UNL A   1      44.529  24.095  26.477  1.00  0.00     0.137 C 
BRANCH   7   8
ATOM      8  N   UNL A   1      43.455  24.621  27.328  1.00  0.00    -0.292 N 
ATOM      9  C   UNL A   1      42.373  27.622  28.908  1.00  0.00     0.041 C 
ATOM     10  C   UNL A   1      42.443  26.325  28.573  1.00  0.00     0.081 C 
ATOM     11  S   UNL A   1      41.161  25.207  28.349  1.00  0.00    -0.054 SA
ATOM     12  C   UNL A   1      43.720  25.690  28.161  1.00  0.00     0.266 C 
ATOM     13  C   UNL A   1      42.159  24.145  27.362  1.00  0.00     0.148 C 
ATOM     14  O   UNL A   1      44.830  26.103  28.467  1.00  0.00    -0.268 OA
ATOM     15  S   UNL A   1      41.531  22.821  26.561  1.00  0.00    -0.052 S 
BRANCH   9  16
ATOM     16  C   UNL A   1      41.190  28.373  29.301  1.00  0.00     0.104 A 
ATOM     17  C   UNL A   1      40.717  28.549  30.555  1.00  0.00     0.234 A 
ATOM     18  N   UNL A   1      39.461  29.040  30.822  1.00  0.00    -0.194 NA
ATOM     19  C   UNL A   1      38.682  29.319  29.827  1.00  0.00     0.143 A 
ATOM     20  C   UNL A   1      40.349  28.878  28.179  1.00  0.00     0.269 A 
ATOM     21  C   UNL A   1      37.257  29.664  30.098  1.00  0.00     0.048 A 
ATOM     22  N   UNL A   1      39.076  29.295  28.505  1.00  0.00    -0.267 N 
ATOM     23  O   UNL A   1      40.792  28.840  27.030  1.00  0.00    -0.268 OA
ATOM     24  C   UNL A   1      36.432  29.932  29.078  1.00  0.00     0.005 A 
ATOM     25  C   UNL A   1      38.205  29.656  27.486  1.00  0.00     0.096 A 
ATOM     26  C   UNL A   1      36.925  29.953  27.728  1.00  0.00     0.019 A 
BRANCH  17  27
ATOM     27  O   UNL A   1      41.331  27.985  31.672  1.00  0.00    -0.438 OA
BRANCH  27  28
ATOM     28  C   UNL A   1      42.227  28.680  32.454  1.00  0.00     0.130 A 
ATOM     29  C   UNL A   1      45.935  29.333  32.897  1.00  0.00     0.044 C 
ATOM     30  C   UNL A   1      44.457  29.316  33.145  1.00  0.00    -0.047 A 
ATOM     31  C   UNL A   1      43.960  29.696  34.399  1.00  0.00     0.007 A 
ATOM     32  C   UNL A   1      43.575  28.844  32.163  1.00  0.00     0.050 A 
ATOM     33  C   UNL A   1      42.593  29.613  34.681  1.00  0.00    -0.047 A 
ATOM     34  C   UNL A   1      42.090  29.999  36.041  1.00  0.00     0.044 C 
ATOM     35  C   UNL A   1      41.733  29.105  33.698  1.00  0.00     0.050 A 
ENDBRANCH  27  28
ENDBRANCH  17  27
ENDBRANCH   9  16
ENDBRANCH   7   8
ENDBRANCH   6   7
ENDBRANCH   3   6
ENDBRANCH   1   2
BRANCH   1  36
ATOM     36  C   UNL A   1      46.789  28.961  25.619  1.00  0.00     0.042 C 
BRANCH  36  37
ATOM     37  C   UNL A   1      46.440  30.160  26.491  1.00  0.00     0.118 C 
BRANCH  37  38
ATOM     38  N   UNL A   1      45.573  31.125  25.829  1.00  0.00    -0.352 N 
ATOM     39  C   UNL A   1      44.621  32.030  26.243  1.00  0.00     0.251 C 
ATOM     40  H   UNL A   1      45.695  31.131  24.852  1.00  0.00     0.163 HD
ATOM     41  O   UNL A   1      44.025  32.630  25.342  1.00  0.00    -0.269 OA
BRANCH  39  42
ATOM     42  C   UNL A   1      44.245  32.332  27.661  1.00  0.00     0.039 A 
ATOM     43  C   UNL A   1      43.764  31.262  28.442  1.00  0.00     0.014 A 
ATOM     44  C   UNL A   1      44.204  33.609  28.223  1.00  0.00     0.014 A 
ATOM     45  C   UNL A   1      43.267  31.454  29.743  1.00  0.00     0.010 A 
ATOM     46  C   UNL A   1      43.725  33.805  29.534  1.00  0.00     0.010 A 
ATOM     47  C   UNL A   1      43.225  32.737  30.297  1.00  0.00    -0.014 A 
BRANCH  47  48
ATOM     48  C   UNL A   1      42.533  32.994  31.595  1.00  0.00     0.031 A 
ATOM     49  C   UNL A   1      43.352  33.106  32.852  1.00  0.00     0.074 A 
ATOM     50  C   UNL A   1      41.190  33.074  31.680  1.00  0.00     0.049 A 
ATOM     51  N   UNL A   1      42.952  33.260  34.088  1.00  0.00    -0.248 NA
ATOM     52  C   UNL A   1      44.811  32.998  32.701  1.00  0.00     0.031 C 
ATOM     53  C   UNL A   1      40.283  32.908  30.556  1.00  0.00     0.029 A 
ATOM     54  N   UNL A   1      40.352  33.283  32.753  1.00  0.00    -0.354 N 
ATOM     55  C   UNL A   1      44.099  33.191  34.869  1.00  0.00     0.074 A 
ATOM     56  C   UNL A   1      45.215  33.016  33.964  1.00  0.00     0.031 C 
ATOM     57  C   UNL A   1      39.016  33.041  30.983  1.00  0.00     0.029 A 
ATOM     58  C   UNL A   1      39.013  33.258  32.425  1.00  0.00     0.049 A 
ATOM     59  H   UNL A   1      40.679  33.437  33.668  1.00  0.00     0.167 HD
ATOM     60  C   UNL A   1      44.211  33.249  36.216  1.00  0.00     0.034 A 
ATOM     61  C   UNL A   1      37.909  33.364  33.197  1.00  0.00     0.034 A 
ATOM     62  C   UNL A   1      43.106  33.444  37.117  1.00  0.00     0.049 A 
ATOM     63  C   UNL A   1      38.076  33.493  34.691  1.00  0.00     0.074 A 
ATOM     64  C   UNL A   1      43.139  33.582  38.494  1.00  0.00     0.029 A 
ATOM     65  N   UNL A   1      41.775  33.501  36.740  1.00  0.00    -0.354 N 
ATOM     66  N   UNL A   1      39.179  33.568  35.395  1.00  0.00    -0.248 NA
ATOM     67  C   UNL A   1      36.847  33.553  35.500  1.00  0.00     0.031 C 
ATOM     68  C   UNL A   1      41.822  33.683  38.954  1.00  0.00     0.029 A 
ATOM     69  C   UNL A   1      40.974  33.655  37.860  1.00  0.00     0.049 A 
ATOM     70  H   UNL A   1      41.446  33.442  35.814  1.00  0.00     0.167 HD
ATOM     71  C   UNL A   1      38.778  33.698  36.720  1.00  0.00     0.074 A 
ATOM     72  C   UNL A   1      37.331  33.738  36.719  1.00  0.00     0.031 C 
ATOM     73  C   UNL A   1      39.538  33.749  37.840  1.00  0.00     0.034 A 
BRANCH  60  74
ATOM     74  C   UNL A   1      45.581  33.079  36.815  1.00  0.00     0.023 A 
ATOM     75  C   UNL A   1      46.444  34.185  36.935  1.00  0.00     0.012 A 
ATOM     76  C   UNL A   1      45.978  31.827  37.327  1.00  0.00     0.148 A 
ATOM     77  C   UNL A   1      47.695  34.042  37.535  1.00  0.00     0.002 A 
ATOM     78  C   UNL A   1      47.206  31.704  37.964  1.00  0.00     0.091 A 
ATOM     79  F   UNL A   1      45.147  30.785  37.183  1.00  0.00    -0.205 F 
ATOM     80  C   UNL A   1      48.070  32.806  38.059  1.00  0.00     0.022 A 
BRANCH  78  81
ATOM     81  S   UNL A   1      47.745  30.179  38.742  1.00  0.00     0.127 S 
ATOM     82  O   UNL A   1      49.025  30.582  39.325  1.00  0.00    -0.237 OA
ATOM     83  O   UNL A   1      46.680  29.941  39.715  1.00  0.00    -0.237 OA
ATOM     84  O   UNL A   1      47.835  29.189  37.678  1.00  0.00    -0.744 OA
ENDBRANCH  78  81
ENDBRANCH  60  74
BRANCH  61  85
ATOM     85  C   UNL A   1      36.537  33.367  32.596  1.00  0.00     0.023 A 
ATOM     86  C   UNL A   1      35.988  32.161  32.113  1.00  0.00     0.012 A 
ATOM     87  C   UNL A   1      35.785  34.551  32.466  1.00  0.00     0.148 A 
ATOM     88  C   UNL A   1      34.746  32.141  31.475  1.00  0.00     0.002 A 
ATOM     89  C   UNL A   1      34.517  34.512  31.894  1.00  0.00     0.091 A 
ATOM     90  F   UNL A   1      36.327  35.700  32.895  1.00  0.00    -0.205 F 
ATOM     91  C   UNL A   1      34.006  33.314  31.377  1.00  0.00     0.022 A 
BRANCH  89  92
ATOM     92  S   UNL A   1      33.437  35.948  31.861  1.00  0.00     0.127 S 
ATOM     93  O   UNL A   1      34.174  36.895  32.693  1.00  0.00    -0.237 OA
ATOM     94  O   UNL A   1      33.409  36.273  30.434  1.00  0.00    -0.237 OA
ATOM     95  O   UNL A   1      32.164  35.485  32.394  1.00  0.00    -0.744 OA
ENDBRANCH  89  92
ENDBRANCH  61  85
BRANCH  73  96
ATOM     96  C   UNL A   1      38.830  33.900  39.162  1.00  0.00     0.023 A 
ATOM     97  C   UNL A   1      38.843  35.138  39.836  1.00  0.00     0.012 A 
ATOM     98  C   UNL A   1      38.088  32.830  39.698  1.00  0.00     0.148 A 
ATOM     99  C   UNL A   1      38.157  35.298  41.039  1.00  0.00     0.002 A 
ATOM    100  C   UNL A   1      37.363  33.011  40.869  1.00  0.00     0.091 A 
ATOM    101  F   UNL A   1      38.103  31.655  39.052  1.00  0.00    -0.205 F 
ATOM    102  C   UNL A   1      37.407  34.240  41.548  1.00  0.00     0.022 A 
BRANCH 100 103
ATOM    103  S   UNL A   1      36.291  31.739  41.544  1.00  0.00     0.127 S 
ATOM    104  O   UNL A   1      35.563  32.477  42.574  1.00  0.00    -0.237 OA
ATOM    105  O   UNL A   1      35.488  31.361  40.381  1.00  0.00    -0.237 OA
ATOM    106  O   UNL A   1      37.173  30.689  42.037  1.00  0.00    -0.744 OA
ENDBRANCH 100 103
ENDBRANCH  73  96
ENDBRANCH  47  48
ENDBRANCH  39  42
ENDBRANCH  37  38
ENDBRANCH  36  37
ENDBRANCH   1  36
TORSDOF 18
ENDMDL
MODEL 2
REMARK VINA RESULT:      -8.7      6.520     12.448
REMARK SMILES Cc1cc(C)cc(Oc2nc3ccccn3c(=O)c2/C=C2\SC(=S)N(CCC(=O)NCCCNC(=O)c3ccc(-c4c5nc(c(-c6cccc(S(=O)(=O)[O-])c6F)c6ccc([nH]6)c(-c6cccc(S(=O)(=O)[O-])c6F)c6nc(c(-c7cccc(S(=O)(=O)[O-])c7F)c7ccc4[nH]7)C=C6)C=C5)cc3)C2=O)c1
REMARK SMILES IDX 31 1 30 2 28 3 29 4 27 6 26 7 25 8 20 9 21 10 22 11 100 12
REMARK SMILES IDX 23 13 101 14 24 15 19 16 9 17 10 18 11 19 17 20 12 21 16 22
REMARK SMILES IDX 18 23 13 24 15 25 14 26 8 27 7 28 1 29 2 30 3 31 102 32 4 33
REMARK SMILES IDX 5 34 6 35 32 36 33 37 34 38 35 39 36 41 37 42 38 43 99 44
REMARK SMILES IDX 39 45 98 46 40 47 41 48 42 49 92 50 43 51 97 52 91 53 93 54
REMARK SMILES IDX 44 55 96 56 90 57 89 58 45 60 77 61 57 62 76 63 58 64 61 65
REMARK SMILES IDX 75 66 94 67 59 68 60 69 74 71 95 72 62 73 46 74 47 75 55 76
REMARK SMILES IDX 48 77 50 78 56 79 49 80 51 81 52 82 53 83 54 84 78 85 79 86
REMARK SMILES IDX 87 87 80 88 82 89 88 90 81 91 83 92 84 93 85 94 86 95 63 96
REMARK SMILES IDX 64 97 72 98 65 99 67 100 73 101 66 102 68 103 69 104 70 105
REMARK SMILES IDX 71 106
REMARK H PARENT 30 5 34 40 93 59 61 70
REMARK Flexibility Score: inf
ROOT
ATOM      1  C   UNL A   1      49.737  28.477  42.096  1.00  0.00     0.117 C 
ENDROOT
BRANCH   1   2
ATOM      2  N   UNL A   1      49.593  29.361  40.948  1.00  0.00    -0.356 N 
ATOM      3  C   UNL A   1      49.455  29.092  39.619  1.00  0.00     0.221 C 
ATOM      4  O   UNL A   1      49.439  30.046  38.837  1.00  0.00    -0.275 OA
ATOM      5  H   UNL A   1      49.597  30.320  41.172  1.00  0.00     0.163 HD
BRANCH   3   6
ATOM      6  C   UNL A   1      49.276  27.680  39.097  1.00  0.00     0.122 C 
BRANCH   6   7
ATOM      7  C   UNL A   1      50.602  26.910  38.994  1.00  0.00     0.137 C 
BRANCH   7   8
ATOM      8  N   UNL A   1      50.373  25.473  38.807  1.00  0.00    -0.292 N 
ATOM      9  C   UNL A   1      47.767  23.048  38.808  1.00  0.00     0.041 C 
ATOM     10  C   UNL A   1      48.999  23.579  38.788  1.00  0.00     0.081 C 
ATOM     11  S   UNL A   1      50.374  23.057  37.907  1.00  0.00    -0.054 SA
ATOM     12  C   UNL A   1      49.304  24.875  39.444  1.00  0.00     0.266 C 
ATOM     13  C   UNL A   1      51.138  24.639  38.015  1.00  0.00     0.148 C 
ATOM     14  O   UNL A   1      48.656  25.356  40.364  1.00  0.00    -0.268 OA
ATOM     15  S   UNL A   1      52.540  25.012  37.189  1.00  0.00    -0.052 S 
BRANCH   9  16
ATOM     16  C   UNL A   1      47.327  21.808  38.187  1.00  0.00     0.104 A 
ATOM     17  C   UNL A   1      46.882  21.644  36.920  1.00  0.00     0.234 A 
ATOM     18  N   UNL A   1      46.238  20.509  36.491  1.00  0.00    -0.194 NA
ATOM     19  C   UNL A   1      46.020  19.561  37.346  1.00  0.00     0.143 A 
ATOM     20  C   UNL A   1      47.233  20.633  39.098  1.00  0.00     0.269 A 
ATOM     21  C   UNL A   1      45.155  18.414  36.948  1.00  0.00     0.048 A 
ATOM     22  N   UNL A   1      46.518  19.549  38.632  1.00  0.00    -0.267 N 
ATOM     23  O   UNL A   1      47.728  20.702  40.223  1.00  0.00    -0.268 OA
ATOM     24  C   UNL A   1      44.899  17.438  37.829  1.00  0.00     0.005 A 
ATOM     25  C   UNL A   1      46.290  18.477  39.484  1.00  0.00     0.096 A 
ATOM     26  C   UNL A   1      45.505  17.455  39.133  1.00  0.00     0.019 A 
BRANCH  17  27
ATOM     27  O   UNL A   1      46.771  22.706  36.024  1.00  0.00    -0.438 OA
BRANCH  27  28
ATOM     28  C   UNL A   1      45.619  22.954  35.310  1.00  0.00     0.130 A 
ATOM     29  C   UNL A   1      44.360  23.630  31.798  1.00  0.00     0.044 C 
ATOM     30  C   UNL A   1      44.397  23.480  33.289  1.00  0.00    -0.047 A 
ATOM     31  C   UNL A   1      43.328  23.956  34.059  1.00  0.00     0.007 A 
ATOM     32  C   UNL A   1      45.525  22.943  33.924  1.00  0.00     0.050 A 
ATOM     33  C   UNL A   1      43.372  23.901  35.456  1.00  0.00    -0.047 A 
ATOM     34  C   UNL A   1      42.227  24.445  36.258  1.00  0.00     0.044 C 
ATOM     35  C   UNL A   1      44.524  23.394  36.072  1.00  0.00     0.050 A 
ENDBRANCH  27  28
ENDBRANCH  17  27
ENDBRANCH   9  16
ENDBRANCH   7   8
ENDBRANCH   6   7
ENDBRANCH   3   6
ENDBRANCH   1   2
BRANCH   1  36
ATOM     36  C   UNL A   1      48.383  28.043  42.648  1.00  0.00     0.042 C 
BRANCH  36  37
ATOM     37  C   UNL A   1      47.287  29.087  42.815  1.00  0.00     0.118 C 
BRANCH  37  38
ATOM     38  N   UNL A   1      45.960  28.512  42.980  1.00  0.00    -0.352 N 
ATOM     39  C   UNL A   1      45.050  27.897  42.148  1.00  0.00     0.251 C 
ATOM     40  H   UNL A   1      45.634  28.579  43.906  1.00  0.00     0.163 HD
ATOM     41  O   UNL A   1      43.963  27.611  42.662  1.00  0.00    -0.269 OA
BRANCH  39  42
ATOM     42  C   UNL A   1      45.256  27.565  40.702  1.00  0.00     0.039 A 
ATOM     43  C   UNL A   1      45.589  28.628  39.838  1.00  0.00     0.014 A 
ATOM     44  C   UNL A   1      45.011  26.319  40.125  1.00  0.00     0.014 A 
ATOM     45  C   UNL A   1      45.683  28.454  38.446  1.00  0.00     0.010 A 
ATOM     46  C   UNL A   1      45.123  26.134  38.732  1.00  0.00     0.010 A 
ATOM     47  C   UNL A   1      45.432  27.203  37.876  1.00  0.00    -0.014 A 
BRANCH  47  48
ATOM     48  C   UNL A   1      45.341  27.036  36.394  1.00  0.00     0.031 A 
ATOM     49  C   UNL A   1      46.531  26.502  35.643  1.00  0.00     0.074 A 
ATOM     50  C   UNL A   1      44.243  27.401  35.704  1.00  0.00     0.049 A 
ATOM     51  N   UNL A   1      46.691  26.340  34.356  1.00  0.00    -0.248 NA
ATOM     52  C   UNL A   1      47.707  26.132  36.447  1.00  0.00     0.031 C 
ATOM     53  C   UNL A   1      43.058  27.999  36.299  1.00  0.00     0.029 A 
ATOM     54  N   UNL A   1      43.949  27.355  34.359  1.00  0.00    -0.354 N 
ATOM     55  C   UNL A   1      48.005  25.924  34.185  1.00  0.00     0.074 A 
ATOM     56  C   UNL A   1      48.590  25.825  35.506  1.00  0.00     0.031 C 
ATOM     57  C   UNL A   1      42.154  28.247  35.337  1.00  0.00     0.029 A 
ATOM     58  C   UNL A   1      42.709  27.868  34.043  1.00  0.00     0.049 A 
ATOM     59  H   UNL A   1      44.567  26.989  33.686  1.00  0.00     0.167 HD
ATOM     60  C   UNL A   1      48.670  25.667  33.036  1.00  0.00     0.034 A 
ATOM     61  C   UNL A   1      42.101  28.044  32.849  1.00  0.00     0.034 A 
ATOM     62  C   UNL A   1      48.086  25.745  31.723  1.00  0.00     0.049 A 
ATOM     63  C   UNL A   1      42.850  27.684  31.591  1.00  0.00     0.074 A 
ATOM     64  C   UNL A   1      48.670  25.436  30.507  1.00  0.00     0.029 A 
ATOM     65  N   UNL A   1      46.802  26.184  31.450  1.00  0.00    -0.354 N 
ATOM     66  N   UNL A   1      44.044  27.158  31.462  1.00  0.00    -0.248 NA
ATOM     67  C   UNL A   1      42.172  27.941  30.310  1.00  0.00     0.031 C 
ATOM     68  C   UNL A   1      47.751  25.727  29.494  1.00  0.00     0.029 A 
ATOM     69  C   UNL A   1      46.580  26.171  30.083  1.00  0.00     0.049 A 
ATOM     70  H   UNL A   1      46.144  26.464  32.127  1.00  0.00     0.167 HD
ATOM     71  C   UNL A   1      44.251  27.008  30.096  1.00  0.00     0.074 A 
ATOM     72  C   UNL A   1      43.042  27.456  29.437  1.00  0.00     0.031 C 
ATOM     73  C   UNL A   1      45.353  26.567  29.443  1.00  0.00     0.034 A 
BRANCH  60  74
ATOM     74  C   UNL A   1      50.124  25.292  33.134  1.00  0.00     0.023 A 
ATOM     75  C   UNL A   1      51.107  26.291  33.266  1.00  0.00     0.012 A 
ATOM     76  C   UNL A   1      50.502  23.935  33.169  1.00  0.00     0.148 A 
ATOM     77  C   UNL A   1      52.451  25.946  33.408  1.00  0.00     0.002 A 
ATOM     78  C   UNL A   1      51.836  23.598  33.358  1.00  0.00     0.091 A 
ATOM     79  F   UNL A   1      49.550  23.002  33.022  1.00  0.00    -0.205 F 
ATOM     80  C   UNL A   1      52.813  24.601  33.465  1.00  0.00     0.022 A 
BRANCH  78  81
ATOM     81  S   UNL A   1      52.393  21.900  33.526  1.00  0.00     0.127 S 
ATOM     82  O   UNL A   1      51.517  21.406  34.588  1.00  0.00    -0.237 OA
ATOM     83  O   UNL A   1      52.109  21.355  32.198  1.00  0.00    -0.237 OA
ATOM     84  O   UNL A   1      53.806  21.967  33.871  1.00  0.00    -0.744 OA
ENDBRANCH  78  81
ENDBRANCH  60  74
BRANCH  61  85
ATOM     85  C   UNL A   1      40.704  28.575  32.760  1.00  0.00     0.023 A 
ATOM     86  C   UNL A   1      39.624  27.673  32.650  1.00  0.00     0.012 A 
ATOM     87  C   UNL A   1      40.432  29.957  32.748  1.00  0.00     0.148 A 
ATOM     88  C   UNL A   1      38.316  28.134  32.484  1.00  0.00     0.002 A 
ATOM     89  C   UNL A   1      39.119  30.409  32.654  1.00  0.00     0.091 A 
ATOM     90  F   UNL A   1      41.465  30.809  32.817  1.00  0.00    -0.205 F 
ATOM     91  C   UNL A   1      38.063  29.501  32.499  1.00  0.00     0.022 A 
BRANCH  89  92
ATOM     92  S   UNL A   1      38.691  32.147  32.813  1.00  0.00     0.127 S 
ATOM     93  O   UNL A   1      38.269  32.476  31.455  1.00  0.00    -0.237 OA
ATOM     94  O   UNL A   1      37.612  32.104  33.801  1.00  0.00    -0.237 OA
ATOM     95  O   UNL A   1      39.905  32.802  33.281  1.00  0.00    -0.744 OA
ENDBRANCH  89  92
ENDBRANCH  61  85
BRANCH  73  96
ATOM     96  C   UNL A   1      45.298  26.501  27.938  1.00  0.00     0.023 A 
ATOM     97  C   UNL A   1      45.636  27.631  27.166  1.00  0.00     0.012 A 
ATOM     98  C   UNL A   1      44.982  25.291  27.291  1.00  0.00     0.148 A 
ATOM     99  C   UNL A   1      45.627  27.565  25.773  1.00  0.00     0.002 A 
ATOM    100  C   UNL A   1      45.027  25.218  25.904  1.00  0.00     0.091 A 
ATOM    101  F   UNL A   1      44.645  24.233  28.042  1.00  0.00    -0.205 F 
ATOM    102  C   UNL A   1      45.335  26.358  25.143  1.00  0.00     0.022 A 
BRANCH 100 103
ATOM    103  S   UNL A   1      44.764  23.682  25.012  1.00  0.00     0.127 S 
ATOM    104  O   UNL A   1      45.640  23.855  23.855  1.00  0.00    -0.237 OA
ATOM    105  O   UNL A   1      45.220  22.681  25.978  1.00  0.00    -0.237 OA
ATOM    106  O   UNL A   1      43.340  23.629  24.712  1.00  0.00    -0.744 OA
ENDBRANCH 100 103
ENDBRANCH  73  96
ENDBRANCH  47  48
ENDBRANCH  39  42
ENDBRANCH  37  38
ENDBRANCH  36  37
ENDBRANCH   1  36
TORSDOF 18
ENDMDL
MODEL 3
REMARK VINA RESULT:      -8.5      5.139     11.592
REMARK SMILES Cc1cc(C)cc(Oc2nc3ccccn3c(=O)c2/C=C2\SC(=S)N(CCC(=O)NCCCNC(=O)c3ccc(-c4c5nc(c(-c6cccc(S(=O)(=O)[O-])c6F)c6ccc([nH]6)c(-c6cccc(S(=O)(=O)[O-])c6F)c6nc(c(-c7cccc(S(=O)(=O)[O-])c7F)c7ccc4[nH]7)C=C6)C=C5)cc3)C2=O)c1
REMARK SMILES IDX 31 1 30 2 28 3 29 4 27 6 26 7 25 8 20 9 21 10 22 11 100 12
REMARK SMILES IDX 23 13 101 14 24 15 19 16 9 17 10 18 11 19 17 20 12 21 16 22
REMARK SMILES IDX 18 23 13 24 15 25 14 26 8 27 7 28 1 29 2 30 3 31 102 32 4 33
REMARK SMILES IDX 5 34 6 35 32 36 33 37 34 38 35 39 36 41 37 42 38 43 99 44
REMARK SMILES IDX 39 45 98 46 40 47 41 48 42 49 92 50 43 51 97 52 91 53 93 54
REMARK SMILES IDX 44 55 96 56 90 57 89 58 45 60 77 61 57 62 76 63 58 64 61 65
REMARK SMILES IDX 75 66 94 67 59 68 60 69 74 71 95 72 62 73 46 74 47 75 55 76
REMARK SMILES IDX 48 77 50 78 56 79 49 80 51 81 52 82 53 83 54 84 78 85 79 86
REMARK SMILES IDX 87 87 80 88 82 89 88 90 81 91 83 92 84 93 85 94 86 95 63 96
REMARK SMILES IDX 64 97 72 98 65 99 67 100 73 101 66 102 68 103 69 104 70 105
REMARK SMILES IDX 71 106
REMARK H PARENT 30 5 34 40 93 59 61 70
REMARK Flexibility Score: inf
ROOT
ATOM      1  C   UNL A   1      37.025  30.699  29.895  1.00  0.00     0.117 C 
ENDROOT
BRANCH   1   2
ATOM      2  N   UNL A   1      35.916  31.263  29.139  1.00  0.00    -0.356 N 
ATOM      3  C   UNL A   1      34.872  32.049  29.527  1.00  0.00     0.221 C 
ATOM      4  O   UNL A   1      34.011  32.320  28.687  1.00  0.00    -0.275 OA
ATOM      5  H   UNL A   1      35.921  31.037  28.181  1.00  0.00     0.163 HD
BRANCH   3   6
ATOM      6  C   UNL A   1      34.774  32.626  30.926  1.00  0.00     0.122 C 
BRANCH   6   7
ATOM      7  C   UNL A   1      35.302  34.067  31.015  1.00  0.00     0.137 C 
BRANCH   7   8
ATOM      8  N   UNL A   1      36.566  34.128  31.758  1.00  0.00    -0.292 N 
ATOM      9  C   UNL A   1      37.995  33.239  34.895  1.00  0.00     0.041 C 
ATOM     10  C   UNL A   1      37.859  33.789  33.679  1.00  0.00     0.081 C 
ATOM     11  S   UNL A   1      39.044  33.982  32.454  1.00  0.00    -0.054 SA
ATOM     12  C   UNL A   1      36.532  34.176  33.138  1.00  0.00     0.266 C 
ATOM     13  C   UNL A   1      37.825  34.124  31.192  1.00  0.00     0.148 C 
ATOM     14  O   UNL A   1      35.551  34.430  33.824  1.00  0.00    -0.268 OA
ATOM     15  S   UNL A   1      38.221  34.167  29.571  1.00  0.00    -0.052 S 
BRANCH   9  16
ATOM     16  C   UNL A   1      39.223  32.790  35.532  1.00  0.00     0.104 A 
ATOM     17  C   UNL A   1      40.267  33.558  35.922  1.00  0.00     0.234 A 
ATOM     18  N   UNL A   1      41.492  33.042  36.268  1.00  0.00    -0.194 NA
ATOM     19  C   UNL A   1      41.666  31.761  36.192  1.00  0.00     0.143 A 
ATOM     20  C   UNL A   1      39.391  31.313  35.634  1.00  0.00     0.269 A 
ATOM     21  C   UNL A   1      43.038  31.206  36.374  1.00  0.00     0.048 A 
ATOM     22  N   UNL A   1      40.660  30.857  35.922  1.00  0.00    -0.267 N 
ATOM     23  O   UNL A   1      38.430  30.581  35.398  1.00  0.00    -0.268 OA
ATOM     24  C   UNL A   1      43.240  29.886  36.273  1.00  0.00     0.005 A 
ATOM     25  C   UNL A   1      40.904  29.491  35.904  1.00  0.00     0.096 A 
ATOM     26  C   UNL A   1      42.135  28.994  36.055  1.00  0.00     0.019 A 
BRANCH  17  27
ATOM     27  O   UNL A   1      40.292  34.939  35.728  1.00  0.00    -0.438 OA
BRANCH  27  28
ATOM     28  C   UNL A   1      41.391  35.594  35.218  1.00  0.00     0.130 A 
ATOM     29  C   UNL A   1      43.958  35.416  32.433  1.00  0.00     0.044 C 
ATOM     30  C   UNL A   1      43.245  35.839  33.683  1.00  0.00    -0.047 A 
ATOM     31  C   UNL A   1      43.887  36.689  34.592  1.00  0.00     0.007 A 
ATOM     32  C   UNL A   1      41.977  35.325  33.987  1.00  0.00     0.050 A 
ATOM     33  C   UNL A   1      43.276  37.034  35.802  1.00  0.00    -0.047 A 
ATOM     34  C   UNL A   1      43.997  37.923  36.772  1.00  0.00     0.044 C 
ATOM     35  C   UNL A   1      42.024  36.482  36.104  1.00  0.00     0.050 A 
ENDBRANCH  27  28
ENDBRANCH  17  27
ENDBRANCH   9  16
ENDBRANCH   7   8
ENDBRANCH   6   7
ENDBRANCH   3   6
ENDBRANCH   1   2
BRANCH   1  36
ATOM     36  C   UNL A   1      36.561  29.598  30.841  1.00  0.00     0.042 C 
BRANCH  36  37
ATOM     37  C   UNL A   1      36.883  29.718  32.325  1.00  0.00     0.118 C 
BRANCH  37  38
ATOM     38  N   UNL A   1      37.886  28.764  32.778  1.00  0.00    -0.352 N 
ATOM     39  C   UNL A   1      39.251  28.639  32.638  1.00  0.00     0.251 C 
ATOM     40  H   UNL A   1      37.497  28.034  33.312  1.00  0.00     0.163 HD
ATOM     41  O   UNL A   1      39.746  27.614  33.117  1.00  0.00    -0.269 OA
BRANCH  39  42
ATOM     42  C   UNL A   1      40.164  29.612  31.957  1.00  0.00     0.039 A 
ATOM     43  C   UNL A   1      40.248  29.540  30.551  1.00  0.00     0.014 A 
ATOM     44  C   UNL A   1      41.034  30.485  32.610  1.00  0.00     0.014 A 
ATOM     45  C   UNL A   1      41.163  30.318  29.820  1.00  0.00     0.010 A 
ATOM     46  C   UNL A   1      41.939  31.282  31.881  1.00  0.00     0.010 A 
ATOM     47  C   UNL A   1      42.034  31.187  30.483  1.00  0.00    -0.014 A 
BRANCH  47  48
ATOM     48  C   UNL A   1      43.136  31.881  29.751  1.00  0.00     0.031 A 
ATOM     49  C   UNL A   1      44.398  31.123  29.438  1.00  0.00     0.074 A 
ATOM     50  C   UNL A   1      43.053  33.182  29.411  1.00  0.00     0.049 A 
ATOM     51  N   UNL A   1      45.498  31.547  28.873  1.00  0.00    -0.248 NA
ATOM     52  C   UNL A   1      44.436  29.709  29.844  1.00  0.00     0.031 C 
ATOM     53  C   UNL A   1      41.925  34.044  29.723  1.00  0.00     0.029 A 
ATOM     54  N   UNL A   1      43.936  34.016  28.761  1.00  0.00    -0.354 N 
ATOM     55  C   UNL A   1      46.386  30.481  28.923  1.00  0.00     0.074 A 
ATOM     56  C   UNL A   1      45.685  29.377  29.543  1.00  0.00     0.031 C 
ATOM     57  C   UNL A   1      42.164  35.279  29.249  1.00  0.00     0.029 A 
ATOM     58  C   UNL A   1      43.487  35.314  28.638  1.00  0.00     0.049 A 
ATOM     59  H   UNL A   1      44.807  33.714  28.417  1.00  0.00     0.167 HD
ATOM     60  C   UNL A   1      47.673  30.430  28.509  1.00  0.00     0.034 A 
ATOM     61  C   UNL A   1      44.081  36.413  28.122  1.00  0.00     0.034 A 
ATOM     62  C   UNL A   1      48.367  31.519  27.873  1.00  0.00     0.049 A 
ATOM     63  C   UNL A   1      45.495  36.302  27.609  1.00  0.00     0.074 A 
ATOM     64  C   UNL A   1      49.653  31.531  27.360  1.00  0.00     0.029 A 
ATOM     65  N   UNL A   1      47.849  32.790  27.687  1.00  0.00    -0.354 N 
ATOM     66  N   UNL A   1      46.267  35.245  27.538  1.00  0.00    -0.248 NA
ATOM     67  C   UNL A   1      46.124  37.534  27.105  1.00  0.00     0.031 C 
ATOM     68  C   UNL A   1      49.927  32.823  26.900  1.00  0.00     0.029 A 
ATOM     69  C   UNL A   1      48.796  33.600  27.082  1.00  0.00     0.049 A 
ATOM     70  H   UNL A   1      46.943  33.074  27.945  1.00  0.00     0.167 HD
ATOM     71  C   UNL A   1      47.459  35.680  26.970  1.00  0.00     0.074 A 
ATOM     72  C   UNL A   1      47.294  37.087  26.673  1.00  0.00     0.031 C 
ATOM     73  C   UNL A   1      48.600  34.985  26.742  1.00  0.00     0.034 A 
BRANCH  60  74
ATOM     74  C   UNL A   1      48.437  29.156  28.745  1.00  0.00     0.023 A 
ATOM     75  C   UNL A   1      49.127  28.956  29.956  1.00  0.00     0.012 A 
ATOM     76  C   UNL A   1      48.405  28.125  27.785  1.00  0.00     0.148 A 
ATOM     77  C   UNL A   1      49.795  27.756  30.199  1.00  0.00     0.002 A 
ATOM     78  C   UNL A   1      49.033  26.915  28.053  1.00  0.00     0.091 A 
ATOM     79  F   UNL A   1      47.758  28.346  26.631  1.00  0.00    -0.205 F 
ATOM     80  C   UNL A   1      49.738  26.733  29.254  1.00  0.00     0.022 A 
BRANCH  78  81
ATOM     81  S   UNL A   1      48.950  25.511  26.938  1.00  0.00     0.127 S 
ATOM     82  O   UNL A   1      47.505  25.345  26.780  1.00  0.00    -0.237 OA
ATOM     83  O   UNL A   1      49.637  26.024  25.753  1.00  0.00    -0.237 OA
ATOM     84  O   UNL A   1      49.628  24.415  27.614  1.00  0.00    -0.744 OA
ENDBRANCH  78  81
ENDBRANCH  60  74
BRANCH  61  85
ATOM     85  C   UNL A   1      43.359  37.722  28.043  1.00  0.00     0.023 A 
ATOM     86  C   UNL A   1      42.656  38.057  26.866  1.00  0.00     0.012 A 
ATOM     87  C   UNL A   1      43.386  38.652  29.100  1.00  0.00     0.148 A 
ATOM     88  C   UNL A   1      42.039  39.302  26.727  1.00  0.00     0.002 A 
ATOM     89  C   UNL A   1      42.708  39.862  28.983  1.00  0.00     0.091 A 
ATOM     90  F   UNL A   1      44.084  38.342  30.202  1.00  0.00    -0.205 F 
ATOM     91  C   UNL A   1      42.054  40.198  27.789  1.00  0.00     0.022 A 
BRANCH  89  92
ATOM     92  S   UNL A   1      42.554  41.010  30.356  1.00  0.00     0.127 S 
ATOM     93  O   UNL A   1      41.135  41.349  30.304  1.00  0.00    -0.237 OA
ATOM     94  O   UNL A   1      42.948  40.177  31.493  1.00  0.00    -0.237 OA
ATOM     95  O   UNL A   1      43.481  42.093  30.059  1.00  0.00    -0.744 OA
ENDBRANCH  89  92
ENDBRANCH  61  85
BRANCH  73  96
ATOM     96  C   UNL A   1      49.750  35.716  26.100  1.00  0.00     0.023 A 
ATOM     97  C   UNL A   1      49.964  35.620  24.710  1.00  0.00     0.012 A 
ATOM     98  C   UNL A   1      50.576  36.559  26.869  1.00  0.00     0.148 A 
ATOM     99  C   UNL A   1      51.001  36.326  24.102  1.00  0.00     0.002 A 
ATOM    100  C   UNL A   1      51.573  37.301  26.250  1.00  0.00     0.091 A 
ATOM    101  F   UNL A   1      50.368  36.622  28.192  1.00  0.00    -0.205 F 
ATOM    102  C   UNL A   1      51.797  37.175  24.869  1.00  0.00     0.022 A 
BRANCH 100 103
ATOM    103  S   UNL A   1      52.580  38.492  27.139  1.00  0.00     0.127 S 
ATOM    104  O   UNL A   1      53.396  39.055  26.065  1.00  0.00    -0.237 OA
ATOM    105  O   UNL A   1      51.572  39.405  27.681  1.00  0.00    -0.237 OA
ATOM    106  O   UNL A   1      53.311  37.732  28.144  1.00  0.00    -0.744 OA
ENDBRANCH 100 103
ENDBRANCH  73  96
ENDBRANCH  47  48
ENDBRANCH  39  42
ENDBRANCH  37  38
ENDBRANCH  36  37
ENDBRANCH   1  36
TORSDOF 18
ENDMDL
