MODEL 1
REMARK VINA RESULT:     -10.9      0.000      0.000
REMARK SMILES CC(C)C[N@@H+](Cc1ccc(C(=O)NCCCNC(=O)c2ccc(-c3c4nc(c(-c5cccc(S(=O)(=O)[O-])c5F)c5ccc([nH]5)c(-c5cccc(S(=O)(=O)[O-])c5F)c5nc(c(-c6cccc(S(=O)(=O)[O-])c6F)c6ccc3[nH]6)C=C5)C=C4)cc2)cn1)C1CC1
REMARK SMILES IDX 14 1 13 2 11 3 12 4 10 6 7 7 8 8 84 9 9 10 83 11 6 12 5 13
REMARK SMILES IDX 4 15 2 16 1 17 3 18 85 19 86 20 87 21 15 22 16 23 17 24
REMARK SMILES IDX 18 25 19 27 20 28 21 29 82 30 22 31 81 32 23 33 24 34 25 35
REMARK SMILES IDX 75 36 26 37 80 38 74 39 76 40 27 41 79 42 73 43 72 44 28 46
REMARK SMILES IDX 60 47 40 48 59 49 41 50 44 51 58 52 77 53 42 54 43 55 57 57
REMARK SMILES IDX 78 58 45 59 29 60 30 61 38 62 31 63 33 64 39 65 32 66 34 67
REMARK SMILES IDX 35 68 36 69 37 70 61 71 62 72 70 73 63 74 65 75 71 76 64 77
REMARK SMILES IDX 66 78 67 79 68 80 69 81 46 82 47 83 55 84 48 85 50 86 56 87
REMARK SMILES IDX 49 88 51 89 52 90 53 91 54 92
REMARK H PARENT 13 5 5 14 17 26 76 45 44 56
REMARK Flexibility Score: inf
ROOT
ATOM      1  C   UNL A   1      31.543  30.706  26.591  1.00  0.00     0.118 C 
ENDROOT
BRANCH   1   2
ATOM      2  N   UNL A   1      31.464  30.311  25.198  1.00  0.00    -0.352 N 
ATOM      3  C   UNL A   1      31.805  29.163  24.535  1.00  0.00     0.252 C 
ATOM      4  O   UNL A   1      31.629  29.149  23.317  1.00  0.00    -0.269 OA
ATOM      5  H   UNL A   1      31.090  31.008  24.611  1.00  0.00     0.163 HD
BRANCH   3   6
ATOM      6  C   UNL A   1      32.272  27.927  25.209  1.00  0.00     0.058 A 
ATOM      7  C   UNL A   1      33.320  25.474  25.951  1.00  0.00     0.095 A 
ATOM      8  C   UNL A   1      32.055  25.836  26.401  1.00  0.00     0.030 A 
ATOM      9  N   UNL A   1      34.121  26.368  25.322  1.00  0.00    -0.255 NA
ATOM     10  C   UNL A   1      31.536  27.082  26.035  1.00  0.00     0.017 A 
ATOM     11  C   UNL A   1      33.580  27.550  24.947  1.00  0.00     0.125 A 
BRANCH   7  12
ATOM     12  C   UNL A   1      33.811  24.034  26.053  1.00  0.00     0.319 C 
BRANCH  12  13
ATOM     13  N   UNL A   1      34.095  23.337  24.765  1.00  0.00    -0.327 N 
ATOM     14  H   UNL A   1      34.180  24.094  24.087  1.00  0.00     0.348 HD
BRANCH  13  15
ATOM     15  C   UNL A   1      32.955  22.489  24.355  1.00  0.00     0.265 C 
BRANCH  15  16
ATOM     16  C   UNL A   1      32.143  22.891  23.101  1.00  0.00     0.038 C 
ATOM     17  C   UNL A   1      31.198  24.073  23.344  1.00  0.00     0.013 C 
ATOM     18  C   UNL A   1      33.134  23.294  21.997  1.00  0.00     0.013 C 
ENDBRANCH  15  16
ENDBRANCH  13  15
BRANCH  13  19
ATOM     19  C   UNL A   1      35.424  22.727  24.587  1.00  0.00     0.184 C 
ATOM     20  C   UNL A   1      36.338  22.919  23.410  1.00  0.00     0.071 C 
ATOM     21  C   UNL A   1      36.683  23.543  24.728  1.00  0.00     0.071 C 
ENDBRANCH  13  19
ENDBRANCH  12  13
ENDBRANCH   7  12
ENDBRANCH   3   6
ENDBRANCH   1   2
BRANCH   1  22
ATOM     22  C   UNL A   1      31.460  32.224  26.729  1.00  0.00     0.042 C 
BRANCH  22  23
ATOM     23  C   UNL A   1      32.792  32.862  27.119  1.00  0.00     0.118 C 
BRANCH  23  24
ATOM     24  N   UNL A   1      32.611  34.200  27.665  1.00  0.00    -0.352 N 
ATOM     25  C   UNL A   1      33.177  34.778  28.774  1.00  0.00     0.251 C 
ATOM     26  H   UNL A   1      31.989  34.775  27.165  1.00  0.00     0.163 HD
ATOM     27  O   UNL A   1      32.712  35.828  29.207  1.00  0.00    -0.269 OA
BRANCH  25  28
ATOM     28  C   UNL A   1      34.336  34.147  29.443  1.00  0.00     0.039 A 
ATOM     29  C   UNL A   1      35.625  34.471  29.009  1.00  0.00     0.014 A 
ATOM     30  C   UNL A   1      34.156  33.206  30.461  1.00  0.00     0.014 A 
ATOM     31  C   UNL A   1      36.733  33.886  29.627  1.00  0.00     0.010 A 
ATOM     32  C   UNL A   1      35.262  32.681  31.124  1.00  0.00     0.010 A 
ATOM     33  C   UNL A   1      36.561  33.004  30.706  1.00  0.00    -0.014 A 
BRANCH  33  34
ATOM     34  C   UNL A   1      37.725  32.411  31.412  1.00  0.00     0.031 A 
ATOM     35  C   UNL A   1      38.484  31.266  30.796  1.00  0.00     0.074 A 
ATOM     36  C   UNL A   1      38.039  32.843  32.649  1.00  0.00     0.049 A 
ATOM     37  N   UNL A   1      39.478  30.575  31.290  1.00  0.00    -0.248 NA
ATOM     38  C   UNL A   1      38.049  30.819  29.461  1.00  0.00     0.031 C 
ATOM     39  C   UNL A   1      37.328  33.891  33.384  1.00  0.00     0.029 A 
ATOM     40  N   UNL A   1      39.019  32.435  33.519  1.00  0.00    -0.354 N 
ATOM     41  C   UNL A   1      39.763  29.593  30.350  1.00  0.00     0.074 A 
ATOM     42  C   UNL A   1      38.817  29.756  29.269  1.00  0.00     0.031 C 
ATOM     43  C   UNL A   1      37.894  34.042  34.593  1.00  0.00     0.029 A 
ATOM     44  C   UNL A   1      38.988  33.085  34.730  1.00  0.00     0.049 A 
ATOM     45  H   UNL A   1      39.683  31.742  33.297  1.00  0.00     0.167 HD
ATOM     46  C   UNL A   1      40.743  28.658  30.368  1.00  0.00     0.034 A 
ATOM     47  C   UNL A   1      39.749  32.925  35.831  1.00  0.00     0.034 A 
ATOM     48  C   UNL A   1      41.714  28.532  31.423  1.00  0.00     0.049 A 
ATOM     49  C   UNL A   1      40.863  31.915  35.805  1.00  0.00     0.074 A 
ATOM     50  C   UNL A   1      42.801  27.680  31.495  1.00  0.00     0.029 A 
ATOM     51  N   UNL A   1      41.711  29.277  32.592  1.00  0.00    -0.354 N 
ATOM     52  N   UNL A   1      41.219  31.104  34.839  1.00  0.00    -0.248 NA
ATOM     53  C   UNL A   1      41.706  31.824  37.005  1.00  0.00     0.031 C 
ATOM     54  C   UNL A   1      43.446  27.898  32.717  1.00  0.00     0.029 A 
ATOM     55  C   UNL A   1      42.774  28.902  33.396  1.00  0.00     0.049 A 
ATOM     56  H   UNL A   1      41.050  29.971  32.819  1.00  0.00     0.167 HD
ATOM     57  C   UNL A   1      42.345  30.432  35.299  1.00  0.00     0.074 A 
ATOM     58  C   UNL A   1      42.626  30.948  36.622  1.00  0.00     0.031 C 
ATOM     59  C   UNL A   1      43.073  29.464  34.687  1.00  0.00     0.034 A 
BRANCH  46  60
ATOM     60  C   UNL A   1      40.853  27.733  29.184  1.00  0.00     0.023 A 
ATOM     61  C   UNL A   1      40.049  26.576  29.132  1.00  0.00     0.012 A 
ATOM     62  C   UNL A   1      41.701  28.033  28.100  1.00  0.00     0.148 A 
ATOM     63  C   UNL A   1      40.113  25.712  28.038  1.00  0.00     0.002 A 
ATOM     64  C   UNL A   1      41.728  27.190  26.994  1.00  0.00     0.091 A 
ATOM     65  F   UNL A   1      42.474  29.126  28.175  1.00  0.00    -0.205 F 
ATOM     66  C   UNL A   1      40.944  26.025  26.966  1.00  0.00     0.022 A 
BRANCH  64  67
ATOM     67  S   UNL A   1      42.706  27.545  25.528  1.00  0.00     0.127 S 
ATOM     68  O   UNL A   1      44.058  27.595  26.081  1.00  0.00    -0.237 OA
ATOM     69  O   UNL A   1      42.434  26.379  24.686  1.00  0.00    -0.237 OA
ATOM     70  O   UNL A   1      42.198  28.804  25.002  1.00  0.00    -0.744 OA
ENDBRANCH  64  67
ENDBRANCH  46  60
BRANCH  47  71
ATOM     71  C   UNL A   1      39.526  33.794  37.020  1.00  0.00     0.023 A 
ATOM     72  C   UNL A   1      39.922  35.145  36.970  1.00  0.00     0.012 A 
ATOM     73  C   UNL A   1      38.893  33.308  38.180  1.00  0.00     0.148 A 
ATOM     74  C   UNL A   1      39.721  35.987  38.065  1.00  0.00     0.002 A 
ATOM     75  C   UNL A   1      38.644  34.165  39.245  1.00  0.00     0.091 A 
ATOM     76  F   UNL A   1      38.532  32.016  38.212  1.00  0.00    -0.205 F 
ATOM     77  C   UNL A   1      39.073  35.500  39.196  1.00  0.00     0.022 A 
BRANCH  75  78
ATOM     78  S   UNL A   1      37.693  33.661  40.683  1.00  0.00     0.127 S 
ATOM     79  O   UNL A   1      38.599  32.714  41.325  1.00  0.00    -0.237 OA
ATOM     80  O   UNL A   1      37.522  34.929  41.393  1.00  0.00    -0.237 OA
ATOM     81  O   UNL A   1      36.455  33.101  40.157  1.00  0.00    -0.744 OA
ENDBRANCH  75  78
ENDBRANCH  47  71
BRANCH  59  82
ATOM     82  C   UNL A   1      44.266  28.918  35.425  1.00  0.00     0.023 A 
ATOM     83  C   UNL A   1      45.531  29.514  35.248  1.00  0.00     0.012 A 
ATOM     84  C   UNL A   1      44.120  27.866  36.351  1.00  0.00     0.148 A 
ATOM     85  C   UNL A   1      46.638  29.050  35.959  1.00  0.00     0.002 A 
ATOM     86  C   UNL A   1      45.216  27.441  37.090  1.00  0.00     0.091 A 
ATOM     87  F   UNL A   1      42.912  27.299  36.489  1.00  0.00    -0.205 F 
ATOM     88  C   UNL A   1      46.478  28.024  36.888  1.00  0.00     0.022 A 
BRANCH  86  89
ATOM     89  S   UNL A   1      45.084  26.192  38.375  1.00  0.00     0.127 S 
ATOM     90  O   UNL A   1      46.357  26.348  39.075  1.00  0.00    -0.237 OA
ATOM     91  O   UNL A   1      43.912  26.643  39.127  1.00  0.00    -0.237 OA
ATOM     92  O   UNL A   1      44.902  24.923  37.681  1.00  0.00    -0.744 OA
ENDBRANCH  86  89
ENDBRANCH  59  82
ENDBRANCH  33  34
ENDBRANCH  25  28
ENDBRANCH  23  24
ENDBRANCH  22  23
ENDBRANCH   1  22
TORSDOF 18
ENDMDL
MODEL 2
REMARK VINA RESULT:     -10.8      1.758      2.421
REMARK SMILES CC(C)C[N@@H+](Cc1ccc(C(=O)NCCCNC(=O)c2ccc(-c3c4nc(c(-c5cccc(S(=O)(=O)[O-])c5F)c5ccc([nH]5)c(-c5cccc(S(=O)(=O)[O-])c5F)c5nc(c(-c6cccc(S(=O)(=O)[O-])c6F)c6ccc3[nH]6)C=C5)C=C4)cc2)cn1)C1CC1
REMARK SMILES IDX 14 1 13 2 11 3 12 4 10 6 7 7 8 8 84 9 9 10 83 11 6 12 5 13
REMARK SMILES IDX 4 15 2 16 1 17 3 18 85 19 86 20 87 21 15 22 16 23 17 24
REMARK SMILES IDX 18 25 19 27 20 28 21 29 82 30 22 31 81 32 23 33 24 34 25 35
REMARK SMILES IDX 75 36 26 37 80 38 74 39 76 40 27 41 79 42 73 43 72 44 28 46
REMARK SMILES IDX 60 47 40 48 59 49 41 50 44 51 58 52 77 53 42 54 43 55 57 57
REMARK SMILES IDX 78 58 45 59 29 60 30 61 38 62 31 63 33 64 39 65 32 66 34 67
REMARK SMILES IDX 35 68 36 69 37 70 61 71 62 72 70 73 63 74 65 75 71 76 64 77
REMARK SMILES IDX 66 78 67 79 68 80 69 81 46 82 47 83 55 84 48 85 50 86 56 87
REMARK SMILES IDX 49 88 51 89 52 90 53 91 54 92
REMARK H PARENT 13 5 5 14 17 26 76 45 44 56
REMARK Flexibility Score: inf
ROOT
ATOM      1  C   UNL A   1      31.401  30.305  25.392  1.00  0.00     0.118 C 
ENDROOT
BRANCH   1   2
ATOM      2  N   UNL A   1      30.532  30.207  24.236  1.00  0.00    -0.352 N 
ATOM      3  C   UNL A   1      30.199  29.169  23.407  1.00  0.00     0.252 C 
ATOM      4  O   UNL A   1      29.430  29.421  22.479  1.00  0.00    -0.269 OA
ATOM      5  H   UNL A   1      30.093  31.056  24.000  1.00  0.00     0.163 HD
BRANCH   3   6
ATOM      6  C   UNL A   1      30.628  27.767  23.625  1.00  0.00     0.058 A 
ATOM      7  C   UNL A   1      31.189  25.057  23.529  1.00  0.00     0.095 A 
ATOM      8  C   UNL A   1      30.662  25.600  24.696  1.00  0.00     0.030 A 
ATOM      9  N   UNL A   1      31.609  25.851  22.514  1.00  0.00    -0.255 NA
ATOM     10  C   UNL A   1      30.394  26.972  24.744  1.00  0.00     0.017 A 
ATOM     11  C   UNL A   1      31.302  27.167  22.572  1.00  0.00     0.125 A 
BRANCH   7  12
ATOM     12  C   UNL A   1      31.216  23.549  23.303  1.00  0.00     0.319 C 
BRANCH  12  13
ATOM     13  N   UNL A   1      32.145  22.765  24.168  1.00  0.00    -0.327 N 
ATOM     14  H   UNL A   1      31.728  22.825  25.097  1.00  0.00     0.348 HD
BRANCH  13  15
ATOM     15  C   UNL A   1      33.479  23.397  24.229  1.00  0.00     0.265 C 
BRANCH  15  16
ATOM     16  C   UNL A   1      33.987  23.933  25.589  1.00  0.00     0.038 C 
ATOM     17  C   UNL A   1      35.197  23.164  26.130  1.00  0.00     0.013 C 
ATOM     18  C   UNL A   1      34.404  25.402  25.400  1.00  0.00     0.013 C 
ENDBRANCH  15  16
ENDBRANCH  13  15
BRANCH  13  19
ATOM     19  C   UNL A   1      32.153  21.299  24.023  1.00  0.00     0.184 C 
ATOM     20  C   UNL A   1      33.344  20.397  24.186  1.00  0.00     0.071 C 
ATOM     21  C   UNL A   1      32.263  20.395  25.224  1.00  0.00     0.071 C 
ENDBRANCH  13  19
ENDBRANCH  12  13
ENDBRANCH   7  12
ENDBRANCH   3   6
ENDBRANCH   1   2
BRANCH   1  22
ATOM     22  C   UNL A   1      31.187  31.629  26.120  1.00  0.00     0.042 C 
BRANCH  22  23
ATOM     23  C   UNL A   1      32.408  32.075  26.921  1.00  0.00     0.118 C 
BRANCH  23  24
ATOM     24  N   UNL A   1      32.373  33.502  27.211  1.00  0.00    -0.352 N 
ATOM     25  C   UNL A   1      33.078  34.225  28.141  1.00  0.00     0.251 C 
ATOM     26  H   UNL A   1      31.750  34.025  26.659  1.00  0.00     0.163 HD
ATOM     27  O   UNL A   1      32.729  35.374  28.398  1.00  0.00    -0.269 OA
BRANCH  25  28
ATOM     28  C   UNL A   1      34.245  33.631  28.829  1.00  0.00     0.039 A 
ATOM     29  C   UNL A   1      34.027  32.682  29.832  1.00  0.00     0.014 A 
ATOM     30  C   UNL A   1      35.547  34.039  28.524  1.00  0.00     0.014 A 
ATOM     31  C   UNL A   1      35.115  32.109  30.494  1.00  0.00     0.010 A 
ATOM     32  C   UNL A   1      36.632  33.414  29.133  1.00  0.00     0.010 A 
ATOM     33  C   UNL A   1      36.428  32.453  30.134  1.00  0.00    -0.014 A 
BRANCH  33  34
ATOM     34  C   UNL A   1      37.600  31.819  30.787  1.00  0.00     0.031 A 
ATOM     35  C   UNL A   1      38.390  30.759  30.065  1.00  0.00     0.074 A 
ATOM     36  C   UNL A   1      37.897  32.131  32.064  1.00  0.00     0.049 A 
ATOM     37  N   UNL A   1      39.397  30.045  30.496  1.00  0.00    -0.248 NA
ATOM     38  C   UNL A   1      37.975  30.440  28.689  1.00  0.00     0.031 C 
ATOM     39  C   UNL A   1      37.157  33.082  32.895  1.00  0.00     0.029 A 
ATOM     40  N   UNL A   1      38.881  31.659  32.897  1.00  0.00    -0.354 N 
ATOM     41  C   UNL A   1      39.711  29.169  29.464  1.00  0.00     0.074 A 
ATOM     42  C   UNL A   1      38.768  29.419  28.396  1.00  0.00     0.031 C 
ATOM     43  C   UNL A   1      37.711  33.124  34.117  1.00  0.00     0.029 A 
ATOM     44  C   UNL A   1      38.826  32.183  34.167  1.00  0.00     0.049 A 
ATOM     45  H   UNL A   1      39.561  31.007  32.612  1.00  0.00     0.167 HD
ATOM     46  C   UNL A   1      40.712  28.260  29.397  1.00  0.00     0.034 A 
ATOM     47  C   UNL A   1      39.584  31.929  35.253  1.00  0.00     0.034 A 
ATOM     48  C   UNL A   1      41.679  28.050  30.442  1.00  0.00     0.049 A 
ATOM     49  C   UNL A   1      40.721  30.953  35.135  1.00  0.00     0.074 A 
ATOM     50  C   UNL A   1      42.785  27.219  30.438  1.00  0.00     0.029 A 
ATOM     51  N   UNL A   1      41.651  28.673  31.680  1.00  0.00    -0.354 N 
ATOM     52  N   UNL A   1      41.102  30.251  34.095  1.00  0.00    -0.248 NA
ATOM     53  C   UNL A   1      41.558  30.760  36.327  1.00  0.00     0.031 C 
ATOM     54  C   UNL A   1      43.417  27.328  31.681  1.00  0.00     0.029 A 
ATOM     55  C   UNL A   1      42.717  28.242  32.451  1.00  0.00     0.049 A 
ATOM     56  H   UNL A   1      40.972  29.325  31.969  1.00  0.00     0.167 HD
ATOM     57  C   UNL A   1      42.240  29.562  34.495  1.00  0.00     0.074 A 
ATOM     58  C   UNL A   1      42.501  29.948  35.866  1.00  0.00     0.031 C 
ATOM     59  C   UNL A   1      42.995  28.678  33.795  1.00  0.00     0.034 A 
BRANCH  46  60
ATOM     60  C   UNL A   1      40.851  27.462  28.126  1.00  0.00     0.023 A 
ATOM     61  C   UNL A   1      41.497  28.038  27.013  1.00  0.00     0.012 A 
ATOM     62  C   UNL A   1      40.401  26.129  28.048  1.00  0.00     0.148 A 
ATOM     63  C   UNL A   1      41.660  27.316  25.831  1.00  0.00     0.002 A 
ATOM     64  C   UNL A   1      40.605  25.401  26.881  1.00  0.00     0.091 A 
ATOM     65  F   UNL A   1      39.771  25.603  29.108  1.00  0.00    -0.205 F 
ATOM     66  C   UNL A   1      41.224  25.996  25.769  1.00  0.00     0.022 A 
BRANCH  64  67
ATOM     67  S   UNL A   1      40.151  23.669  26.726  1.00  0.00     0.127 S 
ATOM     68  O   UNL A   1      41.130  23.194  25.751  1.00  0.00    -0.237 OA
ATOM     69  O   UNL A   1      40.356  23.174  28.088  1.00  0.00    -0.237 OA
ATOM     70  O   UNL A   1      38.765  23.657  26.280  1.00  0.00    -0.744 OA
ENDBRANCH  64  67
ENDBRANCH  46  60
BRANCH  47  71
ATOM     71  C   UNL A   1      39.332  32.669  36.521  1.00  0.00     0.023 A 
ATOM     72  C   UNL A   1      39.978  33.901  36.740  1.00  0.00     0.012 A 
ATOM     73  C   UNL A   1      38.435  32.184  37.491  1.00  0.00     0.148 A 
ATOM     74  C   UNL A   1      39.758  34.622  37.915  1.00  0.00     0.002 A 
ATOM     75  C   UNL A   1      38.177  32.933  38.634  1.00  0.00     0.091 A 
ATOM     76  F   UNL A   1      37.837  31.003  37.270  1.00  0.00    -0.205 F 
ATOM     77  C   UNL A   1      38.851  34.143  38.855  1.00  0.00     0.022 A 
BRANCH  75  78
ATOM     78  S   UNL A   1      36.922  32.462  39.830  1.00  0.00     0.127 S 
ATOM     79  O   UNL A   1      35.715  32.454  39.009  1.00  0.00    -0.237 OA
ATOM     80  O   UNL A   1      37.389  31.142  40.255  1.00  0.00    -0.237 OA
ATOM     81  O   UNL A   1      36.975  33.479  40.873  1.00  0.00    -0.744 OA
ENDBRANCH  75  78
ENDBRANCH  47  71
BRANCH  59  82
ATOM     82  C   UNL A   1      44.196  28.087  34.485  1.00  0.00     0.023 A 
ATOM     83  C   UNL A   1      45.431  28.763  34.440  1.00  0.00     0.012 A 
ATOM     84  C   UNL A   1      44.081  26.903  35.240  1.00  0.00     0.148 A 
ATOM     85  C   UNL A   1      46.542  28.253  35.112  1.00  0.00     0.002 A 
ATOM     86  C   UNL A   1      45.179  26.427  35.946  1.00  0.00     0.091 A 
ATOM     87  F   UNL A   1      42.902  26.264  35.253  1.00  0.00    -0.205 F 
ATOM     88  C   UNL A   1      46.413  27.094  35.874  1.00  0.00     0.022 A 
BRANCH  86  89
ATOM     89  S   UNL A   1      45.080  24.996  37.028  1.00  0.00     0.127 S 
ATOM     90  O   UNL A   1      44.150  25.462  38.054  1.00  0.00    -0.237 OA
ATOM     91  O   UNL A   1      44.540  23.969  36.135  1.00  0.00    -0.237 OA
ATOM     92  O   UNL A   1      46.440  24.744  37.483  1.00  0.00    -0.744 OA
ENDBRANCH  86  89
ENDBRANCH  59  82
ENDBRANCH  33  34
ENDBRANCH  25  28
ENDBRANCH  23  24
ENDBRANCH  22  23
ENDBRANCH   1  22
TORSDOF 18
ENDMDL
MODEL 3
REMARK VINA RESULT:     -10.7      6.589     11.770
REMARK SMILES CC(C)C[N@@H+](Cc1ccc(C(=O)NCCCNC(=O)c2ccc(-c3c4nc(c(-c5cccc(S(=O)(=O)[O-])c5F)c5ccc([nH]5)c(-c5cccc(S(=O)(=O)[O-])c5F)c5nc(c(-c6cccc(S(=O)(=O)[O-])c6F)c6ccc3[nH]6)C=C5)C=C4)cc2)cn1)C1CC1
REMARK SMILES IDX 14 1 13 2 11 3 12 4 10 6 7 7 8 8 84 9 9 10 83 11 6 12 5 13
REMARK SMILES IDX 4 15 2 16 1 17 3 18 85 19 86 20 87 21 15 22 16 23 17 24
REMARK SMILES IDX 18 25 19 27 20 28 21 29 82 30 22 31 81 32 23 33 24 34 25 35
REMARK SMILES IDX 75 36 26 37 80 38 74 39 76 40 27 41 79 42 73 43 72 44 28 46
REMARK SMILES IDX 60 47 40 48 59 49 41 50 44 51 58 52 77 53 42 54 43 55 57 57
REMARK SMILES IDX 78 58 45 59 29 60 30 61 38 62 31 63 33 64 39 65 32 66 34 67
REMARK SMILES IDX 35 68 36 69 37 70 61 71 62 72 70 73 63 74 65 75 71 76 64 77
REMARK SMILES IDX 66 78 67 79 68 80 69 81 46 82 47 83 55 84 48 85 50 86 56 87
REMARK SMILES IDX 49 88 51 89 52 90 53 91 54 92
REMARK H PARENT 13 5 5 14 17 26 76 45 44 56
REMARK Flexibility Score: inf
ROOT
ATOM      1  C   UNL A   1      37.403  20.785  24.661  1.00  0.00     0.118 C 
ENDROOT
BRANCH   1   2
ATOM      2  N   UNL A   1      37.857  21.989  25.330  1.00  0.00    -0.352 N 
ATOM      3  C   UNL A   1      37.357  23.261  25.397  1.00  0.00     0.252 C 
ATOM      4  O   UNL A   1      38.005  24.082  26.048  1.00  0.00    -0.269 OA
ATOM      5  H   UNL A   1      38.692  21.866  25.838  1.00  0.00     0.163 HD
BRANCH   3   6
ATOM      6  C   UNL A   1      36.052  23.668  24.823  1.00  0.00     0.058 A 
ATOM      7  C   UNL A   1      33.929  24.627  23.327  1.00  0.00     0.095 A 
ATOM      8  C   UNL A   1      33.977  24.900  24.689  1.00  0.00     0.030 A 
ATOM      9  N   UNL A   1      34.790  23.749  22.758  1.00  0.00    -0.255 NA
ATOM     10  C   UNL A   1      35.044  24.401  25.444  1.00  0.00     0.017 A 
ATOM     11  C   UNL A   1      35.833  23.314  23.501  1.00  0.00     0.125 A 
BRANCH   7  12
ATOM     12  C   UNL A   1      32.979  25.384  22.405  1.00  0.00     0.319 C 
BRANCH  12  13
ATOM     13  N   UNL A   1      32.174  26.473  23.029  1.00  0.00    -0.327 N 
ATOM     14  H   UNL A   1      32.527  26.525  23.985  1.00  0.00     0.348 HD
BRANCH  13  15
ATOM     15  C   UNL A   1      30.742  26.108  23.095  1.00  0.00     0.265 C 
BRANCH  15  16
ATOM     16  C   UNL A   1      29.865  26.736  24.204  1.00  0.00     0.038 C 
ATOM     17  C   UNL A   1      28.367  26.708  23.882  1.00  0.00     0.013 C 
ATOM     18  C   UNL A   1      30.087  25.938  25.500  1.00  0.00     0.013 C 
ENDBRANCH  15  16
ENDBRANCH  13  15
BRANCH  13  19
ATOM     19  C   UNL A   1      32.447  27.860  22.615  1.00  0.00     0.184 C 
ATOM     20  C   UNL A   1      32.636  29.038  23.528  1.00  0.00     0.071 C 
ATOM     21  C   UNL A   1      33.813  28.473  22.792  1.00  0.00     0.071 C 
ENDBRANCH  13  19
ENDBRANCH  12  13
ENDBRANCH   7  12
ENDBRANCH   3   6
ENDBRANCH   1   2
BRANCH   1  22
ATOM     22  C   UNL A   1      38.264  19.588  25.055  1.00  0.00     0.042 C 
BRANCH  22  23
ATOM     23  C   UNL A   1      39.257  19.908  26.170  1.00  0.00     0.118 C 
BRANCH  23  24
ATOM     24  N   UNL A   1      40.424  19.039  26.122  1.00  0.00    -0.352 N 
ATOM     25  C   UNL A   1      41.758  19.362  26.086  1.00  0.00     0.251 C 
ATOM     26  H   UNL A   1      40.227  18.075  26.112  1.00  0.00     0.163 HD
ATOM     27  O   UNL A   1      42.578  18.494  25.799  1.00  0.00    -0.269 OA
BRANCH  25  28
ATOM     28  C   UNL A   1      42.207  20.739  26.387  1.00  0.00     0.039 A 
ATOM     29  C   UNL A   1      42.410  21.629  25.329  1.00  0.00     0.014 A 
ATOM     30  C   UNL A   1      42.473  21.139  27.699  1.00  0.00     0.014 A 
ATOM     31  C   UNL A   1      42.834  22.934  25.591  1.00  0.00     0.010 A 
ATOM     32  C   UNL A   1      42.825  22.460  27.965  1.00  0.00     0.010 A 
ATOM     33  C   UNL A   1      43.023  23.367  26.914  1.00  0.00    -0.014 A 
BRANCH  33  34
ATOM     34  C   UNL A   1      43.423  24.764  27.220  1.00  0.00     0.031 A 
ATOM     35  C   UNL A   1      42.426  25.726  27.809  1.00  0.00     0.074 A 
ATOM     36  C   UNL A   1      44.655  25.190  26.881  1.00  0.00     0.049 A 
ATOM     37  N   UNL A   1      42.568  26.998  28.078  1.00  0.00    -0.248 NA
ATOM     38  C   UNL A   1      41.084  25.197  28.108  1.00  0.00     0.031 C 
ATOM     39  C   UNL A   1      45.682  24.374  26.231  1.00  0.00     0.029 A 
ATOM     40  N   UNL A   1      45.244  26.423  27.009  1.00  0.00    -0.354 N 
ATOM     41  C   UNL A   1      41.330  27.430  28.540  1.00  0.00     0.074 A 
ATOM     42  C   UNL A   1      40.439  26.292  28.485  1.00  0.00     0.031 C 
ATOM     43  C   UNL A   1      46.773  25.127  26.016  1.00  0.00     0.029 A 
ATOM     44  C   UNL A   1      46.515  26.485  26.486  1.00  0.00     0.049 A 
ATOM     45  H   UNL A   1      44.799  27.192  27.435  1.00  0.00     0.167 HD
ATOM     46  C   UNL A   1      40.974  28.654  28.997  1.00  0.00     0.034 A 
ATOM     47  C   UNL A   1      47.373  27.520  26.389  1.00  0.00     0.034 A 
ATOM     48  C   UNL A   1      41.878  29.769  29.096  1.00  0.00     0.049 A 
ATOM     49  C   UNL A   1      46.970  28.855  26.952  1.00  0.00     0.074 A 
ATOM     50  C   UNL A   1      41.642  31.024  29.630  1.00  0.00     0.029 A 
ATOM     51  N   UNL A   1      43.190  29.765  28.648  1.00  0.00    -0.354 N 
ATOM     52  N   UNL A   1      45.847  29.200  27.534  1.00  0.00    -0.248 NA
ATOM     53  C   UNL A   1      47.966  29.934  26.880  1.00  0.00     0.031 C 
ATOM     54  C   UNL A   1      42.808  31.784  29.488  1.00  0.00     0.029 A 
ATOM     55  C   UNL A   1      43.776  30.996  28.887  1.00  0.00     0.049 A 
ATOM     56  H   UNL A   1      43.638  28.999  28.221  1.00  0.00     0.167 HD
ATOM     57  C   UNL A   1      46.012  30.522  27.928  1.00  0.00     0.074 A 
ATOM     58  C   UNL A   1      47.353  30.909  27.539  1.00  0.00     0.031 C 
ATOM     59  C   UNL A   1      45.129  31.348  28.544  1.00  0.00     0.034 A 
BRANCH  46  60
ATOM     60  C   UNL A   1      39.559  28.837  29.482  1.00  0.00     0.023 A 
ATOM     61  C   UNL A   1      39.230  28.484  30.807  1.00  0.00     0.012 A 
ATOM     62  C   UNL A   1      38.573  29.409  28.655  1.00  0.00     0.148 A 
ATOM     63  C   UNL A   1      37.934  28.663  31.291  1.00  0.00     0.002 A 
ATOM     64  C   UNL A   1      37.294  29.625  29.158  1.00  0.00     0.091 A 
ATOM     65  F   UNL A   1      38.897  29.721  27.392  1.00  0.00    -0.205 F 
ATOM     66  C   UNL A   1      36.970  29.242  30.470  1.00  0.00     0.022 A 
BRANCH  64  67
ATOM     67  S   UNL A   1      36.002  30.436  28.208  1.00  0.00     0.127 S 
ATOM     68  O   UNL A   1      36.723  31.576  27.644  1.00  0.00    -0.237 OA
ATOM     69  O   UNL A   1      35.638  29.403  27.237  1.00  0.00    -0.237 OA
ATOM     70  O   UNL A   1      34.952  30.769  29.160  1.00  0.00    -0.744 OA
ENDBRANCH  64  67
ENDBRANCH  46  60
BRANCH  47  71
ATOM     71  C   UNL A   1      48.724  27.309  25.798  1.00  0.00     0.023 A 
ATOM     72  C   UNL A   1      49.761  26.810  26.610  1.00  0.00     0.012 A 
ATOM     73  C   UNL A   1      48.980  27.561  24.437  1.00  0.00     0.148 A 
ATOM     74  C   UNL A   1      51.036  26.595  26.085  1.00  0.00     0.002 A 
ATOM     75  C   UNL A   1      50.236  27.292  23.907  1.00  0.00     0.091 A 
ATOM     76  F   UNL A   1      47.983  28.046  23.682  1.00  0.00    -0.205 F 
ATOM     77  C   UNL A   1      51.270  26.825  24.733  1.00  0.00     0.022 A 
BRANCH  75  78
ATOM     78  S   UNL A   1      50.588  27.427  22.150  1.00  0.00     0.127 S 
ATOM     79  O   UNL A   1      50.498  28.868  21.936  1.00  0.00    -0.237 OA
ATOM     80  O   UNL A   1      51.940  26.874  22.068  1.00  0.00    -0.237 OA
ATOM     81  O   UNL A   1      49.572  26.621  21.485  1.00  0.00    -0.744 OA
ENDBRANCH  75  78
ENDBRANCH  47  71
BRANCH  59  82
ATOM     82  C   UNL A   1      45.589  32.744  28.869  1.00  0.00     0.023 A 
ATOM     83  C   UNL A   1      46.290  32.989  30.067  1.00  0.00     0.012 A 
ATOM     84  C   UNL A   1      45.396  33.796  27.952  1.00  0.00     0.148 A 
ATOM     85  C   UNL A   1      46.763  34.268  30.361  1.00  0.00     0.002 A 
ATOM     86  C   UNL A   1      45.913  35.056  28.230  1.00  0.00     0.091 A 
ATOM     87  F   UNL A   1      44.710  33.547  26.827  1.00  0.00    -0.205 F 
ATOM     88  C   UNL A   1      46.586  35.296  29.438  1.00  0.00     0.022 A 
BRANCH  86  89
ATOM     89  S   UNL A   1      45.815  36.415  27.058  1.00  0.00     0.127 S 
ATOM     90  O   UNL A   1      46.581  37.454  27.743  1.00  0.00    -0.237 OA
ATOM     91  O   UNL A   1      46.469  35.852  25.876  1.00  0.00    -0.237 OA
ATOM     92  O   UNL A   1      44.396  36.693  26.887  1.00  0.00    -0.744 OA
ENDBRANCH  86  89
ENDBRANCH  59  82
ENDBRANCH  33  34
ENDBRANCH  25  28
ENDBRANCH  23  24
ENDBRANCH  22  23
ENDBRANCH   1  22
TORSDOF 18
ENDMDL
