MODEL 1
REMARK VINA RESULT:     -12.7      0.000      0.000
REMARK SMILES Cc1c(Cl)ccc2c1C=C(C(=O)NCCCNC(=O)c1ccc(-c3c4nc(c(-c5cccc(S(=O)(=O)[O-])c5F)c5ccc([nH]5)c(-c5cccc(S(=O)(=O)[O-])c5F)c5nc(c(-c6cccc(S(=O)(=O)[O-])c6F)c6ccc3[nH]6)C=C5)C=C4)cc1)[C@@H](C(F)(F)F)O2
REMARK SMILES IDX 16 1 15 2 14 3 13 4 11 5 12 6 10 8 1 9 2 10 3 11 8 12 4 13
REMARK SMILES IDX 5 14 7 15 9 16 6 17 88 18 83 19 84 20 85 21 86 22 87 23
REMARK SMILES IDX 17 24 18 25 19 27 20 28 21 29 82 30 22 31 81 32 23 33 24 34
REMARK SMILES IDX 25 35 75 36 26 37 80 38 74 39 76 40 27 41 79 42 73 43 72 44
REMARK SMILES IDX 28 46 60 47 40 48 59 49 41 50 44 51 58 52 77 53 42 54 43 55
REMARK SMILES IDX 57 57 78 58 45 59 29 60 30 61 38 62 31 63 33 64 39 65 32 66
REMARK SMILES IDX 34 67 35 68 36 69 37 70 61 71 62 72 70 73 63 74 65 75 71 76
REMARK SMILES IDX 64 77 66 78 67 79 68 80 69 81 46 82 47 83 55 84 48 85 50 86
REMARK SMILES IDX 56 87 49 88 51 89 52 90 53 91 54 92
REMARK H PARENT 13 7 17 26 76 45 44 56
REMARK Flexibility Score: inf
ROOT
ATOM      1  C   UNL A   1      32.716  32.463  27.268  1.00  0.00     0.118 C 
ENDROOT
BRANCH   1   2
ATOM      2  C   UNL A   1      31.474  32.006  26.509  1.00  0.00     0.042 C 
BRANCH   2   3
ATOM      3  C   UNL A   1      31.432  30.494  26.331  1.00  0.00     0.118 C 
BRANCH   3   4
ATOM      4  N   UNL A   1      32.350  30.044  25.295  1.00  0.00    -0.352 N 
ATOM      5  C   UNL A   1      32.825  28.868  24.827  1.00  0.00     0.251 C 
ATOM      6  O   UNL A   1      33.619  28.964  23.885  1.00  0.00    -0.270 OA
ATOM      7  H   UNL A   1      32.730  30.805  24.799  1.00  0.00     0.163 HD
BRANCH   5   8
ATOM      8  C   UNL A   1      32.447  27.518  25.337  1.00  0.00     0.067 C 
ATOM      9  C   UNL A   1      35.537  24.473  25.346  1.00  0.00     0.047 C 
ATOM     10  C   UNL A   1      34.152  24.242  25.897  1.00  0.00    -0.021 A 
ATOM     11  C   UNL A   1      33.803  22.985  26.438  1.00  0.00     0.044 A 
ATOM     12  C   UNL A   1      33.191  25.279  25.941  1.00  0.00     0.022 A 
ATOM     13  Cl  UNL A   1      34.923  21.667  26.496  1.00  0.00    -0.084 Cl
ATOM     14  C   UNL A   1      32.531  22.751  26.966  1.00  0.00     0.024 A 
ATOM     15  C   UNL A   1      31.913  25.016  26.457  1.00  0.00     0.128 A 
ATOM     16  C   UNL A   1      33.464  26.654  25.509  1.00  0.00     0.026 C 
ATOM     17  C   UNL A   1      31.584  23.768  26.974  1.00  0.00     0.048 A 
ATOM     18  O   UNL A   1      30.926  25.958  26.529  1.00  0.00    -0.475 OA
ATOM     19  C   UNL A   1      31.040  27.083  25.618  1.00  0.00     0.314 C 
BRANCH  19  20
ATOM     20  C   UNL A   1      30.243  26.787  24.334  1.00  0.00     0.429 C 
ATOM     21  F   UNL A   1      31.064  26.325  23.357  1.00  0.00    -0.167 F 
ATOM     22  F   UNL A   1      29.293  25.840  24.515  1.00  0.00    -0.167 F 
ATOM     23  F   UNL A   1      29.613  27.880  23.847  1.00  0.00    -0.167 F 
ENDBRANCH  19  20
ENDBRANCH   5   8
ENDBRANCH   3   4
ENDBRANCH   2   3
ENDBRANCH   1   2
BRANCH   1  24
ATOM     24  N   UNL A   1      32.619  33.869  27.654  1.00  0.00    -0.352 N 
ATOM     25  C   UNL A   1      33.243  34.535  28.678  1.00  0.00     0.251 C 
ATOM     26  H   UNL A   1      32.018  34.417  27.098  1.00  0.00     0.163 HD
ATOM     27  O   UNL A   1      32.820  35.627  29.049  1.00  0.00    -0.269 OA
BRANCH  25  28
ATOM     28  C   UNL A   1      34.424  33.935  29.326  1.00  0.00     0.039 A 
ATOM     29  C   UNL A   1      35.704  34.363  28.967  1.00  0.00     0.014 A 
ATOM     30  C   UNL A   1      34.255  32.919  30.272  1.00  0.00     0.014 A 
ATOM     31  C   UNL A   1      36.817  33.809  29.600  1.00  0.00     0.010 A 
ATOM     32  C   UNL A   1      35.356  32.422  30.953  1.00  0.00     0.010 A 
ATOM     33  C   UNL A   1      36.648  32.848  30.609  1.00  0.00    -0.014 A 
BRANCH  33  34
ATOM     34  C   UNL A   1      37.804  32.237  31.301  1.00  0.00     0.031 A 
ATOM     35  C   UNL A   1      38.542  31.101  30.652  1.00  0.00     0.074 A 
ATOM     36  C   UNL A   1      38.121  32.631  32.549  1.00  0.00     0.049 A 
ATOM     37  N   UNL A   1      39.533  30.392  31.122  1.00  0.00    -0.248 NA
ATOM     38  C   UNL A   1      38.088  30.687  29.313  1.00  0.00     0.031 C 
ATOM     39  C   UNL A   1      37.420  33.666  33.310  1.00  0.00     0.029 A 
ATOM     40  N   UNL A   1      39.095  32.188  33.405  1.00  0.00    -0.354 N 
ATOM     41  C   UNL A   1      39.789  29.422  30.161  1.00  0.00     0.074 A 
ATOM     42  C   UNL A   1      38.839  29.618  29.090  1.00  0.00     0.031 C 
ATOM     43  C   UNL A   1      37.987  33.778  34.522  1.00  0.00     0.029 A 
ATOM     44  C   UNL A   1      39.080  32.813  34.627  1.00  0.00     0.049 A 
ATOM     45  H   UNL A   1      39.743  31.486  33.166  1.00  0.00     0.167 HD
ATOM     46  C   UNL A   1      40.752  28.473  30.158  1.00  0.00     0.034 A 
ATOM     47  C   UNL A   1      39.859  32.633  35.712  1.00  0.00     0.034 A 
ATOM     48  C   UNL A   1      41.740  28.331  31.189  1.00  0.00     0.049 A 
ATOM     49  C   UNL A   1      40.967  31.620  35.659  1.00  0.00     0.074 A 
ATOM     50  C   UNL A   1      42.838  27.492  31.213  1.00  0.00     0.029 A 
ATOM     51  N   UNL A   1      41.746  29.043  32.378  1.00  0.00    -0.354 N 
ATOM     52  N   UNL A   1      41.302  30.823  34.673  1.00  0.00    -0.248 NA
ATOM     53  C   UNL A   1      41.823  31.499  36.847  1.00  0.00     0.031 C 
ATOM     54  C   UNL A   1      43.504  27.686  32.427  1.00  0.00     0.029 A 
ATOM     55  C   UNL A   1      42.823  28.653  33.152  1.00  0.00     0.049 A 
ATOM     56  H   UNL A   1      41.083  29.724  32.632  1.00  0.00     0.167 HD
ATOM     57  C   UNL A   1      42.417  30.120  35.111  1.00  0.00     0.074 A 
ATOM     58  C   UNL A   1      42.708  30.592  36.450  1.00  0.00     0.031 C 
ATOM     59  C   UNL A   1      43.125  29.162  34.465  1.00  0.00     0.034 A 
BRANCH  46  60
ATOM     60  C   UNL A   1      40.826  27.556  28.971  1.00  0.00     0.023 A 
ATOM     61  C   UNL A   1      39.914  26.488  28.867  1.00  0.00     0.012 A 
ATOM     62  C   UNL A   1      41.751  27.787  27.936  1.00  0.00     0.148 A 
ATOM     63  C   UNL A   1      39.934  25.647  27.756  1.00  0.00     0.002 A 
ATOM     64  C   UNL A   1      41.744  26.964  26.816  1.00  0.00     0.091 A 
ATOM     65  F   UNL A   1      42.623  28.797  28.071  1.00  0.00    -0.205 F 
ATOM     66  C   UNL A   1      40.841  25.892  26.727  1.00  0.00     0.022 A 
BRANCH  64  67
ATOM     67  S   UNL A   1      42.835  27.224  25.413  1.00  0.00     0.127 S 
ATOM     68  O   UNL A   1      42.725  25.943  24.714  1.00  0.00    -0.237 OA
ATOM     69  O   UNL A   1      42.193  28.348  24.731  1.00  0.00    -0.237 OA
ATOM     70  O   UNL A   1      44.147  27.516  25.972  1.00  0.00    -0.744 OA
ENDBRANCH  64  67
ENDBRANCH  46  60
BRANCH  47  71
ATOM     71  C   UNL A   1      39.653  33.509  36.896  1.00  0.00     0.023 A 
ATOM     72  C   UNL A   1      40.045  34.859  36.820  1.00  0.00     0.012 A 
ATOM     73  C   UNL A   1      38.974  33.046  38.039  1.00  0.00     0.148 A 
ATOM     74  C   UNL A   1      39.763  35.738  37.866  1.00  0.00     0.002 A 
ATOM     75  C   UNL A   1      38.665  33.936  39.062  1.00  0.00     0.091 A 
ATOM     76  F   UNL A   1      38.603  31.759  38.077  1.00  0.00    -0.205 F 
ATOM     77  C   UNL A   1      39.066  35.280  38.980  1.00  0.00     0.022 A 
BRANCH  75  78
ATOM     78  S   UNL A   1      37.676  33.473  40.489  1.00  0.00     0.127 S 
ATOM     79  O   UNL A   1      38.504  32.437  41.104  1.00  0.00    -0.237 OA
ATOM     80  O   UNL A   1      37.618  34.735  41.228  1.00  0.00    -0.237 OA
ATOM     81  O   UNL A   1      36.401  33.014  39.958  1.00  0.00    -0.744 OA
ENDBRANCH  75  78
ENDBRANCH  47  71
BRANCH  59  82
ATOM     82  C   UNL A   1      44.294  28.540  35.175  1.00  0.00     0.023 A 
ATOM     83  C   UNL A   1      45.580  29.078  34.980  1.00  0.00     0.012 A 
ATOM     84  C   UNL A   1      44.094  27.539  36.145  1.00  0.00     0.148 A 
ATOM     85  C   UNL A   1      46.655  28.627  35.743  1.00  0.00     0.002 A 
ATOM     86  C   UNL A   1      45.164  27.119  36.926  1.00  0.00     0.091 A 
ATOM     87  F   UNL A   1      42.859  27.041  36.304  1.00  0.00    -0.205 F 
ATOM     88  C   UNL A   1      46.445  27.659  36.724  1.00  0.00     0.022 A 
BRANCH  86  89
ATOM     89  S   UNL A   1      44.978  25.943  38.272  1.00  0.00     0.127 S 
ATOM     90  O   UNL A   1      44.499  24.756  37.564  1.00  0.00    -0.237 OA
ATOM     91  O   UNL A   1      46.344  25.840  38.784  1.00  0.00    -0.237 OA
ATOM     92  O   UNL A   1      44.024  26.537  39.199  1.00  0.00    -0.744 OA
ENDBRANCH  86  89
ENDBRANCH  59  82
ENDBRANCH  33  34
ENDBRANCH  25  28
ENDBRANCH   1  24
TORSDOF 14
ENDMDL
MODEL 2
REMARK VINA RESULT:     -12.7      2.299      8.132
REMARK SMILES Cc1c(Cl)ccc2c1C=C(C(=O)NCCCNC(=O)c1ccc(-c3c4nc(c(-c5cccc(S(=O)(=O)[O-])c5F)c5ccc([nH]5)c(-c5cccc(S(=O)(=O)[O-])c5F)c5nc(c(-c6cccc(S(=O)(=O)[O-])c6F)c6ccc3[nH]6)C=C5)C=C4)cc1)[C@@H](C(F)(F)F)O2
REMARK SMILES IDX 16 1 15 2 14 3 13 4 11 5 12 6 10 8 1 9 2 10 3 11 8 12 4 13
REMARK SMILES IDX 5 14 7 15 9 16 6 17 88 18 83 19 84 20 85 21 86 22 87 23
REMARK SMILES IDX 17 24 18 25 19 27 20 28 21 29 82 30 22 31 81 32 23 33 24 34
REMARK SMILES IDX 25 35 75 36 26 37 80 38 74 39 76 40 27 41 79 42 73 43 72 44
REMARK SMILES IDX 28 46 60 47 40 48 59 49 41 50 44 51 58 52 77 53 42 54 43 55
REMARK SMILES IDX 57 57 78 58 45 59 29 60 30 61 38 62 31 63 33 64 39 65 32 66
REMARK SMILES IDX 34 67 35 68 36 69 37 70 61 71 62 72 70 73 63 74 65 75 71 76
REMARK SMILES IDX 64 77 66 78 67 79 68 80 69 81 46 82 47 83 55 84 48 85 50 86
REMARK SMILES IDX 56 87 49 88 51 89 52 90 53 91 54 92
REMARK H PARENT 13 7 17 26 76 45 44 56
REMARK Flexibility Score: inf
ROOT
ATOM      1  C   UNL A   1      33.017  29.076  25.355  1.00  0.00     0.118 C 
ENDROOT
BRANCH   1   2
ATOM      2  C   UNL A   1      33.332  28.985  23.866  1.00  0.00     0.042 C 
BRANCH   2   3
ATOM      3  C   UNL A   1      32.119  28.568  23.045  1.00  0.00     0.118 C 
BRANCH   3   4
ATOM      4  N   UNL A   1      32.464  27.594  22.021  1.00  0.00    -0.352 N 
ATOM      5  C   UNL A   1      32.874  26.307  21.968  1.00  0.00     0.251 C 
ATOM      6  O   UNL A   1      33.049  25.862  20.828  1.00  0.00    -0.270 OA
ATOM      7  H   UNL A   1      32.375  27.977  21.118  1.00  0.00     0.163 HD
BRANCH   5   8
ATOM      8  C   UNL A   1      33.095  25.420  23.147  1.00  0.00     0.067 C 
ATOM      9  C   UNL A   1      36.662  22.951  23.122  1.00  0.00     0.047 C 
ATOM     10  C   UNL A   1      35.703  22.999  24.285  1.00  0.00    -0.021 A 
ATOM     11  C   UNL A   1      35.935  22.209  25.431  1.00  0.00     0.044 A 
ATOM     12  C   UNL A   1      34.586  23.869  24.287  1.00  0.00     0.022 A 
ATOM     13  Cl  UNL A   1      37.307  21.161  25.563  1.00  0.00    -0.084 Cl
ATOM     14  C   UNL A   1      35.068  22.246  26.527  1.00  0.00     0.024 A 
ATOM     15  C   UNL A   1      33.717  23.875  25.388  1.00  0.00     0.128 A 
ATOM     16  C   UNL A   1      34.296  24.814  23.204  1.00  0.00     0.026 C 
ATOM     17  C   UNL A   1      33.957  23.079  26.503  1.00  0.00     0.048 A 
ATOM     18  O   UNL A   1      32.613  24.677  25.467  1.00  0.00    -0.475 OA
ATOM     19  C   UNL A   1      32.070  25.152  24.207  1.00  0.00     0.314 C 
BRANCH  19  20
ATOM     20  C   UNL A   1      30.962  24.193  23.733  1.00  0.00     0.429 C 
ATOM     21  F   UNL A   1      31.424  23.376  22.753  1.00  0.00    -0.167 F 
ATOM     22  F   UNL A   1      30.509  23.387  24.721  1.00  0.00    -0.167 F 
ATOM     23  F   UNL A   1      29.885  24.844  23.239  1.00  0.00    -0.167 F 
ENDBRANCH  19  20
ENDBRANCH   5   8
ENDBRANCH   3   4
ENDBRANCH   2   3
ENDBRANCH   1   2
BRANCH   1  24
ATOM     24  N   UNL A   1      32.640  30.435  25.739  1.00  0.00    -0.352 N 
ATOM     25  C   UNL A   1      33.068  31.187  26.803  1.00  0.00     0.251 C 
ATOM     26  H   UNL A   1      31.986  30.873  25.148  1.00  0.00     0.163 HD
ATOM     27  O   UNL A   1      32.430  32.179  27.151  1.00  0.00    -0.269 OA
BRANCH  25  28
ATOM     28  C   UNL A   1      34.296  30.803  27.523  1.00  0.00     0.039 A 
ATOM     29  C   UNL A   1      35.319  31.738  27.698  1.00  0.00     0.014 A 
ATOM     30  C   UNL A   1      34.441  29.496  27.999  1.00  0.00     0.014 A 
ATOM     31  C   UNL A   1      36.469  31.376  28.399  1.00  0.00     0.010 A 
ATOM     32  C   UNL A   1      35.551  29.159  28.760  1.00  0.00     0.010 A 
ATOM     33  C   UNL A   1      36.583  30.089  28.950  1.00  0.00    -0.014 A 
BRANCH  33  34
ATOM     34  C   UNL A   1      37.788  29.670  29.699  1.00  0.00     0.031 A 
ATOM     35  C   UNL A   1      38.041  30.228  31.070  1.00  0.00     0.074 A 
ATOM     36  C   UNL A   1      38.699  28.875  29.107  1.00  0.00     0.049 A 
ATOM     37  N   UNL A   1      39.066  30.039  31.856  1.00  0.00    -0.248 NA
ATOM     38  C   UNL A   1      37.026  31.144  31.617  1.00  0.00     0.031 C 
ATOM     39  C   UNL A   1      38.598  28.342  27.747  1.00  0.00     0.029 A 
ATOM     40  N   UNL A   1      39.902  28.401  29.564  1.00  0.00    -0.354 N 
ATOM     41  C   UNL A   1      38.843  30.843  32.965  1.00  0.00     0.074 A 
ATOM     42  C   UNL A   1      37.597  31.540  32.745  1.00  0.00     0.031 C 
ATOM     43  C   UNL A   1      39.695  27.614  27.480  1.00  0.00     0.029 A 
ATOM     44  C   UNL A   1      40.580  27.643  28.642  1.00  0.00     0.049 A 
ATOM     45  H   UNL A   1      40.246  28.589  30.467  1.00  0.00     0.167 HD
ATOM     46  C   UNL A   1      39.595  30.966  34.083  1.00  0.00     0.034 A 
ATOM     47  C   UNL A   1      41.781  27.035  28.723  1.00  0.00     0.034 A 
ATOM     48  C   UNL A   1      40.793  30.215  34.328  1.00  0.00     0.049 A 
ATOM     49  C   UNL A   1      42.566  27.129  30.000  1.00  0.00     0.074 A 
ATOM     50  C   UNL A   1      41.551  30.166  35.483  1.00  0.00     0.029 A 
ATOM     51  N   UNL A   1      41.407  29.387  33.403  1.00  0.00    -0.354 N 
ATOM     52  N   UNL A   1      42.258  27.762  31.106  1.00  0.00    -0.248 NA
ATOM     53  C   UNL A   1      43.843  26.405  30.057  1.00  0.00     0.031 C 
ATOM     54  C   UNL A   1      42.636  29.315  35.251  1.00  0.00     0.029 A 
ATOM     55  C   UNL A   1      42.546  28.830  33.955  1.00  0.00     0.049 A 
ATOM     56  H   UNL A   1      41.081  29.220  32.489  1.00  0.00     0.167 HD
ATOM     57  C   UNL A   1      43.290  27.499  31.998  1.00  0.00     0.074 A 
ATOM     58  C   UNL A   1      44.230  26.639  31.306  1.00  0.00     0.031 C 
ATOM     59  C   UNL A   1      43.449  27.942  33.269  1.00  0.00     0.034 A 
BRANCH  46  60
ATOM     60  C   UNL A   1      39.108  31.898  35.154  1.00  0.00     0.023 A 
ATOM     61  C   UNL A   1      39.256  33.288  34.978  1.00  0.00     0.012 A 
ATOM     62  C   UNL A   1      38.454  31.406  36.298  1.00  0.00     0.148 A 
ATOM     63  C   UNL A   1      38.775  34.178  35.938  1.00  0.00     0.002 A 
ATOM     64  C   UNL A   1      37.949  32.300  37.235  1.00  0.00     0.091 A 
ATOM     65  F   UNL A   1      38.347  30.078  36.452  1.00  0.00    -0.205 F 
ATOM     66  C   UNL A   1      38.114  33.683  37.059  1.00  0.00     0.022 A 
BRANCH  64  67
ATOM     67  S   UNL A   1      37.036  31.770  38.688  1.00  0.00     0.127 S 
ATOM     68  O   UNL A   1      38.012  32.010  39.752  1.00  0.00    -0.237 OA
ATOM     69  O   UNL A   1      35.899  32.691  38.687  1.00  0.00    -0.237 OA
ATOM     70  O   UNL A   1      36.693  30.374  38.463  1.00  0.00    -0.744 OA
ENDBRANCH  64  67
ENDBRANCH  46  60
BRANCH  47  71
ATOM     71  C   UNL A   1      42.248  26.215  27.574  1.00  0.00     0.023 A 
ATOM     72  C   UNL A   1      43.176  26.770  26.674  1.00  0.00     0.012 A 
ATOM     73  C   UNL A   1      41.871  24.866  27.438  1.00  0.00     0.148 A 
ATOM     74  C   UNL A   1      43.725  25.993  25.653  1.00  0.00     0.002 A 
ATOM     75  C   UNL A   1      42.449  24.087  26.441  1.00  0.00     0.091 A 
ATOM     76  F   UNL A   1      40.995  24.361  28.318  1.00  0.00    -0.205 F 
ATOM     77  C   UNL A   1      43.370  24.652  25.543  1.00  0.00     0.022 A 
BRANCH  75  78
ATOM     78  S   UNL A   1      42.142  22.324  26.281  1.00  0.00     0.127 S 
ATOM     79  O   UNL A   1      40.690  22.285  26.127  1.00  0.00    -0.237 OA
ATOM     80  O   UNL A   1      42.900  22.003  25.071  1.00  0.00    -0.237 OA
ATOM     81  O   UNL A   1      42.653  21.719  27.502  1.00  0.00    -0.744 OA
ENDBRANCH  75  78
ENDBRANCH  47  71
BRANCH  59  82
ATOM     82  C   UNL A   1      44.677  27.519  34.023  1.00  0.00     0.023 A 
ATOM     83  C   UNL A   1      45.793  28.376  34.052  1.00  0.00     0.012 A 
ATOM     84  C   UNL A   1      44.665  26.360  34.822  1.00  0.00     0.148 A 
ATOM     85  C   UNL A   1      46.883  28.085  34.870  1.00  0.00     0.002 A 
ATOM     86  C   UNL A   1      45.740  26.094  35.662  1.00  0.00     0.091 A 
ATOM     87  F   UNL A   1      43.590  25.559  34.768  1.00  0.00    -0.205 F 
ATOM     88  C   UNL A   1      46.851  26.954  35.684  1.00  0.00     0.022 A 
BRANCH  86  89
ATOM     89  S   UNL A   1      45.755  24.712  36.809  1.00  0.00     0.127 S 
ATOM     90  O   UNL A   1      45.692  23.570  35.899  1.00  0.00    -0.237 OA
ATOM     91  O   UNL A   1      47.041  24.885  37.485  1.00  0.00    -0.237 OA
ATOM     92  O   UNL A   1      44.589  24.885  37.666  1.00  0.00    -0.744 OA
ENDBRANCH  86  89
ENDBRANCH  59  82
ENDBRANCH  33  34
ENDBRANCH  25  28
ENDBRANCH   1  24
TORSDOF 14
ENDMDL
MODEL 3
REMARK VINA RESULT:     -12.6      2.478      3.232
REMARK SMILES Cc1c(Cl)ccc2c1C=C(C(=O)NCCCNC(=O)c1ccc(-c3c4nc(c(-c5cccc(S(=O)(=O)[O-])c5F)c5ccc([nH]5)c(-c5cccc(S(=O)(=O)[O-])c5F)c5nc(c(-c6cccc(S(=O)(=O)[O-])c6F)c6ccc3[nH]6)C=C5)C=C4)cc1)[C@@H](C(F)(F)F)O2
REMARK SMILES IDX 16 1 15 2 14 3 13 4 11 5 12 6 10 8 1 9 2 10 3 11 8 12 4 13
REMARK SMILES IDX 5 14 7 15 9 16 6 17 88 18 83 19 84 20 85 21 86 22 87 23
REMARK SMILES IDX 17 24 18 25 19 27 20 28 21 29 82 30 22 31 81 32 23 33 24 34
REMARK SMILES IDX 25 35 75 36 26 37 80 38 74 39 76 40 27 41 79 42 73 43 72 44
REMARK SMILES IDX 28 46 60 47 40 48 59 49 41 50 44 51 58 52 77 53 42 54 43 55
REMARK SMILES IDX 57 57 78 58 45 59 29 60 30 61 38 62 31 63 33 64 39 65 32 66
REMARK SMILES IDX 34 67 35 68 36 69 37 70 61 71 62 72 70 73 63 74 65 75 71 76
REMARK SMILES IDX 64 77 66 78 67 79 68 80 69 81 46 82 47 83 55 84 48 85 50 86
REMARK SMILES IDX 56 87 49 88 51 89 52 90 53 91 54 92
REMARK H PARENT 13 7 17 26 76 45 44 56
REMARK Flexibility Score: inf
ROOT
ATOM      1  C   UNL A   1      33.278  28.985  25.267  1.00  0.00     0.118 C 
ENDROOT
BRANCH   1   2
ATOM      2  C   UNL A   1      33.498  28.938  23.758  1.00  0.00     0.042 C 
BRANCH   2   3
ATOM      3  C   UNL A   1      32.234  28.546  23.004  1.00  0.00     0.118 C 
BRANCH   3   4
ATOM      4  N   UNL A   1      32.497  27.534  21.992  1.00  0.00    -0.352 N 
ATOM      5  C   UNL A   1      32.853  26.230  21.955  1.00  0.00     0.251 C 
ATOM      6  O   UNL A   1      32.963  25.752  20.821  1.00  0.00    -0.270 OA
ATOM      7  H   UNL A   1      32.386  27.899  21.084  1.00  0.00     0.163 HD
BRANCH   5   8
ATOM      8  C   UNL A   1      33.088  25.364  23.146  1.00  0.00     0.067 C 
ATOM      9  C   UNL A   1      36.656  22.897  23.124  1.00  0.00     0.047 C 
ATOM     10  C   UNL A   1      35.710  22.965  24.296  1.00  0.00    -0.021 A 
ATOM     11  C   UNL A   1      35.955  22.194  25.453  1.00  0.00     0.044 A 
ATOM     12  C   UNL A   1      34.593  23.833  24.296  1.00  0.00     0.022 A 
ATOM     13  Cl  UNL A   1      37.330  21.150  25.587  1.00  0.00    -0.084 Cl
ATOM     14  C   UNL A   1      35.100  22.249  26.557  1.00  0.00     0.024 A 
ATOM     15  C   UNL A   1      33.736  23.858  25.406  1.00  0.00     0.128 A 
ATOM     16  C   UNL A   1      34.289  24.760  23.201  1.00  0.00     0.026 C 
ATOM     17  C   UNL A   1      33.988  23.081  26.532  1.00  0.00     0.048 A 
ATOM     18  O   UNL A   1      32.632  24.660  25.484  1.00  0.00    -0.475 OA
ATOM     19  C   UNL A   1      32.075  25.113  24.222  1.00  0.00     0.314 C 
BRANCH  19  20
ATOM     20  C   UNL A   1      30.962  24.146  23.776  1.00  0.00     0.429 C 
ATOM     21  F   UNL A   1      29.881  24.833  23.330  1.00  0.00    -0.167 F 
ATOM     22  F   UNL A   1      31.348  23.339  22.760  1.00  0.00    -0.167 F 
ATOM     23  F   UNL A   1      30.542  23.337  24.775  1.00  0.00    -0.167 F 
ENDBRANCH  19  20
ENDBRANCH   5   8
ENDBRANCH   3   4
ENDBRANCH   2   3
ENDBRANCH   1   2
BRANCH   1  24
ATOM     24  N   UNL A   1      32.723  30.271  25.685  1.00  0.00    -0.352 N 
ATOM     25  C   UNL A   1      33.042  31.041  26.775  1.00  0.00     0.251 C 
ATOM     26  H   UNL A   1      32.020  30.636  25.101  1.00  0.00     0.163 HD
ATOM     27  O   UNL A   1      32.277  31.929  27.145  1.00  0.00    -0.269 OA
BRANCH  25  28
ATOM     28  C   UNL A   1      34.305  30.800  27.495  1.00  0.00     0.039 A 
ATOM     29  C   UNL A   1      35.237  31.833  27.627  1.00  0.00     0.014 A 
ATOM     30  C   UNL A   1      34.576  29.530  28.015  1.00  0.00     0.014 A 
ATOM     31  C   UNL A   1      36.421  31.606  28.329  1.00  0.00     0.010 A 
ATOM     32  C   UNL A   1      35.718  29.327  28.777  1.00  0.00     0.010 A 
ATOM     33  C   UNL A   1      36.659  30.356  28.923  1.00  0.00    -0.014 A 
BRANCH  33  34
ATOM     34  C   UNL A   1      37.903  30.079  29.674  1.00  0.00     0.031 A 
ATOM     35  C   UNL A   1      38.925  29.140  29.097  1.00  0.00     0.074 A 
ATOM     36  C   UNL A   1      38.063  30.584  30.911  1.00  0.00     0.049 A 
ATOM     37  N   UNL A   1      40.041  28.719  29.626  1.00  0.00    -0.248 NA
ATOM     38  C   UNL A   1      38.640  28.579  27.766  1.00  0.00     0.031 C 
ATOM     39  C   UNL A   1      37.098  31.438  31.606  1.00  0.00     0.029 A 
ATOM     40  N   UNL A   1      39.083  30.429  31.814  1.00  0.00    -0.354 N 
ATOM     41  C   UNL A   1      40.568  27.810  28.717  1.00  0.00     0.074 A 
ATOM     42  C   UNL A   1      39.641  27.724  27.612  1.00  0.00     0.031 C 
ATOM     43  C   UNL A   1      37.573  31.731  32.827  1.00  0.00     0.029 A 
ATOM     44  C   UNL A   1      38.865  31.075  33.006  1.00  0.00     0.049 A 
ATOM     45  H   UNL A   1      39.894  29.903  31.626  1.00  0.00     0.167 HD
ATOM     46  C   UNL A   1      41.736  27.132  28.784  1.00  0.00     0.034 A 
ATOM     47  C   UNL A   1      39.622  31.134  34.120  1.00  0.00     0.034 A 
ATOM     48  C   UNL A   1      42.687  27.278  29.848  1.00  0.00     0.049 A 
ATOM     49  C   UNL A   1      40.948  30.428  34.144  1.00  0.00     0.074 A 
ATOM     50  C   UNL A   1      43.957  26.742  29.941  1.00  0.00     0.029 A 
ATOM     51  N   UNL A   1      42.470  28.011  31.004  1.00  0.00    -0.354 N 
ATOM     52  N   UNL A   1      41.509  29.706  33.204  1.00  0.00    -0.248 NA
ATOM     53  C   UNL A   1      41.760  30.568  35.360  1.00  0.00     0.031 C 
ATOM     54  C   UNL A   1      44.507  27.140  31.164  1.00  0.00     0.029 A 
ATOM     55  C   UNL A   1      43.579  27.931  31.825  1.00  0.00     0.049 A 
ATOM     56  H   UNL A   1      41.649  28.514  31.209  1.00  0.00     0.167 HD
ATOM     57  C   UNL A   1      42.746  29.320  33.705  1.00  0.00     0.074 A 
ATOM     58  C   UNL A   1      42.859  29.897  35.029  1.00  0.00     0.031 C 
ATOM     59  C   UNL A   1      43.694  28.546  33.122  1.00  0.00     0.034 A 
BRANCH  46  60
ATOM     60  C   UNL A   1      42.081  26.221  27.641  1.00  0.00     0.023 A 
ATOM     61  C   UNL A   1      42.778  26.740  26.532  1.00  0.00     0.012 A 
ATOM     62  C   UNL A   1      41.774  24.849  27.693  1.00  0.00     0.148 A 
ATOM     63  C   UNL A   1      43.147  25.907  25.477  1.00  0.00     0.002 A 
ATOM     64  C   UNL A   1      42.174  24.019  26.652  1.00  0.00     0.091 A 
ATOM     65  F   UNL A   1      41.091  24.386  28.749  1.00  0.00    -0.205 F 
ATOM     66  C   UNL A   1      42.855  24.547  25.543  1.00  0.00     0.022 A 
BRANCH  64  67
ATOM     67  S   UNL A   1      41.892  22.246  26.662  1.00  0.00     0.127 S 
ATOM     68  O   UNL A   1      42.469  21.849  25.377  1.00  0.00    -0.237 OA
ATOM     69  O   UNL A   1      42.661  21.820  27.832  1.00  0.00    -0.237 OA
ATOM     70  O   UNL A   1      40.452  22.066  26.778  1.00  0.00    -0.744 OA
ENDBRANCH  64  67
ENDBRANCH  46  60
BRANCH  47  71
ATOM     71  C   UNL A   1      39.160  31.972  35.257  1.00  0.00     0.023 A 
ATOM     72  C   UNL A   1      38.314  31.399  36.226  1.00  0.00     0.012 A 
ATOM     73  C   UNL A   1      39.642  33.281  35.444  1.00  0.00     0.148 A 
ATOM     74  C   UNL A   1      37.955  32.118  37.367  1.00  0.00     0.002 A 
ATOM     75  C   UNL A   1      39.309  33.978  36.601  1.00  0.00     0.091 A 
ATOM     76  F   UNL A   1      40.455  33.796  34.511  1.00  0.00    -0.205 F 
ATOM     77  C   UNL A   1      38.459  33.401  37.558  1.00  0.00     0.022 A 
BRANCH  75  78
ATOM     78  S   UNL A   1      39.991  35.593  36.995  1.00  0.00     0.127 S 
ATOM     79  O   UNL A   1      39.310  35.908  38.249  1.00  0.00    -0.237 OA
ATOM     80  O   UNL A   1      41.416  35.286  37.127  1.00  0.00    -0.237 OA
ATOM     81  O   UNL A   1      39.652  36.454  35.871  1.00  0.00    -0.744 OA
ENDBRANCH  75  78
ENDBRANCH  47  71
BRANCH  59  82
ATOM     82  C   UNL A   1      44.952  28.261  33.892  1.00  0.00     0.023 A 
ATOM     83  C   UNL A   1      46.004  29.196  33.856  1.00  0.00     0.012 A 
ATOM     84  C   UNL A   1      45.025  27.160  34.767  1.00  0.00     0.148 A 
ATOM     85  C   UNL A   1      47.115  29.038  34.683  1.00  0.00     0.002 A 
ATOM     86  C   UNL A   1      46.120  27.028  35.613  1.00  0.00     0.091 A 
ATOM     87  F   UNL A   1      44.011  26.283  34.774  1.00  0.00    -0.205 F 
ATOM     88  C   UNL A   1      47.167  27.964  35.569  1.00  0.00     0.022 A 
BRANCH  86  89
ATOM     89  S   UNL A   1      46.237  25.729  36.848  1.00  0.00     0.127 S 
ATOM     90  O   UNL A   1      46.116  24.526  36.027  1.00  0.00    -0.237 OA
ATOM     91  O   UNL A   1      47.570  25.955  37.409  1.00  0.00    -0.237 OA
ATOM     92  O   UNL A   1      45.140  25.955  37.780  1.00  0.00    -0.744 OA
ENDBRANCH  86  89
ENDBRANCH  59  82
ENDBRANCH  33  34
ENDBRANCH  25  28
ENDBRANCH   1  24
TORSDOF 14
ENDMDL
