MODEL 1
REMARK VINA RESULT:     -11.5      0.000      0.000
REMARK SMILES CC(=O)[C@]1(C)CC[C@@H](C(=O)NCCCNC(=O)c2ccc(-c3c4nc(c(-c5cccc(S(=O)(=O)[O-])c5F)c5ccc([nH]5)c(-c5cccc(S(=O)(=O)[O-])c5F)c5nc(c(-c6cccc(S(=O)(=O)[O-])c6F)c6ccc3[nH]6)C=C5)C=C4)cc2)C1(C)C
REMARK SMILES IDX 14 1 13 2 12 3 11 4 9 5 10 6 8 8 4 9 6 10 81 11 5 12 7 13
REMARK SMILES IDX 82 14 83 15 2 16 1 17 3 18 15 19 16 20 17 22 18 23 19 24
REMARK SMILES IDX 80 25 20 26 79 27 21 28 22 29 23 30 73 31 24 32 78 33 72 34
REMARK SMILES IDX 74 35 25 36 77 37 71 38 70 39 26 41 58 42 38 43 57 44 39 45
REMARK SMILES IDX 42 46 56 47 75 48 40 49 41 50 55 52 76 53 43 54 27 55 28 56
REMARK SMILES IDX 36 57 29 58 31 59 37 60 30 61 32 62 33 63 34 64 35 65 59 66
REMARK SMILES IDX 60 67 68 68 61 69 63 70 69 71 62 72 64 73 65 74 66 75 67 76
REMARK SMILES IDX 44 77 45 78 53 79 46 80 48 81 54 82 47 83 49 84 50 85 51 86
REMARK SMILES IDX 52 87
REMARK H PARENT 11 7 15 21 74 40 42 51
REMARK Flexibility Score: inf
ROOT
ATOM      1  C   UNL A   1      33.506  28.567  26.858  1.00  0.00     0.118 C 
ENDROOT
BRANCH   1   2
ATOM      2  C   UNL A   1      32.154  27.978  27.220  1.00  0.00     0.042 C 
BRANCH   2   3
ATOM      3  C   UNL A   1      31.465  27.272  26.062  1.00  0.00     0.117 C 
BRANCH   3   4
ATOM      4  N   UNL A   1      30.641  26.153  26.472  1.00  0.00    -0.356 N 
ATOM      5  C   UNL A   1      30.815  24.813  26.432  1.00  0.00     0.223 C 
ATOM      6  O   UNL A   1      29.888  24.136  26.896  1.00  0.00    -0.275 OA
ATOM      7  H   UNL A   1      29.779  26.424  26.861  1.00  0.00     0.163 HD
BRANCH   5   8
ATOM      8  C   UNL A   1      32.043  24.097  25.858  1.00  0.00     0.085 C 
ATOM      9  C   UNL A   1      33.622  24.548  23.930  1.00  0.00     0.032 C 
ATOM     10  C   UNL A   1      34.178  25.122  25.272  1.00  0.00     0.016 C 
ATOM     11  C   UNL A   1      32.191  23.925  24.309  1.00  0.00    -0.012 C 
ATOM     12  C   UNL A   1      33.518  25.727  22.928  1.00  0.00     0.020 C 
ATOM     13  C   UNL A   1      33.389  24.515  26.412  1.00  0.00     0.015 C 
ATOM     14  C   UNL A   1      31.004  24.554  23.542  1.00  0.00     0.013 C 
ATOM     15  C   UNL A   1      32.028  22.413  24.031  1.00  0.00     0.013 C 
BRANCH   9  16
ATOM     16  C   UNL A   1      34.780  23.679  23.339  1.00  0.00     0.136 C 
ATOM     17  C   UNL A   1      35.957  23.249  24.160  1.00  0.00     0.088 C 
ATOM     18  O   UNL A   1      34.710  23.239  22.183  1.00  0.00    -0.299 OA
ENDBRANCH   9  16
ENDBRANCH   5   8
ENDBRANCH   3   4
ENDBRANCH   2   3
ENDBRANCH   1   2
BRANCH   1  19
ATOM     19  N   UNL A   1      33.517  30.013  27.006  1.00  0.00    -0.352 N 
ATOM     20  C   UNL A   1      34.392  30.803  27.714  1.00  0.00     0.251 C 
ATOM     21  H   UNL A   1      32.799  30.493  26.534  1.00  0.00     0.163 HD
ATOM     22  O   UNL A   1      34.092  31.967  27.961  1.00  0.00    -0.269 OA
BRANCH  20  23
ATOM     23  C   UNL A   1      35.682  30.248  28.185  1.00  0.00     0.039 A 
ATOM     24  C   UNL A   1      36.795  30.290  27.340  1.00  0.00     0.014 A 
ATOM     25  C   UNL A   1      35.792  29.659  29.447  1.00  0.00     0.014 A 
ATOM     26  C   UNL A   1      38.021  29.781  27.780  1.00  0.00     0.010 A 
ATOM     27  C   UNL A   1      37.033  29.255  29.922  1.00  0.00     0.010 A 
ATOM     28  C   UNL A   1      38.156  29.278  29.085  1.00  0.00    -0.014 A 
BRANCH  28  29
ATOM     29  C   UNL A   1      39.446  28.736  29.585  1.00  0.00     0.031 A 
ATOM     30  C   UNL A   1      40.167  29.425  30.715  1.00  0.00     0.074 A 
ATOM     31  C   UNL A   1      40.022  27.690  28.962  1.00  0.00     0.049 A 
ATOM     32  N   UNL A   1      41.332  29.150  31.241  1.00  0.00    -0.248 NA
ATOM     33  C   UNL A   1      39.510  30.604  31.305  1.00  0.00     0.031 C 
ATOM     34  C   UNL A   1      39.480  26.999  27.791  1.00  0.00     0.029 A 
ATOM     35  N   UNL A   1      41.210  27.047  29.207  1.00  0.00    -0.354 N 
ATOM     36  C   UNL A   1      41.572  30.150  32.176  1.00  0.00     0.074 A 
ATOM     37  C   UNL A   1      40.450  31.059  32.119  1.00  0.00     0.031 C 
ATOM     38  C   UNL A   1      40.331  26.031  27.419  1.00  0.00     0.029 A 
ATOM     39  C   UNL A   1      41.491  26.047  28.307  1.00  0.00     0.049 A 
ATOM     40  H   UNL A   1      41.805  27.280  29.956  1.00  0.00     0.167 HD
ATOM     41  C   UNL A   1      42.612  30.283  33.035  1.00  0.00     0.034 A 
ATOM     42  C   UNL A   1      42.562  25.236  28.203  1.00  0.00     0.034 A 
ATOM     43  C   UNL A   1      43.689  29.338  33.139  1.00  0.00     0.049 A 
ATOM     44  C   UNL A   1      43.663  25.341  29.222  1.00  0.00     0.074 A 
ATOM     45  C   UNL A   1      44.720  29.306  34.060  1.00  0.00     0.029 A 
ATOM     46  N   UNL A   1      43.879  28.260  32.287  1.00  0.00    -0.354 N 
ATOM     47  N   UNL A   1      43.780  26.179  30.224  1.00  0.00    -0.248 NA
ATOM     48  C   UNL A   1      44.757  24.365  29.124  1.00  0.00     0.031 C 
ATOM     49  C   UNL A   1      45.546  28.218  33.753  1.00  0.00     0.029 A 
ATOM     50  C   UNL A   1      45.016  27.562  32.652  1.00  0.00     0.049 A 
ATOM     51  H   UNL A   1      43.290  28.027  31.533  1.00  0.00     0.167 HD
ATOM     52  C   UNL A   1      44.944  25.817  30.891  1.00  0.00     0.074 A 
ATOM     53  C   UNL A   1      45.484  24.668  30.193  1.00  0.00     0.031 C 
ATOM     54  C   UNL A   1      45.521  26.393  31.976  1.00  0.00     0.034 A 
BRANCH  41  55
ATOM     55  C   UNL A   1      42.596  31.467  33.967  1.00  0.00     0.023 A 
ATOM     56  C   UNL A   1      43.181  32.685  33.560  1.00  0.00     0.012 A 
ATOM     57  C   UNL A   1      41.986  31.387  35.234  1.00  0.00     0.148 A 
ATOM     58  C   UNL A   1      43.205  33.785  34.416  1.00  0.00     0.002 A 
ATOM     59  C   UNL A   1      41.971  32.504  36.063  1.00  0.00     0.091 A 
ATOM     60  F   UNL A   1      41.456  30.217  35.618  1.00  0.00    -0.205 F 
ATOM     61  C   UNL A   1      42.593  33.698  35.662  1.00  0.00     0.022 A 
BRANCH  59  62
ATOM     62  S   UNL A   1      41.133  32.507  37.652  1.00  0.00     0.127 S 
ATOM     63  O   UNL A   1      41.989  31.622  38.440  1.00  0.00    -0.237 OA
ATOM     64  O   UNL A   1      41.199  33.918  38.037  1.00  0.00    -0.237 OA
ATOM     65  O   UNL A   1      39.787  32.017  37.389  1.00  0.00    -0.744 OA
ENDBRANCH  59  62
ENDBRANCH  41  55
BRANCH  42  66
ATOM     66  C   UNL A   1      42.593  24.205  27.128  1.00  0.00     0.023 A 
ATOM     67  C   UNL A   1      43.319  24.459  25.948  1.00  0.00     0.012 A 
ATOM     68  C   UNL A   1      41.977  22.950  27.301  1.00  0.00     0.148 A 
ATOM     69  C   UNL A   1      43.419  23.486  24.953  1.00  0.00     0.002 A 
ATOM     70  C   UNL A   1      42.126  21.967  26.331  1.00  0.00     0.091 A 
ATOM     71  F   UNL A   1      41.286  22.735  28.429  1.00  0.00    -0.205 F 
ATOM     72  C   UNL A   1      42.835  22.238  25.149  1.00  0.00     0.022 A 
BRANCH  70  73
ATOM     73  S   UNL A   1      41.532  20.286  26.556  1.00  0.00     0.127 S 
ATOM     74  O   UNL A   1      40.084  20.472  26.513  1.00  0.00    -0.237 OA
ATOM     75  O   UNL A   1      42.104  19.607  25.395  1.00  0.00    -0.237 OA
ATOM     76  O   UNL A   1      42.073  19.845  27.837  1.00  0.00    -0.744 OA
ENDBRANCH  70  73
ENDBRANCH  42  66
BRANCH  54  77
ATOM     77  C   UNL A   1      46.797  25.787  32.496  1.00  0.00     0.023 A 
ATOM     78  C   UNL A   1      48.037  26.253  32.017  1.00  0.00     0.012 A 
ATOM     79  C   UNL A   1      46.769  24.818  33.519  1.00  0.00     0.148 A 
ATOM     80  C   UNL A   1      49.230  25.745  32.528  1.00  0.00     0.002 A 
ATOM     81  C   UNL A   1      47.963  24.351  34.056  1.00  0.00     0.091 A 
ATOM     82  F   UNL A   1      45.580  24.373  33.947  1.00  0.00    -0.205 F 
ATOM     83  C   UNL A   1      49.194  24.805  33.555  1.00  0.00     0.022 A 
BRANCH  81  84
ATOM     84  S   UNL A   1      48.009  23.213  35.446  1.00  0.00     0.127 S 
ATOM     85  O   UNL A   1      49.442  23.148  35.730  1.00  0.00    -0.237 OA
ATOM     86  O   UNL A   1      47.220  23.920  36.455  1.00  0.00    -0.237 OA
ATOM     87  O   UNL A   1      47.407  21.975  34.970  1.00  0.00    -0.744 OA
ENDBRANCH  81  84
ENDBRANCH  54  77
ENDBRANCH  28  29
ENDBRANCH  20  23
ENDBRANCH   1  19
TORSDOF 14
ENDMDL
MODEL 2
REMARK VINA RESULT:     -11.5      3.358      6.347
REMARK SMILES CC(=O)[C@]1(C)CC[C@@H](C(=O)NCCCNC(=O)c2ccc(-c3c4nc(c(-c5cccc(S(=O)(=O)[O-])c5F)c5ccc([nH]5)c(-c5cccc(S(=O)(=O)[O-])c5F)c5nc(c(-c6cccc(S(=O)(=O)[O-])c6F)c6ccc3[nH]6)C=C5)C=C4)cc2)C1(C)C
REMARK SMILES IDX 14 1 13 2 12 3 11 4 9 5 10 6 8 8 4 9 6 10 81 11 5 12 7 13
REMARK SMILES IDX 82 14 83 15 2 16 1 17 3 18 15 19 16 20 17 22 18 23 19 24
REMARK SMILES IDX 80 25 20 26 79 27 21 28 22 29 23 30 73 31 24 32 78 33 72 34
REMARK SMILES IDX 74 35 25 36 77 37 71 38 70 39 26 41 58 42 38 43 57 44 39 45
REMARK SMILES IDX 42 46 56 47 75 48 40 49 41 50 55 52 76 53 43 54 27 55 28 56
REMARK SMILES IDX 36 57 29 58 31 59 37 60 30 61 32 62 33 63 34 64 35 65 59 66
REMARK SMILES IDX 60 67 68 68 61 69 63 70 69 71 62 72 64 73 65 74 66 75 67 76
REMARK SMILES IDX 44 77 45 78 53 79 46 80 48 81 54 82 47 83 49 84 50 85 51 86
REMARK SMILES IDX 52 87
REMARK H PARENT 11 7 15 21 74 40 42 51
REMARK Flexibility Score: inf
ROOT
ATOM      1  C   UNL A   1      34.942  33.286  28.736  1.00  0.00     0.118 C 
ENDROOT
BRANCH   1   2
ATOM      2  C   UNL A   1      34.219  33.921  29.910  1.00  0.00     0.042 C 
BRANCH   2   3
ATOM      3  C   UNL A   1      35.151  34.559  30.930  1.00  0.00     0.117 C 
BRANCH   3   4
ATOM      4  N   UNL A   1      36.543  34.199  30.749  1.00  0.00    -0.356 N 
ATOM      5  C   UNL A   1      37.583  34.068  31.603  1.00  0.00     0.223 C 
ATOM      6  O   UNL A   1      38.656  33.720  31.094  1.00  0.00    -0.275 OA
ATOM      7  H   UNL A   1      36.780  34.010  29.813  1.00  0.00     0.163 HD
BRANCH   5   8
ATOM      8  C   UNL A   1      37.524  34.323  33.113  1.00  0.00     0.085 C 
ATOM      9  C   UNL A   1      37.868  32.888  35.172  1.00  0.00     0.032 C 
ATOM     10  C   UNL A   1      39.179  33.632  34.767  1.00  0.00     0.016 C 
ATOM     11  C   UNL A   1      36.796  33.300  34.048  1.00  0.00    -0.012 C 
ATOM     12  C   UNL A   1      38.178  31.369  35.177  1.00  0.00     0.020 C 
ATOM     13  C   UNL A   1      38.823  34.724  33.782  1.00  0.00     0.015 C 
ATOM     14  C   UNL A   1      36.217  32.104  33.256  1.00  0.00     0.013 C 
ATOM     15  C   UNL A   1      35.532  34.023  34.568  1.00  0.00     0.013 C 
BRANCH   9  16
ATOM     16  C   UNL A   1      37.656  33.214  36.686  1.00  0.00     0.136 C 
ATOM     17  C   UNL A   1      38.524  34.187  37.425  1.00  0.00     0.088 C 
ATOM     18  O   UNL A   1      36.692  32.740  37.304  1.00  0.00    -0.299 OA
ENDBRANCH   9  16
ENDBRANCH   5   8
ENDBRANCH   3   4
ENDBRANCH   2   3
ENDBRANCH   1   2
BRANCH   1  19
ATOM     19  N   UNL A   1      34.129  32.264  28.097  1.00  0.00    -0.352 N 
ATOM     20  C   UNL A   1      34.483  30.991  27.716  1.00  0.00     0.251 C 
ATOM     21  H   UNL A   1      33.196  32.518  27.912  1.00  0.00     0.163 HD
ATOM     22  O   UNL A   1      33.761  30.369  26.943  1.00  0.00    -0.269 OA
BRANCH  20  23
ATOM     23  C   UNL A   1      35.732  30.381  28.227  1.00  0.00     0.039 A 
ATOM     24  C   UNL A   1      36.896  30.455  27.457  1.00  0.00     0.014 A 
ATOM     25  C   UNL A   1      35.752  29.709  29.452  1.00  0.00     0.014 A 
ATOM     26  C   UNL A   1      38.084  29.893  27.937  1.00  0.00     0.010 A 
ATOM     27  C   UNL A   1      36.955  29.248  29.974  1.00  0.00     0.010 A 
ATOM     28  C   UNL A   1      38.128  29.303  29.210  1.00  0.00    -0.014 A 
BRANCH  28  29
ATOM     29  C   UNL A   1      39.375  28.703  29.752  1.00  0.00     0.031 A 
ATOM     30  C   UNL A   1      40.044  29.311  30.958  1.00  0.00     0.074 A 
ATOM     31  C   UNL A   1      39.963  27.678  29.105  1.00  0.00     0.049 A 
ATOM     32  N   UNL A   1      41.171  28.979  31.532  1.00  0.00    -0.248 NA
ATOM     33  C   UNL A   1      39.379  30.472  31.574  1.00  0.00     0.031 C 
ATOM     34  C   UNL A   1      39.475  27.066  27.869  1.00  0.00     0.029 A 
ATOM     35  N   UNL A   1      41.121  26.994  29.380  1.00  0.00    -0.354 N 
ATOM     36  C   UNL A   1      41.377  29.920  32.535  1.00  0.00     0.074 A 
ATOM     37  C   UNL A   1      40.280  30.858  32.465  1.00  0.00     0.031 C 
ATOM     38  C   UNL A   1      40.325  26.099  27.491  1.00  0.00     0.029 A 
ATOM     39  C   UNL A   1      41.432  26.038  28.443  1.00  0.00     0.049 A 
ATOM     40  H   UNL A   1      41.676  27.171  30.174  1.00  0.00     0.167 HD
ATOM     41  C   UNL A   1      42.368  29.980  33.456  1.00  0.00     0.034 A 
ATOM     42  C   UNL A   1      42.490  25.208  28.354  1.00  0.00     0.034 A 
ATOM     43  C   UNL A   1      43.417  29.005  33.568  1.00  0.00     0.049 A 
ATOM     44  C   UNL A   1      43.532  25.230  29.438  1.00  0.00     0.074 A 
ATOM     45  C   UNL A   1      44.392  28.897  34.543  1.00  0.00     0.029 A 
ATOM     46  N   UNL A   1      43.633  27.971  32.670  1.00  0.00    -0.354 N 
ATOM     47  N   UNL A   1      43.608  26.009  30.490  1.00  0.00    -0.248 NA
ATOM     48  C   UNL A   1      44.609  24.234  29.348  1.00  0.00     0.031 C 
ATOM     49  C   UNL A   1      45.211  27.807  34.223  1.00  0.00     0.029 A 
ATOM     50  C   UNL A   1      44.732  27.226  33.059  1.00  0.00     0.049 A 
ATOM     51  H   UNL A   1      43.084  27.794  31.871  1.00  0.00     0.167 HD
ATOM     52  C   UNL A   1      44.724  25.582  31.201  1.00  0.00     0.074 A 
ATOM     53  C   UNL A   1      45.279  24.460  30.472  1.00  0.00     0.031 C 
ATOM     54  C   UNL A   1      45.249  26.083  32.347  1.00  0.00     0.034 A 
BRANCH  41  55
ATOM     55  C   UNL A   1      42.324  31.111  34.452  1.00  0.00     0.023 A 
ATOM     56  C   UNL A   1      41.796  30.887  35.741  1.00  0.00     0.012 A 
ATOM     57  C   UNL A   1      42.822  32.387  34.125  1.00  0.00     0.148 A 
ATOM     58  C   UNL A   1      41.717  31.923  36.670  1.00  0.00     0.002 A 
ATOM     59  C   UNL A   1      42.784  33.404  35.073  1.00  0.00     0.091 A 
ATOM     60  F   UNL A   1      43.298  32.593  32.889  1.00  0.00    -0.205 F 
ATOM     61  C   UNL A   1      42.220  33.179  36.339  1.00  0.00     0.022 A 
BRANCH  59  62
ATOM     62  S   UNL A   1      43.484  35.030  34.764  1.00  0.00     0.127 S 
ATOM     63  O   UNL A   1      42.596  35.540  33.721  1.00  0.00    -0.237 OA
ATOM     64  O   UNL A   1      43.336  35.686  36.064  1.00  0.00    -0.237 OA
ATOM     65  O   UNL A   1      44.863  34.796  34.362  1.00  0.00    -0.744 OA
ENDBRANCH  59  62
ENDBRANCH  41  55
BRANCH  42  66
ATOM     66  C   UNL A   1      42.560  24.237  27.226  1.00  0.00     0.023 A 
ATOM     67  C   UNL A   1      43.315  24.561  26.082  1.00  0.00     0.012 A 
ATOM     68  C   UNL A   1      41.955  22.968  27.315  1.00  0.00     0.148 A 
ATOM     69  C   UNL A   1      43.452  23.645  25.040  1.00  0.00     0.002 A 
ATOM     70  C   UNL A   1      42.140  22.041  26.298  1.00  0.00     0.091 A 
ATOM     71  F   UNL A   1      41.236  22.686  28.411  1.00  0.00    -0.205 F 
ATOM     72  C   UNL A   1      42.877  22.382  25.152  1.00  0.00     0.022 A 
BRANCH  70  73
ATOM     73  S   UNL A   1      41.559  20.345  26.417  1.00  0.00     0.127 S 
ATOM     74  O   UNL A   1      40.117  20.510  26.257  1.00  0.00    -0.237 OA
ATOM     75  O   UNL A   1      42.239  19.715  25.286  1.00  0.00    -0.237 OA
ATOM     76  O   UNL A   1      41.997  19.867  27.723  1.00  0.00    -0.744 OA
ENDBRANCH  70  73
ENDBRANCH  42  66
BRANCH  54  77
ATOM     77  C   UNL A   1      46.480  25.418  32.904  1.00  0.00     0.023 A 
ATOM     78  C   UNL A   1      47.753  25.931  32.588  1.00  0.00     0.012 A 
ATOM     79  C   UNL A   1      46.371  24.341  33.806  1.00  0.00     0.148 A 
ATOM     80  C   UNL A   1      48.901  25.364  33.140  1.00  0.00     0.002 A 
ATOM     81  C   UNL A   1      47.517  23.813  34.389  1.00  0.00     0.091 A 
ATOM     82  F   UNL A   1      45.151  23.856  34.080  1.00  0.00    -0.205 F 
ATOM     83  C   UNL A   1      48.783  24.315  34.049  1.00  0.00     0.022 A 
BRANCH  81  84
ATOM     84  S   UNL A   1      47.451  22.527  35.643  1.00  0.00     0.127 S 
ATOM     85  O   UNL A   1      47.313  21.322  34.825  1.00  0.00    -0.237 OA
ATOM     86  O   UNL A   1      48.748  22.669  36.305  1.00  0.00    -0.237 OA
ATOM     87  O   UNL A   1      46.306  22.848  36.485  1.00  0.00    -0.744 OA
ENDBRANCH  81  84
ENDBRANCH  54  77
ENDBRANCH  28  29
ENDBRANCH  20  23
ENDBRANCH   1  19
TORSDOF 14
ENDMDL
MODEL 3
REMARK VINA RESULT:     -11.4      0.906      1.554
REMARK SMILES CC(=O)[C@]1(C)CC[C@@H](C(=O)NCCCNC(=O)c2ccc(-c3c4nc(c(-c5cccc(S(=O)(=O)[O-])c5F)c5ccc([nH]5)c(-c5cccc(S(=O)(=O)[O-])c5F)c5nc(c(-c6cccc(S(=O)(=O)[O-])c6F)c6ccc3[nH]6)C=C5)C=C4)cc2)C1(C)C
REMARK SMILES IDX 14 1 13 2 12 3 11 4 9 5 10 6 8 8 4 9 6 10 81 11 5 12 7 13
REMARK SMILES IDX 82 14 83 15 2 16 1 17 3 18 15 19 16 20 17 22 18 23 19 24
REMARK SMILES IDX 80 25 20 26 79 27 21 28 22 29 23 30 73 31 24 32 78 33 72 34
REMARK SMILES IDX 74 35 25 36 77 37 71 38 70 39 26 41 58 42 38 43 57 44 39 45
REMARK SMILES IDX 42 46 56 47 75 48 40 49 41 50 55 52 76 53 43 54 27 55 28 56
REMARK SMILES IDX 36 57 29 58 31 59 37 60 30 61 32 62 33 63 34 64 35 65 59 66
REMARK SMILES IDX 60 67 68 68 61 69 63 70 69 71 62 72 64 73 65 74 66 75 67 76
REMARK SMILES IDX 44 77 45 78 53 79 46 80 48 81 54 82 47 83 49 84 50 85 51 86
REMARK SMILES IDX 52 87
REMARK H PARENT 11 7 15 21 74 40 42 51
REMARK Flexibility Score: inf
ROOT
ATOM      1  C   UNL A   1      34.014  28.850  26.102  1.00  0.00     0.118 C 
ENDROOT
BRANCH   1   2
ATOM      2  C   UNL A   1      33.020  27.904  26.752  1.00  0.00     0.042 C 
BRANCH   2   3
ATOM      3  C   UNL A   1      32.063  27.249  25.766  1.00  0.00     0.117 C 
BRANCH   3   4
ATOM      4  N   UNL A   1      32.637  27.043  24.452  1.00  0.00    -0.356 N 
ATOM      5  C   UNL A   1      33.231  25.983  23.858  1.00  0.00     0.223 C 
ATOM      6  O   UNL A   1      33.597  26.157  22.689  1.00  0.00    -0.275 OA
ATOM      7  H   UNL A   1      32.583  27.836  23.872  1.00  0.00     0.163 HD
BRANCH   5   8
ATOM      8  C   UNL A   1      33.482  24.624  24.521  1.00  0.00     0.085 C 
ATOM      9  C   UNL A   1      32.942  22.225  23.914  1.00  0.00     0.032 C 
ATOM     10  C   UNL A   1      34.375  22.626  23.443  1.00  0.00     0.016 C 
ATOM     11  C   UNL A   1      32.335  23.559  24.572  1.00  0.00    -0.012 C 
ATOM     12  C   UNL A   1      32.153  21.761  22.661  1.00  0.00     0.020 C 
ATOM     13  C   UNL A   1      34.763  23.911  24.140  1.00  0.00     0.015 C 
ATOM     14  C   UNL A   1      31.043  24.069  23.892  1.00  0.00     0.013 C 
ATOM     15  C   UNL A   1      31.928  23.442  26.059  1.00  0.00     0.013 C 
BRANCH   9  16
ATOM     16  C   UNL A   1      33.127  20.904  24.728  1.00  0.00     0.136 C 
ATOM     17  C   UNL A   1      34.447  20.501  25.312  1.00  0.00     0.088 C 
ATOM     18  O   UNL A   1      32.152  20.186  24.995  1.00  0.00    -0.299 OA
ENDBRANCH   9  16
ENDBRANCH   5   8
ENDBRANCH   3   4
ENDBRANCH   2   3
ENDBRANCH   1   2
BRANCH   1  19
ATOM     19  N   UNL A   1      33.833  30.216  26.563  1.00  0.00    -0.352 N 
ATOM     20  C   UNL A   1      34.508  30.891  27.552  1.00  0.00     0.251 C 
ATOM     21  H   UNL A   1      33.130  30.730  26.102  1.00  0.00     0.163 HD
ATOM     22  O   UNL A   1      34.043  31.935  27.999  1.00  0.00    -0.269 OA
BRANCH  20  23
ATOM     23  C   UNL A   1      35.783  30.354  28.083  1.00  0.00     0.039 A 
ATOM     24  C   UNL A   1      35.790  29.701  29.319  1.00  0.00     0.014 A 
ATOM     25  C   UNL A   1      36.978  30.520  27.379  1.00  0.00     0.014 A 
ATOM     26  C   UNL A   1      36.986  29.180  29.822  1.00  0.00     0.010 A 
ATOM     27  C   UNL A   1      38.142  29.907  27.828  1.00  0.00     0.010 A 
ATOM     28  C   UNL A   1      38.170  29.259  29.071  1.00  0.00    -0.014 A 
BRANCH  28  29
ATOM     29  C   UNL A   1      39.455  28.711  29.574  1.00  0.00     0.031 A 
ATOM     30  C   UNL A   1      40.177  29.397  30.705  1.00  0.00     0.074 A 
ATOM     31  C   UNL A   1      40.027  27.661  28.953  1.00  0.00     0.049 A 
ATOM     32  N   UNL A   1      41.340  29.116  31.234  1.00  0.00    -0.248 NA
ATOM     33  C   UNL A   1      39.525  30.579  31.293  1.00  0.00     0.031 C 
ATOM     34  C   UNL A   1      39.484  26.973  27.781  1.00  0.00     0.029 A 
ATOM     35  N   UNL A   1      41.212  27.013  29.200  1.00  0.00    -0.354 N 
ATOM     36  C   UNL A   1      41.582  30.115  32.170  1.00  0.00     0.074 A 
ATOM     37  C   UNL A   1      40.465  31.030  32.109  1.00  0.00     0.031 C 
ATOM     38  C   UNL A   1      40.332  26.000  27.411  1.00  0.00     0.029 A 
ATOM     39  C   UNL A   1      41.489  26.011  28.301  1.00  0.00     0.049 A 
ATOM     40  H   UNL A   1      41.806  27.243  29.950  1.00  0.00     0.167 HD
ATOM     41  C   UNL A   1      42.621  30.243  33.030  1.00  0.00     0.034 A 
ATOM     42  C   UNL A   1      42.557  25.195  28.199  1.00  0.00     0.034 A 
ATOM     43  C   UNL A   1      43.694  29.293  33.137  1.00  0.00     0.049 A 
ATOM     44  C   UNL A   1      43.656  25.295  29.221  1.00  0.00     0.074 A 
ATOM     45  C   UNL A   1      44.722  29.256  34.061  1.00  0.00     0.029 A 
ATOM     46  N   UNL A   1      43.880  28.214  32.286  1.00  0.00    -0.354 N 
ATOM     47  N   UNL A   1      43.775  26.133  30.223  1.00  0.00    -0.248 NA
ATOM     48  C   UNL A   1      44.746  24.313  29.126  1.00  0.00     0.031 C 
ATOM     49  C   UNL A   1      45.543  28.164  33.755  1.00  0.00     0.029 A 
ATOM     50  C   UNL A   1      45.013  27.510  32.654  1.00  0.00     0.049 A 
ATOM     51  H   UNL A   1      43.292  27.983  31.530  1.00  0.00     0.167 HD
ATOM     52  C   UNL A   1      44.935  25.765  30.893  1.00  0.00     0.074 A 
ATOM     53  C   UNL A   1      45.472  24.613  30.196  1.00  0.00     0.031 C 
ATOM     54  C   UNL A   1      45.513  26.338  31.979  1.00  0.00     0.034 A 
BRANCH  41  55
ATOM     55  C   UNL A   1      42.609  31.428  33.962  1.00  0.00     0.023 A 
ATOM     56  C   UNL A   1      43.189  32.646  33.551  1.00  0.00     0.012 A 
ATOM     57  C   UNL A   1      42.008  31.346  35.233  1.00  0.00     0.148 A 
ATOM     58  C   UNL A   1      43.217  33.747  34.405  1.00  0.00     0.002 A 
ATOM     59  C   UNL A   1      41.997  32.463  36.062  1.00  0.00     0.091 A 
ATOM     60  F   UNL A   1      41.483  30.175  35.621  1.00  0.00    -0.205 F 
ATOM     61  C   UNL A   1      42.613  33.659  35.656  1.00  0.00     0.022 A 
BRANCH  59  62
ATOM     62  S   UNL A   1      41.170  32.465  37.657  1.00  0.00     0.127 S 
ATOM     63  O   UNL A   1      41.211  33.883  38.009  1.00  0.00    -0.237 OA
ATOM     64  O   UNL A   1      39.837  31.962  37.317  1.00  0.00    -0.237 OA
ATOM     65  O   UNL A   1      41.949  31.578  38.507  1.00  0.00    -0.744 OA
ENDBRANCH  59  62
ENDBRANCH  41  55
BRANCH  42  66
ATOM     66  C   UNL A   1      42.584  24.164  27.125  1.00  0.00     0.023 A 
ATOM     67  C   UNL A   1      43.333  24.404  25.956  1.00  0.00     0.012 A 
ATOM     68  C   UNL A   1      41.944  22.920  27.288  1.00  0.00     0.148 A 
ATOM     69  C   UNL A   1      43.431  23.429  24.963  1.00  0.00     0.002 A 
ATOM     70  C   UNL A   1      42.089  21.935  26.321  1.00  0.00     0.091 A 
ATOM     71  F   UNL A   1      41.231  22.718  28.406  1.00  0.00    -0.205 F 
ATOM     72  C   UNL A   1      42.820  22.192  25.149  1.00  0.00     0.022 A 
BRANCH  70  73
ATOM     73  S   UNL A   1      41.460  20.265  26.537  1.00  0.00     0.127 S 
ATOM     74  O   UNL A   1      40.017  20.479  26.485  1.00  0.00    -0.237 OA
ATOM     75  O   UNL A   1      42.026  19.579  25.376  1.00  0.00    -0.237 OA
ATOM     76  O   UNL A   1      41.984  19.809  27.819  1.00  0.00    -0.744 OA
ENDBRANCH  70  73
ENDBRANCH  42  66
BRANCH  54  77
ATOM     77  C   UNL A   1      46.785  25.726  32.502  1.00  0.00     0.023 A 
ATOM     78  C   UNL A   1      48.028  26.178  32.017  1.00  0.00     0.012 A 
ATOM     79  C   UNL A   1      46.751  24.765  33.532  1.00  0.00     0.148 A 
ATOM     80  C   UNL A   1      49.217  25.664  32.530  1.00  0.00     0.002 A 
ATOM     81  C   UNL A   1      47.942  24.293  34.072  1.00  0.00     0.091 A 
ATOM     82  F   UNL A   1      45.559  24.334  33.967  1.00  0.00    -0.205 F 
ATOM     83  C   UNL A   1      49.176  24.733  33.565  1.00  0.00     0.022 A 
BRANCH  81  84
ATOM     84  S   UNL A   1      47.981  23.166  35.471  1.00  0.00     0.127 S 
ATOM     85  O   UNL A   1      49.418  23.043  35.714  1.00  0.00    -0.237 OA
ATOM     86  O   UNL A   1      47.253  23.915  36.496  1.00  0.00    -0.237 OA
ATOM     87  O   UNL A   1      47.313  21.951  35.024  1.00  0.00    -0.744 OA
ENDBRANCH  81  84
ENDBRANCH  54  77
ENDBRANCH  28  29
ENDBRANCH  20  23
ENDBRANCH   1  19
TORSDOF 14
ENDMDL
