MODEL 1
REMARK VINA RESULT:     -11.9      0.000      0.000
REMARK SMILES O=C(COc1nc(NCc2cccc(Cl)c2)nc2c1CCC2)NCCCNC(=O)c1ccc(-c2c3nc(c(-c4cccc(S(=O)(=O)[O-])c4F)c4ccc([nH]4)c(-c4cccc(S(=O)(=O)[O-])c4F)c4nc(c(-c5cccc(S(=O)(=O)[O-])c5F)c5ccc2[nH]5)C=C4)C=C3)cc1
REMARK SMILES IDX 24 1 23 2 1 3 2 4 3 6 4 7 5 8 6 9 19 10 7 11 18 12 20 13
REMARK SMILES IDX 17 14 22 15 21 16 8 17 9 19 10 20 11 21 16 22 12 23 14 24
REMARK SMILES IDX 13 25 15 26 25 27 26 28 27 29 28 30 29 32 30 33 31 34 92 35
REMARK SMILES IDX 32 36 91 37 33 38 34 39 35 40 85 41 36 42 90 43 84 44 86 45
REMARK SMILES IDX 37 46 89 47 83 48 82 49 38 51 70 52 50 53 69 54 51 55 54 56
REMARK SMILES IDX 68 57 87 58 52 59 53 60 67 62 88 63 55 64 39 65 40 66 48 67
REMARK SMILES IDX 41 68 43 69 49 70 42 71 44 72 45 73 46 74 47 75 71 76 72 77
REMARK SMILES IDX 80 78 73 79 75 80 81 81 74 82 76 83 77 84 78 85 79 86 56 87
REMARK SMILES IDX 57 88 65 89 58 90 60 91 66 92 59 93 61 94 62 95 63 96 64 97
REMARK H PARENT 23 5 8 18 27 31 86 50 54 61
REMARK Flexibility Score: inf
ROOT
ATOM      1  C   UNL A   1      31.394  30.876  26.524  1.00  0.00     0.117 C 
ENDROOT
BRANCH   1   2
ATOM      2  N   UNL A   1      32.156  30.273  25.453  1.00  0.00    -0.353 N 
ATOM      3  O   UNL A   1      33.635  29.143  26.806  1.00  0.00    -0.271 OA
ATOM      4  C   UNL A   1      33.188  29.390  25.688  1.00  0.00     0.258 C 
ATOM      5  H   UNL A   1      31.929  30.501  24.522  1.00  0.00     0.163 HD
BRANCH   4   6
ATOM      6  C   UNL A   1      33.808  28.794  24.418  1.00  0.00     0.331 C 
BRANCH   6   7
ATOM      7  O   UNL A   1      33.654  27.394  24.202  1.00  0.00    -0.467 OA
BRANCH   7   8
ATOM      8  C   UNL A   1      32.331  27.029  24.276  1.00  0.00     0.222 A 
ATOM      9  N   UNL A   1      31.457  27.635  23.455  1.00  0.00    -0.177 NA
ATOM     10  C   UNL A   1      31.969  26.017  25.109  1.00  0.00     0.036 A 
ATOM     11  C   UNL A   1      30.174  27.234  23.507  1.00  0.00     0.226 A 
ATOM     12  C   UNL A   1      30.637  25.688  25.097  1.00  0.00     0.053 A 
ATOM     13  C   UNL A   1      32.730  25.239  26.117  1.00  0.00     0.043 C 
ATOM     14  N   UNL A   1      29.718  26.268  24.320  1.00  0.00    -0.218 NA
ATOM     15  C   UNL A   1      30.334  24.642  26.130  1.00  0.00     0.057 C 
ATOM     16  C   UNL A   1      31.743  24.095  26.409  1.00  0.00     0.011 C 
BRANCH  11  17
ATOM     17  N   UNL A   1      29.317  27.896  22.678  1.00  0.00    -0.350 N 
ATOM     18  H   UNL A   1      29.497  27.880  21.710  1.00  0.00     0.164 HD
BRANCH  17  19
ATOM     19  C   UNL A   1      28.166  28.616  23.145  1.00  0.00     0.152 C 
BRANCH  19  20
ATOM     20  C   UNL A   1      28.294  30.088  22.824  1.00  0.00    -0.027 A 
ATOM     21  C   UNL A   1      28.759  30.993  23.790  1.00  0.00     0.005 A 
ATOM     22  C   UNL A   1      28.007  30.566  21.534  1.00  0.00     0.026 A 
ATOM     23  C   UNL A   1      28.919  32.346  23.480  1.00  0.00     0.002 A 
ATOM     24  C   UNL A   1      28.167  31.917  21.231  1.00  0.00     0.041 A 
ATOM     25  C   UNL A   1      28.621  32.809  22.199  1.00  0.00     0.020 A 
ATOM     26  Cl  UNL A   1      27.816  32.486  19.645  1.00  0.00    -0.084 Cl
ENDBRANCH  19  20
ENDBRANCH  17  19
ENDBRANCH  11  17
ENDBRANCH   7   8
ENDBRANCH   6   7
ENDBRANCH   4   6
ENDBRANCH   1   2
BRANCH   1  27
ATOM     27  C   UNL A   1      31.465  32.399  26.529  1.00  0.00     0.042 C 
BRANCH  27  28
ATOM     28  C   UNL A   1      32.749  32.973  27.122  1.00  0.00     0.118 C 
BRANCH  28  29
ATOM     29  N   UNL A   1      32.559  34.273  27.752  1.00  0.00    -0.352 N 
ATOM     30  C   UNL A   1      33.169  34.830  28.847  1.00  0.00     0.251 C 
ATOM     31  H   UNL A   1      31.883  34.844  27.323  1.00  0.00     0.163 HD
ATOM     32  O   UNL A   1      32.742  35.898  29.293  1.00  0.00    -0.269 OA
BRANCH  30  33
ATOM     33  C   UNL A   1      34.314  34.167  29.510  1.00  0.00     0.039 A 
ATOM     34  C   UNL A   1      35.607  34.448  29.058  1.00  0.00     0.014 A 
ATOM     35  C   UNL A   1      34.126  33.242  30.542  1.00  0.00     0.014 A 
ATOM     36  C   UNL A   1      36.710  33.853  29.677  1.00  0.00     0.010 A 
ATOM     37  C   UNL A   1      35.227  32.706  31.205  1.00  0.00     0.010 A 
ATOM     38  C   UNL A   1      36.531  32.998  30.777  1.00  0.00    -0.014 A 
BRANCH  38  39
ATOM     39  C   UNL A   1      37.692  32.399  31.486  1.00  0.00     0.031 A 
ATOM     40  C   UNL A   1      38.442  31.247  30.874  1.00  0.00     0.074 A 
ATOM     41  C   UNL A   1      38.030  32.846  32.711  1.00  0.00     0.049 A 
ATOM     42  N   UNL A   1      39.437  30.556  31.368  1.00  0.00    -0.248 NA
ATOM     43  C   UNL A   1      38.008  30.801  29.539  1.00  0.00     0.031 C 
ATOM     44  C   UNL A   1      37.350  33.923  33.435  1.00  0.00     0.029 A 
ATOM     45  N   UNL A   1      39.017  32.438  33.576  1.00  0.00    -0.354 N 
ATOM     46  C   UNL A   1      39.731  29.582  30.421  1.00  0.00     0.074 A 
ATOM     47  C   UNL A   1      38.784  29.745  29.339  1.00  0.00     0.031 C 
ATOM     48  C   UNL A   1      37.945  34.098  34.625  1.00  0.00     0.029 A 
ATOM     49  C   UNL A   1      39.024  33.124  34.768  1.00  0.00     0.049 A 
ATOM     50  H   UNL A   1      39.658  31.723  33.362  1.00  0.00     0.167 HD
ATOM     51  C   UNL A   1      40.720  28.657  30.433  1.00  0.00     0.034 A 
ATOM     52  C   UNL A   1      39.806  32.982  35.857  1.00  0.00     0.034 A 
ATOM     53  C   UNL A   1      41.682  28.519  31.494  1.00  0.00     0.049 A 
ATOM     54  C   UNL A   1      40.898  31.946  35.846  1.00  0.00     0.074 A 
ATOM     55  C   UNL A   1      42.757  27.651  31.570  1.00  0.00     0.029 A 
ATOM     56  N   UNL A   1      41.689  29.264  32.663  1.00  0.00    -0.354 N 
ATOM     57  N   UNL A   1      41.239  31.118  34.889  1.00  0.00    -0.248 NA
ATOM     58  C   UNL A   1      41.731  31.842  37.053  1.00  0.00     0.031 C 
ATOM     59  C   UNL A   1      43.396  27.851  32.796  1.00  0.00     0.029 A 
ATOM     60  C   UNL A   1      42.741  28.868  33.471  1.00  0.00     0.049 A 
ATOM     61  H   UNL A   1      41.040  29.971  32.886  1.00  0.00     0.167 HD
ATOM     62  C   UNL A   1      42.344  30.419  35.363  1.00  0.00     0.074 A 
ATOM     63  C   UNL A   1      42.630  30.940  36.684  1.00  0.00     0.031 C 
ATOM     64  C   UNL A   1      43.046  29.423  34.766  1.00  0.00     0.034 A 
BRANCH  51  65
ATOM     65  C   UNL A   1      40.858  27.754  29.233  1.00  0.00     0.023 A 
ATOM     66  C   UNL A   1      40.060  26.594  29.146  1.00  0.00     0.012 A 
ATOM     67  C   UNL A   1      41.698  28.094  28.155  1.00  0.00     0.148 A 
ATOM     68  C   UNL A   1      40.117  25.773  28.022  1.00  0.00     0.002 A 
ATOM     69  C   UNL A   1      41.714  27.297  27.017  1.00  0.00     0.091 A 
ATOM     70  F   UNL A   1      42.463  29.191  28.263  1.00  0.00    -0.205 F 
ATOM     71  C   UNL A   1      40.933  26.132  26.953  1.00  0.00     0.022 A 
BRANCH  69  72
ATOM     72  S   UNL A   1      42.662  27.715  25.549  1.00  0.00     0.127 S 
ATOM     73  O   UNL A   1      42.380  26.572  24.680  1.00  0.00    -0.237 OA
ATOM     74  O   UNL A   1      42.038  28.969  25.127  1.00  0.00    -0.237 OA
ATOM     75  O   UNL A   1      44.047  27.837  25.982  1.00  0.00    -0.744 OA
ENDBRANCH  69  72
ENDBRANCH  51  65
BRANCH  52  76
ATOM     76  C   UNL A   1      39.629  33.900  37.021  1.00  0.00     0.023 A 
ATOM     77  C   UNL A   1      40.016  35.250  36.896  1.00  0.00     0.012 A 
ATOM     78  C   UNL A   1      39.042  33.464  38.225  1.00  0.00     0.148 A 
ATOM     79  C   UNL A   1      39.841  36.141  37.954  1.00  0.00     0.002 A 
ATOM     80  C   UNL A   1      38.816  34.371  39.254  1.00  0.00     0.091 A 
ATOM     81  F   UNL A   1      38.693  32.173  38.328  1.00  0.00    -0.205 F 
ATOM     82  C   UNL A   1      39.231  35.706  39.127  1.00  0.00     0.022 A 
BRANCH  80  83
ATOM     83  S   UNL A   1      37.913  33.938  40.744  1.00  0.00     0.127 S 
ATOM     84  O   UNL A   1      36.741  33.257  40.196  1.00  0.00    -0.237 OA
ATOM     85  O   UNL A   1      38.867  33.066  41.429  1.00  0.00    -0.237 OA
ATOM     86  O   UNL A   1      37.646  35.196  41.426  1.00  0.00    -0.744 OA
ENDBRANCH  80  83
ENDBRANCH  52  76
BRANCH  64  87
ATOM     87  C   UNL A   1      44.209  28.828  35.521  1.00  0.00     0.023 A 
ATOM     88  C   UNL A   1      45.495  29.385  35.373  1.00  0.00     0.012 A 
ATOM     89  C   UNL A   1      44.011  27.788  36.451  1.00  0.00     0.148 A 
ATOM     90  C   UNL A   1      46.570  28.897  36.114  1.00  0.00     0.002 A 
ATOM     91  C   UNL A   1      45.077  27.342  37.225  1.00  0.00     0.091 A 
ATOM     92  F   UNL A   1      42.785  27.259  36.568  1.00  0.00    -0.205 F 
ATOM     93  C   UNL A   1      46.359  27.887  37.049  1.00  0.00     0.022 A 
BRANCH  91  94
ATOM     94  S   UNL A   1      44.880  26.124  38.531  1.00  0.00     0.127 S 
ATOM     95  O   UNL A   1      46.270  25.764  38.813  1.00  0.00    -0.237 OA
ATOM     96  O   UNL A   1      44.226  26.900  39.584  1.00  0.00    -0.237 OA
ATOM     97  O   UNL A   1      44.063  25.058  37.967  1.00  0.00    -0.744 OA
ENDBRANCH  91  94
ENDBRANCH  64  87
ENDBRANCH  38  39
ENDBRANCH  30  33
ENDBRANCH  28  29
ENDBRANCH  27  28
ENDBRANCH   1  27
TORSDOF 18
ENDMDL
MODEL 2
REMARK VINA RESULT:     -11.7      0.920      7.698
REMARK SMILES O=C(COc1nc(NCc2cccc(Cl)c2)nc2c1CCC2)NCCCNC(=O)c1ccc(-c2c3nc(c(-c4cccc(S(=O)(=O)[O-])c4F)c4ccc([nH]4)c(-c4cccc(S(=O)(=O)[O-])c4F)c4nc(c(-c5cccc(S(=O)(=O)[O-])c5F)c5ccc2[nH]5)C=C4)C=C3)cc1
REMARK SMILES IDX 24 1 23 2 1 3 2 4 3 6 4 7 5 8 6 9 19 10 7 11 18 12 20 13
REMARK SMILES IDX 17 14 22 15 21 16 8 17 9 19 10 20 11 21 16 22 12 23 14 24
REMARK SMILES IDX 13 25 15 26 25 27 26 28 27 29 28 30 29 32 30 33 31 34 92 35
REMARK SMILES IDX 32 36 91 37 33 38 34 39 35 40 85 41 36 42 90 43 84 44 86 45
REMARK SMILES IDX 37 46 89 47 83 48 82 49 38 51 70 52 50 53 69 54 51 55 54 56
REMARK SMILES IDX 68 57 87 58 52 59 53 60 67 62 88 63 55 64 39 65 40 66 48 67
REMARK SMILES IDX 41 68 43 69 49 70 42 71 44 72 45 73 46 74 47 75 71 76 72 77
REMARK SMILES IDX 80 78 73 79 75 80 81 81 74 82 76 83 77 84 78 85 79 86 56 87
REMARK SMILES IDX 57 88 65 89 58 90 60 91 66 92 59 93 61 94 62 95 63 96 64 97
REMARK H PARENT 23 5 8 18 27 31 86 50 54 61
REMARK Flexibility Score: inf
ROOT
ATOM      1  C   UNL A   1      31.387  31.201  26.883  1.00  0.00     0.117 C 
ENDROOT
BRANCH   1   2
ATOM      2  N   UNL A   1      32.211  30.411  25.994  1.00  0.00    -0.353 N 
ATOM      3  O   UNL A   1      33.819  29.881  27.553  1.00  0.00    -0.271 OA
ATOM      4  C   UNL A   1      33.342  29.751  26.428  1.00  0.00     0.258 C 
ATOM      5  H   UNL A   1      31.954  30.340  25.047  1.00  0.00     0.163 HD
BRANCH   4   6
ATOM      6  C   UNL A   1      34.022  28.895  25.353  1.00  0.00     0.331 C 
BRANCH   6   7
ATOM      7  O   UNL A   1      33.893  27.481  25.455  1.00  0.00    -0.467 OA
BRANCH   7   8
ATOM      8  C   UNL A   1      33.216  26.970  24.373  1.00  0.00     0.222 A 
ATOM      9  N   UNL A   1      32.316  27.756  23.758  1.00  0.00    -0.177 NA
ATOM     10  C   UNL A   1      33.538  25.732  23.915  1.00  0.00     0.036 A 
ATOM     11  C   UNL A   1      31.696  27.260  22.673  1.00  0.00     0.226 A 
ATOM     12  C   UNL A   1      32.843  25.310  22.809  1.00  0.00     0.053 A 
ATOM     13  C   UNL A   1      34.449  24.684  24.436  1.00  0.00     0.043 C 
ATOM     14  N   UNL A   1      31.923  26.037  22.168  1.00  0.00    -0.218 NA
ATOM     15  C   UNL A   1      33.198  23.894  22.461  1.00  0.00     0.057 C 
ATOM     16  C   UNL A   1      34.516  23.728  23.232  1.00  0.00     0.011 C 
BRANCH  11  17
ATOM     17  N   UNL A   1      30.770  28.079  22.099  1.00  0.00    -0.350 N 
ATOM     18  H   UNL A   1      31.007  28.538  21.260  1.00  0.00     0.164 HD
BRANCH  17  19
ATOM     19  C   UNL A   1      29.466  28.308  22.654  1.00  0.00     0.152 C 
BRANCH  19  20
ATOM     20  C   UNL A   1      29.142  29.785  22.658  1.00  0.00    -0.027 A 
ATOM     21  C   UNL A   1      29.385  30.568  23.797  1.00  0.00     0.005 A 
ATOM     22  C   UNL A   1      28.648  30.411  21.501  1.00  0.00     0.026 A 
ATOM     23  C   UNL A   1      29.127  31.940  23.786  1.00  0.00     0.002 A 
ATOM     24  C   UNL A   1      28.390  31.781  21.496  1.00  0.00     0.041 A 
ATOM     25  C   UNL A   1      28.627  32.548  22.634  1.00  0.00     0.020 A 
ATOM     26  Cl  UNL A   1      27.790  32.536  20.070  1.00  0.00    -0.084 Cl
ENDBRANCH  19  20
ENDBRANCH  17  19
ENDBRANCH  11  17
ENDBRANCH   7   8
ENDBRANCH   6   7
ENDBRANCH   4   6
ENDBRANCH   1   2
BRANCH   1  27
ATOM     27  C   UNL A   1      31.518  32.701  26.647  1.00  0.00     0.042 C 
BRANCH  27  28
ATOM     28  C   UNL A   1      32.804  33.319  27.188  1.00  0.00     0.118 C 
BRANCH  28  29
ATOM     29  N   UNL A   1      32.575  34.515  27.987  1.00  0.00    -0.352 N 
ATOM     30  C   UNL A   1      33.145  34.922  29.167  1.00  0.00     0.251 C 
ATOM     31  H   UNL A   1      31.902  35.133  27.621  1.00  0.00     0.163 HD
ATOM     32  O   UNL A   1      32.688  35.912  29.744  1.00  0.00    -0.269 OA
BRANCH  30  33
ATOM     33  C   UNL A   1      34.282  34.188  29.765  1.00  0.00     0.039 A 
ATOM     34  C   UNL A   1      35.575  34.462  29.308  1.00  0.00     0.014 A 
ATOM     35  C   UNL A   1      34.086  33.205  30.739  1.00  0.00     0.014 A 
ATOM     36  C   UNL A   1      36.671  33.800  29.867  1.00  0.00     0.010 A 
ATOM     37  C   UNL A   1      35.183  32.597  31.347  1.00  0.00     0.010 A 
ATOM     38  C   UNL A   1      36.487  32.882  30.914  1.00  0.00    -0.014 A 
BRANCH  38  39
ATOM     39  C   UNL A   1      37.642  32.207  31.562  1.00  0.00     0.031 A 
ATOM     40  C   UNL A   1      38.155  32.692  32.891  1.00  0.00     0.074 A 
ATOM     41  C   UNL A   1      38.273  31.202  30.924  1.00  0.00     0.049 A 
ATOM     42  N   UNL A   1      39.185  32.273  33.580  1.00  0.00    -0.248 NA
ATOM     43  C   UNL A   1      37.425  33.805  33.522  1.00  0.00     0.031 C 
ATOM     44  C   UNL A   1      37.905  30.672  29.609  1.00  0.00     0.029 A 
ATOM     45  N   UNL A   1      39.370  30.457  31.285  1.00  0.00    -0.354 N 
ATOM     46  C   UNL A   1      39.243  33.082  34.708  1.00  0.00     0.074 A 
ATOM     47  C   UNL A   1      38.168  34.044  34.594  1.00  0.00     0.031 C 
ATOM     48  C   UNL A   1      38.750  29.684  29.280  1.00  0.00     0.029 A 
ATOM     49  C   UNL A   1      39.744  29.531  30.339  1.00  0.00     0.049 A 
ATOM     50  H   UNL A   1      39.842  30.575  32.140  1.00  0.00     0.167 HD
ATOM     51  C   UNL A   1      40.093  33.012  35.761  1.00  0.00     0.034 A 
ATOM     52  C   UNL A   1      40.774  28.662  30.322  1.00  0.00     0.034 A 
ATOM     53  C   UNL A   1      41.139  32.032  35.888  1.00  0.00     0.049 A 
ATOM     54  C   UNL A   1      41.704  28.604  31.504  1.00  0.00     0.074 A 
ATOM     55  C   UNL A   1      42.013  31.844  36.944  1.00  0.00     0.029 A 
ATOM     56  N   UNL A   1      41.456  31.079  34.933  1.00  0.00    -0.354 N 
ATOM     57  N   UNL A   1      41.667  29.294  32.618  1.00  0.00    -0.248 NA
ATOM     58  C   UNL A   1      42.803  27.628  31.441  1.00  0.00     0.031 C 
ATOM     59  C   UNL A   1      42.877  30.796  36.616  1.00  0.00     0.029 A 
ATOM     60  C   UNL A   1      42.520  30.308  35.369  1.00  0.00     0.049 A 
ATOM     61  H   UNL A   1      40.994  30.968  34.070  1.00  0.00     0.167 HD
ATOM     62  C   UNL A   1      42.713  28.815  33.401  1.00  0.00     0.074 A 
ATOM     63  C   UNL A   1      43.349  27.758  32.642  1.00  0.00     0.031 C 
ATOM     64  C   UNL A   1      43.119  29.227  34.627  1.00  0.00     0.034 A 
BRANCH  51  65
ATOM     65  C   UNL A   1      39.891  33.982  36.897  1.00  0.00     0.023 A 
ATOM     66  C   UNL A   1      40.209  35.343  36.708  1.00  0.00     0.012 A 
ATOM     67  C   UNL A   1      39.305  33.574  38.111  1.00  0.00     0.148 A 
ATOM     68  C   UNL A   1      39.975  36.276  37.716  1.00  0.00     0.002 A 
ATOM     69  C   UNL A   1      39.030  34.518  39.094  1.00  0.00     0.091 A 
ATOM     70  F   UNL A   1      39.027  32.273  38.281  1.00  0.00    -0.205 F 
ATOM     71  C   UNL A   1      39.375  35.866  38.902  1.00  0.00     0.022 A 
BRANCH  69  72
ATOM     72  S   UNL A   1      38.179  34.112  40.624  1.00  0.00     0.127 S 
ATOM     73  O   UNL A   1      39.174  33.282  41.303  1.00  0.00    -0.237 OA
ATOM     74  O   UNL A   1      37.976  35.431  41.221  1.00  0.00    -0.237 OA
ATOM     75  O   UNL A   1      36.958  33.421  40.235  1.00  0.00    -0.744 OA
ENDBRANCH  69  72
ENDBRANCH  51  65
BRANCH  52  76
ATOM     76  C   UNL A   1      40.931  27.722  29.173  1.00  0.00     0.023 A 
ATOM     77  C   UNL A   1      40.181  26.530  29.153  1.00  0.00     0.012 A 
ATOM     78  C   UNL A   1      41.775  28.020  28.084  1.00  0.00     0.148 A 
ATOM     79  C   UNL A   1      40.283  25.641  28.083  1.00  0.00     0.002 A 
ATOM     80  C   UNL A   1      41.827  27.159  26.994  1.00  0.00     0.091 A 
ATOM     81  F   UNL A   1      42.490  29.153  28.128  1.00  0.00    -0.205 F 
ATOM     82  C   UNL A   1      41.096  25.961  26.999  1.00  0.00     0.022 A 
BRANCH  80  83
ATOM     83  S   UNL A   1      42.733  27.552  25.494  1.00  0.00     0.127 S 
ATOM     84  O   UNL A   1      44.104  27.650  25.990  1.00  0.00    -0.237 OA
ATOM     85  O   UNL A   1      42.462  26.377  24.665  1.00  0.00    -0.237 OA
ATOM     86  O   UNL A   1      42.155  28.791  24.994  1.00  0.00    -0.744 OA
ENDBRANCH  80  83
ENDBRANCH  52  76
BRANCH  64  87
ATOM     87  C   UNL A   1      44.304  28.530  35.250  1.00  0.00     0.023 A 
ATOM     88  C   UNL A   1      45.609  28.963  34.943  1.00  0.00     0.012 A 
ATOM     89  C   UNL A   1      44.123  27.517  36.213  1.00  0.00     0.148 A 
ATOM     90  C   UNL A   1      46.715  28.381  35.560  1.00  0.00     0.002 A 
ATOM     91  C   UNL A   1      45.227  26.978  36.864  1.00  0.00     0.091 A 
ATOM     92  F   UNL A   1      42.875  27.106  36.482  1.00  0.00    -0.205 F 
ATOM     93  C   UNL A   1      46.524  27.399  36.530  1.00  0.00     0.022 A 
BRANCH  91  94
ATOM     94  S   UNL A   1      45.075  25.789  38.203  1.00  0.00     0.127 S 
ATOM     95  O   UNL A   1      46.463  25.665  38.648  1.00  0.00    -0.237 OA
ATOM     96  O   UNL A   1      44.195  26.489  39.140  1.00  0.00    -0.237 OA
ATOM     97  O   UNL A   1      44.499  24.589  37.613  1.00  0.00    -0.744 OA
ENDBRANCH  91  94
ENDBRANCH  64  87
ENDBRANCH  38  39
ENDBRANCH  30  33
ENDBRANCH  28  29
ENDBRANCH  27  28
ENDBRANCH   1  27
TORSDOF 18
ENDMDL
MODEL 3
REMARK VINA RESULT:     -11.5      3.742      8.819
REMARK SMILES O=C(COc1nc(NCc2cccc(Cl)c2)nc2c1CCC2)NCCCNC(=O)c1ccc(-c2c3nc(c(-c4cccc(S(=O)(=O)[O-])c4F)c4ccc([nH]4)c(-c4cccc(S(=O)(=O)[O-])c4F)c4nc(c(-c5cccc(S(=O)(=O)[O-])c5F)c5ccc2[nH]5)C=C4)C=C3)cc1
REMARK SMILES IDX 24 1 23 2 1 3 2 4 3 6 4 7 5 8 6 9 19 10 7 11 18 12 20 13
REMARK SMILES IDX 17 14 22 15 21 16 8 17 9 19 10 20 11 21 16 22 12 23 14 24
REMARK SMILES IDX 13 25 15 26 25 27 26 28 27 29 28 30 29 32 30 33 31 34 92 35
REMARK SMILES IDX 32 36 91 37 33 38 34 39 35 40 85 41 36 42 90 43 84 44 86 45
REMARK SMILES IDX 37 46 89 47 83 48 82 49 38 51 70 52 50 53 69 54 51 55 54 56
REMARK SMILES IDX 68 57 87 58 52 59 53 60 67 62 88 63 55 64 39 65 40 66 48 67
REMARK SMILES IDX 41 68 43 69 49 70 42 71 44 72 45 73 46 74 47 75 71 76 72 77
REMARK SMILES IDX 80 78 73 79 75 80 81 81 74 82 76 83 77 84 78 85 79 86 56 87
REMARK SMILES IDX 57 88 65 89 58 90 60 91 66 92 59 93 61 94 62 95 63 96 64 97
REMARK H PARENT 23 5 8 18 27 31 86 50 54 61
REMARK Flexibility Score: inf
ROOT
ATOM      1  C   UNL A   1      31.798  26.802  26.958  1.00  0.00     0.117 C 
ENDROOT
BRANCH   1   2
ATOM      2  N   UNL A   1      31.394  25.724  26.081  1.00  0.00    -0.353 N 
ATOM      3  O   UNL A   1      31.782  24.024  27.583  1.00  0.00    -0.271 OA
ATOM      4  C   UNL A   1      31.357  24.410  26.496  1.00  0.00     0.258 C 
ATOM      5  H   UNL A   1      31.137  25.937  25.155  1.00  0.00     0.163 HD
BRANCH   4   6
ATOM      6  C   UNL A   1      30.816  23.433  25.445  1.00  0.00     0.331 C 
BRANCH   6   7
ATOM      7  O   UNL A   1      31.736  22.519  24.856  1.00  0.00    -0.467 OA
BRANCH   7   8
ATOM      8  C   UNL A   1      32.639  23.177  24.057  1.00  0.00     0.222 A 
ATOM      9  N   UNL A   1      32.223  24.268  23.392  1.00  0.00    -0.177 NA
ATOM     10  C   UNL A   1      33.931  22.757  24.032  1.00  0.00     0.036 A 
ATOM     11  C   UNL A   1      33.129  24.928  22.651  1.00  0.00     0.226 A 
ATOM     12  C   UNL A   1      34.778  23.490  23.239  1.00  0.00     0.053 A 
ATOM     13  C   UNL A   1      34.607  21.583  24.638  1.00  0.00     0.043 C 
ATOM     14  N   UNL A   1      34.418  24.569  22.539  1.00  0.00    -0.218 NA
ATOM     15  C   UNL A   1      36.146  22.871  23.201  1.00  0.00     0.057 C 
ATOM     16  C   UNL A   1      36.085  21.959  24.435  1.00  0.00     0.011 C 
BRANCH  11  17
ATOM     17  N   UNL A   1      32.657  26.011  21.970  1.00  0.00    -0.350 N 
ATOM     18  H   UNL A   1      32.245  25.865  21.087  1.00  0.00     0.164 HD
BRANCH  17  19
ATOM     19  C   UNL A   1      32.728  27.354  22.474  1.00  0.00     0.152 C 
BRANCH  19  20
ATOM     20  C   UNL A   1      31.342  27.934  22.639  1.00  0.00    -0.027 A 
ATOM     21  C   UNL A   1      31.059  29.242  22.217  1.00  0.00     0.005 A 
ATOM     22  C   UNL A   1      30.298  27.152  23.161  1.00  0.00     0.026 A 
ATOM     23  C   UNL A   1      29.767  29.762  22.329  1.00  0.00     0.002 A 
ATOM     24  C   UNL A   1      29.011  27.677  23.273  1.00  0.00     0.041 A 
ATOM     25  C   UNL A   1      28.742  28.979  22.859  1.00  0.00     0.020 A 
ATOM     26  Cl  UNL A   1      27.741  26.706  23.910  1.00  0.00    -0.084 Cl
ENDBRANCH  19  20
ENDBRANCH  17  19
ENDBRANCH  11  17
ENDBRANCH   7   8
ENDBRANCH   6   7
ENDBRANCH   4   6
ENDBRANCH   1   2
BRANCH   1  27
ATOM     27  C   UNL A   1      32.279  28.038  26.209  1.00  0.00     0.042 C 
BRANCH  27  28
ATOM     28  C   UNL A   1      33.632  28.573  26.670  1.00  0.00     0.118 C 
BRANCH  28  29
ATOM     29  N   UNL A   1      33.599  29.985  27.030  1.00  0.00    -0.352 N 
ATOM     30  C   UNL A   1      34.484  30.741  27.756  1.00  0.00     0.251 C 
ATOM     31  H   UNL A   1      32.813  30.476  26.700  1.00  0.00     0.163 HD
ATOM     32  O   UNL A   1      34.176  31.896  28.062  1.00  0.00    -0.269 OA
BRANCH  30  33
ATOM     33  C   UNL A   1      35.789  30.193  28.189  1.00  0.00     0.039 A 
ATOM     34  C   UNL A   1      36.872  30.261  27.308  1.00  0.00     0.014 A 
ATOM     35  C   UNL A   1      35.945  29.578  29.434  1.00  0.00     0.014 A 
ATOM     36  C   UNL A   1      38.122  29.770  27.696  1.00  0.00     0.010 A 
ATOM     37  C   UNL A   1      37.206  29.154  29.848  1.00  0.00     0.010 A 
ATOM     38  C   UNL A   1      38.307  29.239  28.982  1.00  0.00    -0.014 A 
BRANCH  38  39
ATOM     39  C   UNL A   1      39.640  28.763  29.437  1.00  0.00     0.031 A 
ATOM     40  C   UNL A   1      40.379  29.498  30.522  1.00  0.00     0.074 A 
ATOM     41  C   UNL A   1      40.217  27.708  28.828  1.00  0.00     0.049 A 
ATOM     42  N   UNL A   1      41.573  29.272  31.007  1.00  0.00    -0.248 NA
ATOM     43  C   UNL A   1      39.694  30.651  31.132  1.00  0.00     0.031 C 
ATOM     44  C   UNL A   1      39.627  26.941  27.729  1.00  0.00     0.029 A 
ATOM     45  N   UNL A   1      41.438  27.111  29.030  1.00  0.00    -0.354 N 
ATOM     46  C   UNL A   1      41.792  30.263  31.957  1.00  0.00     0.074 A 
ATOM     47  C   UNL A   1      40.624  31.117  31.954  1.00  0.00     0.031 C 
ATOM     48  C   UNL A   1      40.477  25.970  27.363  1.00  0.00     0.029 A 
ATOM     49  C   UNL A   1      41.690  26.066  28.172  1.00  0.00     0.049 A 
ATOM     50  H   UNL A   1      42.071  27.403  29.724  1.00  0.00     0.167 HD
ATOM     51  C   UNL A   1      42.854  30.428  32.781  1.00  0.00     0.034 A 
ATOM     52  C   UNL A   1      42.776  25.277  28.045  1.00  0.00     0.034 A 
ATOM     53  C   UNL A   1      43.999  29.557  32.805  1.00  0.00     0.049 A 
ATOM     54  C   UNL A   1      43.943  25.482  28.973  1.00  0.00     0.074 A 
ATOM     55  C   UNL A   1      45.098  29.609  33.645  1.00  0.00     0.029 A 
ATOM     56  N   UNL A   1      44.197  28.480  31.956  1.00  0.00    -0.354 N 
ATOM     57  N   UNL A   1      44.079  26.346  29.950  1.00  0.00    -0.248 NA
ATOM     58  C   UNL A   1      45.096  24.585  28.803  1.00  0.00     0.031 C 
ATOM     59  C   UNL A   1      45.973  28.581  33.285  1.00  0.00     0.029 A 
ATOM     60  C   UNL A   1      45.404  27.866  32.243  1.00  0.00     0.049 A 
ATOM     61  H   UNL A   1      43.571  28.193  31.251  1.00  0.00     0.167 HD
ATOM     62  C   UNL A   1      45.315  26.078  30.529  1.00  0.00     0.074 A 
ATOM     63  C   UNL A   1      45.876  24.953  29.810  1.00  0.00     0.031 C 
ATOM     64  C   UNL A   1      45.935  26.718  31.552  1.00  0.00     0.034 A 
BRANCH  51  65
ATOM     65  C   UNL A   1      42.807  31.562  33.775  1.00  0.00     0.023 A 
ATOM     66  C   UNL A   1      43.284  32.833  33.395  1.00  0.00     0.012 A 
ATOM     67  C   UNL A   1      42.211  31.399  35.040  1.00  0.00     0.148 A 
ATOM     68  C   UNL A   1      43.196  33.917  34.268  1.00  0.00     0.002 A 
ATOM     69  C   UNL A   1      42.083  32.494  35.887  1.00  0.00     0.091 A 
ATOM     70  F   UNL A   1      41.779  30.178  35.391  1.00  0.00    -0.205 F 
ATOM     71  C   UNL A   1      42.584  33.749  35.507  1.00  0.00     0.022 A 
BRANCH  69  72
ATOM     72  S   UNL A   1      41.233  32.409  37.468  1.00  0.00     0.127 S 
ATOM     73  O   UNL A   1      42.069  31.457  38.201  1.00  0.00    -0.237 OA
ATOM     74  O   UNL A   1      41.326  33.790  37.940  1.00  0.00    -0.237 OA
ATOM     75  O   UNL A   1      39.882  31.951  37.177  1.00  0.00    -0.744 OA
ENDBRANCH  69  72
ENDBRANCH  51  65
BRANCH  52  76
ATOM     76  C   UNL A   1      42.774  24.169  27.045  1.00  0.00     0.023 A 
ATOM     77  C   UNL A   1      43.451  24.346  25.823  1.00  0.00     0.012 A 
ATOM     78  C   UNL A   1      42.152  22.933  27.312  1.00  0.00     0.148 A 
ATOM     79  C   UNL A   1      43.492  23.322  24.876  1.00  0.00     0.002 A 
ATOM     80  C   UNL A   1      42.246  21.897  26.390  1.00  0.00     0.091 A 
ATOM     81  F   UNL A   1      41.501  22.789  28.475  1.00  0.00    -0.205 F 
ATOM     82  C   UNL A   1      42.901  22.096  25.164  1.00  0.00     0.022 A 
BRANCH  80  83
ATOM     83  S   UNL A   1      41.640  20.241  26.729  1.00  0.00     0.127 S 
ATOM     84  O   UNL A   1      41.924  19.555  25.470  1.00  0.00    -0.237 OA
ATOM     85  O   UNL A   1      42.486  19.839  27.854  1.00  0.00    -0.237 OA
ATOM     86  O   UNL A   1      40.231  20.394  27.057  1.00  0.00    -0.744 OA
ENDBRANCH  80  83
ENDBRANCH  52  76
BRANCH  64  87
ATOM     87  C   UNL A   1      47.293  26.217  31.978  1.00  0.00     0.023 A 
ATOM     88  C   UNL A   1      48.453  26.779  31.410  1.00  0.00     0.012 A 
ATOM     89  C   UNL A   1      47.422  25.267  33.011  1.00  0.00     0.148 A 
ATOM     90  C   UNL A   1      49.719  26.382  31.840  1.00  0.00     0.002 A 
ATOM     91  C   UNL A   1      48.686  24.915  33.471  1.00  0.00     0.091 A 
ATOM     92  F   UNL A   1      46.308  24.731  33.530  1.00  0.00    -0.205 F 
ATOM     93  C   UNL A   1      49.835  25.462  32.879  1.00  0.00     0.022 A 
BRANCH  91  94
ATOM     94  S   UNL A   1      48.933  23.823  34.877  1.00  0.00     0.127 S 
ATOM     95  O   UNL A   1      48.528  24.678  35.992  1.00  0.00    -0.237 OA
ATOM     96  O   UNL A   1      48.011  22.726  34.583  1.00  0.00    -0.237 OA
ATOM     97  O   UNL A   1      50.342  23.453  34.856  1.00  0.00    -0.744 OA
ENDBRANCH  91  94
ENDBRANCH  64  87
ENDBRANCH  38  39
ENDBRANCH  30  33
ENDBRANCH  28  29
ENDBRANCH  27  28
ENDBRANCH   1  27
TORSDOF 18
ENDMDL
