MODEL 1
REMARK VINA RESULT:     -10.2      0.000      0.000
REMARK SMILES CC[C@H](Oc1c(C)cc(Br)cc1C)C(=O)NCCCNC(=O)c1ccc(-c2c3nc(c(-c4cccc(S(=O)(=O)[O-])c4F)c4ccc([nH]4)c(-c4cccc(S(=O)(=O)[O-])c4F)c4nc(c(-c5cccc(S(=O)(=O)[O-])c5F)c5ccc2[nH]5)C=C4)C=C3)cc1
REMARK SMILES IDX 18 1 17 2 16 3 14 4 15 5 3 7 2 8 1 9 4 10 5 11 6 12 12 13
REMARK SMILES IDX 7 14 8 15 11 16 13 17 9 18 10 19 19 20 20 21 21 22 22 24
REMARK SMILES IDX 23 25 24 26 85 27 25 28 84 29 26 30 27 31 28 32 78 33 29 34
REMARK SMILES IDX 83 35 77 36 79 37 30 38 82 39 76 40 75 41 31 43 63 44 43 45
REMARK SMILES IDX 62 46 44 47 47 48 61 49 80 50 45 51 46 52 60 54 81 55 48 56
REMARK SMILES IDX 32 57 33 58 41 59 34 60 36 61 42 62 35 63 37 64 38 65 39 66
REMARK SMILES IDX 40 67 64 68 65 69 73 70 66 71 68 72 74 73 67 74 69 75 70 76
REMARK SMILES IDX 71 77 72 78 49 79 50 80 58 81 51 82 53 83 59 84 52 85 54 86
REMARK SMILES IDX 55 87 56 88 57 89
REMARK H PARENT 16 6 20 23 79 42 47 53
REMARK Flexibility Score: inf
ROOT
ATOM      1  C   UNL A   1      33.599  34.049  28.386  1.00  0.00     0.042 C 
ENDROOT
BRANCH   1   2
ATOM      2  C   UNL A   1      34.247  35.201  29.135  1.00  0.00     0.118 C 
BRANCH   2   3
ATOM      3  N   UNL A   1      33.911  35.191  30.544  1.00  0.00    -0.353 N 
ATOM      4  C   UNL A   1      34.510  34.531  31.573  1.00  0.00     0.261 C 
ATOM      5  O   UNL A   1      34.013  34.664  32.697  1.00  0.00    -0.271 OA
ATOM      6  H   UNL A   1      33.135  35.742  30.794  1.00  0.00     0.163 HD
BRANCH   4   7
ATOM      7  C   UNL A   1      35.804  33.717  31.373  1.00  0.00     0.261 C 
BRANCH   7   8
ATOM      8  C   UNL A   1      35.605  32.275  31.894  1.00  0.00     0.052 C 
ATOM      9  C   UNL A   1      36.406  31.901  33.134  1.00  0.00     0.008 C 
ENDBRANCH   7   8
BRANCH   7  10
ATOM     10  O   UNL A   1      36.918  34.365  31.966  1.00  0.00    -0.480 OA
BRANCH  10  11
ATOM     11  C   UNL A   1      38.201  34.288  31.490  1.00  0.00     0.126 A 
ATOM     12  C   UNL A   1      38.652  34.012  30.178  1.00  0.00    -0.008 A 
ATOM     13  C   UNL A   1      39.171  34.509  32.506  1.00  0.00    -0.008 A 
ATOM     14  C   UNL A   1      37.805  33.662  28.985  1.00  0.00     0.048 C 
ATOM     15  C   UNL A   1      40.040  34.071  29.905  1.00  0.00     0.023 A 
ATOM     16  C   UNL A   1      40.544  34.540  32.200  1.00  0.00     0.023 A 
ATOM     17  C   UNL A   1      38.813  34.715  33.959  1.00  0.00     0.048 C 
ATOM     18  C   UNL A   1      40.970  34.336  30.900  1.00  0.00     0.018 A 
ATOM     19  Br  UNL A   1      42.810  34.389  30.479  1.00  0.00    -0.051 Br
ENDBRANCH  10  11
ENDBRANCH   7  10
ENDBRANCH   4   7
ENDBRANCH   2   3
ENDBRANCH   1   2
BRANCH   1  20
ATOM     20  C   UNL A   1      34.549  32.908  28.053  1.00  0.00     0.118 C 
BRANCH  20  21
ATOM     21  N   UNL A   1      33.860  31.694  27.633  1.00  0.00    -0.352 N 
ATOM     22  C   UNL A   1      34.321  30.400  27.570  1.00  0.00     0.251 C 
ATOM     23  H   UNL A   1      32.925  31.820  27.354  1.00  0.00     0.163 HD
ATOM     24  O   UNL A   1      33.639  29.538  27.026  1.00  0.00    -0.269 OA
BRANCH  22  25
ATOM     25  C   UNL A   1      35.644  30.060  28.136  1.00  0.00     0.039 A 
ATOM     26  C   UNL A   1      35.719  29.616  29.457  1.00  0.00     0.014 A 
ATOM     27  C   UNL A   1      36.802  30.167  27.364  1.00  0.00     0.014 A 
ATOM     28  C   UNL A   1      36.949  29.211  29.979  1.00  0.00     0.010 A 
ATOM     29  C   UNL A   1      38.005  29.670  27.851  1.00  0.00     0.010 A 
ATOM     30  C   UNL A   1      38.096  29.196  29.167  1.00  0.00    -0.014 A 
BRANCH  30  31
ATOM     31  C   UNL A   1      39.394  28.680  29.670  1.00  0.00     0.031 A 
ATOM     32  C   UNL A   1      40.106  29.384  30.794  1.00  0.00     0.074 A 
ATOM     33  C   UNL A   1      39.977  27.631  29.056  1.00  0.00     0.049 A 
ATOM     34  N   UNL A   1      41.270  29.117  31.326  1.00  0.00    -0.248 NA
ATOM     35  C   UNL A   1      39.438  30.560  31.378  1.00  0.00     0.031 C 
ATOM     36  C   UNL A   1      39.430  26.917  27.899  1.00  0.00     0.029 A 
ATOM     37  N   UNL A   1      41.172  27.000  29.298  1.00  0.00    -0.354 N 
ATOM     38  C   UNL A   1      41.493  30.111  32.271  1.00  0.00     0.074 A 
ATOM     39  C   UNL A   1      40.359  31.006  32.220  1.00  0.00     0.031 C 
ATOM     40  C   UNL A   1      40.281  25.944  27.538  1.00  0.00     0.029 A 
ATOM     41  C   UNL A   1      41.451  25.987  28.410  1.00  0.00     0.049 A 
ATOM     42  H   UNL A   1      41.772  27.249  30.038  1.00  0.00     0.167 HD
ATOM     43  C   UNL A   1      42.535  30.252  33.124  1.00  0.00     0.034 A 
ATOM     44  C   UNL A   1      42.532  25.189  28.300  1.00  0.00     0.034 A 
ATOM     45  C   UNL A   1      43.639  29.336  33.202  1.00  0.00     0.049 A 
ATOM     46  C   UNL A   1      43.653  25.337  29.291  1.00  0.00     0.074 A 
ATOM     47  C   UNL A   1      44.690  29.334  34.102  1.00  0.00     0.029 A 
ATOM     48  N   UNL A   1      43.845  28.268  32.344  1.00  0.00    -0.354 N 
ATOM     49  N   UNL A   1      43.768  26.184  30.286  1.00  0.00    -0.248 NA
ATOM     50  C   UNL A   1      44.776  24.396  29.171  1.00  0.00     0.031 C 
ATOM     51  C   UNL A   1      45.552  28.287  33.762  1.00  0.00     0.029 A 
ATOM     52  C   UNL A   1      45.015  27.609  32.680  1.00  0.00     0.049 A 
ATOM     53  H   UNL A   1      43.247  28.014  31.604  1.00  0.00     0.167 HD
ATOM     54  C   UNL A   1      44.956  25.858  30.929  1.00  0.00     0.074 A 
ATOM     55  C   UNL A   1      45.513  24.722  30.225  1.00  0.00     0.031 C 
ATOM     56  C   UNL A   1      45.537  26.453  31.999  1.00  0.00     0.034 A 
BRANCH  43  57
ATOM     57  C   UNL A   1      42.513  31.422  34.075  1.00  0.00     0.023 A 
ATOM     58  C   UNL A   1      43.193  32.610  33.741  1.00  0.00     0.012 A 
ATOM     59  C   UNL A   1      41.763  31.366  35.265  1.00  0.00     0.148 A 
ATOM     60  C   UNL A   1      43.154  33.714  34.591  1.00  0.00     0.002 A 
ATOM     61  C   UNL A   1      41.688  32.487  36.084  1.00  0.00     0.091 A 
ATOM     62  F   UNL A   1      41.141  30.220  35.576  1.00  0.00    -0.205 F 
ATOM     63  C   UNL A   1      42.392  33.657  35.756  1.00  0.00     0.022 A 
BRANCH  61  64
ATOM     64  S   UNL A   1      40.666  32.544  37.560  1.00  0.00     0.127 S 
ATOM     65  O   UNL A   1      39.479  31.810  37.125  1.00  0.00    -0.237 OA
ATOM     66  O   UNL A   1      41.497  31.838  38.535  1.00  0.00    -0.237 OA
ATOM     67  O   UNL A   1      40.453  33.956  37.849  1.00  0.00    -0.744 OA
ENDBRANCH  61  64
ENDBRANCH  43  57
BRANCH  44  68
ATOM     68  C   UNL A   1      42.577  24.144  27.239  1.00  0.00     0.023 A 
ATOM     69  C   UNL A   1      43.244  24.411  26.028  1.00  0.00     0.012 A 
ATOM     70  C   UNL A   1      41.996  22.877  27.439  1.00  0.00     0.148 A 
ATOM     71  C   UNL A   1      43.304  23.446  25.021  1.00  0.00     0.002 A 
ATOM     72  C   UNL A   1      42.109  21.901  26.457  1.00  0.00     0.091 A 
ATOM     73  F   UNL A   1      41.360  22.647  28.596  1.00  0.00    -0.205 F 
ATOM     74  C   UNL A   1      42.747  22.189  25.239  1.00  0.00     0.022 A 
BRANCH  72  75
ATOM     75  S   UNL A   1      41.543  20.214  26.704  1.00  0.00     0.127 S 
ATOM     76  O   UNL A   1      40.131  20.415  27.015  1.00  0.00    -0.237 OA
ATOM     77  O   UNL A   1      41.808  19.615  25.394  1.00  0.00    -0.237 OA
ATOM     78  O   UNL A   1      42.358  19.678  27.785  1.00  0.00    -0.744 OA
ENDBRANCH  72  75
ENDBRANCH  44  68
BRANCH  56  79
ATOM     79  C   UNL A   1      46.829  25.868  32.511  1.00  0.00     0.023 A 
ATOM     80  C   UNL A   1      48.062  26.372  32.055  1.00  0.00     0.012 A 
ATOM     81  C   UNL A   1      46.814  24.870  33.506  1.00  0.00     0.148 A 
ATOM     82  C   UNL A   1      49.262  25.868  32.556  1.00  0.00     0.002 A 
ATOM     83  C   UNL A   1      48.013  24.410  34.038  1.00  0.00     0.091 A 
ATOM     84  F   UNL A   1      45.630  24.390  33.915  1.00  0.00    -0.205 F 
ATOM     85  C   UNL A   1      49.237  24.898  33.554  1.00  0.00     0.022 A 
BRANCH  83  86
ATOM     86  S   UNL A   1      48.076  23.235  35.396  1.00  0.00     0.127 S 
ATOM     87  O   UNL A   1      47.301  23.927  36.424  1.00  0.00    -0.237 OA
ATOM     88  O   UNL A   1      47.417  22.063  34.820  1.00  0.00    -0.237 OA
ATOM     89  O   UNL A   1      49.489  23.047  35.700  1.00  0.00    -0.744 OA
ENDBRANCH  83  86
ENDBRANCH  56  79
ENDBRANCH  30  31
ENDBRANCH  22  25
ENDBRANCH  20  21
ENDBRANCH   1  20
TORSDOF 16
ENDMDL
MODEL 2
REMARK VINA RESULT:      -9.7      3.945      6.563
REMARK SMILES CC[C@H](Oc1c(C)cc(Br)cc1C)C(=O)NCCCNC(=O)c1ccc(-c2c3nc(c(-c4cccc(S(=O)(=O)[O-])c4F)c4ccc([nH]4)c(-c4cccc(S(=O)(=O)[O-])c4F)c4nc(c(-c5cccc(S(=O)(=O)[O-])c5F)c5ccc2[nH]5)C=C4)C=C3)cc1
REMARK SMILES IDX 18 1 17 2 16 3 14 4 15 5 3 7 2 8 1 9 4 10 5 11 6 12 12 13
REMARK SMILES IDX 7 14 8 15 11 16 13 17 9 18 10 19 19 20 20 21 21 22 22 24
REMARK SMILES IDX 23 25 24 26 85 27 25 28 84 29 26 30 27 31 28 32 78 33 29 34
REMARK SMILES IDX 83 35 77 36 79 37 30 38 82 39 76 40 75 41 31 43 63 44 43 45
REMARK SMILES IDX 62 46 44 47 47 48 61 49 80 50 45 51 46 52 60 54 81 55 48 56
REMARK SMILES IDX 32 57 33 58 41 59 34 60 36 61 42 62 35 63 37 64 38 65 39 66
REMARK SMILES IDX 40 67 64 68 65 69 73 70 66 71 68 72 74 73 67 74 69 75 70 76
REMARK SMILES IDX 71 77 72 78 49 79 50 80 58 81 51 82 53 83 59 84 52 85 54 86
REMARK SMILES IDX 55 87 56 88 57 89
REMARK H PARENT 16 6 20 23 79 42 47 53
REMARK Flexibility Score: inf
ROOT
ATOM      1  C   UNL A   1      31.759  28.676  26.113  1.00  0.00     0.042 C 
ENDROOT
BRANCH   1   2
ATOM      2  C   UNL A   1      32.353  27.343  26.537  1.00  0.00     0.118 C 
BRANCH   2   3
ATOM      3  N   UNL A   1      31.329  26.370  26.858  1.00  0.00    -0.353 N 
ATOM      4  C   UNL A   1      30.828  25.357  26.099  1.00  0.00     0.261 C 
ATOM      5  O   UNL A   1      29.928  24.671  26.594  1.00  0.00    -0.271 OA
ATOM      6  H   UNL A   1      30.938  26.453  27.757  1.00  0.00     0.163 HD
BRANCH   4   7
ATOM      7  C   UNL A   1      31.409  25.017  24.712  1.00  0.00     0.261 C 
BRANCH   7   8
ATOM      8  C   UNL A   1      30.412  25.432  23.607  1.00  0.00     0.052 C 
ATOM      9  C   UNL A   1      29.493  26.599  23.947  1.00  0.00     0.008 C 
ENDBRANCH   7   8
BRANCH   7  10
ATOM     10  O   UNL A   1      31.780  23.650  24.629  1.00  0.00    -0.480 OA
BRANCH  10  11
ATOM     11  C   UNL A   1      33.046  23.178  24.857  1.00  0.00     0.126 A 
ATOM     12  C   UNL A   1      33.642  22.771  26.074  1.00  0.00    -0.008 A 
ATOM     13  C   UNL A   1      33.827  23.126  23.670  1.00  0.00    -0.008 A 
ATOM     14  C   UNL A   1      33.030  22.831  27.446  1.00  0.00     0.048 C 
ATOM     15  C   UNL A   1      34.952  22.232  26.047  1.00  0.00     0.023 A 
ATOM     16  C   UNL A   1      35.134  22.602  23.687  1.00  0.00     0.023 A 
ATOM     17  C   UNL A   1      33.333  23.625  22.333  1.00  0.00     0.048 C 
ATOM     18  C   UNL A   1      35.683  22.145  24.871  1.00  0.00     0.018 A 
ATOM     19  Br  UNL A   1      37.430  21.428  24.899  1.00  0.00    -0.051 Br
ENDBRANCH  10  11
ENDBRANCH   7  10
ENDBRANCH   4   7
ENDBRANCH   2   3
ENDBRANCH   1   2
BRANCH   1  20
ATOM     20  C   UNL A   1      32.785  29.694  25.638  1.00  0.00     0.118 C 
BRANCH  20  21
ATOM     21  N   UNL A   1      32.519  31.042  26.122  1.00  0.00    -0.352 N 
ATOM     22  C   UNL A   1      33.169  31.774  27.088  1.00  0.00     0.251 C 
ATOM     23  H   UNL A   1      31.759  31.498  25.692  1.00  0.00     0.163 HD
ATOM     24  O   UNL A   1      32.689  32.833  27.475  1.00  0.00    -0.269 OA
BRANCH  22  25
ATOM     25  C   UNL A   1      34.432  31.269  27.669  1.00  0.00     0.039 A 
ATOM     26  C   UNL A   1      35.486  32.160  27.875  1.00  0.00     0.014 A 
ATOM     27  C   UNL A   1      34.569  29.925  28.022  1.00  0.00     0.014 A 
ATOM     28  C   UNL A   1      36.652  31.716  28.500  1.00  0.00     0.010 A 
ATOM     29  C   UNL A   1      35.688  29.509  28.733  1.00  0.00     0.010 A 
ATOM     30  C   UNL A   1      36.747  30.395  28.972  1.00  0.00    -0.014 A 
BRANCH  30  31
ATOM     31  C   UNL A   1      37.938  29.927  29.725  1.00  0.00     0.031 A 
ATOM     32  C   UNL A   1      38.187  30.411  31.128  1.00  0.00     0.074 A 
ATOM     33  C   UNL A   1      38.844  29.137  29.113  1.00  0.00     0.049 A 
ATOM     34  N   UNL A   1      39.199  30.158  31.918  1.00  0.00    -0.248 NA
ATOM     35  C   UNL A   1      37.186  31.319  31.712  1.00  0.00     0.031 C 
ATOM     36  C   UNL A   1      38.761  28.672  27.726  1.00  0.00     0.029 A 
ATOM     37  N   UNL A   1      40.027  28.611  29.567  1.00  0.00    -0.354 N 
ATOM     38  C   UNL A   1      38.980  30.907  33.067  1.00  0.00     0.074 A 
ATOM     39  C   UNL A   1      37.755  31.648  32.862  1.00  0.00     0.031 C 
ATOM     40  C   UNL A   1      39.840  27.925  27.446  1.00  0.00     0.029 A 
ATOM     41  C   UNL A   1      40.710  27.888  28.617  1.00  0.00     0.049 A 
ATOM     42  H   UNL A   1      40.355  28.738  30.487  1.00  0.00     0.167 HD
ATOM     43  C   UNL A   1      39.716  30.955  34.202  1.00  0.00     0.034 A 
ATOM     44  C   UNL A   1      41.909  27.274  28.675  1.00  0.00     0.034 A 
ATOM     45  C   UNL A   1      40.909  30.183  34.419  1.00  0.00     0.049 A 
ATOM     46  C   UNL A   1      42.683  27.303  29.964  1.00  0.00     0.074 A 
ATOM     47  C   UNL A   1      41.668  30.083  35.571  1.00  0.00     0.029 A 
ATOM     48  N   UNL A   1      41.526  29.392  33.463  1.00  0.00    -0.354 N 
ATOM     49  N   UNL A   1      42.375  27.886  31.098  1.00  0.00    -0.248 NA
ATOM     50  C   UNL A   1      43.951  26.559  29.996  1.00  0.00     0.031 C 
ATOM     51  C   UNL A   1      42.766  29.261  35.299  1.00  0.00     0.029 A 
ATOM     52  C   UNL A   1      42.666  28.812  33.992  1.00  0.00     0.049 A 
ATOM     53  H   UNL A   1      41.200  29.260  32.543  1.00  0.00     0.167 HD
ATOM     54  C   UNL A   1      43.391  27.553  31.986  1.00  0.00     0.074 A 
ATOM     55  C   UNL A   1      44.312  26.699  31.265  1.00  0.00     0.031 C 
ATOM     56  C   UNL A   1      43.551  27.929  33.279  1.00  0.00     0.034 A 
BRANCH  43  57
ATOM     57  C   UNL A   1      39.232  31.843  35.320  1.00  0.00     0.023 A 
ATOM     58  C   UNL A   1      38.338  31.333  36.283  1.00  0.00     0.012 A 
ATOM     59  C   UNL A   1      39.716  33.159  35.454  1.00  0.00     0.148 A 
ATOM     60  C   UNL A   1      37.907  32.128  37.344  1.00  0.00     0.002 A 
ATOM     61  C   UNL A   1      39.321  33.929  36.541  1.00  0.00     0.091 A 
ATOM     62  F   UNL A   1      40.549  33.632  34.516  1.00  0.00    -0.205 F 
ATOM     63  C   UNL A   1      38.408  33.421  37.480  1.00  0.00     0.022 A 
BRANCH  61  64
ATOM     64  S   UNL A   1      39.973  35.573  36.854  1.00  0.00     0.127 S 
ATOM     65  O   UNL A   1      39.491  36.308  35.685  1.00  0.00    -0.237 OA
ATOM     66  O   UNL A   1      39.316  35.929  38.111  1.00  0.00    -0.237 OA
ATOM     67  O   UNL A   1      41.420  35.424  36.942  1.00  0.00    -0.744 OA
ENDBRANCH  61  64
ENDBRANCH  43  57
BRANCH  44  68
ATOM     68  C   UNL A   1      42.423  26.536  27.487  1.00  0.00     0.023 A 
ATOM     69  C   UNL A   1      43.256  27.196  26.565  1.00  0.00     0.012 A 
ATOM     70  C   UNL A   1      42.120  25.175  27.288  1.00  0.00     0.148 A 
ATOM     71  C   UNL A   1      43.754  26.524  25.447  1.00  0.00     0.002 A 
ATOM     72  C   UNL A   1      42.665  24.496  26.206  1.00  0.00     0.091 A 
ATOM     73  F   UNL A   1      41.319  24.567  28.175  1.00  0.00    -0.205 F 
ATOM     74  C   UNL A   1      43.467  25.173  25.273  1.00  0.00     0.022 A 
BRANCH  72  75
ATOM     75  S   UNL A   1      42.463  22.726  25.977  1.00  0.00     0.127 S 
ATOM     76  O   UNL A   1      43.059  22.524  24.659  1.00  0.00    -0.237 OA
ATOM     77  O   UNL A   1      43.241  22.189  27.095  1.00  0.00    -0.237 OA
ATOM     78  O   UNL A   1      41.032  22.476  26.068  1.00  0.00    -0.744 OA
ENDBRANCH  72  75
ENDBRANCH  44  68
BRANCH  56  79
ATOM     79  C   UNL A   1      44.746  27.391  34.023  1.00  0.00     0.023 A 
ATOM     80  C   UNL A   1      45.945  28.129  34.060  1.00  0.00     0.012 A 
ATOM     81  C   UNL A   1      44.650  26.189  34.752  1.00  0.00     0.148 A 
ATOM     82  C   UNL A   1      47.043  27.661  34.782  1.00  0.00     0.002 A 
ATOM     83  C   UNL A   1      45.730  25.756  35.512  1.00  0.00     0.091 A 
ATOM     84  F   UNL A   1      43.506  25.492  34.690  1.00  0.00    -0.205 F 
ATOM     85  C   UNL A   1      46.930  26.483  35.517  1.00  0.00     0.022 A 
BRANCH  83  86
ATOM     86  S   UNL A   1      45.644  24.306  36.568  1.00  0.00     0.127 S 
ATOM     87  O   UNL A   1      45.370  23.247  35.598  1.00  0.00    -0.237 OA
ATOM     88  O   UNL A   1      46.986  24.267  37.150  1.00  0.00    -0.237 OA
ATOM     89  O   UNL A   1      44.578  24.567  37.526  1.00  0.00    -0.744 OA
ENDBRANCH  83  86
ENDBRANCH  56  79
ENDBRANCH  30  31
ENDBRANCH  22  25
ENDBRANCH  20  21
ENDBRANCH   1  20
TORSDOF 16
ENDMDL
MODEL 3
REMARK VINA RESULT:      -9.6      4.484      7.109
REMARK SMILES CC[C@H](Oc1c(C)cc(Br)cc1C)C(=O)NCCCNC(=O)c1ccc(-c2c3nc(c(-c4cccc(S(=O)(=O)[O-])c4F)c4ccc([nH]4)c(-c4cccc(S(=O)(=O)[O-])c4F)c4nc(c(-c5cccc(S(=O)(=O)[O-])c5F)c5ccc2[nH]5)C=C4)C=C3)cc1
REMARK SMILES IDX 18 1 17 2 16 3 14 4 15 5 3 7 2 8 1 9 4 10 5 11 6 12 12 13
REMARK SMILES IDX 7 14 8 15 11 16 13 17 9 18 10 19 19 20 20 21 21 22 22 24
REMARK SMILES IDX 23 25 24 26 85 27 25 28 84 29 26 30 27 31 28 32 78 33 29 34
REMARK SMILES IDX 83 35 77 36 79 37 30 38 82 39 76 40 75 41 31 43 63 44 43 45
REMARK SMILES IDX 62 46 44 47 47 48 61 49 80 50 45 51 46 52 60 54 81 55 48 56
REMARK SMILES IDX 32 57 33 58 41 59 34 60 36 61 42 62 35 63 37 64 38 65 39 66
REMARK SMILES IDX 40 67 64 68 65 69 73 70 66 71 68 72 74 73 67 74 69 75 70 76
REMARK SMILES IDX 71 77 72 78 49 79 50 80 58 81 51 82 53 83 59 84 52 85 54 86
REMARK SMILES IDX 55 87 56 88 57 89
REMARK H PARENT 16 6 20 23 79 42 47 53
REMARK Flexibility Score: inf
ROOT
ATOM      1  C   UNL A   1      33.493  28.064  25.135  1.00  0.00     0.042 C 
ENDROOT
BRANCH   1   2
ATOM      2  C   UNL A   1      33.495  26.555  24.955  1.00  0.00     0.118 C 
BRANCH   2   3
ATOM      3  N   UNL A   1      33.426  26.175  23.558  1.00  0.00    -0.353 N 
ATOM      4  C   UNL A   1      33.713  24.982  22.970  1.00  0.00     0.261 C 
ATOM      5  O   UNL A   1      33.599  24.915  21.741  1.00  0.00    -0.271 OA
ATOM      6  H   UNL A   1      33.128  26.885  22.945  1.00  0.00     0.163 HD
BRANCH   4   7
ATOM      7  C   UNL A   1      34.082  23.735  23.798  1.00  0.00     0.261 C 
BRANCH   7   8
ATOM      8  C   UNL A   1      35.220  22.957  23.098  1.00  0.00     0.052 C 
ATOM      9  C   UNL A   1      36.560  22.949  23.822  1.00  0.00     0.008 C 
ENDBRANCH   7   8
BRANCH   7  10
ATOM     10  O   UNL A   1      32.943  22.930  24.053  1.00  0.00    -0.480 OA
BRANCH  10  11
ATOM     11  C   UNL A   1      32.997  21.622  24.461  1.00  0.00     0.126 A 
ATOM     12  C   UNL A   1      33.503  21.082  25.667  1.00  0.00    -0.008 A 
ATOM     13  C   UNL A   1      32.469  20.728  23.488  1.00  0.00    -0.008 A 
ATOM     14  C   UNL A   1      34.181  21.833  26.779  1.00  0.00     0.048 C 
ATOM     15  C   UNL A   1      33.371  19.692  25.903  1.00  0.00     0.023 A 
ATOM     16  C   UNL A   1      32.373  19.349  23.752  1.00  0.00     0.023 A 
ATOM     17  C   UNL A   1      31.992  21.177  22.127  1.00  0.00     0.048 C 
ATOM     18  C   UNL A   1      32.809  18.841  24.961  1.00  0.00     0.018 A 
ATOM     19  Br  UNL A   1      32.671  16.993  25.327  1.00  0.00    -0.051 Br
ENDBRANCH  10  11
ENDBRANCH   7  10
ENDBRANCH   4   7
ENDBRANCH   2   3
ENDBRANCH   1   2
BRANCH   1  20
ATOM     20  C   UNL A   1      34.292  28.551  26.335  1.00  0.00     0.118 C 
BRANCH  20  21
ATOM     21  N   UNL A   1      33.946  29.906  26.741  1.00  0.00    -0.352 N 
ATOM     22  C   UNL A   1      34.567  30.739  27.643  1.00  0.00     0.251 C 
ATOM     23  H   UNL A   1      33.148  30.282  26.305  1.00  0.00     0.163 HD
ATOM     24  O   UNL A   1      34.025  31.786  27.977  1.00  0.00    -0.269 OA
BRANCH  22  25
ATOM     25  C   UNL A   1      35.874  30.356  28.220  1.00  0.00     0.039 A 
ATOM     26  C   UNL A   1      35.902  29.690  29.446  1.00  0.00     0.014 A 
ATOM     27  C   UNL A   1      37.064  30.642  27.549  1.00  0.00     0.014 A 
ATOM     28  C   UNL A   1      37.121  29.247  29.962  1.00  0.00     0.010 A 
ATOM     29  C   UNL A   1      38.263  30.115  28.013  1.00  0.00     0.010 A 
ATOM     30  C   UNL A   1      38.308  29.419  29.229  1.00  0.00    -0.014 A 
BRANCH  30  31
ATOM     31  C   UNL A   1      39.601  28.873  29.713  1.00  0.00     0.031 A 
ATOM     32  C   UNL A   1      40.341  29.554  30.832  1.00  0.00     0.074 A 
ATOM     33  C   UNL A   1      40.155  27.817  29.083  1.00  0.00     0.049 A 
ATOM     34  N   UNL A   1      41.507  29.259  31.348  1.00  0.00    -0.248 NA
ATOM     35  C   UNL A   1      39.705  30.739  31.434  1.00  0.00     0.031 C 
ATOM     36  C   UNL A   1      39.579  27.123  27.928  1.00  0.00     0.029 A 
ATOM     37  N   UNL A   1      41.339  27.160  29.305  1.00  0.00    -0.354 N 
ATOM     38  C   UNL A   1      41.762  30.241  32.297  1.00  0.00     0.074 A 
ATOM     39  C   UNL A   1      40.645  31.160  32.266  1.00  0.00     0.031 C 
ATOM     40  C   UNL A   1      40.405  26.136  27.549  1.00  0.00     0.029 A 
ATOM     41  C   UNL A   1      41.586  26.149  28.407  1.00  0.00     0.049 A 
ATOM     42  H   UNL A   1      41.954  27.391  30.040  1.00  0.00     0.167 HD
ATOM     43  C   UNL A   1      42.817  30.355  33.137  1.00  0.00     0.034 A 
ATOM     44  C   UNL A   1      42.649  25.330  28.277  1.00  0.00     0.034 A 
ATOM     45  C   UNL A   1      43.903  29.415  33.195  1.00  0.00     0.049 A 
ATOM     46  C   UNL A   1      43.785  25.447  29.255  1.00  0.00     0.074 A 
ATOM     47  C   UNL A   1      44.965  29.386  34.081  1.00  0.00     0.029 A 
ATOM     48  N   UNL A   1      44.076  28.350  32.326  1.00  0.00    -0.354 N 
ATOM     49  N   UNL A   1      43.930  26.284  30.254  1.00  0.00    -0.248 NA
ATOM     50  C   UNL A   1      44.888  24.484  29.113  1.00  0.00     0.031 C 
ATOM     51  C   UNL A   1      45.801  28.324  33.723  1.00  0.00     0.029 A 
ATOM     52  C   UNL A   1      45.237  27.665  32.643  1.00  0.00     0.049 A 
ATOM     53  H   UNL A   1      43.463  28.114  31.592  1.00  0.00     0.167 HD
ATOM     54  C   UNL A   1      45.119  25.929  30.880  1.00  0.00     0.074 A 
ATOM     55  C   UNL A   1      45.644  24.787  30.160  1.00  0.00     0.031 C 
ATOM     56  C   UNL A   1      45.726  26.503  31.947  1.00  0.00     0.034 A 
BRANCH  43  57
ATOM     57  C   UNL A   1      42.831  31.517  34.097  1.00  0.00     0.023 A 
ATOM     58  C   UNL A   1      43.418  32.739  33.711  1.00  0.00     0.012 A 
ATOM     59  C   UNL A   1      42.202  31.419  35.353  1.00  0.00     0.148 A 
ATOM     60  C   UNL A   1      43.409  33.836  34.571  1.00  0.00     0.002 A 
ATOM     61  C   UNL A   1      42.153  32.531  36.186  1.00  0.00     0.091 A 
ATOM     62  F   UNL A   1      41.668  30.243  35.711  1.00  0.00    -0.205 F 
ATOM     63  C   UNL A   1      42.766  33.736  35.803  1.00  0.00     0.022 A 
BRANCH  61  64
ATOM     64  S   UNL A   1      41.276  32.532  37.754  1.00  0.00     0.127 S 
ATOM     65  O   UNL A   1      39.963  32.025  37.357  1.00  0.00    -0.237 OA
ATOM     66  O   UNL A   1      42.074  31.602  38.551  1.00  0.00    -0.237 OA
ATOM     67  O   UNL A   1      41.294  33.910  38.225  1.00  0.00    -0.744 OA
ENDBRANCH  61  64
ENDBRANCH  43  57
BRANCH  44  68
ATOM     68  C   UNL A   1      42.660  24.292  27.208  1.00  0.00     0.023 A 
ATOM     69  C   UNL A   1      43.344  24.542  26.003  1.00  0.00     0.012 A 
ATOM     70  C   UNL A   1      42.028  23.047  27.394  1.00  0.00     0.148 A 
ATOM     71  C   UNL A   1      43.372  23.583  24.989  1.00  0.00     0.002 A 
ATOM     72  C   UNL A   1      42.108  22.075  26.405  1.00  0.00     0.091 A 
ATOM     73  F   UNL A   1      41.376  22.833  28.546  1.00  0.00    -0.205 F 
ATOM     74  C   UNL A   1      42.764  22.347  25.193  1.00  0.00     0.022 A 
BRANCH  72  75
ATOM     75  S   UNL A   1      41.475  20.410  26.635  1.00  0.00     0.127 S 
ATOM     76  O   UNL A   1      40.033  20.638  26.649  1.00  0.00    -0.237 OA
ATOM     77  O   UNL A   1      41.981  19.730  25.441  1.00  0.00    -0.237 OA
ATOM     78  O   UNL A   1      42.051  19.936  27.885  1.00  0.00    -0.744 OA
ENDBRANCH  72  75
ENDBRANCH  44  68
BRANCH  56  79
ATOM     79  C   UNL A   1      47.012  25.888  32.438  1.00  0.00     0.023 A 
ATOM     80  C   UNL A   1      46.999  25.012  33.541  1.00  0.00     0.012 A 
ATOM     81  C   UNL A   1      48.221  26.121  31.753  1.00  0.00     0.148 A 
ATOM     82  C   UNL A   1      48.176  24.404  33.976  1.00  0.00     0.002 A 
ATOM     83  C   UNL A   1      49.380  25.470  32.159  1.00  0.00     0.091 A 
ATOM     84  F   UNL A   1      48.216  26.972  30.716  1.00  0.00    -0.205 F 
ATOM     85  C   UNL A   1      49.361  24.623  33.278  1.00  0.00     0.022 A 
BRANCH  83  86
ATOM     86  S   UNL A   1      50.929  25.613  31.263  1.00  0.00     0.127 S 
ATOM     87  O   UNL A   1      51.308  26.998  31.542  1.00  0.00    -0.237 OA
ATOM     88  O   UNL A   1      51.762  24.608  31.923  1.00  0.00    -0.237 OA
ATOM     89  O   UNL A   1      50.618  25.321  29.870  1.00  0.00    -0.744 OA
ENDBRANCH  83  86
ENDBRANCH  56  79
ENDBRANCH  30  31
ENDBRANCH  22  25
ENDBRANCH  20  21
ENDBRANCH   1  20
TORSDOF 16
ENDMDL
