MODEL 1
REMARK VINA RESULT:     -11.0      0.000      0.000
REMARK SMILES C[C@H](CNS(=O)(=O)CCC(=O)NCCCNC(=O)c1ccc(-c2c3nc(c(-c4cccc(S(=O)(=O)[O-])c4F)c4ccc([nH]4)c(-c4cccc(S(=O)(=O)[O-])c4F)c4nc(c(-c5cccc(S(=O)(=O)[O-])c5F)c5ccc2[nH]5)C=C4)C=C3)cc1)c1ccccc1
REMARK SMILES IDX 10 1 11 2 12 3 9 5 8 6 5 7 6 8 7 9 4 10 3 12 2 13 1 14 82 15
REMARK SMILES IDX 83 16 87 17 84 18 86 19 85 20 13 21 14 22 15 23 16 24 17 25
REMARK SMILES IDX 18 27 19 28 20 29 81 30 21 31 80 32 22 33 23 34 24 35 74 36
REMARK SMILES IDX 25 37 79 38 73 39 75 40 26 41 78 42 72 43 71 44 27 46 59 47
REMARK SMILES IDX 39 48 58 49 40 50 43 51 57 52 76 53 41 54 42 55 56 57 77 58
REMARK SMILES IDX 44 59 28 60 29 61 37 62 30 63 32 64 38 65 31 66 33 67 34 68
REMARK SMILES IDX 35 69 36 70 60 71 61 72 69 73 62 74 64 75 70 76 63 77 65 78
REMARK SMILES IDX 66 79 67 80 68 81 45 82 46 83 54 84 47 85 49 86 55 87 48 88
REMARK SMILES IDX 50 89 51 90 52 91 53 92
REMARK H PARENT 12 4 4 11 16 26 75 45 43 56
REMARK Flexibility Score: inf
ROOT
ATOM      1  C   UNL A   1      33.255  25.900  24.555  1.00  0.00     0.221 C 
ATOM      2  O   UNL A   1      33.584  25.752  23.376  1.00  0.00    -0.275 OA
ATOM      3  N   UNL A   1      32.317  26.849  24.853  1.00  0.00    -0.356 N 
ATOM      4  H   UNL A   1      32.181  27.520  24.144  1.00  0.00     0.163 HD
ENDROOT
BRANCH   1   5
ATOM      5  C   UNL A   1      33.971  25.123  25.625  1.00  0.00     0.117 C 
BRANCH   5   6
ATOM      6  C   UNL A   1      33.670  23.635  25.502  1.00  0.00     0.164 C 
BRANCH   6   7
ATOM      7  S   UNL A   1      31.989  23.203  25.925  1.00  0.00     0.212 S 
ATOM      8  O   UNL A   1      31.125  23.755  24.913  1.00  0.00    -0.212 OA
ATOM      9  O   UNL A   1      31.830  23.549  27.322  1.00  0.00    -0.212 OA
BRANCH   7  10
ATOM     10  N   UNL A   1      31.940  21.514  25.796  1.00  0.00    -0.215 NA
ATOM     11  H   UNL A   1      31.176  21.184  26.388  1.00  0.00     0.141 HD
BRANCH  10  12
ATOM     12  C   UNL A   1      33.161  20.766  26.184  1.00  0.00     0.106 C 
BRANCH  12  13
ATOM     13  C   UNL A   1      33.876  19.995  25.027  1.00  0.00     0.031 C 
ATOM     14  C   UNL A   1      35.377  20.304  24.930  1.00  0.00     0.014 C 
BRANCH  13  15
ATOM     15  C   UNL A   1      33.573  18.513  24.818  1.00  0.00    -0.044 A 
ATOM     16  C   UNL A   1      32.728  17.855  25.741  1.00  0.00     0.004 A 
ATOM     17  C   UNL A   1      34.215  17.722  23.857  1.00  0.00     0.004 A 
ATOM     18  C   UNL A   1      32.551  16.471  25.725  1.00  0.00     0.000 A 
ATOM     19  C   UNL A   1      34.064  16.328  23.863  1.00  0.00     0.000 A 
ATOM     20  C   UNL A   1      33.241  15.703  24.799  1.00  0.00     0.000 A 
ENDBRANCH  13  15
ENDBRANCH  12  13
ENDBRANCH  10  12
ENDBRANCH   7  10
ENDBRANCH   6   7
ENDBRANCH   5   6
ENDBRANCH   1   5
BRANCH   3  21
ATOM     21  C   UNL A   1      31.481  27.044  26.033  1.00  0.00     0.117 C 
BRANCH  21  22
ATOM     22  C   UNL A   1      32.057  27.837  27.218  1.00  0.00     0.042 C 
BRANCH  22  23
ATOM     23  C   UNL A   1      33.438  28.489  27.141  1.00  0.00     0.118 C 
BRANCH  23  24
ATOM     24  N   UNL A   1      33.406  29.937  27.110  1.00  0.00    -0.352 N 
ATOM     25  C   UNL A   1      34.354  30.799  27.616  1.00  0.00     0.251 C 
ATOM     26  H   UNL A   1      32.622  30.349  26.681  1.00  0.00     0.163 HD
ATOM     27  O   UNL A   1      34.115  32.001  27.680  1.00  0.00    -0.269 OA
BRANCH  25  28
ATOM     28  C   UNL A   1      35.656  30.276  28.093  1.00  0.00     0.039 A 
ATOM     29  C   UNL A   1      35.749  29.743  29.382  1.00  0.00     0.014 A 
ATOM     30  C   UNL A   1      36.794  30.362  27.291  1.00  0.00     0.014 A 
ATOM     31  C   UNL A   1      36.982  29.280  29.861  1.00  0.00     0.010 A 
ATOM     32  C   UNL A   1      38.016  29.870  27.764  1.00  0.00     0.010 A 
ATOM     33  C   UNL A   1      38.131  29.336  29.055  1.00  0.00    -0.014 A 
BRANCH  33  34
ATOM     34  C   UNL A   1      39.439  28.815  29.546  1.00  0.00     0.031 A 
ATOM     35  C   UNL A   1      40.179  29.493  30.668  1.00  0.00     0.074 A 
ATOM     36  C   UNL A   1      39.998  27.750  28.938  1.00  0.00     0.049 A 
ATOM     37  N   UNL A   1      41.298  29.139  31.252  1.00  0.00    -0.248 NA
ATOM     38  C   UNL A   1      39.603  30.740  31.192  1.00  0.00     0.031 C 
ATOM     39  C   UNL A   1      39.441  27.059  27.775  1.00  0.00     0.029 A 
ATOM     40  N   UNL A   1      41.168  27.077  29.196  1.00  0.00    -0.354 N 
ATOM     41  C   UNL A   1      41.573  30.127  32.191  1.00  0.00     0.074 A 
ATOM     42  C   UNL A   1      40.518  31.112  32.078  1.00  0.00     0.031 C 
ATOM     43  C   UNL A   1      40.263  26.057  27.424  1.00  0.00     0.029 A 
ATOM     44  C   UNL A   1      41.417  26.048  28.318  1.00  0.00     0.049 A 
ATOM     45  H   UNL A   1      41.771  27.310  29.939  1.00  0.00     0.167 HD
ATOM     46  C   UNL A   1      42.595  30.200  33.081  1.00  0.00     0.034 A 
ATOM     47  C   UNL A   1      42.456  25.193  28.234  1.00  0.00     0.034 A 
ATOM     48  C   UNL A   1      43.638  29.215  33.199  1.00  0.00     0.049 A 
ATOM     49  C   UNL A   1      43.559  25.267  29.254  1.00  0.00     0.074 A 
ATOM     50  C   UNL A   1      44.657  29.147  34.135  1.00  0.00     0.029 A 
ATOM     51  N   UNL A   1      43.820  28.144  32.337  1.00  0.00    -0.354 N 
ATOM     52  N   UNL A   1      43.698  26.097  30.258  1.00  0.00    -0.248 NA
ATOM     53  C   UNL A   1      44.626  24.260  29.156  1.00  0.00     0.031 C 
ATOM     54  C   UNL A   1      45.482  28.065  33.808  1.00  0.00     0.029 A 
ATOM     55  C   UNL A   1      44.949  27.426  32.700  1.00  0.00     0.049 A 
ATOM     56  H   UNL A   1      43.233  27.926  31.577  1.00  0.00     0.167 HD
ATOM     57  C   UNL A   1      44.850  25.698  30.927  1.00  0.00     0.074 A 
ATOM     58  C   UNL A   1      45.358  24.536  30.227  1.00  0.00     0.031 C 
ATOM     59  C   UNL A   1      45.437  26.252  32.018  1.00  0.00     0.034 A 
BRANCH  46  60
ATOM     60  C   UNL A   1      42.623  31.385  34.018  1.00  0.00     0.023 A 
ATOM     61  C   UNL A   1      43.267  32.578  33.625  1.00  0.00     0.012 A 
ATOM     62  C   UNL A   1      41.978  31.333  35.270  1.00  0.00     0.148 A 
ATOM     63  C   UNL A   1      43.313  33.678  34.482  1.00  0.00     0.002 A 
ATOM     64  C   UNL A   1      41.985  32.451  36.097  1.00  0.00     0.091 A 
ATOM     65  F   UNL A   1      41.382  30.189  35.636  1.00  0.00    -0.205 F 
ATOM     66  C   UNL A   1      42.666  33.617  35.713  1.00  0.00     0.022 A 
BRANCH  64  67
ATOM     67  S   UNL A   1      41.111  32.500  37.666  1.00  0.00     0.127 S 
ATOM     68  O   UNL A   1      39.790  32.005  37.281  1.00  0.00    -0.237 OA
ATOM     69  O   UNL A   1      41.894  31.572  38.484  1.00  0.00    -0.237 OA
ATOM     70  O   UNL A   1      41.157  33.886  38.108  1.00  0.00    -0.744 OA
ENDBRANCH  64  67
ENDBRANCH  46  60
BRANCH  47  71
ATOM     71  C   UNL A   1      42.466  24.156  27.164  1.00  0.00     0.023 A 
ATOM     72  C   UNL A   1      43.305  24.311  26.044  1.00  0.00     0.012 A 
ATOM     73  C   UNL A   1      41.685  22.990  27.283  1.00  0.00     0.148 A 
ATOM     74  C   UNL A   1      43.354  23.333  25.051  1.00  0.00     0.002 A 
ATOM     75  C   UNL A   1      41.779  21.993  26.320  1.00  0.00     0.091 A 
ATOM     76  F   UNL A   1      40.886  22.870  28.352  1.00  0.00    -0.205 F 
ATOM     77  C   UNL A   1      42.601  22.169  25.195  1.00  0.00     0.022 A 
BRANCH  75  78
ATOM     78  S   UNL A   1      40.951  20.409  26.484  1.00  0.00     0.127 S 
ATOM     79  O   UNL A   1      41.147  20.116  27.902  1.00  0.00    -0.237 OA
ATOM     80  O   UNL A   1      39.579  20.752  26.109  1.00  0.00    -0.237 OA
ATOM     81  O   UNL A   1      41.626  19.511  25.559  1.00  0.00    -0.744 OA
ENDBRANCH  75  78
ENDBRANCH  47  71
BRANCH  59  82
ATOM     82  C   UNL A   1      46.686  25.596  32.552  1.00  0.00     0.023 A 
ATOM     83  C   UNL A   1      47.954  26.005  32.092  1.00  0.00     0.012 A 
ATOM     84  C   UNL A   1      46.604  24.614  33.560  1.00  0.00     0.148 A 
ATOM     85  C   UNL A   1      49.116  25.421  32.597  1.00  0.00     0.002 A 
ATOM     86  C   UNL A   1      47.767  24.076  34.098  1.00  0.00     0.091 A 
ATOM     87  F   UNL A   1      45.390  24.223  33.974  1.00  0.00    -0.205 F 
ATOM     88  C   UNL A   1      49.023  24.468  33.608  1.00  0.00     0.022 A 
BRANCH  86  89
ATOM     89  S   UNL A   1      47.749  22.915  35.469  1.00  0.00     0.127 S 
ATOM     90  O   UNL A   1      47.130  23.713  36.526  1.00  0.00    -0.237 OA
ATOM     91  O   UNL A   1      46.908  21.836  34.950  1.00  0.00    -0.237 OA
ATOM     92  O   UNL A   1      49.138  22.542  35.702  1.00  0.00    -0.744 OA
ENDBRANCH  86  89
ENDBRANCH  59  82
ENDBRANCH  33  34
ENDBRANCH  25  28
ENDBRANCH  23  24
ENDBRANCH  22  23
ENDBRANCH  21  22
ENDBRANCH   3  21
TORSDOF 19
ENDMDL
MODEL 2
REMARK VINA RESULT:     -10.9      4.771      9.356
REMARK SMILES C[C@H](CNS(=O)(=O)CCC(=O)NCCCNC(=O)c1ccc(-c2c3nc(c(-c4cccc(S(=O)(=O)[O-])c4F)c4ccc([nH]4)c(-c4cccc(S(=O)(=O)[O-])c4F)c4nc(c(-c5cccc(S(=O)(=O)[O-])c5F)c5ccc2[nH]5)C=C4)C=C3)cc1)c1ccccc1
REMARK SMILES IDX 10 1 11 2 12 3 9 5 8 6 5 7 6 8 7 9 4 10 3 12 2 13 1 14 82 15
REMARK SMILES IDX 83 16 87 17 84 18 86 19 85 20 13 21 14 22 15 23 16 24 17 25
REMARK SMILES IDX 18 27 19 28 20 29 81 30 21 31 80 32 22 33 23 34 24 35 74 36
REMARK SMILES IDX 25 37 79 38 73 39 75 40 26 41 78 42 72 43 71 44 27 46 59 47
REMARK SMILES IDX 39 48 58 49 40 50 43 51 57 52 76 53 41 54 42 55 56 57 77 58
REMARK SMILES IDX 44 59 28 60 29 61 37 62 30 63 32 64 38 65 31 66 33 67 34 68
REMARK SMILES IDX 35 69 36 70 60 71 61 72 69 73 62 74 64 75 70 76 63 77 65 78
REMARK SMILES IDX 66 79 67 80 68 81 45 82 46 83 54 84 47 85 49 86 55 87 48 88
REMARK SMILES IDX 50 89 51 90 52 91 53 92
REMARK H PARENT 12 4 4 11 16 26 75 45 43 56
REMARK Flexibility Score: inf
ROOT
ATOM      1  C   UNL A   1      32.938  25.720  23.885  1.00  0.00     0.221 C 
ATOM      2  O   UNL A   1      32.907  26.943  23.739  1.00  0.00    -0.275 OA
ATOM      3  N   UNL A   1      34.044  25.043  23.454  1.00  0.00    -0.356 N 
ATOM      4  H   UNL A   1      34.605  25.546  22.820  1.00  0.00     0.163 HD
ENDROOT
BRANCH   1   5
ATOM      5  C   UNL A   1      31.725  25.008  24.419  1.00  0.00     0.117 C 
BRANCH   5   6
ATOM      6  C   UNL A   1      31.697  25.061  25.941  1.00  0.00     0.164 C 
BRANCH   6   7
ATOM      7  S   UNL A   1      31.350  23.485  26.708  1.00  0.00     0.212 S 
ATOM      8  O   UNL A   1      30.061  23.578  27.344  1.00  0.00    -0.212 OA
ATOM      9  O   UNL A   1      32.539  23.141  27.461  1.00  0.00    -0.212 OA
BRANCH   7  10
ATOM     10  N   UNL A   1      31.220  22.401  25.411  1.00  0.00    -0.215 NA
ATOM     11  H   UNL A   1      30.282  22.000  25.441  1.00  0.00     0.141 HD
BRANCH  10  12
ATOM     12  C   UNL A   1      32.186  21.276  25.365  1.00  0.00     0.106 C 
BRANCH  12  13
ATOM     13  C   UNL A   1      32.158  20.416  24.060  1.00  0.00     0.031 C 
ATOM     14  C   UNL A   1      32.088  21.259  22.779  1.00  0.00     0.014 C 
BRANCH  13  15
ATOM     15  C   UNL A   1      33.114  19.232  23.926  1.00  0.00    -0.044 A 
ATOM     16  C   UNL A   1      32.688  18.094  23.205  1.00  0.00     0.004 A 
ATOM     17  C   UNL A   1      34.329  19.139  24.616  1.00  0.00     0.004 A 
ATOM     18  C   UNL A   1      33.424  16.909  23.192  1.00  0.00     0.000 A 
ATOM     19  C   UNL A   1      35.050  17.936  24.632  1.00  0.00     0.000 A 
ATOM     20  C   UNL A   1      34.596  16.821  23.928  1.00  0.00     0.000 A 
ENDBRANCH  13  15
ENDBRANCH  12  13
ENDBRANCH  10  12
ENDBRANCH   7  10
ENDBRANCH   6   7
ENDBRANCH   5   6
ENDBRANCH   1   5
BRANCH   3  21
ATOM     21  C   UNL A   1      34.543  23.707  23.767  1.00  0.00     0.117 C 
BRANCH  21  22
ATOM     22  C   UNL A   1      35.410  23.522  25.023  1.00  0.00     0.042 C 
BRANCH  22  23
ATOM     23  C   UNL A   1      36.910  23.816  25.003  1.00  0.00     0.118 C 
BRANCH  23  24
ATOM     24  N   UNL A   1      37.735  22.706  25.434  1.00  0.00    -0.352 N 
ATOM     25  C   UNL A   1      38.914  22.776  26.142  1.00  0.00     0.251 C 
ATOM     26  H   UNL A   1      37.418  21.805  25.195  1.00  0.00     0.163 HD
ATOM     27  O   UNL A   1      39.600  21.768  26.287  1.00  0.00    -0.269 OA
BRANCH  25  28
ATOM     28  C   UNL A   1      39.360  24.065  26.721  1.00  0.00     0.039 A 
ATOM     29  C   UNL A   1      40.099  24.950  25.931  1.00  0.00     0.014 A 
ATOM     30  C   UNL A   1      39.097  24.375  28.056  1.00  0.00     0.014 A 
ATOM     31  C   UNL A   1      40.561  26.156  26.476  1.00  0.00     0.010 A 
ATOM     32  C   UNL A   1      39.535  25.594  28.584  1.00  0.00     0.010 A 
ATOM     33  C   UNL A   1      40.281  26.494  27.810  1.00  0.00    -0.014 A 
BRANCH  33  34
ATOM     34  C   UNL A   1      40.741  27.790  28.386  1.00  0.00     0.031 A 
ATOM     35  C   UNL A   1      42.207  28.094  28.557  1.00  0.00     0.074 A 
ATOM     36  C   UNL A   1      39.829  28.685  28.816  1.00  0.00     0.049 A 
ATOM     37  N   UNL A   1      42.776  29.192  28.988  1.00  0.00    -0.248 NA
ATOM     38  C   UNL A   1      43.156  27.023  28.218  1.00  0.00     0.031 C 
ATOM     39  C   UNL A   1      38.381  28.478  28.806  1.00  0.00     0.029 A 
ATOM     40  N   UNL A   1      39.983  29.935  29.366  1.00  0.00    -0.354 N 
ATOM     41  C   UNL A   1      44.144  28.939  28.998  1.00  0.00     0.074 A 
ATOM     42  C   UNL A   1      44.315  27.571  28.556  1.00  0.00     0.031 C 
ATOM     43  C   UNL A   1      37.778  29.563  29.316  1.00  0.00     0.029 A 
ATOM     44  C   UNL A   1      38.796  30.533  29.714  1.00  0.00     0.049 A 
ATOM     45  H   UNL A   1      40.861  30.361  29.497  1.00  0.00     0.167 HD
ATOM     46  C   UNL A   1      45.165  29.772  29.322  1.00  0.00     0.034 A 
ATOM     47  C   UNL A   1      38.545  31.725  30.293  1.00  0.00     0.034 A 
ATOM     48  C   UNL A   1      44.994  31.135  29.751  1.00  0.00     0.049 A 
ATOM     49  C   UNL A   1      39.689  32.648  30.608  1.00  0.00     0.074 A 
ATOM     50  C   UNL A   1      45.967  32.088  30.003  1.00  0.00     0.029 A 
ATOM     51  N   UNL A   1      43.773  31.733  30.027  1.00  0.00    -0.354 N 
ATOM     52  N   UNL A   1      40.974  32.461  30.427  1.00  0.00    -0.248 NA
ATOM     53  C   UNL A   1      39.349  33.965  31.169  1.00  0.00     0.031 C 
ATOM     54  C   UNL A   1      45.337  33.244  30.478  1.00  0.00     0.029 A 
ATOM     55  C   UNL A   1      43.968  33.031  30.472  1.00  0.00     0.049 A 
ATOM     56  H   UNL A   1      42.896  31.299  29.922  1.00  0.00     0.167 HD
ATOM     57  C   UNL A   1      41.593  33.641  30.824  1.00  0.00     0.074 A 
ATOM     58  C   UNL A   1      40.539  34.547  31.233  1.00  0.00     0.031 C 
ATOM     59  C   UNL A   1      42.915  33.941  30.853  1.00  0.00     0.034 A 
BRANCH  46  60
ATOM     60  C   UNL A   1      46.571  29.233  29.204  1.00  0.00     0.023 A 
ATOM     61  C   UNL A   1      47.167  28.572  30.300  1.00  0.00     0.012 A 
ATOM     62  C   UNL A   1      47.290  29.342  27.996  1.00  0.00     0.148 A 
ATOM     63  C   UNL A   1      48.468  28.078  30.213  1.00  0.00     0.002 A 
ATOM     64  C   UNL A   1      48.568  28.803  27.902  1.00  0.00     0.091 A 
ATOM     65  F   UNL A   1      46.718  29.984  26.967  1.00  0.00    -0.205 F 
ATOM     66  C   UNL A   1      49.165  28.186  29.013  1.00  0.00     0.022 A 
BRANCH  64  67
ATOM     67  S   UNL A   1      49.515  28.818  26.375  1.00  0.00     0.127 S 
ATOM     68  O   UNL A   1      48.512  28.385  25.403  1.00  0.00    -0.237 OA
ATOM     69  O   UNL A   1      49.900  30.226  26.265  1.00  0.00    -0.237 OA
ATOM     70  O   UNL A   1      50.625  27.899  26.582  1.00  0.00    -0.744 OA
ENDBRANCH  64  67
ENDBRANCH  46  60
BRANCH  47  71
ATOM     71  C   UNL A   1      37.136  32.127  30.561  1.00  0.00     0.023 A 
ATOM     72  C   UNL A   1      36.592  31.965  31.849  1.00  0.00     0.012 A 
ATOM     73  C   UNL A   1      36.353  32.723  29.553  1.00  0.00     0.148 A 
ATOM     74  C   UNL A   1      35.286  32.370  32.125  1.00  0.00     0.002 A 
ATOM     75  C   UNL A   1      35.073  33.176  29.848  1.00  0.00     0.091 A 
ATOM     76  F   UNL A   1      36.888  32.858  28.332  1.00  0.00    -0.205 F 
ATOM     77  C   UNL A   1      34.531  32.986  31.129  1.00  0.00     0.022 A 
BRANCH  75  78
ATOM     78  S   UNL A   1      34.077  34.096  28.672  1.00  0.00     0.127 S 
ATOM     79  O   UNL A   1      33.703  33.055  27.718  1.00  0.00    -0.237 OA
ATOM     80  O   UNL A   1      32.985  34.577  29.519  1.00  0.00    -0.237 OA
ATOM     81  O   UNL A   1      34.945  35.142  28.150  1.00  0.00    -0.744 OA
ENDBRANCH  75  78
ENDBRANCH  47  71
BRANCH  59  82
ATOM     82  C   UNL A   1      43.312  35.322  31.318  1.00  0.00     0.023 A 
ATOM     83  C   UNL A   1      43.645  35.546  32.668  1.00  0.00     0.012 A 
ATOM     84  C   UNL A   1      43.415  36.384  30.397  1.00  0.00     0.148 A 
ATOM     85  C   UNL A   1      44.035  36.813  33.103  1.00  0.00     0.002 A 
ATOM     86  C   UNL A   1      43.857  37.631  30.826  1.00  0.00     0.091 A 
ATOM     87  F   UNL A   1      43.077  36.158  29.119  1.00  0.00    -0.205 F 
ATOM     88  C   UNL A   1      44.154  37.850  32.181  1.00  0.00     0.022 A 
BRANCH  86  89
ATOM     89  S   UNL A   1      44.135  38.998  29.694  1.00  0.00     0.127 S 
ATOM     90  O   UNL A   1      42.792  39.219  29.160  1.00  0.00    -0.237 OA
ATOM     91  O   UNL A   1      44.613  40.050  30.592  1.00  0.00    -0.237 OA
ATOM     92  O   UNL A   1      45.121  38.530  28.730  1.00  0.00    -0.744 OA
ENDBRANCH  86  89
ENDBRANCH  59  82
ENDBRANCH  33  34
ENDBRANCH  25  28
ENDBRANCH  23  24
ENDBRANCH  22  23
ENDBRANCH  21  22
ENDBRANCH   3  21
TORSDOF 19
ENDMDL
MODEL 3
REMARK VINA RESULT:     -10.8      5.621      8.344
REMARK SMILES C[C@H](CNS(=O)(=O)CCC(=O)NCCCNC(=O)c1ccc(-c2c3nc(c(-c4cccc(S(=O)(=O)[O-])c4F)c4ccc([nH]4)c(-c4cccc(S(=O)(=O)[O-])c4F)c4nc(c(-c5cccc(S(=O)(=O)[O-])c5F)c5ccc2[nH]5)C=C4)C=C3)cc1)c1ccccc1
REMARK SMILES IDX 10 1 11 2 12 3 9 5 8 6 5 7 6 8 7 9 4 10 3 12 2 13 1 14 82 15
REMARK SMILES IDX 83 16 87 17 84 18 86 19 85 20 13 21 14 22 15 23 16 24 17 25
REMARK SMILES IDX 18 27 19 28 20 29 81 30 21 31 80 32 22 33 23 34 24 35 74 36
REMARK SMILES IDX 25 37 79 38 73 39 75 40 26 41 78 42 72 43 71 44 27 46 59 47
REMARK SMILES IDX 39 48 58 49 40 50 43 51 57 52 76 53 41 54 42 55 56 57 77 58
REMARK SMILES IDX 44 59 28 60 29 61 37 62 30 63 32 64 38 65 31 66 33 67 34 68
REMARK SMILES IDX 35 69 36 70 60 71 61 72 69 73 62 74 64 75 70 76 63 77 65 78
REMARK SMILES IDX 66 79 67 80 68 81 45 82 46 83 54 84 47 85 49 86 55 87 48 88
REMARK SMILES IDX 50 89 51 90 52 91 53 92
REMARK H PARENT 12 4 4 11 16 26 75 45 43 56
REMARK Flexibility Score: inf
ROOT
ATOM      1  C   UNL A   1      36.356  22.869  23.722  1.00  0.00     0.221 C 
ATOM      2  O   UNL A   1      36.664  23.557  22.747  1.00  0.00    -0.275 OA
ATOM      3  N   UNL A   1      36.918  21.629  23.845  1.00  0.00    -0.356 N 
ATOM      4  H   UNL A   1      37.310  21.278  23.011  1.00  0.00     0.163 HD
ENDROOT
BRANCH   1   5
ATOM      5  C   UNL A   1      35.297  23.361  24.669  1.00  0.00     0.117 C 
BRANCH   5   6
ATOM      6  C   UNL A   1      34.387  24.371  23.981  1.00  0.00     0.164 C 
BRANCH   6   7
ATOM      7  S   UNL A   1      32.961  23.636  23.195  1.00  0.00     0.212 S 
ATOM      8  O   UNL A   1      33.406  22.998  21.983  1.00  0.00    -0.212 OA
ATOM      9  O   UNL A   1      31.944  24.667  23.175  1.00  0.00    -0.212 OA
BRANCH   7  10
ATOM     10  N   UNL A   1      32.459  22.428  24.272  1.00  0.00    -0.215 NA
ATOM     11  H   UNL A   1      32.974  22.562  25.143  1.00  0.00     0.141 HD
BRANCH  10  12
ATOM     12  C   UNL A   1      32.651  21.018  23.853  1.00  0.00     0.106 C 
BRANCH  12  13
ATOM     13  C   UNL A   1      33.529  20.144  24.805  1.00  0.00     0.031 C 
ATOM     14  C   UNL A   1      33.533  20.644  26.256  1.00  0.00     0.014 C 
BRANCH  13  15
ATOM     15  C   UNL A   1      33.441  18.621  24.715  1.00  0.00    -0.044 A 
ATOM     16  C   UNL A   1      32.567  17.938  25.592  1.00  0.00     0.004 A 
ATOM     17  C   UNL A   1      34.298  17.844  23.927  1.00  0.00     0.004 A 
ATOM     18  C   UNL A   1      32.566  16.547  25.697  1.00  0.00     0.000 A 
ATOM     19  C   UNL A   1      34.321  16.448  24.059  1.00  0.00     0.000 A 
ATOM     20  C   UNL A   1      33.462  15.801  24.947  1.00  0.00     0.000 A 
ENDBRANCH  13  15
ENDBRANCH  12  13
ENDBRANCH  10  12
ENDBRANCH   7  10
ENDBRANCH   6   7
ENDBRANCH   5   6
ENDBRANCH   1   5
BRANCH   3  21
ATOM     21  C   UNL A   1      37.041  20.733  24.990  1.00  0.00     0.117 C 
BRANCH  21  22
ATOM     22  C   UNL A   1      38.289  19.839  25.093  1.00  0.00     0.042 C 
BRANCH  22  23
ATOM     23  C   UNL A   1      39.398  20.138  26.102  1.00  0.00     0.118 C 
BRANCH  23  24
ATOM     24  N   UNL A   1      40.496  19.194  26.068  1.00  0.00    -0.352 N 
ATOM     25  C   UNL A   1      41.842  19.487  26.076  1.00  0.00     0.251 C 
ATOM     26  H   UNL A   1      40.255  18.241  26.035  1.00  0.00     0.163 HD
ATOM     27  O   UNL A   1      42.662  18.599  25.864  1.00  0.00    -0.269 OA
BRANCH  25  28
ATOM     28  C   UNL A   1      42.300  20.874  26.330  1.00  0.00     0.039 A 
ATOM     29  C   UNL A   1      42.506  21.296  27.646  1.00  0.00     0.014 A 
ATOM     30  C   UNL A   1      42.472  21.771  25.275  1.00  0.00     0.014 A 
ATOM     31  C   UNL A   1      42.902  22.615  27.904  1.00  0.00     0.010 A 
ATOM     32  C   UNL A   1      42.897  23.078  25.538  1.00  0.00     0.010 A 
ATOM     33  C   UNL A   1      43.105  23.523  26.851  1.00  0.00    -0.014 A 
BRANCH  33  34
ATOM     34  C   UNL A   1      43.559  24.918  27.116  1.00  0.00     0.031 A 
ATOM     35  C   UNL A   1      42.614  25.956  27.663  1.00  0.00     0.074 A 
ATOM     36  C   UNL A   1      44.821  25.275  26.808  1.00  0.00     0.049 A 
ATOM     37  N   UNL A   1      42.860  27.198  28.003  1.00  0.00    -0.248 NA
ATOM     38  C   UNL A   1      41.209  25.558  27.835  1.00  0.00     0.031 C 
ATOM     39  C   UNL A   1      45.810  24.400  26.178  1.00  0.00     0.029 A 
ATOM     40  N   UNL A   1      45.482  26.470  26.959  1.00  0.00    -0.354 N 
ATOM     41  C   UNL A   1      41.642  27.736  28.403  1.00  0.00     0.074 A 
ATOM     42  C   UNL A   1      40.652  26.693  28.235  1.00  0.00     0.031 C 
ATOM     43  C   UNL A   1      46.953  25.082  26.003  1.00  0.00     0.029 A 
ATOM     44  C   UNL A   1      46.772  26.449  26.484  1.00  0.00     0.049 A 
ATOM     45  H   UNL A   1      45.071  27.265  27.369  1.00  0.00     0.167 HD
ATOM     46  C   UNL A   1      41.373  28.976  28.886  1.00  0.00     0.034 A 
ATOM     47  C   UNL A   1      47.708  27.419  26.432  1.00  0.00     0.034 A 
ATOM     48  C   UNL A   1      42.360  30.009  29.061  1.00  0.00     0.049 A 
ATOM     49  C   UNL A   1      47.402  28.774  27.009  1.00  0.00     0.074 A 
ATOM     50  C   UNL A   1      42.206  31.259  29.637  1.00  0.00     0.029 A 
ATOM     51  N   UNL A   1      43.677  29.930  28.633  1.00  0.00    -0.354 N 
ATOM     52  N   UNL A   1      46.294  29.203  27.562  1.00  0.00    -0.248 NA
ATOM     53  C   UNL A   1      48.486  29.766  26.993  1.00  0.00     0.031 C 
ATOM     54  C   UNL A   1      43.415  31.952  29.512  1.00  0.00     0.029 A 
ATOM     55  C   UNL A   1      44.339  31.117  28.906  1.00  0.00     0.049 A 
ATOM     56  H   UNL A   1      44.082  29.145  28.199  1.00  0.00     0.167 HD
ATOM     57  C   UNL A   1      46.554  30.502  27.984  1.00  0.00     0.074 A 
ATOM     58  C   UNL A   1      47.934  30.781  27.643  1.00  0.00     0.031 C 
ATOM     59  C   UNL A   1      45.721  31.383  28.591  1.00  0.00     0.034 A 
BRANCH  46  60
ATOM     60  C   UNL A   1      39.946  29.278  29.281  1.00  0.00     0.023 A 
ATOM     61  C   UNL A   1      38.981  29.541  28.286  1.00  0.00     0.012 A 
ATOM     62  C   UNL A   1      39.551  29.261  30.634  1.00  0.00     0.148 A 
ATOM     63  C   UNL A   1      37.661  29.833  28.633  1.00  0.00     0.002 A 
ATOM     64  C   UNL A   1      38.223  29.504  30.968  1.00  0.00     0.091 A 
ATOM     65  F   UNL A   1      40.481  29.023  31.570  1.00  0.00    -0.205 F 
ATOM     66  C   UNL A   1      37.281  29.806  29.972  1.00  0.00     0.022 A 
BRANCH  64  67
ATOM     67  S   UNL A   1      37.617  29.411  32.657  1.00  0.00     0.127 S 
ATOM     68  O   UNL A   1      36.275  29.975  32.519  1.00  0.00    -0.237 OA
ATOM     69  O   UNL A   1      37.647  27.970  32.916  1.00  0.00    -0.237 OA
ATOM     70  O   UNL A   1      38.546  30.192  33.460  1.00  0.00    -0.744 OA
ENDBRANCH  64  67
ENDBRANCH  46  60
BRANCH  47  71
ATOM     71  C   UNL A   1      49.047  27.114  25.855  1.00  0.00     0.023 A 
ATOM     72  C   UNL A   1      50.009  26.441  26.631  1.00  0.00     0.012 A 
ATOM     73  C   UNL A   1      49.347  27.440  24.518  1.00  0.00     0.148 A 
ATOM     74  C   UNL A   1      51.255  26.115  26.094  1.00  0.00     0.002 A 
ATOM     75  C   UNL A   1      50.567  27.063  23.971  1.00  0.00     0.091 A 
ATOM     76  F   UNL A   1      48.419  28.089  23.801  1.00  0.00    -0.205 F 
ATOM     77  C   UNL A   1      51.529  26.414  24.761  1.00  0.00     0.022 A 
BRANCH  75  78
ATOM     78  S   UNL A   1      50.958  27.287  22.233  1.00  0.00     0.127 S 
ATOM     79  O   UNL A   1      52.290  26.693  22.148  1.00  0.00    -0.237 OA
ATOM     80  O   UNL A   1      49.897  26.513  21.588  1.00  0.00    -0.237 OA
ATOM     81  O   UNL A   1      50.894  28.721  21.994  1.00  0.00    -0.744 OA
ENDBRANCH  75  78
ENDBRANCH  47  71
BRANCH  59  82
ATOM     82  C   UNL A   1      46.279  32.736  28.960  1.00  0.00     0.023 A 
ATOM     83  C   UNL A   1      46.991  32.904  30.164  1.00  0.00     0.012 A 
ATOM     84  C   UNL A   1      46.151  33.828  28.078  1.00  0.00     0.148 A 
ATOM     85  C   UNL A   1      47.532  34.145  30.503  1.00  0.00     0.002 A 
ATOM     86  C   UNL A   1      46.738  35.047  28.396  1.00  0.00     0.091 A 
ATOM     87  F   UNL A   1      45.454  33.656  26.945  1.00  0.00    -0.205 F 
ATOM     88  C   UNL A   1      47.417  35.211  29.614  1.00  0.00     0.022 A 
BRANCH  86  89
ATOM     89  S   UNL A   1      46.726  36.447  27.270  1.00  0.00     0.127 S 
ATOM     90  O   UNL A   1      47.361  35.879  26.082  1.00  0.00    -0.237 OA
ATOM     91  O   UNL A   1      45.295  36.715  27.126  1.00  0.00    -0.237 OA
ATOM     92  O   UNL A   1      47.476  37.505  27.932  1.00  0.00    -0.744 OA
ENDBRANCH  86  89
ENDBRANCH  59  82
ENDBRANCH  33  34
ENDBRANCH  25  28
ENDBRANCH  23  24
ENDBRANCH  22  23
ENDBRANCH  21  22
ENDBRANCH   3  21
TORSDOF 19
ENDMDL
