MODEL 1
REMARK VINA RESULT:     -10.5      0.000      0.000
REMARK SMILES O=C(/C=C/c1cccs1)NCC(=O)NCCCNC(=O)c1ccc(-c2c3nc(c(-c4cccc(S(=O)(=O)[O-])c4F)c4ccc([nH]4)c(-c4cccc(S(=O)(=O)[O-])c4F)c4nc(c(-c5cccc(S(=O)(=O)[O-])c5F)c5ccc2[nH]5)C=C4)C=C3)cc1
REMARK SMILES IDX 16 1 15 2 14 3 12 4 13 5 11 7 10 8 1 9 2 10 3 12 4 13 5 14
REMARK SMILES IDX 6 15 9 16 7 17 8 18 17 19 18 20 19 21 20 23 21 24 22 25
REMARK SMILES IDX 83 26 23 27 82 28 24 29 25 30 26 31 76 32 27 33 81 34 75 35
REMARK SMILES IDX 77 36 28 37 80 38 74 39 73 40 29 42 61 43 41 44 60 45 42 46
REMARK SMILES IDX 45 47 59 48 78 49 43 50 44 51 58 53 79 54 46 55 30 56 31 57
REMARK SMILES IDX 39 58 32 59 34 60 40 61 33 62 35 63 36 64 37 65 38 66 62 67
REMARK SMILES IDX 63 68 71 69 64 70 66 71 72 72 65 73 67 74 68 75 69 76 70 77
REMARK SMILES IDX 47 78 48 79 56 80 49 81 51 82 57 83 50 84 52 85 53 86 54 87
REMARK SMILES IDX 55 88
REMARK H PARENT 14 6 10 11 18 22 77 41 45 52
REMARK Flexibility Score: inf
ROOT
ATOM      1  C   UNL A   1      33.290  29.131  24.856  1.00  0.00     0.042 C 
ENDROOT
BRANCH   1   2
ATOM      2  C   UNL A   1      31.803  29.472  24.902  1.00  0.00     0.117 C 
BRANCH   2   3
ATOM      3  N   UNL A   1      31.192  29.445  23.585  1.00  0.00    -0.355 N 
ATOM      4  C   UNL A   1      30.521  28.424  22.978  1.00  0.00     0.239 C 
ATOM      5  O   UNL A   1      30.037  28.618  21.861  1.00  0.00    -0.273 OA
ATOM      6  H   UNL A   1      31.274  30.274  23.059  1.00  0.00     0.163 HD
BRANCH   4   7
ATOM      7  C   UNL A   1      30.339  27.089  23.701  1.00  0.00     0.216 C 
BRANCH   7   8
ATOM      8  N   UNL A   1      31.504  26.231  23.572  1.00  0.00    -0.343 N 
ATOM      9  O   UNL A   1      31.856  26.035  25.821  1.00  0.00    -0.270 OA
ATOM     10  C   UNL A   1      32.173  25.761  24.667  1.00  0.00     0.244 C 
ATOM     11  H   UNL A   1      31.820  25.981  22.674  1.00  0.00     0.164 HD
BRANCH  10  12
ATOM     12  C   UNL A   1      33.340  24.875  24.433  1.00  0.00     0.072 C 
ATOM     13  C   UNL A   1      34.436  24.756  25.199  1.00  0.00     0.024 C 
BRANCH  13  14
ATOM     14  C   UNL A   1      35.476  23.841  24.856  1.00  0.00     0.027 A 
ATOM     15  C   UNL A   1      35.632  23.024  23.747  1.00  0.00     0.020 A 
ATOM     16  S   UNL A   1      36.812  23.652  25.930  1.00  0.00    -0.144 S 
ATOM     17  C   UNL A   1      36.803  22.215  23.811  1.00  0.00     0.012 A 
ATOM     18  C   UNL A   1      37.519  22.435  24.964  1.00  0.00     0.065 A 
ENDBRANCH  13  14
ENDBRANCH  10  12
ENDBRANCH   7   8
ENDBRANCH   4   7
ENDBRANCH   2   3
ENDBRANCH   1   2
BRANCH   1  19
ATOM     19  C   UNL A   1      33.984  29.189  26.215  1.00  0.00     0.118 C 
BRANCH  19  20
ATOM     20  N   UNL A   1      33.870  30.496  26.850  1.00  0.00    -0.352 N 
ATOM     21  C   UNL A   1      34.627  31.070  27.838  1.00  0.00     0.251 C 
ATOM     22  H   UNL A   1      33.131  31.055  26.517  1.00  0.00     0.163 HD
ATOM     23  O   UNL A   1      34.241  32.124  28.352  1.00  0.00    -0.269 OA
BRANCH  21  24
ATOM     24  C   UNL A   1      35.885  30.447  28.300  1.00  0.00     0.039 A 
ATOM     25  C   UNL A   1      37.060  30.686  27.579  1.00  0.00     0.014 A 
ATOM     26  C   UNL A   1      35.913  29.598  29.410  1.00  0.00     0.014 A 
ATOM     27  C   UNL A   1      38.266  30.121  28.001  1.00  0.00     0.010 A 
ATOM     28  C   UNL A   1      37.129  29.095  29.872  1.00  0.00     0.010 A 
ATOM     29  C   UNL A   1      38.317  29.344  29.170  1.00  0.00    -0.014 A 
BRANCH  29  30
ATOM     30  C   UNL A   1      39.605  28.800  29.678  1.00  0.00     0.031 A 
ATOM     31  C   UNL A   1      40.335  29.487  30.803  1.00  0.00     0.074 A 
ATOM     32  C   UNL A   1      40.164  27.738  29.064  1.00  0.00     0.049 A 
ATOM     33  N   UNL A   1      41.490  29.189  31.337  1.00  0.00    -0.248 NA
ATOM     34  C   UNL A   1      39.698  30.680  31.388  1.00  0.00     0.031 C 
ATOM     35  C   UNL A   1      39.599  27.034  27.909  1.00  0.00     0.029 A 
ATOM     36  N   UNL A   1      41.348  27.083  29.301  1.00  0.00    -0.354 N 
ATOM     37  C   UNL A   1      41.743  30.178  32.281  1.00  0.00     0.074 A 
ATOM     38  C   UNL A   1      40.627  31.096  32.239  1.00  0.00     0.031 C 
ATOM     39  C   UNL A   1      40.438  26.053  27.537  1.00  0.00     0.029 A 
ATOM     40  C   UNL A   1      41.611  26.073  28.403  1.00  0.00     0.049 A 
ATOM     41  H   UNL A   1      41.951  27.314  30.044  1.00  0.00     0.167 HD
ATOM     42  C   UNL A   1      42.799  30.300  33.120  1.00  0.00     0.034 A 
ATOM     43  C   UNL A   1      42.683  25.264  28.281  1.00  0.00     0.034 A 
ATOM     44  C   UNL A   1      43.877  29.352  33.203  1.00  0.00     0.049 A 
ATOM     45  C   UNL A   1      43.809  25.387  29.274  1.00  0.00     0.074 A 
ATOM     46  C   UNL A   1      44.927  29.324  34.105  1.00  0.00     0.029 A 
ATOM     47  N   UNL A   1      44.056  28.278  32.347  1.00  0.00    -0.354 N 
ATOM     48  N   UNL A   1      43.933  26.212  30.284  1.00  0.00    -0.248 NA
ATOM     49  C   UNL A   1      44.925  24.439  29.135  1.00  0.00     0.031 C 
ATOM     50  C   UNL A   1      45.759  28.250  33.774  1.00  0.00     0.029 A 
ATOM     51  C   UNL A   1      45.208  27.590  32.689  1.00  0.00     0.049 A 
ATOM     52  H   UNL A   1      43.453  28.038  31.608  1.00  0.00     0.167 HD
ATOM     53  C   UNL A   1      45.115  25.858  30.923  1.00  0.00     0.074 A 
ATOM     54  C   UNL A   1      45.658  24.727  30.202  1.00  0.00     0.031 C 
ATOM     55  C   UNL A   1      45.707  26.427  32.002  1.00  0.00     0.034 A 
BRANCH  42  56
ATOM     56  C   UNL A   1      42.833  31.477  34.060  1.00  0.00     0.023 A 
ATOM     57  C   UNL A   1      43.353  32.710  33.620  1.00  0.00     0.012 A 
ATOM     58  C   UNL A   1      42.249  31.388  35.340  1.00  0.00     0.148 A 
ATOM     59  C   UNL A   1      43.311  33.832  34.447  1.00  0.00     0.002 A 
ATOM     60  C   UNL A   1      42.170  32.521  36.140  1.00  0.00     0.091 A 
ATOM     61  F   UNL A   1      41.776  30.200  35.744  1.00  0.00    -0.205 F 
ATOM     62  C   UNL A   1      42.708  33.741  35.699  1.00  0.00     0.022 A 
BRANCH  60  63
ATOM     63  S   UNL A   1      41.337  32.530  37.732  1.00  0.00     0.127 S 
ATOM     64  O   UNL A   1      41.437  33.941  38.108  1.00  0.00    -0.237 OA
ATOM     65  O   UNL A   1      39.989  32.089  37.375  1.00  0.00    -0.237 OA
ATOM     66  O   UNL A   1      42.077  31.608  38.581  1.00  0.00    -0.744 OA
ENDBRANCH  60  63
ENDBRANCH  42  56
BRANCH  43  67
ATOM     67  C   UNL A   1      42.727  24.228  27.208  1.00  0.00     0.023 A 
ATOM     68  C   UNL A   1      43.387  24.515  25.997  1.00  0.00     0.012 A 
ATOM     69  C   UNL A   1      42.115  22.971  27.376  1.00  0.00     0.148 A 
ATOM     70  C   UNL A   1      43.393  23.589  24.953  1.00  0.00     0.002 A 
ATOM     71  C   UNL A   1      42.175  22.029  26.354  1.00  0.00     0.091 A 
ATOM     72  F   UNL A   1      41.484  22.718  28.530  1.00  0.00    -0.205 F 
ATOM     73  C   UNL A   1      42.795  22.345  25.134  1.00  0.00     0.022 A 
BRANCH  71  74
ATOM     74  S   UNL A   1      41.539  20.360  26.548  1.00  0.00     0.127 S 
ATOM     75  O   UNL A   1      40.096  20.578  26.482  1.00  0.00    -0.237 OA
ATOM     76  O   UNL A   1      42.111  19.677  25.387  1.00  0.00    -0.237 OA
ATOM     77  O   UNL A   1      42.050  19.888  27.827  1.00  0.00    -0.744 OA
ENDBRANCH  71  74
ENDBRANCH  43  67
BRANCH  55  78
ATOM     78  C   UNL A   1      46.986  25.813  32.509  1.00  0.00     0.023 A 
ATOM     79  C   UNL A   1      48.226  26.256  32.010  1.00  0.00     0.012 A 
ATOM     80  C   UNL A   1      46.958  24.845  33.533  1.00  0.00     0.148 A 
ATOM     81  C   UNL A   1      49.418  25.720  32.497  1.00  0.00     0.002 A 
ATOM     82  C   UNL A   1      48.150  24.355  34.051  1.00  0.00     0.091 A 
ATOM     83  F   UNL A   1      45.767  24.422  33.983  1.00  0.00    -0.205 F 
ATOM     84  C   UNL A   1      49.380  24.781  33.525  1.00  0.00     0.022 A 
BRANCH  82  85
ATOM     85  S   UNL A   1      48.199  23.221  35.443  1.00  0.00     0.127 S 
ATOM     86  O   UNL A   1      47.859  21.951  34.803  1.00  0.00    -0.237 OA
ATOM     87  O   UNL A   1      49.590  23.328  35.883  1.00  0.00    -0.237 OA
ATOM     88  O   UNL A   1      47.223  23.719  36.402  1.00  0.00    -0.744 OA
ENDBRANCH  82  85
ENDBRANCH  55  78
ENDBRANCH  29  30
ENDBRANCH  21  24
ENDBRANCH  19  20
ENDBRANCH   1  19
TORSDOF 16
ENDMDL
MODEL 2
REMARK VINA RESULT:     -10.4      3.509      6.089
REMARK SMILES O=C(/C=C/c1cccs1)NCC(=O)NCCCNC(=O)c1ccc(-c2c3nc(c(-c4cccc(S(=O)(=O)[O-])c4F)c4ccc([nH]4)c(-c4cccc(S(=O)(=O)[O-])c4F)c4nc(c(-c5cccc(S(=O)(=O)[O-])c5F)c5ccc2[nH]5)C=C4)C=C3)cc1
REMARK SMILES IDX 16 1 15 2 14 3 12 4 13 5 11 7 10 8 1 9 2 10 3 12 4 13 5 14
REMARK SMILES IDX 6 15 9 16 7 17 8 18 17 19 18 20 19 21 20 23 21 24 22 25
REMARK SMILES IDX 83 26 23 27 82 28 24 29 25 30 26 31 76 32 27 33 81 34 75 35
REMARK SMILES IDX 77 36 28 37 80 38 74 39 73 40 29 42 61 43 41 44 60 45 42 46
REMARK SMILES IDX 45 47 59 48 78 49 43 50 44 51 58 53 79 54 46 55 30 56 31 57
REMARK SMILES IDX 39 58 32 59 34 60 40 61 33 62 35 63 36 64 37 65 38 66 62 67
REMARK SMILES IDX 63 68 71 69 64 70 66 71 72 72 65 73 67 74 68 75 69 76 70 77
REMARK SMILES IDX 47 78 48 79 56 80 49 81 51 82 57 83 50 84 52 85 53 86 54 87
REMARK SMILES IDX 55 88
REMARK H PARENT 14 6 10 11 18 22 77 41 45 52
REMARK Flexibility Score: inf
ROOT
ATOM      1  C   UNL A   1      32.844  35.606  28.805  1.00  0.00     0.042 C 
ENDROOT
BRANCH   1   2
ATOM      2  C   UNL A   1      33.283  35.831  30.248  1.00  0.00     0.117 C 
BRANCH   2   3
ATOM      3  N   UNL A   1      33.336  34.593  31.006  1.00  0.00    -0.355 N 
ATOM      4  C   UNL A   1      34.201  34.239  32.001  1.00  0.00     0.239 C 
ATOM      5  O   UNL A   1      34.050  33.146  32.551  1.00  0.00    -0.273 OA
ATOM      6  H   UNL A   1      32.660  33.918  30.768  1.00  0.00     0.163 HD
BRANCH   4   7
ATOM      7  C   UNL A   1      35.295  35.209  32.446  1.00  0.00     0.216 C 
BRANCH   7   8
ATOM      8  N   UNL A   1      36.602  34.838  31.928  1.00  0.00    -0.343 N 
ATOM      9  O   UNL A   1      37.676  35.043  33.934  1.00  0.00    -0.270 OA
ATOM     10  C   UNL A   1      37.702  34.778  32.735  1.00  0.00     0.244 C 
ATOM     11  H   UNL A   1      36.696  34.624  30.972  1.00  0.00     0.164 HD
BRANCH  10  12
ATOM     12  C   UNL A   1      38.988  34.371  32.117  1.00  0.00     0.072 C 
ATOM     13  C   UNL A   1      39.195  33.992  30.846  1.00  0.00     0.024 C 
BRANCH  13  14
ATOM     14  C   UNL A   1      40.500  33.644  30.387  1.00  0.00     0.027 A 
ATOM     15  C   UNL A   1      41.220  32.467  30.514  1.00  0.00     0.020 A 
ATOM     16  S   UNL A   1      41.417  34.813  29.509  1.00  0.00    -0.144 S 
ATOM     17  C   UNL A   1      42.525  32.547  29.948  1.00  0.00     0.012 A 
ATOM     18  C   UNL A   1      42.772  33.781  29.395  1.00  0.00     0.065 A 
ENDBRANCH  13  14
ENDBRANCH  10  12
ENDBRANCH   7   8
ENDBRANCH   4   7
ENDBRANCH   2   3
ENDBRANCH   1   2
BRANCH   1  19
ATOM     19  C   UNL A   1      33.717  34.618  28.034  1.00  0.00     0.118 C 
BRANCH  19  20
ATOM     20  N   UNL A   1      32.950  33.528  27.445  1.00  0.00    -0.352 N 
ATOM     21  C   UNL A   1      33.259  32.200  27.306  1.00  0.00     0.251 C 
ATOM     22  H   UNL A   1      32.069  33.787  27.090  1.00  0.00     0.163 HD
ATOM     23  O   UNL A   1      32.531  31.484  26.613  1.00  0.00    -0.269 OA
BRANCH  21  24
ATOM     24  C   UNL A   1      34.450  31.618  27.962  1.00  0.00     0.039 A 
ATOM     25  C   UNL A   1      35.548  32.445  28.221  1.00  0.00     0.014 A 
ATOM     26  C   UNL A   1      34.511  30.260  28.287  1.00  0.00     0.014 A 
ATOM     27  C   UNL A   1      36.681  31.925  28.852  1.00  0.00     0.010 A 
ATOM     28  C   UNL A   1      35.612  29.760  28.982  1.00  0.00     0.010 A 
ATOM     29  C   UNL A   1      36.711  30.584  29.267  1.00  0.00    -0.014 A 
BRANCH  29  30
ATOM     30  C   UNL A   1      37.876  30.033  30.011  1.00  0.00     0.031 A 
ATOM     31  C   UNL A   1      38.092  30.381  31.459  1.00  0.00     0.074 A 
ATOM     32  C   UNL A   1      38.790  29.291  29.353  1.00  0.00     0.049 A 
ATOM     33  N   UNL A   1      39.076  30.040  32.250  1.00  0.00    -0.248 NA
ATOM     34  C   UNL A   1      37.088  31.248  32.100  1.00  0.00     0.031 C 
ATOM     35  C   UNL A   1      38.740  28.952  27.928  1.00  0.00     0.029 A 
ATOM     36  N   UNL A   1      39.959  28.714  29.787  1.00  0.00    -0.354 N 
ATOM     37  C   UNL A   1      38.840  30.684  33.459  1.00  0.00     0.074 A 
ATOM     38  C   UNL A   1      37.625  31.451  33.296  1.00  0.00     0.031 C 
ATOM     39  C   UNL A   1      39.829  28.234  27.606  1.00  0.00     0.029 A 
ATOM     40  C   UNL A   1      40.670  28.086  28.789  1.00  0.00     0.049 A 
ATOM     41  H   UNL A   1      40.260  28.747  30.724  1.00  0.00     0.167 HD
ATOM     42  C   UNL A   1      39.557  30.628  34.605  1.00  0.00     0.034 A 
ATOM     43  C   UNL A   1      41.869  27.471  28.820  1.00  0.00     0.034 A 
ATOM     44  C   UNL A   1      40.731  29.817  34.783  1.00  0.00     0.049 A 
ATOM     45  C   UNL A   1      42.607  27.372  30.129  1.00  0.00     0.074 A 
ATOM     46  C   UNL A   1      41.455  29.598  35.943  1.00  0.00     0.029 A 
ATOM     47  N   UNL A   1      41.363  29.105  33.777  1.00  0.00    -0.354 N 
ATOM     48  N   UNL A   1      42.263  27.828  31.307  1.00  0.00    -0.248 NA
ATOM     49  C   UNL A   1      43.881  26.636  30.120  1.00  0.00     0.031 C 
ATOM     50  C   UNL A   1      42.544  28.780  35.630  1.00  0.00     0.029 A 
ATOM     51  C   UNL A   1      42.478  28.460  34.284  1.00  0.00     0.049 A 
ATOM     52  H   UNL A   1      41.063  29.063  32.841  1.00  0.00     0.167 HD
ATOM     53  C   UNL A   1      43.253  27.402  32.185  1.00  0.00     0.074 A 
ATOM     54  C   UNL A   1      44.198  26.630  31.408  1.00  0.00     0.031 C 
ATOM     55  C   UNL A   1      43.378  27.642  33.514  1.00  0.00     0.034 A 
BRANCH  42  56
ATOM     56  C   UNL A   1      39.079  31.429  35.788  1.00  0.00     0.023 A 
ATOM     57  C   UNL A   1      38.162  30.861  36.695  1.00  0.00     0.012 A 
ATOM     58  C   UNL A   1      39.622  32.701  36.057  1.00  0.00     0.148 A 
ATOM     59  C   UNL A   1      37.778  31.554  37.842  1.00  0.00     0.002 A 
ATOM     60  C   UNL A   1      39.268  33.367  37.225  1.00  0.00     0.091 A 
ATOM     61  F   UNL A   1      40.479  33.230  35.172  1.00  0.00    -0.205 F 
ATOM     62  C   UNL A   1      38.340  32.800  38.113  1.00  0.00     0.022 A 
BRANCH  60  63
ATOM     63  S   UNL A   1      40.000  34.934  37.709  1.00  0.00     0.127 S 
ATOM     64  O   UNL A   1      41.418  34.582  37.798  1.00  0.00    -0.237 OA
ATOM     65  O   UNL A   1      39.658  35.795  36.577  1.00  0.00    -0.237 OA
ATOM     66  O   UNL A   1      39.372  35.302  38.969  1.00  0.00    -0.744 OA
ENDBRANCH  60  63
ENDBRANCH  42  56
BRANCH  43  67
ATOM     67  C   UNL A   1      42.431  26.853  27.583  1.00  0.00     0.023 A 
ATOM     68  C   UNL A   1      43.092  27.667  26.642  1.00  0.00     0.012 A 
ATOM     69  C   UNL A   1      42.307  25.473  27.329  1.00  0.00     0.148 A 
ATOM     70  C   UNL A   1      43.574  27.129  25.449  1.00  0.00     0.002 A 
ATOM     71  C   UNL A   1      42.842  24.932  26.165  1.00  0.00     0.091 A 
ATOM     72  F   UNL A   1      41.667  24.715  28.229  1.00  0.00    -0.205 F 
ATOM     73  C   UNL A   1      43.457  25.761  25.214  1.00  0.00     0.022 A 
BRANCH  71  74
ATOM     74  S   UNL A   1      42.844  23.164  25.841  1.00  0.00     0.127 S 
ATOM     75  O   UNL A   1      43.788  22.676  26.843  1.00  0.00    -0.237 OA
ATOM     76  O   UNL A   1      41.447  22.806  26.087  1.00  0.00    -0.237 OA
ATOM     77  O   UNL A   1      43.261  23.017  24.454  1.00  0.00    -0.744 OA
ENDBRANCH  71  74
ENDBRANCH  43  67
BRANCH  55  78
ATOM     78  C   UNL A   1      44.549  27.024  34.233  1.00  0.00     0.023 A 
ATOM     79  C   UNL A   1      45.776  27.711  34.300  1.00  0.00     0.012 A 
ATOM     80  C   UNL A   1      44.408  25.794  34.906  1.00  0.00     0.148 A 
ATOM     81  C   UNL A   1      46.856  27.166  34.993  1.00  0.00     0.002 A 
ATOM     82  C   UNL A   1      45.470  25.283  35.639  1.00  0.00     0.091 A 
ATOM     83  F   UNL A   1      43.236  25.146  34.816  1.00  0.00    -0.205 F 
ATOM     84  C   UNL A   1      46.700  25.960  35.672  1.00  0.00     0.022 A 
BRANCH  82  85
ATOM     85  S   UNL A   1      45.327  23.789  36.627  1.00  0.00     0.127 S 
ATOM     86  O   UNL A   1      46.730  23.466  36.882  1.00  0.00    -0.237 OA
ATOM     87  O   UNL A   1      44.587  24.260  37.797  1.00  0.00    -0.237 OA
ATOM     88  O   UNL A   1      44.605  22.830  35.802  1.00  0.00    -0.744 OA
ENDBRANCH  82  85
ENDBRANCH  55  78
ENDBRANCH  29  30
ENDBRANCH  21  24
ENDBRANCH  19  20
ENDBRANCH   1  19
TORSDOF 16
ENDMDL
MODEL 3
REMARK VINA RESULT:     -10.3      2.266      3.862
REMARK SMILES O=C(/C=C/c1cccs1)NCC(=O)NCCCNC(=O)c1ccc(-c2c3nc(c(-c4cccc(S(=O)(=O)[O-])c4F)c4ccc([nH]4)c(-c4cccc(S(=O)(=O)[O-])c4F)c4nc(c(-c5cccc(S(=O)(=O)[O-])c5F)c5ccc2[nH]5)C=C4)C=C3)cc1
REMARK SMILES IDX 16 1 15 2 14 3 12 4 13 5 11 7 10 8 1 9 2 10 3 12 4 13 5 14
REMARK SMILES IDX 6 15 9 16 7 17 8 18 17 19 18 20 19 21 20 23 21 24 22 25
REMARK SMILES IDX 83 26 23 27 82 28 24 29 25 30 26 31 76 32 27 33 81 34 75 35
REMARK SMILES IDX 77 36 28 37 80 38 74 39 73 40 29 42 61 43 41 44 60 45 42 46
REMARK SMILES IDX 45 47 59 48 78 49 43 50 44 51 58 53 79 54 46 55 30 56 31 57
REMARK SMILES IDX 39 58 32 59 34 60 40 61 33 62 35 63 36 64 37 65 38 66 62 67
REMARK SMILES IDX 63 68 71 69 64 70 66 71 72 72 65 73 67 74 68 75 69 76 70 77
REMARK SMILES IDX 47 78 48 79 56 80 49 81 51 82 57 83 50 84 52 85 53 86 54 87
REMARK SMILES IDX 55 88
REMARK H PARENT 14 6 10 11 18 22 77 41 45 52
REMARK Flexibility Score: inf
ROOT
ATOM      1  C   UNL A   1      33.624  27.990  25.821  1.00  0.00     0.042 C 
ENDROOT
BRANCH   1   2
ATOM      2  C   UNL A   1      33.671  26.465  25.801  1.00  0.00     0.117 C 
BRANCH   2   3
ATOM      3  N   UNL A   1      32.510  25.872  26.440  1.00  0.00    -0.355 N 
ATOM      4  C   UNL A   1      31.378  25.376  25.861  1.00  0.00     0.239 C 
ATOM      5  O   UNL A   1      30.518  24.870  26.585  1.00  0.00    -0.273 OA
ATOM      6  H   UNL A   1      32.544  25.821  27.423  1.00  0.00     0.163 HD
BRANCH   4   7
ATOM      7  C   UNL A   1      31.218  25.407  24.341  1.00  0.00     0.216 C 
BRANCH   7   8
ATOM      8  N   UNL A   1      30.941  26.745  23.846  1.00  0.00    -0.343 N 
ATOM      9  O   UNL A   1      28.670  26.499  23.865  1.00  0.00    -0.270 OA
ATOM     10  C   UNL A   1      29.663  27.189  23.653  1.00  0.00     0.244 C 
ATOM     11  H   UNL A   1      31.693  27.347  23.644  1.00  0.00     0.164 HD
BRANCH  10  12
ATOM     12  C   UNL A   1      29.482  28.577  23.163  1.00  0.00     0.072 C 
ATOM     13  C   UNL A   1      28.326  29.240  23.009  1.00  0.00     0.024 C 
BRANCH  13  14
ATOM     14  C   UNL A   1      28.309  30.588  22.542  1.00  0.00     0.027 A 
ATOM     15  C   UNL A   1      28.455  31.784  23.227  1.00  0.00     0.020 A 
ATOM     16  S   UNL A   1      28.081  30.888  20.858  1.00  0.00    -0.144 S 
ATOM     17  C   UNL A   1      28.325  32.928  22.387  1.00  0.00     0.012 A 
ATOM     18  C   UNL A   1      28.087  32.581  21.078  1.00  0.00     0.065 A 
ENDBRANCH  13  14
ENDBRANCH  10  12
ENDBRANCH   7   8
ENDBRANCH   4   7
ENDBRANCH   2   3
ENDBRANCH   1   2
BRANCH   1  19
ATOM     19  C   UNL A   1      33.349  28.587  27.199  1.00  0.00     0.118 C 
BRANCH  19  20
ATOM     20  N   UNL A   1      33.497  30.037  27.226  1.00  0.00    -0.352 N 
ATOM     21  C   UNL A   1      34.497  30.816  27.747  1.00  0.00     0.251 C 
ATOM     22  H   UNL A   1      32.761  30.536  26.803  1.00  0.00     0.163 HD
ATOM     23  O   UNL A   1      34.332  32.037  27.815  1.00  0.00    -0.269 OA
BRANCH  21  24
ATOM     24  C   UNL A   1      35.759  30.219  28.234  1.00  0.00     0.039 A 
ATOM     25  C   UNL A   1      36.863  30.185  27.375  1.00  0.00     0.014 A 
ATOM     26  C   UNL A   1      35.855  29.657  29.510  1.00  0.00     0.014 A 
ATOM     27  C   UNL A   1      38.073  29.639  27.813  1.00  0.00     0.010 A 
ATOM     28  C   UNL A   1      37.081  29.180  29.970  1.00  0.00     0.010 A 
ATOM     29  C   UNL A   1      38.202  29.159  29.126  1.00  0.00    -0.014 A 
BRANCH  29  30
ATOM     30  C   UNL A   1      39.503  28.648  29.636  1.00  0.00     0.031 A 
ATOM     31  C   UNL A   1      40.227  29.369  30.742  1.00  0.00     0.074 A 
ATOM     32  C   UNL A   1      40.076  27.584  29.037  1.00  0.00     0.049 A 
ATOM     33  N   UNL A   1      41.391  29.101  31.275  1.00  0.00    -0.248 NA
ATOM     34  C   UNL A   1      39.573  30.561  31.309  1.00  0.00     0.031 C 
ATOM     35  C   UNL A   1      39.517  26.849  27.900  1.00  0.00     0.029 A 
ATOM     36  N   UNL A   1      41.273  26.955  29.279  1.00  0.00    -0.354 N 
ATOM     37  C   UNL A   1      41.633  30.112  32.198  1.00  0.00     0.074 A 
ATOM     38  C   UNL A   1      40.500  31.009  32.146  1.00  0.00     0.031 C 
ATOM     39  C   UNL A   1      40.370  25.876  27.540  1.00  0.00     0.029 A 
ATOM     40  C   UNL A   1      41.549  25.934  28.398  1.00  0.00     0.049 A 
ATOM     41  H   UNL A   1      41.877  27.210  30.013  1.00  0.00     0.167 HD
ATOM     42  C   UNL A   1      42.691  30.268  33.027  1.00  0.00     0.034 A 
ATOM     43  C   UNL A   1      42.634  25.142  28.284  1.00  0.00     0.034 A 
ATOM     44  C   UNL A   1      43.787  29.342  33.120  1.00  0.00     0.049 A 
ATOM     45  C   UNL A   1      43.764  25.304  29.266  1.00  0.00     0.074 A 
ATOM     46  C   UNL A   1      44.843  29.350  34.015  1.00  0.00     0.029 A 
ATOM     47  N   UNL A   1      43.980  28.255  32.283  1.00  0.00    -0.354 N 
ATOM     48  N   UNL A   1      43.880  26.149  30.259  1.00  0.00    -0.248 NA
ATOM     49  C   UNL A   1      44.896  24.373  29.137  1.00  0.00     0.031 C 
ATOM     50  C   UNL A   1      45.692  28.285  33.698  1.00  0.00     0.029 A 
ATOM     51  C   UNL A   1      45.146  27.595  32.629  1.00  0.00     0.049 A 
ATOM     52  H   UNL A   1      43.376  27.991  31.552  1.00  0.00     0.167 HD
ATOM     53  C   UNL A   1      45.072  25.828  30.897  1.00  0.00     0.074 A 
ATOM     54  C   UNL A   1      45.632  24.694  30.193  1.00  0.00     0.031 C 
ATOM     55  C   UNL A   1      45.661  26.428  31.961  1.00  0.00     0.034 A 
BRANCH  42  56
ATOM     56  C   UNL A   1      42.710  31.463  33.945  1.00  0.00     0.023 A 
ATOM     57  C   UNL A   1      43.170  32.706  33.467  1.00  0.00     0.012 A 
ATOM     58  C   UNL A   1      42.171  31.376  35.244  1.00  0.00     0.148 A 
ATOM     59  C   UNL A   1      43.111  33.842  34.275  1.00  0.00     0.002 A 
ATOM     60  C   UNL A   1      42.074  32.521  36.026  1.00  0.00     0.091 A 
ATOM     61  F   UNL A   1      41.755  30.180  35.684  1.00  0.00    -0.205 F 
ATOM     62  C   UNL A   1      42.552  33.751  35.547  1.00  0.00     0.022 A 
BRANCH  60  63
ATOM     63  S   UNL A   1      41.292  32.529  37.643  1.00  0.00     0.127 S 
ATOM     64  O   UNL A   1      39.947  32.048  37.322  1.00  0.00    -0.237 OA
ATOM     65  O   UNL A   1      42.117  31.576  38.387  1.00  0.00    -0.237 OA
ATOM     66  O   UNL A   1      41.362  33.902  38.120  1.00  0.00    -0.744 OA
ENDBRANCH  60  63
ENDBRANCH  42  56
BRANCH  43  67
ATOM     67  C   UNL A   1      42.690  24.087  27.230  1.00  0.00     0.023 A 
ATOM     68  C   UNL A   1      43.342  24.360  26.011  1.00  0.00     0.012 A 
ATOM     69  C   UNL A   1      42.097  22.824  27.422  1.00  0.00     0.148 A 
ATOM     70  C   UNL A   1      43.358  23.415  24.985  1.00  0.00     0.002 A 
ATOM     71  C   UNL A   1      42.167  21.865  26.418  1.00  0.00     0.091 A 
ATOM     72  F   UNL A   1      41.472  22.583  28.583  1.00  0.00    -0.205 F 
ATOM     73  C   UNL A   1      42.778  22.166  25.190  1.00  0.00     0.022 A 
BRANCH  71  74
ATOM     74  S   UNL A   1      41.555  20.190  26.645  1.00  0.00     0.127 S 
ATOM     75  O   UNL A   1      42.290  19.760  27.832  1.00  0.00    -0.237 OA
ATOM     76  O   UNL A   1      40.124  20.412  26.854  1.00  0.00    -0.237 OA
ATOM     77  O   UNL A   1      41.874  19.483  25.413  1.00  0.00    -0.744 OA
ENDBRANCH  71  74
ENDBRANCH  43  67
BRANCH  55  78
ATOM     78  C   UNL A   1      46.954  25.846  32.470  1.00  0.00     0.023 A 
ATOM     79  C   UNL A   1      46.946  24.961  33.565  1.00  0.00     0.012 A 
ATOM     80  C   UNL A   1      48.171  26.122  31.814  1.00  0.00     0.148 A 
ATOM     81  C   UNL A   1      48.133  24.388  34.022  1.00  0.00     0.002 A 
ATOM     82  C   UNL A   1      49.340  25.507  32.240  1.00  0.00     0.091 A 
ATOM     83  F   UNL A   1      48.161  26.982  30.783  1.00  0.00    -0.205 F 
ATOM     84  C   UNL A   1      49.325  24.651  33.353  1.00  0.00     0.022 A 
BRANCH  82  85
ATOM     85  S   UNL A   1      50.903  25.706  31.376  1.00  0.00     0.127 S 
ATOM     86  O   UNL A   1      51.177  27.127  31.582  1.00  0.00    -0.237 OA
ATOM     87  O   UNL A   1      51.784  24.802  32.114  1.00  0.00    -0.237 OA
ATOM     88  O   UNL A   1      50.651  25.311  29.997  1.00  0.00    -0.744 OA
ENDBRANCH  82  85
ENDBRANCH  55  78
ENDBRANCH  29  30
ENDBRANCH  21  24
ENDBRANCH  19  20
ENDBRANCH   1  19
TORSDOF 16
ENDMDL
