MODEL 1
REMARK VINA RESULT:     -11.1      0.000      0.000
REMARK SMILES C[C@H](Cc1ccco1)[NH2+]Cc1cc(C(=O)NCCCNC(=O)c2ccc(-c3c4nc(c(-c5cccc(S(=O)(=O)[O-])c5F)c5ccc([nH]5)c(-c5cccc(S(=O)(=O)[O-])c5F)c5nc(c(-c6cccc(S(=O)(=O)[O-])c6F)c6ccc3[nH]6)C=C5)C=C4)cc2)cs1
REMARK SMILES IDX 17 1 16 2 14 3 15 4 13 6 11 7 12 8 87 9 86 10 10 11 9 12
REMARK SMILES IDX 2 15 1 16 3 17 4 18 5 19 8 20 6 21 7 22 18 23 19 24 20 25
REMARK SMILES IDX 21 26 22 28 23 29 24 30 85 31 25 32 84 33 26 34 27 35 28 36
REMARK SMILES IDX 78 37 29 38 83 39 77 40 79 41 30 42 82 43 76 44 75 45 31 47
REMARK SMILES IDX 63 48 43 49 62 50 44 51 47 52 61 53 80 54 45 55 46 56 60 58
REMARK SMILES IDX 81 59 48 60 32 61 33 62 41 63 34 64 36 65 42 66 35 67 37 68
REMARK SMILES IDX 38 69 39 70 40 71 64 72 65 73 73 74 66 75 68 76 74 77 67 78
REMARK SMILES IDX 69 79 70 80 71 81 72 82 49 83 50 84 58 85 51 86 53 87 59 88
REMARK SMILES IDX 52 89 54 90 55 91 56 92 57 93
REMARK H PARENT 16 5 9 13 9 14 20 27 79 46 47 57
REMARK Flexibility Score: inf
ROOT
ATOM      1  C   UNL A   1      33.360  21.734  25.996  1.00  0.00     0.118 C 
ENDROOT
BRANCH   1   2
ATOM      2  N   UNL A   1      32.342  22.424  26.767  1.00  0.00    -0.352 N 
ATOM      3  C   UNL A   1      31.755  23.649  26.575  1.00  0.00     0.252 C 
ATOM      4  O   UNL A   1      30.816  23.966  27.300  1.00  0.00    -0.269 OA
ATOM      5  H   UNL A   1      32.020  21.932  27.557  1.00  0.00     0.163 HD
BRANCH   3   6
ATOM      6  C   UNL A   1      32.193  24.490  25.466  1.00  0.00     0.051 A 
ATOM      7  C   UNL A   1      32.148  25.774  23.498  1.00  0.00     0.059 A 
ATOM      8  C   UNL A   1      31.514  24.798  24.241  1.00  0.00     0.035 A 
ATOM      9  S   UNL A   1      33.645  26.213  24.210  1.00  0.00    -0.142 S 
ATOM     10  C   UNL A   1      33.437  25.095  25.482  1.00  0.00     0.079 A 
BRANCH   7  11
ATOM     11  C   UNL A   1      31.653  26.427  22.238  1.00  0.00     0.308 C 
BRANCH  11  12
ATOM     12  N   UNL A   1      31.378  27.850  22.401  1.00  0.00    -0.339 N 
ATOM     13  H   UNL A   1      32.258  28.317  22.620  1.00  0.00     0.346 HD
ATOM     14  H   UNL A   1      30.957  28.155  21.523  1.00  0.00     0.346 HD
BRANCH  12  15
ATOM     15  C   UNL A   1      30.407  28.195  23.454  1.00  0.00     0.187 C 
ATOM     16  C   UNL A   1      28.964  28.434  22.981  1.00  0.00     0.075 C 
BRANCH  15  17
ATOM     17  C   UNL A   1      30.947  29.402  24.264  1.00  0.00     0.140 C 
BRANCH  17  18
ATOM     18  C   UNL A   1      31.612  29.030  25.547  1.00  0.00     0.109 A 
ATOM     19  C   UNL A   1      31.366  28.095  26.532  1.00  0.00     0.046 A 
ATOM     20  O   UNL A   1      32.754  29.716  25.840  1.00  0.00    -0.469 OA
ATOM     21  C   UNL A   1      32.444  28.180  27.445  1.00  0.00     0.042 A 
ATOM     22  C   UNL A   1      33.254  29.192  26.987  1.00  0.00     0.195 A 
ENDBRANCH  17  18
ENDBRANCH  15  17
ENDBRANCH  12  15
ENDBRANCH  11  12
ENDBRANCH   7  11
ENDBRANCH   3   6
ENDBRANCH   1   2
BRANCH   1  23
ATOM     23  C   UNL A   1      34.650  21.598  26.796  1.00  0.00     0.042 C 
BRANCH  23  24
ATOM     24  C   UNL A   1      35.863  22.125  26.037  1.00  0.00     0.118 C 
BRANCH  24  25
ATOM     25  N   UNL A   1      36.884  21.097  25.875  1.00  0.00    -0.352 N 
ATOM     26  C   UNL A   1      38.248  21.215  25.819  1.00  0.00     0.251 C 
ATOM     27  H   UNL A   1      36.542  20.178  25.792  1.00  0.00     0.163 HD
ATOM     28  O   UNL A   1      38.919  20.264  25.428  1.00  0.00    -0.269 OA
BRANCH  26  29
ATOM     29  C   UNL A   1      38.903  22.474  26.226  1.00  0.00     0.039 A 
ATOM     30  C   UNL A   1      40.001  22.415  27.087  1.00  0.00     0.014 A 
ATOM     31  C   UNL A   1      38.415  23.710  25.793  1.00  0.00     0.014 A 
ATOM     32  C   UNL A   1      40.629  23.595  27.485  1.00  0.00     0.010 A 
ATOM     33  C   UNL A   1      39.096  24.877  26.117  1.00  0.00     0.010 A 
ATOM     34  C   UNL A   1      40.196  24.835  26.984  1.00  0.00    -0.014 A 
BRANCH  34  35
ATOM     35  C   UNL A   1      40.872  26.096  27.375  1.00  0.00     0.031 A 
ATOM     36  C   UNL A   1      42.317  26.323  27.016  1.00  0.00     0.074 A 
ATOM     37  C   UNL A   1      40.204  27.009  28.107  1.00  0.00     0.049 A 
ATOM     38  N   UNL A   1      43.090  27.336  27.309  1.00  0.00    -0.248 NA
ATOM     39  C   UNL A   1      42.993  25.258  26.254  1.00  0.00     0.031 C 
ATOM     40  C   UNL A   1      38.825  26.864  28.583  1.00  0.00     0.029 A 
ATOM     41  N   UNL A   1      40.599  28.226  28.599  1.00  0.00    -0.354 N 
ATOM     42  C   UNL A   1      44.341  27.024  26.790  1.00  0.00     0.074 A 
ATOM     43  C   UNL A   1      44.240  25.703  26.210  1.00  0.00     0.031 C 
ATOM     44  C   UNL A   1      38.491  27.952  29.295  1.00  0.00     0.029 A 
ATOM     45  C   UNL A   1      39.636  28.854  29.354  1.00  0.00     0.049 A 
ATOM     46  H   UNL A   1      41.487  28.614  28.428  1.00  0.00     0.167 HD
ATOM     47  C   UNL A   1      45.464  27.780  26.765  1.00  0.00     0.034 A 
ATOM     48  C   UNL A   1      39.677  30.019  30.028  1.00  0.00     0.034 A 
ATOM     49  C   UNL A   1      45.550  29.104  27.320  1.00  0.00     0.049 A 
ATOM     50  C   UNL A   1      40.928  30.852  29.961  1.00  0.00     0.074 A 
ATOM     51  C   UNL A   1      46.622  29.978  27.299  1.00  0.00     0.029 A 
ATOM     52  N   UNL A   1      44.526  29.743  28.001  1.00  0.00    -0.354 N 
ATOM     53  N   UNL A   1      42.058  30.598  29.348  1.00  0.00    -0.248 NA
ATOM     54  C   UNL A   1      40.893  32.154  30.642  1.00  0.00     0.031 C 
ATOM     55  C   UNL A   1      46.254  31.137  27.988  1.00  0.00     0.029 A 
ATOM     56  C   UNL A   1      44.939  31.002  28.404  1.00  0.00     0.049 A 
ATOM     57  H   UNL A   1      43.636  29.360  28.173  1.00  0.00     0.167 HD
ATOM     58  C   UNL A   1      42.852  31.723  29.532  1.00  0.00     0.074 A 
ATOM     59  C   UNL A   1      42.065  32.669  30.295  1.00  0.00     0.031 C 
ATOM     60  C   UNL A   1      44.123  31.951  29.117  1.00  0.00     0.034 A 
BRANCH  47  61
ATOM     61  C   UNL A   1      46.674  27.213  26.066  1.00  0.00     0.023 A 
ATOM     62  C   UNL A   1      47.429  26.201  26.695  1.00  0.00     0.012 A 
ATOM     63  C   UNL A   1      47.033  27.636  24.771  1.00  0.00     0.148 A 
ATOM     64  C   UNL A   1      48.543  25.649  26.067  1.00  0.00     0.002 A 
ATOM     65  C   UNL A   1      48.116  27.046  24.131  1.00  0.00     0.091 A 
ATOM     66  F   UNL A   1      46.315  28.611  24.196  1.00  0.00    -0.205 F 
ATOM     67  C   UNL A   1      48.881  26.064  24.781  1.00  0.00     0.022 A 
BRANCH  65  68
ATOM     68  S   UNL A   1      48.586  27.448  22.444  1.00  0.00     0.127 S 
ATOM     69  O   UNL A   1      49.833  28.183  22.653  1.00  0.00    -0.237 OA
ATOM     70  O   UNL A   1      48.753  26.122  21.849  1.00  0.00    -0.237 OA
ATOM     71  O   UNL A   1      47.487  28.230  21.895  1.00  0.00    -0.744 OA
ENDBRANCH  65  68
ENDBRANCH  47  61
BRANCH  48  72
ATOM     72  C   UNL A   1      38.483  30.487  30.787  1.00  0.00     0.023 A 
ATOM     73  C   UNL A   1      38.349  30.163  32.151  1.00  0.00     0.012 A 
ATOM     74  C   UNL A   1      37.485  31.261  30.164  1.00  0.00     0.148 A 
ATOM     75  C   UNL A   1      37.219  30.560  32.869  1.00  0.00     0.002 A 
ATOM     76  C   UNL A   1      36.392  31.704  30.900  1.00  0.00     0.091 A 
ATOM     77  F   UNL A   1      37.627  31.553  28.864  1.00  0.00    -0.205 F 
ATOM     78  C   UNL A   1      36.246  31.336  32.246  1.00  0.00     0.022 A 
BRANCH  76  79
ATOM     79  S   UNL A   1      35.163  32.820  30.215  1.00  0.00     0.127 S 
ATOM     80  O   UNL A   1      34.514  31.974  29.217  1.00  0.00    -0.237 OA
ATOM     81  O   UNL A   1      34.347  33.126  31.390  1.00  0.00    -0.237 OA
ATOM     82  O   UNL A   1      35.911  33.956  29.695  1.00  0.00    -0.744 OA
ENDBRANCH  76  79
ENDBRANCH  48  72
BRANCH  60  83
ATOM     83  C   UNL A   1      44.725  33.297  29.426  1.00  0.00     0.023 A 
ATOM     84  C   UNL A   1      45.423  33.503  30.632  1.00  0.00     0.012 A 
ATOM     85  C   UNL A   1      44.643  34.344  28.487  1.00  0.00     0.148 A 
ATOM     86  C   UNL A   1      45.989  34.744  30.919  1.00  0.00     0.002 A 
ATOM     87  C   UNL A   1      45.258  35.561  28.755  1.00  0.00     0.091 A 
ATOM     88  F   UNL A   1      43.959  34.135  27.352  1.00  0.00    -0.205 F 
ATOM     89  C   UNL A   1      45.918  35.767  29.977  1.00  0.00     0.022 A 
BRANCH  87  90
ATOM     90  S   UNL A   1      45.303  36.899  27.559  1.00  0.00     0.127 S 
ATOM     91  O   UNL A   1      46.023  36.280  26.446  1.00  0.00    -0.237 OA
ATOM     92  O   UNL A   1      43.882  37.139  27.309  1.00  0.00    -0.237 OA
ATOM     93  O   UNL A   1      45.995  38.001  28.215  1.00  0.00    -0.744 OA
ENDBRANCH  87  90
ENDBRANCH  60  83
ENDBRANCH  34  35
ENDBRANCH  26  29
ENDBRANCH  24  25
ENDBRANCH  23  24
ENDBRANCH   1  23
TORSDOF 18
ENDMDL
MODEL 2
REMARK VINA RESULT:     -11.0      2.095      8.243
REMARK SMILES C[C@H](Cc1ccco1)[NH2+]Cc1cc(C(=O)NCCCNC(=O)c2ccc(-c3c4nc(c(-c5cccc(S(=O)(=O)[O-])c5F)c5ccc([nH]5)c(-c5cccc(S(=O)(=O)[O-])c5F)c5nc(c(-c6cccc(S(=O)(=O)[O-])c6F)c6ccc3[nH]6)C=C5)C=C4)cc2)cs1
REMARK SMILES IDX 17 1 16 2 14 3 15 4 13 6 11 7 12 8 87 9 86 10 10 11 9 12
REMARK SMILES IDX 2 15 1 16 3 17 4 18 5 19 8 20 6 21 7 22 18 23 19 24 20 25
REMARK SMILES IDX 21 26 22 28 23 29 24 30 85 31 25 32 84 33 26 34 27 35 28 36
REMARK SMILES IDX 78 37 29 38 83 39 77 40 79 41 30 42 82 43 76 44 75 45 31 47
REMARK SMILES IDX 63 48 43 49 62 50 44 51 47 52 61 53 80 54 45 55 46 56 60 58
REMARK SMILES IDX 81 59 48 60 32 61 33 62 41 63 34 64 36 65 42 66 35 67 37 68
REMARK SMILES IDX 38 69 39 70 40 71 64 72 65 73 73 74 66 75 68 76 74 77 67 78
REMARK SMILES IDX 69 79 70 80 71 81 72 82 49 83 50 84 58 85 51 86 53 87 59 88
REMARK SMILES IDX 52 89 54 90 55 91 56 92 57 93
REMARK H PARENT 16 5 9 13 9 14 20 27 79 46 47 57
REMARK Flexibility Score: inf
ROOT
ATOM      1  C   UNL A   1      36.488  19.805  25.033  1.00  0.00     0.118 C 
ENDROOT
BRANCH   1   2
ATOM      2  N   UNL A   1      35.579  18.703  24.773  1.00  0.00    -0.352 N 
ATOM      3  C   UNL A   1      34.210  18.676  24.690  1.00  0.00     0.252 C 
ATOM      4  O   UNL A   1      33.668  17.635  24.330  1.00  0.00    -0.269 OA
ATOM      5  H   UNL A   1      36.017  17.832  24.633  1.00  0.00     0.163 HD
BRANCH   3   6
ATOM      6  C   UNL A   1      33.452  19.899  24.934  1.00  0.00     0.051 A 
ATOM      7  C   UNL A   1      32.748  21.921  25.902  1.00  0.00     0.059 A 
ATOM      8  C   UNL A   1      33.452  20.748  26.090  1.00  0.00     0.035 A 
ATOM      9  S   UNL A   1      31.963  21.930  24.379  1.00  0.00    -0.142 S 
ATOM     10  C   UNL A   1      32.554  20.377  23.997  1.00  0.00     0.079 A 
BRANCH   7  11
ATOM     11  C   UNL A   1      32.649  23.086  26.847  1.00  0.00     0.308 C 
BRANCH  11  12
ATOM     12  N   UNL A   1      32.245  24.323  26.190  1.00  0.00    -0.339 N 
ATOM     13  H   UNL A   1      31.809  24.078  25.300  1.00  0.00     0.346 HD
ATOM     14  H   UNL A   1      31.615  24.793  26.841  1.00  0.00     0.346 HD
BRANCH  12  15
ATOM     15  C   UNL A   1      33.328  25.283  25.914  1.00  0.00     0.187 C 
ATOM     16  C   UNL A   1      33.026  26.750  26.260  1.00  0.00     0.075 C 
BRANCH  15  17
ATOM     17  C   UNL A   1      33.776  25.129  24.437  1.00  0.00     0.140 C 
BRANCH  17  18
ATOM     18  C   UNL A   1      34.984  24.274  24.250  1.00  0.00     0.109 A 
ATOM     19  C   UNL A   1      35.443  23.450  23.241  1.00  0.00     0.046 A 
ATOM     20  O   UNL A   1      35.897  24.312  25.263  1.00  0.00    -0.469 OA
ATOM     21  C   UNL A   1      36.727  23.006  23.639  1.00  0.00     0.042 A 
ATOM     22  C   UNL A   1      36.950  23.546  24.883  1.00  0.00     0.195 A 
ENDBRANCH  17  18
ENDBRANCH  15  17
ENDBRANCH  12  15
ENDBRANCH  11  12
ENDBRANCH   7  11
ENDBRANCH   3   6
ENDBRANCH   1   2
BRANCH   1  23
ATOM     23  C   UNL A   1      37.930  19.401  24.748  1.00  0.00     0.042 C 
BRANCH  23  24
ATOM     24  C   UNL A   1      38.912  20.015  25.739  1.00  0.00     0.118 C 
BRANCH  24  25
ATOM     25  N   UNL A   1      40.043  19.130  25.993  1.00  0.00    -0.352 N 
ATOM     26  C   UNL A   1      41.364  19.430  26.191  1.00  0.00     0.251 C 
ATOM     27  H   UNL A   1      39.823  18.171  26.027  1.00  0.00     0.163 HD
ATOM     28  O   UNL A   1      42.199  18.530  26.140  1.00  0.00    -0.269 OA
BRANCH  26  29
ATOM     29  C   UNL A   1      41.780  20.820  26.464  1.00  0.00     0.039 A 
ATOM     30  C   UNL A   1      42.047  21.198  27.781  1.00  0.00     0.014 A 
ATOM     31  C   UNL A   1      41.869  21.758  25.432  1.00  0.00     0.014 A 
ATOM     32  C   UNL A   1      42.437  22.509  28.057  1.00  0.00     0.010 A 
ATOM     33  C   UNL A   1      42.344  23.037  25.695  1.00  0.00     0.010 A 
ATOM     34  C   UNL A   1      42.611  23.433  27.013  1.00  0.00    -0.014 A 
BRANCH  34  35
ATOM     35  C   UNL A   1      43.053  24.822  27.287  1.00  0.00     0.031 A 
ATOM     36  C   UNL A   1      42.104  25.807  27.918  1.00  0.00     0.074 A 
ATOM     37  C   UNL A   1      44.286  25.213  26.912  1.00  0.00     0.049 A 
ATOM     38  N   UNL A   1      42.292  27.072  28.192  1.00  0.00    -0.248 NA
ATOM     39  C   UNL A   1      40.758  25.316  28.259  1.00  0.00     0.031 C 
ATOM     40  C   UNL A   1      45.265  24.370  26.219  1.00  0.00     0.029 A 
ATOM     41  N   UNL A   1      44.919  26.423  27.035  1.00  0.00    -0.354 N 
ATOM     42  C   UNL A   1      41.088  27.532  28.713  1.00  0.00     0.074 A 
ATOM     43  C   UNL A   1      40.159  26.424  28.669  1.00  0.00     0.031 C 
ATOM     44  C   UNL A   1      46.375  25.089  25.984  1.00  0.00     0.029 A 
ATOM     45  C   UNL A   1      46.176  26.447  26.476  1.00  0.00     0.049 A 
ATOM     46  H   UNL A   1      44.513  27.201  27.482  1.00  0.00     0.167 HD
ATOM     47  C   UNL A   1      40.791  28.753  29.217  1.00  0.00     0.034 A 
ATOM     48  C   UNL A   1      47.061  27.456  26.362  1.00  0.00     0.034 A 
ATOM     49  C   UNL A   1      41.728  29.841  29.283  1.00  0.00     0.049 A 
ATOM     50  C   UNL A   1      46.716  28.795  26.955  1.00  0.00     0.074 A 
ATOM     51  C   UNL A   1      41.547  31.101  29.825  1.00  0.00     0.029 A 
ATOM     52  N   UNL A   1      43.021  29.801  28.786  1.00  0.00    -0.354 N 
ATOM     53  N   UNL A   1      45.620  29.169  27.567  1.00  0.00    -0.248 NA
ATOM     54  C   UNL A   1      47.749  29.837  26.881  1.00  0.00     0.031 C 
ATOM     55  C   UNL A   1      42.724  31.832  29.634  1.00  0.00     0.029 A 
ATOM     56  C   UNL A   1      43.652  31.014  29.009  1.00  0.00     0.049 A 
ATOM     57  H   UNL A   1      43.432  29.027  28.340  1.00  0.00     0.167 HD
ATOM     58  C   UNL A   1      45.845  30.474  27.988  1.00  0.00     0.074 A 
ATOM     59  C   UNL A   1      47.192  30.817  27.580  1.00  0.00     0.031 C 
ATOM     60  C   UNL A   1      45.011  31.319  28.644  1.00  0.00     0.034 A 
BRANCH  47  61
ATOM     61  C   UNL A   1      39.410  28.957  29.788  1.00  0.00     0.023 A 
ATOM     62  C   UNL A   1      39.144  28.566  31.118  1.00  0.00     0.012 A 
ATOM     63  C   UNL A   1      38.395  29.580  29.037  1.00  0.00     0.148 A 
ATOM     64  C   UNL A   1      37.881  28.756  31.676  1.00  0.00     0.002 A 
ATOM     65  C   UNL A   1      37.153  29.810  29.617  1.00  0.00     0.091 A 
ATOM     66  F   UNL A   1      38.659  29.928  27.770  1.00  0.00    -0.205 F 
ATOM     67  C   UNL A   1      36.890  29.387  30.930  1.00  0.00     0.022 A 
BRANCH  65  68
ATOM     68  S   UNL A   1      35.832  30.687  28.773  1.00  0.00     0.127 S 
ATOM     69  O   UNL A   1      35.012  29.582  28.280  1.00  0.00    -0.237 OA
ATOM     70  O   UNL A   1      35.229  31.454  29.863  1.00  0.00    -0.237 OA
ATOM     71  O   UNL A   1      36.475  31.492  27.744  1.00  0.00    -0.744 OA
ENDBRANCH  65  68
ENDBRANCH  47  61
BRANCH  48  72
ATOM     72  C   UNL A   1      48.375  27.226  25.699  1.00  0.00     0.023 A 
ATOM     73  C   UNL A   1      49.474  26.777  26.459  1.00  0.00     0.012 A 
ATOM     74  C   UNL A   1      48.539  27.443  24.317  1.00  0.00     0.148 A 
ATOM     75  C   UNL A   1      50.723  26.594  25.863  1.00  0.00     0.002 A 
ATOM     76  C   UNL A   1      49.770  27.199  23.720  1.00  0.00     0.091 A 
ATOM     77  F   UNL A   1      47.485  27.876  23.612  1.00  0.00    -0.205 F 
ATOM     78  C   UNL A   1      50.869  26.797  24.494  1.00  0.00     0.022 A 
BRANCH  76  79
ATOM     79  S   UNL A   1      50.012  27.303  21.943  1.00  0.00     0.127 S 
ATOM     80  O   UNL A   1      49.824  28.730  21.699  1.00  0.00    -0.237 OA
ATOM     81  O   UNL A   1      51.388  26.827  21.798  1.00  0.00    -0.237 OA
ATOM     82  O   UNL A   1      49.010  26.422  21.359  1.00  0.00    -0.744 OA
ENDBRANCH  76  79
ENDBRANCH  48  72
BRANCH  60  83
ATOM     83  C   UNL A   1      45.547  32.676  29.016  1.00  0.00     0.023 A 
ATOM     84  C   UNL A   1      46.201  32.869  30.249  1.00  0.00     0.012 A 
ATOM     85  C   UNL A   1      45.448  33.752  28.111  1.00  0.00     0.148 A 
ATOM     86  C   UNL A   1      46.707  34.121  30.595  1.00  0.00     0.002 A 
ATOM     87  C   UNL A   1      46.004  34.982  28.439  1.00  0.00     0.091 A 
ATOM     88  F   UNL A   1      44.806  33.555  26.950  1.00  0.00    -0.205 F 
ATOM     89  C   UNL A   1      46.620  35.173  29.686  1.00  0.00     0.022 A 
BRANCH  87  90
ATOM     90  S   UNL A   1      46.027  36.363  27.291  1.00  0.00     0.127 S 
ATOM     91  O   UNL A   1      46.754  35.795  26.156  1.00  0.00    -0.237 OA
ATOM     92  O   UNL A   1      44.601  36.589  27.051  1.00  0.00    -0.237 OA
ATOM     93  O   UNL A   1      46.703  37.451  27.984  1.00  0.00    -0.744 OA
ENDBRANCH  87  90
ENDBRANCH  60  83
ENDBRANCH  34  35
ENDBRANCH  26  29
ENDBRANCH  24  25
ENDBRANCH  23  24
ENDBRANCH   1  23
TORSDOF 18
ENDMDL
MODEL 3
REMARK VINA RESULT:     -11.0      1.134      7.777
REMARK SMILES C[C@H](Cc1ccco1)[NH2+]Cc1cc(C(=O)NCCCNC(=O)c2ccc(-c3c4nc(c(-c5cccc(S(=O)(=O)[O-])c5F)c5ccc([nH]5)c(-c5cccc(S(=O)(=O)[O-])c5F)c5nc(c(-c6cccc(S(=O)(=O)[O-])c6F)c6ccc3[nH]6)C=C5)C=C4)cc2)cs1
REMARK SMILES IDX 17 1 16 2 14 3 15 4 13 6 11 7 12 8 87 9 86 10 10 11 9 12
REMARK SMILES IDX 2 15 1 16 3 17 4 18 5 19 8 20 6 21 7 22 18 23 19 24 20 25
REMARK SMILES IDX 21 26 22 28 23 29 24 30 85 31 25 32 84 33 26 34 27 35 28 36
REMARK SMILES IDX 78 37 29 38 83 39 77 40 79 41 30 42 82 43 76 44 75 45 31 47
REMARK SMILES IDX 63 48 43 49 62 50 44 51 47 52 61 53 80 54 45 55 46 56 60 58
REMARK SMILES IDX 81 59 48 60 32 61 33 62 41 63 34 64 36 65 42 66 35 67 37 68
REMARK SMILES IDX 38 69 39 70 40 71 64 72 65 73 73 74 66 75 68 76 74 77 67 78
REMARK SMILES IDX 69 79 70 80 71 81 72 82 49 83 50 84 58 85 51 86 53 87 59 88
REMARK SMILES IDX 52 89 54 90 55 91 56 92 57 93
REMARK H PARENT 16 5 9 13 9 14 20 27 79 46 47 57
REMARK Flexibility Score: inf
ROOT
ATOM      1  C   UNL A   1      33.477  21.604  26.123  1.00  0.00     0.118 C 
ENDROOT
BRANCH   1   2
ATOM      2  N   UNL A   1      32.363  22.168  26.865  1.00  0.00    -0.352 N 
ATOM      3  C   UNL A   1      31.662  23.332  26.675  1.00  0.00     0.252 C 
ATOM      4  O   UNL A   1      30.667  23.533  27.365  1.00  0.00    -0.269 OA
ATOM      5  H   UNL A   1      32.061  21.626  27.629  1.00  0.00     0.163 HD
BRANCH   3   6
ATOM      6  C   UNL A   1      32.057  24.241  25.603  1.00  0.00     0.051 A 
ATOM      7  C   UNL A   1      32.025  25.442  23.584  1.00  0.00     0.059 A 
ATOM      8  C   UNL A   1      31.539  24.347  24.270  1.00  0.00     0.035 A 
ATOM      9  S   UNL A   1      33.222  26.260  24.499  1.00  0.00    -0.142 S 
ATOM     10  C   UNL A   1      33.088  25.145  25.783  1.00  0.00     0.079 A 
BRANCH   7  11
ATOM     11  C   UNL A   1      31.603  25.929  22.225  1.00  0.00     0.308 C 
BRANCH  11  12
ATOM     12  N   UNL A   1      31.073  27.287  22.243  1.00  0.00    -0.339 N 
ATOM     13  H   UNL A   1      31.858  27.931  22.139  1.00  0.00     0.346 HD
ATOM     14  H   UNL A   1      30.397  27.334  21.481  1.00  0.00     0.346 HD
BRANCH  12  15
ATOM     15  C   UNL A   1      30.334  27.667  23.460  1.00  0.00     0.187 C 
ATOM     16  C   UNL A   1      28.866  27.214  23.520  1.00  0.00     0.075 C 
BRANCH  15  17
ATOM     17  C   UNL A   1      30.464  29.198  23.673  1.00  0.00     0.140 C 
BRANCH  17  18
ATOM     18  C   UNL A   1      29.410  30.003  22.990  1.00  0.00     0.109 A 
ATOM     19  C   UNL A   1      28.456  30.909  23.410  1.00  0.00     0.046 A 
ATOM     20  O   UNL A   1      29.364  29.884  21.632  1.00  0.00    -0.469 OA
ATOM     21  C   UNL A   1      27.833  31.406  22.241  1.00  0.00     0.042 A 
ATOM     22  C   UNL A   1      28.410  30.739  21.187  1.00  0.00     0.195 A 
ENDBRANCH  17  18
ENDBRANCH  15  17
ENDBRANCH  12  15
ENDBRANCH  11  12
ENDBRANCH   7  11
ENDBRANCH   3   6
ENDBRANCH   1   2
BRANCH   1  23
ATOM     23  C   UNL A   1      34.807  21.998  26.755  1.00  0.00     0.042 C 
BRANCH  23  24
ATOM     24  C   UNL A   1      35.895  22.241  25.716  1.00  0.00     0.118 C 
BRANCH  24  25
ATOM     25  N   UNL A   1      36.816  21.113  25.629  1.00  0.00    -0.352 N 
ATOM     26  C   UNL A   1      38.185  21.092  25.686  1.00  0.00     0.251 C 
ATOM     27  H   UNL A   1      36.390  20.234  25.511  1.00  0.00     0.163 HD
ATOM     28  O   UNL A   1      38.785  20.077  25.343  1.00  0.00    -0.269 OA
BRANCH  26  29
ATOM     29  C   UNL A   1      38.929  22.278  26.156  1.00  0.00     0.039 A 
ATOM     30  C   UNL A   1      40.020  22.095  27.008  1.00  0.00     0.014 A 
ATOM     31  C   UNL A   1      38.531  23.566  25.790  1.00  0.00     0.014 A 
ATOM     32  C   UNL A   1      40.731  23.204  27.465  1.00  0.00     0.010 A 
ATOM     33  C   UNL A   1      39.294  24.663  26.172  1.00  0.00     0.010 A 
ATOM     34  C   UNL A   1      40.388  24.496  27.031  1.00  0.00    -0.014 A 
BRANCH  34  35
ATOM     35  C   UNL A   1      41.154  25.684  27.485  1.00  0.00     0.031 A 
ATOM     36  C   UNL A   1      40.480  26.747  28.311  1.00  0.00     0.074 A 
ATOM     37  C   UNL A   1      42.436  25.833  27.101  1.00  0.00     0.049 A 
ATOM     38  N   UNL A   1      40.969  27.874  28.761  1.00  0.00    -0.248 NA
ATOM     39  C   UNL A   1      39.063  26.533  28.653  1.00  0.00     0.031 C 
ATOM     40  C   UNL A   1      43.172  24.908  26.234  1.00  0.00     0.029 A 
ATOM     41  N   UNL A   1      43.341  26.828  27.368  1.00  0.00    -0.354 N 
ATOM     42  C   UNL A   1      39.919  28.511  29.414  1.00  0.00     0.074 A 
ATOM     43  C   UNL A   1      38.753  27.670  29.258  1.00  0.00     0.031 C 
ATOM     44  C   UNL A   1      44.415  25.379  26.045  1.00  0.00     0.029 A 
ATOM     45  C   UNL A   1      44.555  26.650  26.747  1.00  0.00     0.049 A 
ATOM     46  H   UNL A   1      43.141  27.597  27.949  1.00  0.00     0.167 HD
ATOM     47  C   UNL A   1      39.932  29.670  30.112  1.00  0.00     0.034 A 
ATOM     48  C   UNL A   1      45.652  27.431  26.734  1.00  0.00     0.034 A 
ATOM     49  C   UNL A   1      41.102  30.488  30.287  1.00  0.00     0.049 A 
ATOM     50  C   UNL A   1      45.648  28.701  27.541  1.00  0.00     0.074 A 
ATOM     51  C   UNL A   1      41.238  31.652  31.021  1.00  0.00     0.029 A 
ATOM     52  N   UNL A   1      42.338  30.230  29.714  1.00  0.00    -0.354 N 
ATOM     53  N   UNL A   1      44.686  29.216  28.265  1.00  0.00    -0.248 NA
ATOM     54  C   UNL A   1      46.898  29.474  27.564  1.00  0.00     0.031 C 
ATOM     55  C   UNL A   1      42.550  32.111  30.874  1.00  0.00     0.029 A 
ATOM     56  C   UNL A   1      43.243  31.211  30.080  1.00  0.00     0.049 A 
ATOM     57  H   UNL A   1      42.543  29.462  29.134  1.00  0.00     0.167 HD
ATOM     58  C   UNL A   1      45.224  30.349  28.864  1.00  0.00     0.074 A 
ATOM     59  C   UNL A   1      46.604  30.431  28.434  1.00  0.00     0.031 C 
ATOM     60  C   UNL A   1      44.628  31.248  29.686  1.00  0.00     0.034 A 
BRANCH  47  61
ATOM     61  C   UNL A   1      38.651  30.095  30.787  1.00  0.00     0.023 A 
ATOM     62  C   UNL A   1      38.425  29.738  32.133  1.00  0.00     0.012 A 
ATOM     63  C   UNL A   1      37.701  30.887  30.115  1.00  0.00     0.148 A 
ATOM     64  C   UNL A   1      37.258  30.129  32.787  1.00  0.00     0.002 A 
ATOM     65  C   UNL A   1      36.562  31.313  30.788  1.00  0.00     0.091 A 
ATOM     66  F   UNL A   1      37.923  31.201  28.831  1.00  0.00    -0.205 F 
ATOM     67  C   UNL A   1      36.332  30.924  32.118  1.00  0.00     0.022 A 
BRANCH  65  68
ATOM     68  S   UNL A   1      35.346  32.408  30.047  1.00  0.00     0.127 S 
ATOM     69  O   UNL A   1      34.841  31.586  28.948  1.00  0.00    -0.237 OA
ATOM     70  O   UNL A   1      34.400  32.603  31.146  1.00  0.00    -0.237 OA
ATOM     71  O   UNL A   1      36.072  33.605  29.647  1.00  0.00    -0.744 OA
ENDBRANCH  65  68
ENDBRANCH  47  61
BRANCH  48  72
ATOM     72  C   UNL A   1      46.860  27.012  25.969  1.00  0.00     0.023 A 
ATOM     73  C   UNL A   1      47.791  26.133  26.556  1.00  0.00     0.012 A 
ATOM     74  C   UNL A   1      47.086  27.475  24.658  1.00  0.00     0.148 A 
ATOM     75  C   UNL A   1      48.949  25.760  25.870  1.00  0.00     0.002 A 
ATOM     76  C   UNL A   1      48.209  27.052  23.958  1.00  0.00     0.091 A 
ATOM     77  F   UNL A   1      46.193  28.317  24.119  1.00  0.00    -0.205 F 
ATOM     78  C   UNL A   1      49.153  26.213  24.569  1.00  0.00     0.022 A 
BRANCH  76  79
ATOM     79  S   UNL A   1      48.482  27.476  22.234  1.00  0.00     0.127 S 
ATOM     80  O   UNL A   1      47.239  28.164  21.896  1.00  0.00    -0.237 OA
ATOM     81  O   UNL A   1      49.662  28.336  22.318  1.00  0.00    -0.237 OA
ATOM     82  O   UNL A   1      48.712  26.210  21.551  1.00  0.00    -0.744 OA
ENDBRANCH  76  79
ENDBRANCH  48  72
BRANCH  60  83
ATOM     83  C   UNL A   1      45.480  32.367  30.226  1.00  0.00     0.023 A 
ATOM     84  C   UNL A   1      46.194  32.200  31.429  1.00  0.00     0.012 A 
ATOM     85  C   UNL A   1      45.612  33.571  29.505  1.00  0.00     0.148 A 
ATOM     86  C   UNL A   1      46.990  33.229  31.929  1.00  0.00     0.002 A 
ATOM     87  C   UNL A   1      46.451  34.570  29.980  1.00  0.00     0.091 A 
ATOM     88  F   UNL A   1      44.910  33.719  28.372  1.00  0.00    -0.205 F 
ATOM     89  C   UNL A   1      47.129  34.408  31.200  1.00  0.00     0.022 A 
BRANCH  87  90
ATOM     90  S   UNL A   1      46.767  36.078  29.059  1.00  0.00     0.127 S 
ATOM     91  O   UNL A   1      47.304  35.553  27.804  1.00  0.00    -0.237 OA
ATOM     92  O   UNL A   1      45.431  36.663  28.954  1.00  0.00    -0.237 OA
ATOM     93  O   UNL A   1      47.704  36.852  29.863  1.00  0.00    -0.744 OA
ENDBRANCH  87  90
ENDBRANCH  60  83
ENDBRANCH  34  35
ENDBRANCH  26  29
ENDBRANCH  24  25
ENDBRANCH  23  24
ENDBRANCH   1  23
TORSDOF 18
ENDMDL
