MODEL 1
REMARK VINA RESULT:     -11.5      0.000      0.000
REMARK SMILES C=CCOc1ccc(C(=O)N2CCC[C@H]2C(=O)NCCCNC(=O)c2ccc(-c3c4nc(c(-c5cccc(S(=O)(=O)[O-])c5F)c5ccc([nH]5)c(-c5cccc(S(=O)(=O)[O-])c5F)c5nc(c(-c6cccc(S(=O)(=O)[O-])c6F)c6ccc3[nH]6)C=C5)C=C4)cc2)cc1
REMARK SMILES IDX 19 1 18 2 16 3 17 4 15 6 11 7 12 8 13 9 14 10 9 11 10 12
REMARK SMILES IDX 8 13 5 14 6 15 89 16 7 17 88 18 4 19 3 20 2 21 1 22 20 23
REMARK SMILES IDX 21 24 22 25 23 26 24 28 25 29 26 30 87 31 27 32 86 33 28 34
REMARK SMILES IDX 29 35 30 36 80 37 31 38 85 39 79 40 81 41 32 42 84 43 78 44
REMARK SMILES IDX 77 45 33 47 65 48 45 49 64 50 46 51 49 52 63 53 82 54 47 55
REMARK SMILES IDX 48 56 62 58 83 59 50 60 34 61 35 62 43 63 36 64 38 65 44 66
REMARK SMILES IDX 37 67 39 68 40 69 41 70 42 71 66 72 67 73 75 74 68 75 70 76
REMARK SMILES IDX 76 77 69 78 71 79 72 80 73 81 74 82 51 83 52 84 60 85 53 86
REMARK SMILES IDX 55 87 61 88 54 89 56 90 57 91 58 92 59 93
REMARK H PARENT 18 5 22 27 81 46 49 57
REMARK Flexibility Score: inf
ROOT
ATOM      1  C   UNL A   1      32.406  27.098  26.782  1.00  0.00     0.117 C 
ENDROOT
BRANCH   1   2
ATOM      2  N   UNL A   1      31.424  26.068  27.021  1.00  0.00    -0.354 N 
ATOM      3  C   UNL A   1      31.411  24.768  26.607  1.00  0.00     0.242 C 
ATOM      4  O   UNL A   1      30.616  24.014  27.181  1.00  0.00    -0.273 OA
ATOM      5  H   UNL A   1      30.650  26.343  27.562  1.00  0.00     0.163 HD
BRANCH   3   6
ATOM      6  C   UNL A   1      32.483  24.195  25.656  1.00  0.00     0.174 C 
ATOM      7  N   UNL A   1      32.956  25.026  24.547  1.00  0.00    -0.327 N 
ATOM      8  C   UNL A   1      34.382  25.306  24.660  1.00  0.00     0.121 C 
ATOM      9  C   UNL A   1      34.908  24.136  25.474  1.00  0.00     0.024 C 
ATOM     10  C   UNL A   1      33.754  23.781  26.412  1.00  0.00     0.037 C 
BRANCH   7  11
ATOM     11  C   UNL A   1      32.126  25.113  23.430  1.00  0.00     0.254 C 
ATOM     12  O   UNL A   1      32.262  24.351  22.475  1.00  0.00    -0.269 OA
BRANCH  11  13
ATOM     13  C   UNL A   1      31.175  26.255  23.296  1.00  0.00     0.040 A 
ATOM     14  C   UNL A   1      29.328  28.312  22.796  1.00  0.00     0.119 A 
ATOM     15  C   UNL A   1      28.931  27.180  23.506  1.00  0.00     0.047 A 
ATOM     16  C   UNL A   1      30.650  28.436  22.394  1.00  0.00     0.047 A 
ATOM     17  C   UNL A   1      29.857  26.153  23.765  1.00  0.00     0.017 A 
ATOM     18  C   UNL A   1      31.530  27.381  22.556  1.00  0.00     0.017 A 
BRANCH  14  19
ATOM     19  O   UNL A   1      28.425  29.305  22.527  1.00  0.00    -0.490 OA
BRANCH  19  20
ATOM     20  C   UNL A   1      29.047  30.587  22.313  1.00  0.00     0.257 C 
BRANCH  20  21
ATOM     21  C   UNL A   1      28.511  31.650  23.240  1.00  0.00     0.006 C 
ATOM     22  C   UNL A   1      27.328  31.579  23.870  1.00  0.00     0.007 C 
ENDBRANCH  20  21
ENDBRANCH  19  20
ENDBRANCH  14  19
ENDBRANCH  11  13
ENDBRANCH   7  11
ENDBRANCH   3   6
ENDBRANCH   1   2
BRANCH   1  23
ATOM     23  C   UNL A   1      31.804  28.380  26.230  1.00  0.00     0.042 C 
BRANCH  23  24
ATOM     24  C   UNL A   1      32.855  29.309  25.642  1.00  0.00     0.118 C 
BRANCH  24  25
ATOM     25  N   UNL A   1      32.604  30.703  26.001  1.00  0.00    -0.352 N 
ATOM     26  C   UNL A   1      33.176  31.483  26.971  1.00  0.00     0.251 C 
ATOM     27  H   UNL A   1      31.915  31.152  25.460  1.00  0.00     0.163 HD
ATOM     28  O   UNL A   1      32.658  32.554  27.267  1.00  0.00    -0.269 OA
BRANCH  26  29
ATOM     29  C   UNL A   1      34.408  31.036  27.650  1.00  0.00     0.039 A 
ATOM     30  C   UNL A   1      35.443  31.953  27.847  1.00  0.00     0.014 A 
ATOM     31  C   UNL A   1      34.553  29.709  28.066  1.00  0.00     0.014 A 
ATOM     32  C   UNL A   1      36.605  31.549  28.501  1.00  0.00     0.010 A 
ATOM     33  C   UNL A   1      35.670  29.333  28.798  1.00  0.00     0.010 A 
ATOM     34  C   UNL A   1      36.715  30.243  29.006  1.00  0.00    -0.014 A 
BRANCH  34  35
ATOM     35  C   UNL A   1      37.919  29.804  29.752  1.00  0.00     0.031 A 
ATOM     36  C   UNL A   1      38.186  30.335  31.133  1.00  0.00     0.074 A 
ATOM     37  C   UNL A   1      38.810  28.995  29.148  1.00  0.00     0.049 A 
ATOM     38  N   UNL A   1      39.202  30.105  31.922  1.00  0.00    -0.248 NA
ATOM     39  C   UNL A   1      37.195  31.270  31.692  1.00  0.00     0.031 C 
ATOM     40  C   UNL A   1      38.695  28.481  27.782  1.00  0.00     0.029 A 
ATOM     41  N   UNL A   1      39.999  28.481  29.598  1.00  0.00    -0.354 N 
ATOM     42  C   UNL A   1      38.993  30.890  33.049  1.00  0.00     0.074 A 
ATOM     43  C   UNL A   1      37.776  31.637  32.824  1.00  0.00     0.031 C 
ATOM     44  C   UNL A   1      39.761  27.712  27.511  1.00  0.00     0.029 A 
ATOM     45  C   UNL A   1      40.651  27.707  28.667  1.00  0.00     0.049 A 
ATOM     46  H   UNL A   1      40.352  28.650  30.501  1.00  0.00     0.167 HD
ATOM     47  C   UNL A   1      39.731  30.962  34.183  1.00  0.00     0.034 A 
ATOM     48  C   UNL A   1      41.834  27.069  28.738  1.00  0.00     0.034 A 
ATOM     49  C   UNL A   1      40.924  30.191  34.409  1.00  0.00     0.049 A 
ATOM     50  C   UNL A   1      42.622  27.142  30.016  1.00  0.00     0.074 A 
ATOM     51  C   UNL A   1      41.702  30.124  35.550  1.00  0.00     0.029 A 
ATOM     52  N   UNL A   1      41.519  29.364  33.469  1.00  0.00    -0.354 N 
ATOM     53  N   UNL A   1      42.331  27.768  31.132  1.00  0.00    -0.248 NA
ATOM     54  C   UNL A   1      43.886  26.392  30.060  1.00  0.00     0.031 C 
ATOM     55  C   UNL A   1      42.786  29.279  35.289  1.00  0.00     0.029 A 
ATOM     56  C   UNL A   1      42.663  28.790  33.998  1.00  0.00     0.049 A 
ATOM     57  H   UNL A   1      41.178  29.207  32.559  1.00  0.00     0.167 HD
ATOM     58  C   UNL A   1      43.353  27.458  32.021  1.00  0.00     0.074 A 
ATOM     59  C   UNL A   1      44.260  26.572  31.319  1.00  0.00     0.031 C 
ATOM     60  C   UNL A   1      43.530  27.875  33.299  1.00  0.00     0.034 A 
BRANCH  47  61
ATOM     61  C   UNL A   1      39.239  31.874  35.278  1.00  0.00     0.023 A 
ATOM     62  C   UNL A   1      38.266  31.410  36.189  1.00  0.00     0.012 A 
ATOM     63  C   UNL A   1      39.755  33.177  35.427  1.00  0.00     0.148 A 
ATOM     64  C   UNL A   1      37.780  32.241  37.198  1.00  0.00     0.002 A 
ATOM     65  C   UNL A   1      39.302  33.981  36.466  1.00  0.00     0.091 A 
ATOM     66  F   UNL A   1      40.662  33.610  34.541  1.00  0.00    -0.205 F 
ATOM     67  C   UNL A   1      38.304  33.521  37.342  1.00  0.00     0.022 A 
BRANCH  65  68
ATOM     68  S   UNL A   1      39.974  35.615  36.789  1.00  0.00     0.127 S 
ATOM     69  O   UNL A   1      39.277  35.984  38.020  1.00  0.00    -0.237 OA
ATOM     70  O   UNL A   1      41.401  35.333  36.958  1.00  0.00    -0.237 OA
ATOM     71  O   UNL A   1      39.651  36.419  35.619  1.00  0.00    -0.744 OA
ENDBRANCH  65  68
ENDBRANCH  47  61
BRANCH  48  72
ATOM     72  C   UNL A   1      42.301  26.242  27.590  1.00  0.00     0.023 A 
ATOM     73  C   UNL A   1      43.180  26.808  26.648  1.00  0.00     0.012 A 
ATOM     74  C   UNL A   1      41.919  24.894  27.451  1.00  0.00     0.148 A 
ATOM     75  C   UNL A   1      43.646  26.058  25.568  1.00  0.00     0.002 A 
ATOM     76  C   UNL A   1      42.429  24.136  26.404  1.00  0.00     0.091 A 
ATOM     77  F   UNL A   1      41.079  24.376  28.358  1.00  0.00    -0.205 F 
ATOM     78  C   UNL A   1      43.279  24.720  25.452  1.00  0.00     0.022 A 
BRANCH  76  79
ATOM     79  S   UNL A   1      42.118  22.374  26.243  1.00  0.00     0.127 S 
ATOM     80  O   UNL A   1      40.662  22.336  26.136  1.00  0.00    -0.237 OA
ATOM     81  O   UNL A   1      42.836  22.056  25.009  1.00  0.00    -0.237 OA
ATOM     82  O   UNL A   1      42.677  21.763  27.441  1.00  0.00    -0.744 OA
ENDBRANCH  76  79
ENDBRANCH  48  72
BRANCH  60  83
ATOM     83  C   UNL A   1      44.730  27.349  34.043  1.00  0.00     0.023 A 
ATOM     84  C   UNL A   1      45.937  28.075  34.037  1.00  0.00     0.012 A 
ATOM     85  C   UNL A   1      44.637  26.168  34.807  1.00  0.00     0.148 A 
ATOM     86  C   UNL A   1      47.045  27.615  34.750  1.00  0.00     0.002 A 
ATOM     87  C   UNL A   1      45.726  25.745  35.557  1.00  0.00     0.091 A 
ATOM     88  F   UNL A   1      43.485  25.482  34.785  1.00  0.00    -0.205 F 
ATOM     89  C   UNL A   1      46.935  26.459  35.519  1.00  0.00     0.022 A 
BRANCH  87  90
ATOM     90  S   UNL A   1      45.647  24.325  36.654  1.00  0.00     0.127 S 
ATOM     91  O   UNL A   1      45.454  23.227  35.707  1.00  0.00    -0.237 OA
ATOM     92  O   UNL A   1      46.963  24.354  37.293  1.00  0.00    -0.237 OA
ATOM     93  O   UNL A   1      44.531  24.574  37.556  1.00  0.00    -0.744 OA
ENDBRANCH  87  90
ENDBRANCH  60  83
ENDBRANCH  34  35
ENDBRANCH  26  29
ENDBRANCH  24  25
ENDBRANCH  23  24
ENDBRANCH   1  23
TORSDOF 18
ENDMDL
MODEL 2
REMARK VINA RESULT:     -11.4      1.464      7.669
REMARK SMILES C=CCOc1ccc(C(=O)N2CCC[C@H]2C(=O)NCCCNC(=O)c2ccc(-c3c4nc(c(-c5cccc(S(=O)(=O)[O-])c5F)c5ccc([nH]5)c(-c5cccc(S(=O)(=O)[O-])c5F)c5nc(c(-c6cccc(S(=O)(=O)[O-])c6F)c6ccc3[nH]6)C=C5)C=C4)cc2)cc1
REMARK SMILES IDX 19 1 18 2 16 3 17 4 15 6 11 7 12 8 13 9 14 10 9 11 10 12
REMARK SMILES IDX 8 13 5 14 6 15 89 16 7 17 88 18 4 19 3 20 2 21 1 22 20 23
REMARK SMILES IDX 21 24 22 25 23 26 24 28 25 29 26 30 87 31 27 32 86 33 28 34
REMARK SMILES IDX 29 35 30 36 80 37 31 38 85 39 79 40 81 41 32 42 84 43 78 44
REMARK SMILES IDX 77 45 33 47 65 48 45 49 64 50 46 51 49 52 63 53 82 54 47 55
REMARK SMILES IDX 48 56 62 58 83 59 50 60 34 61 35 62 43 63 36 64 38 65 44 66
REMARK SMILES IDX 37 67 39 68 40 69 41 70 42 71 66 72 67 73 75 74 68 75 70 76
REMARK SMILES IDX 76 77 69 78 71 79 72 80 73 81 74 82 51 83 52 84 60 85 53 86
REMARK SMILES IDX 55 87 61 88 54 89 56 90 57 91 58 92 59 93
REMARK H PARENT 18 5 22 27 81 46 49 57
REMARK Flexibility Score: inf
ROOT
ATOM      1  C   UNL A   1      32.376  26.976  26.580  1.00  0.00     0.117 C 
ENDROOT
BRANCH   1   2
ATOM      2  N   UNL A   1      31.409  25.947  26.878  1.00  0.00    -0.354 N 
ATOM      3  C   UNL A   1      31.379  24.643  26.481  1.00  0.00     0.242 C 
ATOM      4  O   UNL A   1      30.614  23.894  27.101  1.00  0.00    -0.273 OA
ATOM      5  H   UNL A   1      30.661  26.228  27.453  1.00  0.00     0.163 HD
BRANCH   3   6
ATOM      6  C   UNL A   1      32.404  24.060  25.486  1.00  0.00     0.174 C 
ATOM      7  N   UNL A   1      32.913  24.920  24.415  1.00  0.00    -0.327 N 
ATOM      8  C   UNL A   1      34.354  25.111  24.522  1.00  0.00     0.121 C 
ATOM      9  C   UNL A   1      34.820  23.871  25.265  1.00  0.00     0.024 C 
ATOM     10  C   UNL A   1      33.657  23.533  26.200  1.00  0.00     0.037 C 
BRANCH   7  11
ATOM     11  C   UNL A   1      32.076  25.115  23.317  1.00  0.00     0.254 C 
ATOM     12  O   UNL A   1      32.042  24.306  22.391  1.00  0.00    -0.269 OA
BRANCH  11  13
ATOM     13  C   UNL A   1      31.342  26.404  23.158  1.00  0.00     0.040 A 
ATOM     14  C   UNL A   1      29.907  28.755  22.605  1.00  0.00     0.119 A 
ATOM     15  C   UNL A   1      29.275  27.691  23.245  1.00  0.00     0.047 A 
ATOM     16  C   UNL A   1      31.257  28.663  22.300  1.00  0.00     0.047 A 
ATOM     17  C   UNL A   1      29.994  26.516  23.531  1.00  0.00     0.017 A 
ATOM     18  C   UNL A   1      31.934  27.471  22.485  1.00  0.00     0.017 A 
BRANCH  14  19
ATOM     19  O   UNL A   1      29.205  29.893  22.310  1.00  0.00    -0.490 OA
BRANCH  19  20
ATOM     20  C   UNL A   1      28.040  30.064  23.141  1.00  0.00     0.257 C 
BRANCH  20  21
ATOM     21  C   UNL A   1      27.634  31.511  23.275  1.00  0.00     0.006 C 
ATOM     22  C   UNL A   1      28.454  32.551  23.050  1.00  0.00     0.007 C 
ENDBRANCH  20  21
ENDBRANCH  19  20
ENDBRANCH  14  19
ENDBRANCH  11  13
ENDBRANCH   7  11
ENDBRANCH   3   6
ENDBRANCH   1   2
BRANCH   1  23
ATOM     23  C   UNL A   1      31.738  28.292  26.167  1.00  0.00     0.042 C 
BRANCH  23  24
ATOM     24  C   UNL A   1      32.756  29.284  25.623  1.00  0.00     0.118 C 
BRANCH  24  25
ATOM     25  N   UNL A   1      32.391  30.662  25.947  1.00  0.00    -0.352 N 
ATOM     26  C   UNL A   1      32.897  31.510  26.896  1.00  0.00     0.251 C 
ATOM     27  H   UNL A   1      31.669  31.040  25.395  1.00  0.00     0.163 HD
ATOM     28  O   UNL A   1      32.292  32.542  27.166  1.00  0.00    -0.269 OA
BRANCH  26  29
ATOM     29  C   UNL A   1      34.160  31.181  27.585  1.00  0.00     0.039 A 
ATOM     30  C   UNL A   1      35.120  32.182  27.752  1.00  0.00     0.014 A 
ATOM     31  C   UNL A   1      34.409  29.884  28.041  1.00  0.00     0.014 A 
ATOM     32  C   UNL A   1      36.310  31.890  28.415  1.00  0.00     0.010 A 
ATOM     33  C   UNL A   1      35.552  29.619  28.782  1.00  0.00     0.010 A 
ATOM     34  C   UNL A   1      36.523  30.613  28.959  1.00  0.00    -0.014 A 
BRANCH  34  35
ATOM     35  C   UNL A   1      37.757  30.294  29.715  1.00  0.00     0.031 A 
ATOM     36  C   UNL A   1      38.789  29.375  29.123  1.00  0.00     0.074 A 
ATOM     37  C   UNL A   1      37.903  30.766  30.968  1.00  0.00     0.049 A 
ATOM     38  N   UNL A   1      39.906  28.944  29.647  1.00  0.00    -0.248 NA
ATOM     39  C   UNL A   1      38.517  28.847  27.775  1.00  0.00     0.031 C 
ATOM     40  C   UNL A   1      36.930  31.601  31.676  1.00  0.00     0.029 A 
ATOM     41  N   UNL A   1      38.915  30.592  31.877  1.00  0.00    -0.354 N 
ATOM     42  C   UNL A   1      40.450  28.070  28.713  1.00  0.00     0.074 A 
ATOM     43  C   UNL A   1      39.520  27.998  27.609  1.00  0.00     0.031 C 
ATOM     44  C   UNL A   1      37.400  31.882  32.901  1.00  0.00     0.029 A 
ATOM     45  C   UNL A   1      38.687  31.217  33.080  1.00  0.00     0.049 A 
ATOM     46  H   UNL A   1      39.727  30.070  31.686  1.00  0.00     0.167 HD
ATOM     47  C   UNL A   1      41.633  27.411  28.756  1.00  0.00     0.034 A 
ATOM     48  C   UNL A   1      39.431  31.248  34.202  1.00  0.00     0.034 A 
ATOM     49  C   UNL A   1      42.565  27.514  29.846  1.00  0.00     0.049 A 
ATOM     50  C   UNL A   1      40.752  30.529  34.216  1.00  0.00     0.074 A 
ATOM     51  C   UNL A   1      43.825  26.955  29.956  1.00  0.00     0.029 A 
ATOM     52  N   UNL A   1      42.332  28.212  31.021  1.00  0.00    -0.354 N 
ATOM     53  N   UNL A   1      41.323  29.832  33.263  1.00  0.00    -0.248 NA
ATOM     54  C   UNL A   1      41.548  30.630  35.447  1.00  0.00     0.031 C 
ATOM     55  C   UNL A   1      44.342  27.291  31.213  1.00  0.00     0.029 A 
ATOM     56  C   UNL A   1      43.419  28.090  31.870  1.00  0.00     0.049 A 
ATOM     57  H   UNL A   1      41.513  28.721  31.223  1.00  0.00     0.167 HD
ATOM     58  C   UNL A   1      42.560  29.444  33.764  1.00  0.00     0.074 A 
ATOM     59  C   UNL A   1      42.661  30.000  35.099  1.00  0.00     0.031 C 
ATOM     60  C   UNL A   1      43.521  28.688  33.177  1.00  0.00     0.034 A 
BRANCH  47  61
ATOM     61  C   UNL A   1      41.997  26.556  27.568  1.00  0.00     0.023 A 
ATOM     62  C   UNL A   1      42.664  27.137  26.469  1.00  0.00     0.012 A 
ATOM     63  C   UNL A   1      41.709  25.177  27.548  1.00  0.00     0.148 A 
ATOM     64  C   UNL A   1      42.994  26.373  25.350  1.00  0.00     0.002 A 
ATOM     65  C   UNL A   1      42.087  24.411  26.451  1.00  0.00     0.091 A 
ATOM     66  F   UNL A   1      41.057  24.645  28.590  1.00  0.00    -0.205 F 
ATOM     67  C   UNL A   1      42.715  25.010  25.345  1.00  0.00     0.022 A 
BRANCH  65  68
ATOM     68  S   UNL A   1      41.847  22.633  26.383  1.00  0.00     0.127 S 
ATOM     69  O   UNL A   1      42.489  22.201  27.623  1.00  0.00    -0.237 OA
ATOM     70  O   UNL A   1      40.388  22.519  26.381  1.00  0.00    -0.237 OA
ATOM     71  O   UNL A   1      42.491  22.189  25.155  1.00  0.00    -0.744 OA
ENDBRANCH  65  68
ENDBRANCH  47  61
BRANCH  48  72
ATOM     72  C   UNL A   1      38.978  32.052  35.371  1.00  0.00     0.023 A 
ATOM     73  C   UNL A   1      39.114  33.452  35.337  1.00  0.00     0.012 A 
ATOM     74  C   UNL A   1      38.377  31.446  36.492  1.00  0.00     0.148 A 
ATOM     75  C   UNL A   1      38.688  34.235  36.410  1.00  0.00     0.002 A 
ATOM     76  C   UNL A   1      37.905  32.235  37.533  1.00  0.00     0.091 A 
ATOM     77  F   UNL A   1      38.260  30.111  36.504  1.00  0.00    -0.205 F 
ATOM     78  C   UNL A   1      38.075  33.628  37.503  1.00  0.00     0.022 A 
BRANCH  76  79
ATOM     79  S   UNL A   1      36.988  31.560  38.922  1.00  0.00     0.127 S 
ATOM     80  O   UNL A   1      37.932  31.745  40.022  1.00  0.00    -0.237 OA
ATOM     81  O   UNL A   1      35.817  32.435  38.961  1.00  0.00    -0.237 OA
ATOM     82  O   UNL A   1      36.698  30.177  38.568  1.00  0.00    -0.744 OA
ENDBRANCH  76  79
ENDBRANCH  48  72
BRANCH  60  83
ATOM     83  C   UNL A   1      44.788  28.446  33.956  1.00  0.00     0.023 A 
ATOM     84  C   UNL A   1      45.854  29.363  33.870  1.00  0.00     0.012 A 
ATOM     85  C   UNL A   1      44.892  27.344  34.829  1.00  0.00     0.148 A 
ATOM     86  C   UNL A   1      47.019  29.166  34.612  1.00  0.00     0.002 A 
ATOM     87  C   UNL A   1      46.032  27.185  35.604  1.00  0.00     0.091 A 
ATOM     88  F   UNL A   1      43.873  26.474  34.883  1.00  0.00    -0.205 F 
ATOM     89  C   UNL A   1      47.103  28.087  35.487  1.00  0.00     0.022 A 
BRANCH  87  90
ATOM     90  S   UNL A   1      46.188  25.882  36.831  1.00  0.00     0.127 S 
ATOM     91  O   UNL A   1      45.176  26.274  37.812  1.00  0.00    -0.237 OA
ATOM     92  O   UNL A   1      45.854  24.686  36.057  1.00  0.00    -0.237 OA
ATOM     93  O   UNL A   1      47.565  25.932  37.301  1.00  0.00    -0.744 OA
ENDBRANCH  87  90
ENDBRANCH  60  83
ENDBRANCH  34  35
ENDBRANCH  26  29
ENDBRANCH  24  25
ENDBRANCH  23  24
ENDBRANCH   1  23
TORSDOF 18
ENDMDL
MODEL 3
REMARK VINA RESULT:     -11.3      2.583      4.668
REMARK SMILES C=CCOc1ccc(C(=O)N2CCC[C@H]2C(=O)NCCCNC(=O)c2ccc(-c3c4nc(c(-c5cccc(S(=O)(=O)[O-])c5F)c5ccc([nH]5)c(-c5cccc(S(=O)(=O)[O-])c5F)c5nc(c(-c6cccc(S(=O)(=O)[O-])c6F)c6ccc3[nH]6)C=C5)C=C4)cc2)cc1
REMARK SMILES IDX 19 1 18 2 16 3 17 4 15 6 11 7 12 8 13 9 14 10 9 11 10 12
REMARK SMILES IDX 8 13 5 14 6 15 89 16 7 17 88 18 4 19 3 20 2 21 1 22 20 23
REMARK SMILES IDX 21 24 22 25 23 26 24 28 25 29 26 30 87 31 27 32 86 33 28 34
REMARK SMILES IDX 29 35 30 36 80 37 31 38 85 39 79 40 81 41 32 42 84 43 78 44
REMARK SMILES IDX 77 45 33 47 65 48 45 49 64 50 46 51 49 52 63 53 82 54 47 55
REMARK SMILES IDX 48 56 62 58 83 59 50 60 34 61 35 62 43 63 36 64 38 65 44 66
REMARK SMILES IDX 37 67 39 68 40 69 41 70 42 71 66 72 67 73 75 74 68 75 70 76
REMARK SMILES IDX 76 77 69 78 71 79 72 80 73 81 74 82 51 83 52 84 60 85 53 86
REMARK SMILES IDX 55 87 61 88 54 89 56 90 57 91 58 92 59 93
REMARK H PARENT 18 5 22 27 81 46 49 57
REMARK Flexibility Score: inf
ROOT
ATOM      1  C   UNL A   1      33.259  28.769  24.926  1.00  0.00     0.117 C 
ENDROOT
BRANCH   1   2
ATOM      2  N   UNL A   1      33.990  28.650  23.688  1.00  0.00    -0.354 N 
ATOM      3  C   UNL A   1      33.648  28.004  22.536  1.00  0.00     0.242 C 
ATOM      4  O   UNL A   1      34.302  28.292  21.526  1.00  0.00    -0.273 OA
ATOM      5  H   UNL A   1      34.865  29.101  23.672  1.00  0.00     0.163 HD
BRANCH   3   6
ATOM      6  C   UNL A   1      32.369  27.149  22.419  1.00  0.00     0.174 C 
ATOM      7  N   UNL A   1      32.331  25.845  23.085  1.00  0.00    -0.327 N 
ATOM      8  C   UNL A   1      31.288  25.794  24.101  1.00  0.00     0.121 C 
ATOM      9  C   UNL A   1      30.280  26.826  23.625  1.00  0.00     0.024 C 
ATOM     10  C   UNL A   1      31.133  27.896  22.941  1.00  0.00     0.037 C 
BRANCH   7  11
ATOM     11  C   UNL A   1      32.995  24.797  22.449  1.00  0.00     0.254 C 
ATOM     12  O   UNL A   1      33.156  24.792  21.230  1.00  0.00    -0.269 OA
BRANCH  11  13
ATOM     13  C   UNL A   1      33.361  23.572  23.216  1.00  0.00     0.040 A 
ATOM     14  C   UNL A   1      34.144  21.161  24.429  1.00  0.00     0.119 A 
ATOM     15  C   UNL A   1      34.986  22.270  24.483  1.00  0.00     0.047 A 
ATOM     16  C   UNL A   1      32.900  21.277  23.826  1.00  0.00     0.047 A 
ATOM     17  C   UNL A   1      34.592  23.481  23.884  1.00  0.00     0.017 A 
ATOM     18  C   UNL A   1      32.560  22.434  23.147  1.00  0.00     0.017 A 
BRANCH  14  19
ATOM     19  O   UNL A   1      34.532  19.976  24.995  1.00  0.00    -0.490 OA
BRANCH  19  20
ATOM     20  C   UNL A   1      33.726  18.860  24.570  1.00  0.00     0.257 C 
BRANCH  20  21
ATOM     21  C   UNL A   1      34.558  17.695  24.095  1.00  0.00     0.006 C 
ATOM     22  C   UNL A   1      34.083  16.674  23.362  1.00  0.00     0.007 C 
ENDBRANCH  20  21
ENDBRANCH  19  20
ENDBRANCH  14  19
ENDBRANCH  11  13
ENDBRANCH   7  11
ENDBRANCH   3   6
ENDBRANCH   1   2
BRANCH   1  23
ATOM     23  C   UNL A   1      33.769  27.837  26.013  1.00  0.00     0.042 C 
BRANCH  23  24
ATOM     24  C   UNL A   1      33.625  28.434  27.404  1.00  0.00     0.118 C 
BRANCH  24  25
ATOM     25  N   UNL A   1      33.619  29.895  27.366  1.00  0.00    -0.352 N 
ATOM     26  C   UNL A   1      34.506  30.797  27.892  1.00  0.00     0.251 C 
ATOM     27  H   UNL A   1      32.857  30.294  26.886  1.00  0.00     0.163 HD
ATOM     28  O   UNL A   1      34.195  31.981  27.956  1.00  0.00    -0.269 OA
BRANCH  26  29
ATOM     29  C   UNL A   1      35.825  30.343  28.374  1.00  0.00     0.039 A 
ATOM     30  C   UNL A   1      35.903  29.672  29.597  1.00  0.00     0.014 A 
ATOM     31  C   UNL A   1      36.984  30.603  27.637  1.00  0.00     0.014 A 
ATOM     32  C   UNL A   1      37.140  29.224  30.057  1.00  0.00     0.010 A 
ATOM     33  C   UNL A   1      38.199  30.076  28.051  1.00  0.00     0.010 A 
ATOM     34  C   UNL A   1      38.293  29.398  29.274  1.00  0.00    -0.014 A 
BRANCH  34  35
ATOM     35  C   UNL A   1      39.610  28.883  29.716  1.00  0.00     0.031 A 
ATOM     36  C   UNL A   1      40.359  29.573  30.822  1.00  0.00     0.074 A 
ATOM     37  C   UNL A   1      40.165  27.844  29.062  1.00  0.00     0.049 A 
ATOM     38  N   UNL A   1      41.538  29.300  31.316  1.00  0.00    -0.248 NA
ATOM     39  C   UNL A   1      39.710  30.744  31.437  1.00  0.00     0.031 C 
ATOM     40  C   UNL A   1      39.567  27.146  27.922  1.00  0.00     0.029 A 
ATOM     41  N   UNL A   1      41.367  27.210  29.247  1.00  0.00    -0.354 N 
ATOM     42  C   UNL A   1      41.787  30.280  32.268  1.00  0.00     0.074 A 
ATOM     43  C   UNL A   1      40.656  31.181  32.254  1.00  0.00     0.031 C 
ATOM     44  C   UNL A   1      40.396  26.170  27.520  1.00  0.00     0.029 A 
ATOM     45  C   UNL A   1      41.598  26.196  28.347  1.00  0.00     0.049 A 
ATOM     46  H   UNL A   1      42.004  27.458  29.955  1.00  0.00     0.167 HD
ATOM     47  C   UNL A   1      42.847  30.403  33.102  1.00  0.00     0.034 A 
ATOM     48  C   UNL A   1      42.661  25.382  28.205  1.00  0.00     0.034 A 
ATOM     49  C   UNL A   1      43.953  29.483  33.130  1.00  0.00     0.049 A 
ATOM     50  C   UNL A   1      43.814  25.521  29.159  1.00  0.00     0.074 A 
ATOM     51  C   UNL A   1      45.036  29.466  33.988  1.00  0.00     0.029 A 
ATOM     52  N   UNL A   1      44.121  28.425  32.250  1.00  0.00    -0.354 N 
ATOM     53  N   UNL A   1      43.964  26.359  30.158  1.00  0.00    -0.248 NA
ATOM     54  C   UNL A   1      44.930  24.580  28.992  1.00  0.00     0.031 C 
ATOM     55  C   UNL A   1      45.877  28.414  33.605  1.00  0.00     0.029 A 
ATOM     56  C   UNL A   1      45.298  27.753  32.534  1.00  0.00     0.049 A 
ATOM     57  H   UNL A   1      43.495  28.186  31.528  1.00  0.00     0.167 HD
ATOM     58  C   UNL A   1      45.170  26.023  30.760  1.00  0.00     0.074 A 
ATOM     59  C   UNL A   1      45.701  24.892  30.025  1.00  0.00     0.031 C 
ATOM     60  C   UNL A   1      45.788  26.602  31.819  1.00  0.00     0.034 A 
BRANCH  47  61
ATOM     61  C   UNL A   1      42.834  31.551  34.080  1.00  0.00     0.023 A 
ATOM     62  C   UNL A   1      43.461  32.768  33.736  1.00  0.00     0.012 A 
ATOM     63  C   UNL A   1      42.182  31.441  35.324  1.00  0.00     0.148 A 
ATOM     64  C   UNL A   1      43.481  33.838  34.630  1.00  0.00     0.002 A 
ATOM     65  C   UNL A   1      42.162  32.528  36.189  1.00  0.00     0.091 A 
ATOM     66  F   UNL A   1      41.610  30.272  35.645  1.00  0.00    -0.205 F 
ATOM     67  C   UNL A   1      42.824  33.721  35.851  1.00  0.00     0.022 A 
BRANCH  65  68
ATOM     68  S   UNL A   1      41.273  32.508  37.749  1.00  0.00     0.127 S 
ATOM     69  O   UNL A   1      42.119  31.635  38.561  1.00  0.00    -0.237 OA
ATOM     70  O   UNL A   1      41.304  33.920  38.139  1.00  0.00    -0.237 OA
ATOM     71  O   UNL A   1      39.946  31.993  37.447  1.00  0.00    -0.744 OA
ENDBRANCH  65  68
ENDBRANCH  47  61
BRANCH  48  72
ATOM     72  C   UNL A   1      42.643  24.314  27.167  1.00  0.00     0.023 A 
ATOM     73  C   UNL A   1      43.318  24.526  25.950  1.00  0.00     0.012 A 
ATOM     74  C   UNL A   1      42.003  23.079  27.393  1.00  0.00     0.148 A 
ATOM     75  C   UNL A   1      43.331  23.541  24.963  1.00  0.00     0.002 A 
ATOM     76  C   UNL A   1      42.066  22.082  26.427  1.00  0.00     0.091 A 
ATOM     77  F   UNL A   1      41.365  22.899  28.558  1.00  0.00    -0.205 F 
ATOM     78  C   UNL A   1      42.715  22.316  25.205  1.00  0.00     0.022 A 
BRANCH  76  79
ATOM     79  S   UNL A   1      41.416  20.430  26.697  1.00  0.00     0.127 S 
ATOM     80  O   UNL A   1      41.778  19.759  25.451  1.00  0.00    -0.237 OA
ATOM     81  O   UNL A   1      42.172  19.999  27.873  1.00  0.00    -0.237 OA
ATOM     82  O   UNL A   1      39.988  20.600  26.927  1.00  0.00    -0.744 OA
ENDBRANCH  76  79
ENDBRANCH  48  72
BRANCH  60  83
ATOM     83  C   UNL A   1      47.092  26.002  32.278  1.00  0.00     0.023 A 
ATOM     84  C   UNL A   1      48.305  26.426  31.703  1.00  0.00     0.012 A 
ATOM     85  C   UNL A   1      47.116  25.067  33.333  1.00  0.00     0.148 A 
ATOM     86  C   UNL A   1      49.520  25.901  32.144  1.00  0.00     0.002 A 
ATOM     87  C   UNL A   1      48.332  24.590  33.803  1.00  0.00     0.091 A 
ATOM     88  F   UNL A   1      45.949  24.662  33.856  1.00  0.00    -0.205 F 
ATOM     89  C   UNL A   1      49.535  24.995  33.200  1.00  0.00     0.022 A 
BRANCH  87  90
ATOM     90  S   UNL A   1      48.454  23.497  35.223  1.00  0.00     0.127 S 
ATOM     91  O   UNL A   1      47.814  24.294  36.268  1.00  0.00    -0.237 OA
ATOM     92  O   UNL A   1      47.682  22.333  34.786  1.00  0.00    -0.237 OA
ATOM     93  O   UNL A   1      49.875  23.242  35.416  1.00  0.00    -0.744 OA
ENDBRANCH  87  90
ENDBRANCH  60  83
ENDBRANCH  34  35
ENDBRANCH  26  29
ENDBRANCH  24  25
ENDBRANCH  23  24
ENDBRANCH   1  23
TORSDOF 18
ENDMDL
