MODEL 1
REMARK VINA RESULT:     -11.4      0.000      0.000
REMARK SMILES O=CN[C@H](C(=O)NCCCNC(=O)c1ccc(-c2c3nc(c(-c4cccc(S(=O)(=O)[O-])c4F)c4ccc([nH]4)c(-c4cccc(S(=O)(=O)[O-])c4F)c4nc(c(-c5cccc(S(=O)(=O)[O-])c5F)c5ccc2[nH]5)C=C4)C=C3)cc1)[C@@H]1CCO[C@@]2(CCOC2)C1
REMARK SMILES IDX 10 1 9 2 8 3 7 4 5 5 6 6 4 8 3 9 1 10 2 11 77 13 78 14 86 15
REMARK SMILES IDX 79 16 81 17 80 18 82 19 85 20 83 21 84 22 11 23 12 24 13 26
REMARK SMILES IDX 14 27 15 28 76 29 16 30 75 31 17 32 18 33 19 34 69 35 20 36
REMARK SMILES IDX 74 37 68 38 70 39 21 40 73 41 67 42 66 43 22 45 54 46 34 47
REMARK SMILES IDX 53 48 35 49 38 50 52 51 71 52 36 53 37 54 51 56 72 57 39 58
REMARK SMILES IDX 23 59 24 60 32 61 25 62 27 63 33 64 26 65 28 66 29 67 30 68
REMARK SMILES IDX 31 69 55 70 56 71 64 72 57 73 59 74 65 75 58 76 60 77 61 78
REMARK SMILES IDX 62 79 63 80 40 81 41 82 49 83 42 84 44 85 50 86 43 87 45 88
REMARK SMILES IDX 46 89 47 90 48 91
REMARK H PARENT 7 7 3 12 11 25 70 44 38 55
REMARK Flexibility Score: inf
ROOT
ATOM      1  C   UNL A   1      34.204  28.545  26.105  1.00  0.00     0.118 C 
ENDROOT
BRANCH   1   2
ATOM      2  C   UNL A   1      33.078  27.599  26.485  1.00  0.00     0.042 C 
BRANCH   2   3
ATOM      3  C   UNL A   1      33.250  26.202  25.909  1.00  0.00     0.117 C 
BRANCH   3   4
ATOM      4  N   UNL A   1      32.462  26.008  24.711  1.00  0.00    -0.354 N 
ATOM      5  C   UNL A   1      31.972  24.868  24.157  1.00  0.00     0.242 C 
ATOM      6  O   UNL A   1      31.315  24.975  23.116  1.00  0.00    -0.273 OA
ATOM      7  H   UNL A   1      32.247  26.834  24.218  1.00  0.00     0.163 HD
BRANCH   5   8
ATOM      8  C   UNL A   1      32.149  23.485  24.824  1.00  0.00     0.174 C 
BRANCH   8   9
ATOM      9  N   UNL A   1      31.011  23.110  25.660  1.00  0.00    -0.347 N 
ATOM     10  O   UNL A   1      29.650  23.048  27.449  1.00  0.00    -0.279 OA
ATOM     11  C   UNL A   1      30.636  23.506  26.900  1.00  0.00     0.337 C 
ATOM     12  H   UNL A   1      30.409  22.449  25.248  1.00  0.00     0.164 HD
ENDBRANCH   8   9
BRANCH   8  13
ATOM     13  C   UNL A   1      32.759  22.441  23.846  1.00  0.00     0.026 C 
ATOM     14  C   UNL A   1      32.598  20.976  24.263  1.00  0.00     0.035 C 
ATOM     15  C   UNL A   1      34.277  22.678  23.618  1.00  0.00     0.044 C 
ATOM     16  C   UNL A   1      33.411  20.698  25.509  1.00  0.00     0.161 C 
ATOM     17  C   UNL A   1      35.191  22.170  24.763  1.00  0.00     0.094 C 
ATOM     18  O   UNL A   1      34.792  20.869  25.221  1.00  0.00    -0.372 OA
ATOM     19  C   UNL A   1      36.635  21.992  24.280  1.00  0.00     0.066 C 
ATOM     20  C   UNL A   1      35.359  23.187  25.913  1.00  0.00     0.195 C 
ATOM     21  C   UNL A   1      37.337  23.234  24.760  1.00  0.00     0.163 C 
ATOM     22  O   UNL A   1      36.760  23.493  26.038  1.00  0.00    -0.378 OA
ENDBRANCH   8  13
ENDBRANCH   5   8
ENDBRANCH   3   4
ENDBRANCH   2   3
ENDBRANCH   1   2
BRANCH   1  23
ATOM     23  N   UNL A   1      33.940  29.910  26.538  1.00  0.00    -0.352 N 
ATOM     24  C   UNL A   1      34.547  30.653  27.520  1.00  0.00     0.251 C 
ATOM     25  H   UNL A   1      33.217  30.371  26.053  1.00  0.00     0.163 HD
ATOM     26  O   UNL A   1      34.008  31.682  27.917  1.00  0.00    -0.269 OA
BRANCH  24  27
ATOM     27  C   UNL A   1      35.837  30.213  28.091  1.00  0.00     0.039 A 
ATOM     28  C   UNL A   1      35.859  29.642  29.365  1.00  0.00     0.014 A 
ATOM     29  C   UNL A   1      37.026  30.382  27.376  1.00  0.00     0.014 A 
ATOM     30  C   UNL A   1      37.068  29.185  29.894  1.00  0.00     0.010 A 
ATOM     31  C   UNL A   1      38.207  29.835  27.860  1.00  0.00     0.010 A 
ATOM     32  C   UNL A   1      38.246  29.247  29.130  1.00  0.00    -0.014 A 
BRANCH  32  33
ATOM     33  C   UNL A   1      39.531  28.708  29.642  1.00  0.00     0.031 A 
ATOM     34  C   UNL A   1      40.257  29.417  30.755  1.00  0.00     0.074 A 
ATOM     35  C   UNL A   1      40.085  27.636  29.042  1.00  0.00     0.049 A 
ATOM     36  N   UNL A   1      41.419  29.140  31.286  1.00  0.00    -0.248 NA
ATOM     37  C   UNL A   1      39.609  30.611  31.328  1.00  0.00     0.031 C 
ATOM     38  C   UNL A   1      39.520  26.918  27.897  1.00  0.00     0.029 A 
ATOM     39  N   UNL A   1      41.266  26.981  29.292  1.00  0.00    -0.354 N 
ATOM     40  C   UNL A   1      41.660  30.144  32.218  1.00  0.00     0.074 A 
ATOM     41  C   UNL A   1      40.539  31.054  32.162  1.00  0.00     0.031 C 
ATOM     42  C   UNL A   1      40.350  25.924  27.545  1.00  0.00     0.029 A 
ATOM     43  C   UNL A   1      41.524  25.956  28.411  1.00  0.00     0.049 A 
ATOM     44  H   UNL A   1      41.872  27.224  30.029  1.00  0.00     0.167 HD
ATOM     45  C   UNL A   1      42.708  30.279  33.063  1.00  0.00     0.034 A 
ATOM     46  C   UNL A   1      42.593  25.143  28.304  1.00  0.00     0.034 A 
ATOM     47  C   UNL A   1      43.795  29.343  33.149  1.00  0.00     0.049 A 
ATOM     48  C   UNL A   1      43.721  25.293  29.288  1.00  0.00     0.074 A 
ATOM     49  C   UNL A   1      44.850  29.334  34.043  1.00  0.00     0.029 A 
ATOM     50  N   UNL A   1      43.975  28.259  32.304  1.00  0.00    -0.354 N 
ATOM     51  N   UNL A   1      43.847  26.144  30.277  1.00  0.00    -0.248 NA
ATOM     52  C   UNL A   1      44.839  24.345  29.168  1.00  0.00     0.031 C 
ATOM     53  C   UNL A   1      45.688  28.264  33.717  1.00  0.00     0.029 A 
ATOM     54  C   UNL A   1      45.132  27.584  32.646  1.00  0.00     0.049 A 
ATOM     55  H   UNL A   1      43.368  28.008  31.570  1.00  0.00     0.167 HD
ATOM     56  C   UNL A   1      45.035  25.813  30.917  1.00  0.00     0.074 A 
ATOM     57  C   UNL A   1      45.579  24.666  30.219  1.00  0.00     0.031 C 
ATOM     58  C   UNL A   1      45.632  26.411  31.976  1.00  0.00     0.034 A 
BRANCH  45  59
ATOM     59  C   UNL A   1      42.716  31.457  34.001  1.00  0.00     0.023 A 
ATOM     60  C   UNL A   1      43.264  32.685  33.579  1.00  0.00     0.012 A 
ATOM     61  C   UNL A   1      42.097  31.374  35.264  1.00  0.00     0.148 A 
ATOM     62  C   UNL A   1      43.219  33.805  34.408  1.00  0.00     0.002 A 
ATOM     63  C   UNL A   1      42.014  32.506  36.065  1.00  0.00     0.091 A 
ATOM     64  F   UNL A   1      41.600  30.192  35.655  1.00  0.00    -0.205 F 
ATOM     65  C   UNL A   1      42.583  33.720  35.644  1.00  0.00     0.022 A 
BRANCH  63  66
ATOM     66  S   UNL A   1      41.143  32.525  37.636  1.00  0.00     0.127 S 
ATOM     67  O   UNL A   1      41.983  31.645  38.448  1.00  0.00    -0.237 OA
ATOM     68  O   UNL A   1      41.206  33.939  38.003  1.00  0.00    -0.237 OA
ATOM     69  O   UNL A   1      39.804  32.022  37.362  1.00  0.00    -0.744 OA
ENDBRANCH  63  66
ENDBRANCH  45  59
BRANCH  46  70
ATOM     70  C   UNL A   1      42.636  24.090  27.249  1.00  0.00     0.023 A 
ATOM     71  C   UNL A   1      43.288  24.354  26.028  1.00  0.00     0.012 A 
ATOM     72  C   UNL A   1      42.035  22.833  27.447  1.00  0.00     0.148 A 
ATOM     73  C   UNL A   1      43.298  23.403  25.007  1.00  0.00     0.002 A 
ATOM     74  C   UNL A   1      42.100  21.869  26.449  1.00  0.00     0.091 A 
ATOM     75  F   UNL A   1      41.411  22.603  28.612  1.00  0.00    -0.205 F 
ATOM     76  C   UNL A   1      42.712  22.158  25.219  1.00  0.00     0.022 A 
BRANCH  74  77
ATOM     77  S   UNL A   1      41.488  20.197  26.685  1.00  0.00     0.127 S 
ATOM     78  O   UNL A   1      40.052  20.424  26.833  1.00  0.00    -0.237 OA
ATOM     79  O   UNL A   1      41.884  19.551  25.433  1.00  0.00    -0.237 OA
ATOM     80  O   UNL A   1      42.175  19.692  27.866  1.00  0.00    -0.744 OA
ENDBRANCH  74  77
ENDBRANCH  46  70
BRANCH  58  81
ATOM     81  C   UNL A   1      46.916  25.814  32.486  1.00  0.00     0.023 A 
ATOM     82  C   UNL A   1      46.899  24.945  33.594  1.00  0.00     0.012 A 
ATOM     83  C   UNL A   1      48.131  26.058  31.816  1.00  0.00     0.148 A 
ATOM     84  C   UNL A   1      48.077  24.355  34.049  1.00  0.00     0.002 A 
ATOM     85  C   UNL A   1      49.292  25.425  32.241  1.00  0.00     0.091 A 
ATOM     86  F   UNL A   1      48.127  26.901  30.773  1.00  0.00    -0.205 F 
ATOM     87  C   UNL A   1      49.270  24.584  33.366  1.00  0.00     0.022 A 
BRANCH  85  88
ATOM     88  S   UNL A   1      50.850  25.579  31.362  1.00  0.00     0.127 S 
ATOM     89  O   UNL A   1      51.173  26.989  31.576  1.00  0.00    -0.237 OA
ATOM     90  O   UNL A   1      51.707  24.640  32.086  1.00  0.00    -0.237 OA
ATOM     91  O   UNL A   1      50.574  25.206  29.982  1.00  0.00    -0.744 OA
ENDBRANCH  85  88
ENDBRANCH  58  81
ENDBRANCH  32  33
ENDBRANCH  24  27
ENDBRANCH   1  23
TORSDOF 15
ENDMDL
MODEL 2
REMARK VINA RESULT:     -11.3      5.070      8.348
REMARK SMILES O=CN[C@H](C(=O)NCCCNC(=O)c1ccc(-c2c3nc(c(-c4cccc(S(=O)(=O)[O-])c4F)c4ccc([nH]4)c(-c4cccc(S(=O)(=O)[O-])c4F)c4nc(c(-c5cccc(S(=O)(=O)[O-])c5F)c5ccc2[nH]5)C=C4)C=C3)cc1)[C@@H]1CCO[C@@]2(CCOC2)C1
REMARK SMILES IDX 10 1 9 2 8 3 7 4 5 5 6 6 4 8 3 9 1 10 2 11 77 13 78 14 86 15
REMARK SMILES IDX 79 16 81 17 80 18 82 19 85 20 83 21 84 22 11 23 12 24 13 26
REMARK SMILES IDX 14 27 15 28 76 29 16 30 75 31 17 32 18 33 19 34 69 35 20 36
REMARK SMILES IDX 74 37 68 38 70 39 21 40 73 41 67 42 66 43 22 45 54 46 34 47
REMARK SMILES IDX 53 48 35 49 38 50 52 51 71 52 36 53 37 54 51 56 72 57 39 58
REMARK SMILES IDX 23 59 24 60 32 61 25 62 27 63 33 64 26 65 28 66 29 67 30 68
REMARK SMILES IDX 31 69 55 70 56 71 64 72 57 73 59 74 65 75 58 76 60 77 61 78
REMARK SMILES IDX 62 79 63 80 40 81 41 82 49 83 42 84 44 85 50 86 43 87 45 88
REMARK SMILES IDX 46 89 47 90 48 91
REMARK H PARENT 7 7 3 12 11 25 70 44 38 55
REMARK Flexibility Score: inf
ROOT
ATOM      1  C   UNL A   1      38.850  20.193  25.786  1.00  0.00     0.118 C 
ENDROOT
BRANCH   1   2
ATOM      2  C   UNL A   1      37.761  19.649  24.877  1.00  0.00     0.042 C 
BRANCH   2   3
ATOM      3  C   UNL A   1      36.613  20.623  24.670  1.00  0.00     0.117 C 
BRANCH   3   4
ATOM      4  N   UNL A   1      35.601  20.498  25.698  1.00  0.00    -0.354 N 
ATOM      5  C   UNL A   1      34.972  21.453  26.432  1.00  0.00     0.242 C 
ATOM      6  O   UNL A   1      34.130  21.078  27.255  1.00  0.00    -0.273 OA
ATOM      7  H   UNL A   1      35.324  19.574  25.896  1.00  0.00     0.163 HD
BRANCH   5   8
ATOM      8  C   UNL A   1      35.225  22.962  26.213  1.00  0.00     0.174 C 
BRANCH   8   9
ATOM      9  N   UNL A   1      36.603  23.352  26.501  1.00  0.00    -0.347 N 
ATOM     10  O   UNL A   1      38.732  23.974  26.126  1.00  0.00    -0.279 OA
ATOM     11  C   UNL A   1      37.628  23.703  25.687  1.00  0.00     0.337 C 
ATOM     12  H   UNL A   1      36.827  23.362  27.459  1.00  0.00     0.164 HD
ENDBRANCH   8   9
BRANCH   8  13
ATOM     13  C   UNL A   1      34.532  23.488  24.925  1.00  0.00     0.026 C 
ATOM     14  C   UNL A   1      34.637  24.998  24.691  1.00  0.00     0.035 C 
ATOM     15  C   UNL A   1      33.020  23.134  24.894  1.00  0.00     0.044 C 
ATOM     16  C   UNL A   1      33.855  25.744  25.751  1.00  0.00     0.161 C 
ATOM     17  C   UNL A   1      32.123  24.044  25.772  1.00  0.00     0.094 C 
ATOM     18  O   UNL A   1      32.475  25.428  25.631  1.00  0.00    -0.372 OA
ATOM     19  C   UNL A   1      30.656  23.963  25.335  1.00  0.00     0.066 C 
ATOM     20  C   UNL A   1      32.044  23.591  27.247  1.00  0.00     0.195 C 
ATOM     21  C   UNL A   1      30.031  23.011  26.320  1.00  0.00     0.163 C 
ATOM     22  O   UNL A   1      30.664  23.323  27.559  1.00  0.00    -0.378 OA
ENDBRANCH   8  13
ENDBRANCH   5   8
ENDBRANCH   3   4
ENDBRANCH   2   3
ENDBRANCH   1   2
BRANCH   1  23
ATOM     23  N   UNL A   1      39.905  19.215  26.019  1.00  0.00    -0.352 N 
ATOM     24  C   UNL A   1      41.256  19.402  26.178  1.00  0.00     0.251 C 
ATOM     25  H   UNL A   1      39.604  18.279  26.071  1.00  0.00     0.163 HD
ATOM     26  O   UNL A   1      42.011  18.438  26.094  1.00  0.00    -0.269 OA
BRANCH  24  27
ATOM     27  C   UNL A   1      41.790  20.753  26.445  1.00  0.00     0.039 A 
ATOM     28  C   UNL A   1      42.023  21.619  25.375  1.00  0.00     0.014 A 
ATOM     29  C   UNL A   1      42.078  21.159  27.751  1.00  0.00     0.014 A 
ATOM     30  C   UNL A   1      42.489  22.912  25.622  1.00  0.00     0.010 A 
ATOM     31  C   UNL A   1      42.441  22.475  28.003  1.00  0.00     0.010 A 
ATOM     32  C   UNL A   1      42.668  23.362  26.942  1.00  0.00    -0.014 A 
BRANCH  32  33
ATOM     33  C   UNL A   1      43.097  24.752  27.236  1.00  0.00     0.031 A 
ATOM     34  C   UNL A   1      42.148  25.707  27.912  1.00  0.00     0.074 A 
ATOM     35  C   UNL A   1      44.303  25.177  26.812  1.00  0.00     0.049 A 
ATOM     36  N   UNL A   1      42.315  26.974  28.188  1.00  0.00    -0.248 NA
ATOM     37  C   UNL A   1      40.828  25.181  28.302  1.00  0.00     0.031 C 
ATOM     38  C   UNL A   1      45.273  24.369  26.068  1.00  0.00     0.029 A 
ATOM     39  N   UNL A   1      44.908  26.405  26.916  1.00  0.00    -0.354 N 
ATOM     40  C   UNL A   1      41.114  27.404  28.740  1.00  0.00     0.074 A 
ATOM     41  C   UNL A   1      40.215  26.273  28.736  1.00  0.00     0.031 C 
ATOM     42  C   UNL A   1      46.349  25.120  25.785  1.00  0.00     0.029 A 
ATOM     43  C   UNL A   1      46.133  26.471  26.293  1.00  0.00     0.049 A 
ATOM     44  H   UNL A   1      44.503  27.166  27.392  1.00  0.00     0.167 HD
ATOM     45  C   UNL A   1      40.798  28.624  29.232  1.00  0.00     0.034 A 
ATOM     46  C   UNL A   1      46.979  27.508  26.133  1.00  0.00     0.034 A 
ATOM     47  C   UNL A   1      41.714  29.731  29.280  1.00  0.00     0.049 A 
ATOM     48  C   UNL A   1      46.616  28.839  26.732  1.00  0.00     0.074 A 
ATOM     49  C   UNL A   1      41.526  30.976  29.853  1.00  0.00     0.029 A 
ATOM     50  N   UNL A   1      42.983  29.733  28.724  1.00  0.00    -0.354 N 
ATOM     51  N   UNL A   1      45.543  29.178  27.405  1.00  0.00    -0.248 NA
ATOM     52  C   UNL A   1      47.597  29.925  26.582  1.00  0.00     0.031 C 
ATOM     53  C   UNL A   1      42.669  31.743  29.612  1.00  0.00     0.029 A 
ATOM     54  C   UNL A   1      43.584  30.962  28.926  1.00  0.00     0.049 A 
ATOM     55  H   UNL A   1      43.396  28.971  28.255  1.00  0.00     0.167 HD
ATOM     56  C   UNL A   1      45.735  30.499  27.790  1.00  0.00     0.074 A 
ATOM     57  C   UNL A   1      47.039  30.892  27.296  1.00  0.00     0.031 C 
ATOM     58  C   UNL A   1      44.904  31.320  28.477  1.00  0.00     0.034 A 
BRANCH  45  59
ATOM     59  C   UNL A   1      39.420  28.825  29.805  1.00  0.00     0.023 A 
ATOM     60  C   UNL A   1      39.147  28.428  31.129  1.00  0.00     0.012 A 
ATOM     61  C   UNL A   1      38.424  29.491  29.064  1.00  0.00     0.148 A 
ATOM     62  C   UNL A   1      37.898  28.668  31.700  1.00  0.00     0.002 A 
ATOM     63  C   UNL A   1      37.198  29.769  29.655  1.00  0.00     0.091 A 
ATOM     64  F   UNL A   1      38.697  29.843  27.799  1.00  0.00    -0.205 F 
ATOM     65  C   UNL A   1      36.929  29.349  30.969  1.00  0.00     0.022 A 
BRANCH  63  66
ATOM     66  S   UNL A   1      35.913  30.715  28.830  1.00  0.00     0.127 S 
ATOM     67  O   UNL A   1      35.202  29.668  28.096  1.00  0.00    -0.237 OA
ATOM     68  O   UNL A   1      35.174  31.277  29.960  1.00  0.00    -0.237 OA
ATOM     69  O   UNL A   1      36.601  31.695  28.000  1.00  0.00    -0.744 OA
ENDBRANCH  63  66
ENDBRANCH  45  59
BRANCH  46  70
ATOM     70  C   UNL A   1      48.267  27.324  25.407  1.00  0.00     0.023 A 
ATOM     71  C   UNL A   1      49.431  26.991  26.129  1.00  0.00     0.012 A 
ATOM     72  C   UNL A   1      48.348  27.478  24.010  1.00  0.00     0.148 A 
ATOM     73  C   UNL A   1      50.659  26.863  25.478  1.00  0.00     0.002 A 
ATOM     74  C   UNL A   1      49.562  27.290  23.361  1.00  0.00     0.091 A 
ATOM     75  F   UNL A   1      47.231  27.804  23.342  1.00  0.00    -0.205 F 
ATOM     76  C   UNL A   1      50.723  27.005  24.094  1.00  0.00     0.022 A 
BRANCH  74  77
ATOM     77  S   UNL A   1      49.710  27.325  21.572  1.00  0.00     0.127 S 
ATOM     78  O   UNL A   1      48.682  26.368  21.169  1.00  0.00    -0.237 OA
ATOM     79  O   UNL A   1      49.402  28.724  21.271  1.00  0.00    -0.237 OA
ATOM     80  O   UNL A   1      51.084  26.937  21.286  1.00  0.00    -0.744 OA
ENDBRANCH  74  77
ENDBRANCH  46  70
BRANCH  58  81
ATOM     81  C   UNL A   1      45.389  32.711  28.784  1.00  0.00     0.023 A 
ATOM     82  C   UNL A   1      46.136  32.955  29.952  1.00  0.00     0.012 A 
ATOM     83  C   UNL A   1      45.166  33.762  27.872  1.00  0.00     0.148 A 
ATOM     84  C   UNL A   1      46.625  34.232  30.226  1.00  0.00     0.002 A 
ATOM     85  C   UNL A   1      45.702  35.018  28.124  1.00  0.00     0.091 A 
ATOM     86  F   UNL A   1      44.439  33.511  26.773  1.00  0.00    -0.205 F 
ATOM     87  C   UNL A   1      46.419  35.259  29.307  1.00  0.00     0.022 A 
BRANCH  85  88
ATOM     88  S   UNL A   1      45.576  36.371  26.950  1.00  0.00     0.127 S 
ATOM     89  O   UNL A   1      46.170  35.782  25.751  1.00  0.00    -0.237 OA
ATOM     90  O   UNL A   1      44.130  36.581  26.875  1.00  0.00    -0.237 OA
ATOM     91  O   UNL A   1      46.318  37.481  27.532  1.00  0.00    -0.744 OA
ENDBRANCH  85  88
ENDBRANCH  58  81
ENDBRANCH  32  33
ENDBRANCH  24  27
ENDBRANCH   1  23
TORSDOF 15
ENDMDL
MODEL 3
REMARK VINA RESULT:     -11.2      4.172      9.440
REMARK SMILES O=CN[C@H](C(=O)NCCCNC(=O)c1ccc(-c2c3nc(c(-c4cccc(S(=O)(=O)[O-])c4F)c4ccc([nH]4)c(-c4cccc(S(=O)(=O)[O-])c4F)c4nc(c(-c5cccc(S(=O)(=O)[O-])c5F)c5ccc2[nH]5)C=C4)C=C3)cc1)[C@@H]1CCO[C@@]2(CCOC2)C1
REMARK SMILES IDX 10 1 9 2 8 3 7 4 5 5 6 6 4 8 3 9 1 10 2 11 77 13 78 14 86 15
REMARK SMILES IDX 79 16 81 17 80 18 82 19 85 20 83 21 84 22 11 23 12 24 13 26
REMARK SMILES IDX 14 27 15 28 76 29 16 30 75 31 17 32 18 33 19 34 69 35 20 36
REMARK SMILES IDX 74 37 68 38 70 39 21 40 73 41 67 42 66 43 22 45 54 46 34 47
REMARK SMILES IDX 53 48 35 49 38 50 52 51 71 52 36 53 37 54 51 56 72 57 39 58
REMARK SMILES IDX 23 59 24 60 32 61 25 62 27 63 33 64 26 65 28 66 29 67 30 68
REMARK SMILES IDX 31 69 55 70 56 71 64 72 57 73 59 74 65 75 58 76 60 77 61 78
REMARK SMILES IDX 62 79 63 80 40 81 41 82 49 83 42 84 44 85 50 86 43 87 45 88
REMARK SMILES IDX 46 89 47 90 48 91
REMARK H PARENT 7 7 3 12 11 25 70 44 38 55
REMARK Flexibility Score: inf
ROOT
ATOM      1  C   UNL A   1      32.703  32.673  27.448  1.00  0.00     0.118 C 
ENDROOT
BRANCH   1   2
ATOM      2  C   UNL A   1      31.471  32.118  26.754  1.00  0.00     0.042 C 
BRANCH   2   3
ATOM      3  C   UNL A   1      31.681  30.723  26.187  1.00  0.00     0.117 C 
BRANCH   3   4
ATOM      4  N   UNL A   1      31.557  29.699  27.202  1.00  0.00    -0.354 N 
ATOM      5  C   UNL A   1      32.114  28.462  27.273  1.00  0.00     0.242 C 
ATOM      6  O   UNL A   1      31.849  27.772  28.264  1.00  0.00    -0.273 OA
ATOM      7  H   UNL A   1      30.978  29.938  27.962  1.00  0.00     0.163 HD
BRANCH   5   8
ATOM      8  C   UNL A   1      33.104  27.940  26.208  1.00  0.00     0.174 C 
BRANCH   8   9
ATOM      9  N   UNL A   1      34.429  28.544  26.322  1.00  0.00    -0.347 N 
ATOM     10  O   UNL A   1      36.186  29.592  27.257  1.00  0.00    -0.279 OA
ATOM     11  C   UNL A   1      35.073  29.110  27.371  1.00  0.00     0.337 C 
ATOM     12  H   UNL A   1      34.947  28.540  25.485  1.00  0.00     0.164 HD
ENDBRANCH   8   9
BRANCH   8  13
ATOM     13  C   UNL A   1      32.977  26.404  25.997  1.00  0.00     0.026 C 
ATOM     14  C   UNL A   1      33.895  25.809  24.926  1.00  0.00     0.035 C 
ATOM     15  C   UNL A   1      31.527  25.987  25.627  1.00  0.00     0.044 C 
ATOM     16  C   UNL A   1      33.490  26.311  23.556  1.00  0.00     0.161 C 
ATOM     17  C   UNL A   1      31.137  26.243  24.149  1.00  0.00     0.094 C 
ATOM     18  O   UNL A   1      32.183  25.846  23.250  1.00  0.00    -0.372 OA
ATOM     19  C   UNL A   1      29.925  25.397  23.742  1.00  0.00     0.066 C 
ATOM     20  C   UNL A   1      30.631  27.678  23.885  1.00  0.00     0.195 C 
ATOM     21  C   UNL A   1      28.764  26.351  23.834  1.00  0.00     0.163 C 
ATOM     22  O   UNL A   1      29.291  27.591  23.365  1.00  0.00    -0.378 OA
ENDBRANCH   8  13
ENDBRANCH   5   8
ENDBRANCH   3   4
ENDBRANCH   2   3
ENDBRANCH   1   2
BRANCH   1  23
ATOM     23  N   UNL A   1      32.597  34.107  27.684  1.00  0.00    -0.352 N 
ATOM     24  C   UNL A   1      33.194  34.886  28.644  1.00  0.00     0.251 C 
ATOM     25  H   UNL A   1      32.009  34.591  27.059  1.00  0.00     0.163 HD
ATOM     26  O   UNL A   1      32.772  36.020  28.847  1.00  0.00    -0.269 OA
BRANCH  24  27
ATOM     27  C   UNL A   1      34.332  34.357  29.424  1.00  0.00     0.039 A 
ATOM     28  C   UNL A   1      34.082  33.542  30.529  1.00  0.00     0.014 A 
ATOM     29  C   UNL A   1      35.646  34.681  29.074  1.00  0.00     0.014 A 
ATOM     30  C   UNL A   1      35.153  33.005  31.247  1.00  0.00     0.010 A 
ATOM     31  C   UNL A   1      36.706  34.064  29.723  1.00  0.00     0.010 A 
ATOM     32  C   UNL A   1      36.474  33.234  30.827  1.00  0.00    -0.014 A 
BRANCH  32  33
ATOM     33  C   UNL A   1      37.628  32.620  31.530  1.00  0.00     0.031 A 
ATOM     34  C   UNL A   1      38.364  31.463  30.905  1.00  0.00     0.074 A 
ATOM     35  C   UNL A   1      37.952  33.045  32.767  1.00  0.00     0.049 A 
ATOM     36  N   UNL A   1      39.347  30.754  31.395  1.00  0.00    -0.248 NA
ATOM     37  C   UNL A   1      37.919  31.025  29.571  1.00  0.00     0.031 C 
ATOM     38  C   UNL A   1      37.257  34.098  33.511  1.00  0.00     0.029 A 
ATOM     39  N   UNL A   1      38.931  32.621  33.632  1.00  0.00    -0.354 N 
ATOM     40  C   UNL A   1      39.608  29.765  30.453  1.00  0.00     0.074 A 
ATOM     41  C   UNL A   1      38.662  29.945  29.376  1.00  0.00     0.031 C 
ATOM     42  C   UNL A   1      37.829  34.239  34.717  1.00  0.00     0.029 A 
ATOM     43  C   UNL A   1      38.907  33.264  34.849  1.00  0.00     0.049 A 
ATOM     44  H   UNL A   1      39.586  31.923  33.404  1.00  0.00     0.167 HD
ATOM     45  C   UNL A   1      40.566  28.811  30.473  1.00  0.00     0.034 A 
ATOM     46  C   UNL A   1      39.657  33.076  35.952  1.00  0.00     0.034 A 
ATOM     47  C   UNL A   1      41.536  28.669  31.524  1.00  0.00     0.049 A 
ATOM     48  C   UNL A   1      40.744  32.036  35.923  1.00  0.00     0.074 A 
ATOM     49  C   UNL A   1      42.612  27.803  31.587  1.00  0.00     0.029 A 
ATOM     50  N   UNL A   1      41.541  29.402  32.700  1.00  0.00    -0.354 N 
ATOM     51  N   UNL A   1      41.086  31.226  34.951  1.00  0.00    -0.248 NA
ATOM     52  C   UNL A   1      41.575  31.909  37.130  1.00  0.00     0.031 C 
ATOM     53  C   UNL A   1      43.248  27.986  32.818  1.00  0.00     0.029 A 
ATOM     54  C   UNL A   1      42.592  28.996  33.502  1.00  0.00     0.049 A 
ATOM     55  H   UNL A   1      40.893  30.107  32.929  1.00  0.00     0.167 HD
ATOM     56  C   UNL A   1      42.190  30.521  35.413  1.00  0.00     0.074 A 
ATOM     57  C   UNL A   1      42.476  31.017  36.743  1.00  0.00     0.031 C 
ATOM     58  C   UNL A   1      42.897  29.540  34.801  1.00  0.00     0.034 A 
BRANCH  45  59
ATOM     59  C   UNL A   1      40.652  27.866  29.303  1.00  0.00     0.023 A 
ATOM     60  C   UNL A   1      39.775  26.765  29.226  1.00  0.00     0.012 A 
ATOM     61  C   UNL A   1      41.536  28.122  28.236  1.00  0.00     0.148 A 
ATOM     62  C   UNL A   1      39.792  25.920  28.118  1.00  0.00     0.002 A 
ATOM     63  C   UNL A   1      41.515  27.303  27.114  1.00  0.00     0.091 A 
ATOM     64  F   UNL A   1      42.375  29.162  28.338  1.00  0.00    -0.205 F 
ATOM     65  C   UNL A   1      40.652  26.195  27.057  1.00  0.00     0.022 A 
BRANCH  63  66
ATOM     66  S   UNL A   1      42.520  27.619  25.660  1.00  0.00     0.127 S 
ATOM     67  O   UNL A   1      43.867  27.634  26.230  1.00  0.00    -0.237 OA
ATOM     68  O   UNL A   1      42.224  26.456  24.825  1.00  0.00    -0.237 OA
ATOM     69  O   UNL A   1      42.062  28.893  25.121  1.00  0.00    -0.744 OA
ENDBRANCH  63  66
ENDBRANCH  45  59
BRANCH  46  70
ATOM     70  C   UNL A   1      39.436  33.914  37.165  1.00  0.00     0.023 A 
ATOM     71  C   UNL A   1      39.872  35.254  37.176  1.00  0.00     0.012 A 
ATOM     72  C   UNL A   1      38.799  33.392  38.307  1.00  0.00     0.148 A 
ATOM     73  C   UNL A   1      39.721  36.042  38.317  1.00  0.00     0.002 A 
ATOM     74  C   UNL A   1      38.598  34.200  39.419  1.00  0.00     0.091 A 
ATOM     75  F   UNL A   1      38.399  32.112  38.282  1.00  0.00    -0.205 F 
ATOM     76  C   UNL A   1      39.078  35.519  39.435  1.00  0.00     0.022 A 
BRANCH  74  77
ATOM     77  S   UNL A   1      37.665  33.650  40.851  1.00  0.00     0.127 S 
ATOM     78  O   UNL A   1      37.511  34.894  41.603  1.00  0.00    -0.237 OA
ATOM     79  O   UNL A   1      36.436  33.146  40.235  1.00  0.00    -0.237 OA
ATOM     80  O   UNL A   1      38.484  32.624  41.481  1.00  0.00    -0.744 OA
ENDBRANCH  74  77
ENDBRANCH  46  70
BRANCH  58  81
ATOM     81  C   UNL A   1      44.080  28.967  35.533  1.00  0.00     0.023 A 
ATOM     82  C   UNL A   1      45.350  29.559  35.394  1.00  0.00     0.012 A 
ATOM     83  C   UNL A   1      43.915  27.883  36.419  1.00  0.00     0.148 A 
ATOM     84  C   UNL A   1      46.444  29.061  36.100  1.00  0.00     0.002 A 
ATOM     85  C   UNL A   1      44.997  27.427  37.160  1.00  0.00     0.091 A 
ATOM     86  F   UNL A   1      42.700  27.324  36.524  1.00  0.00    -0.205 F 
ATOM     87  C   UNL A   1      46.266  28.005  36.991  1.00  0.00     0.022 A 
BRANCH  85  88
ATOM     88  S   UNL A   1      44.840  26.142  38.404  1.00  0.00     0.127 S 
ATOM     89  O   UNL A   1      46.236  25.773  38.629  1.00  0.00    -0.237 OA
ATOM     90  O   UNL A   1      44.212  26.861  39.513  1.00  0.00    -0.237 OA
ATOM     91  O   UNL A   1      44.009  25.104  37.810  1.00  0.00    -0.744 OA
ENDBRANCH  85  88
ENDBRANCH  58  81
ENDBRANCH  32  33
ENDBRANCH  24  27
ENDBRANCH   1  23
TORSDOF 15
ENDMDL
