MODEL 1
REMARK VINA RESULT:     -11.6      0.000      0.000
REMARK SMILES CC(C)[C@H](NS(=O)(=O)c1cccc(F)c1)C(=O)NCCCNC(=O)c1ccc(-c2c3nc(c(-c4cccc(S(=O)(=O)[O-])c4F)c4ccc([nH]4)c(-c4cccc(S(=O)(=O)[O-])c4F)c4nc(c(-c5cccc(S(=O)(=O)[O-])c5F)c5ccc2[nH]5)C=C4)C=C3)cc1
REMARK SMILES IDX 20 1 19 2 18 3 16 4 17 5 4 7 2 8 1 9 3 10 5 11 6 13 7 14
REMARK SMILES IDX 8 15 9 16 10 17 15 18 11 19 13 20 12 21 14 22 21 23 22 24
REMARK SMILES IDX 23 25 24 27 25 28 26 29 87 30 27 31 86 32 28 33 29 34 30 35
REMARK SMILES IDX 80 36 31 37 85 38 79 39 81 40 32 41 84 42 78 43 77 44 33 46
REMARK SMILES IDX 65 47 45 48 64 49 46 50 49 51 63 52 82 53 47 54 48 55 62 57
REMARK SMILES IDX 83 58 50 59 34 60 35 61 43 62 36 63 38 64 44 65 37 66 39 67
REMARK SMILES IDX 40 68 41 69 42 70 66 71 67 72 75 73 68 74 70 75 76 76 69 77
REMARK SMILES IDX 71 78 72 79 73 80 74 81 51 82 52 83 60 84 53 85 55 86 61 87
REMARK SMILES IDX 54 88 56 89 57 90 58 91 59 92
REMARK H PARENT 18 6 5 12 22 26 81 45 49 56
REMARK Flexibility Score: inf
ROOT
ATOM      1  C   UNL A   1      33.343  27.995  26.984  1.00  0.00     0.042 C 
ENDROOT
BRANCH   1   2
ATOM      2  C   UNL A   1      31.832  28.156  27.060  1.00  0.00     0.117 C 
BRANCH   2   3
ATOM      3  N   UNL A   1      31.196  26.866  27.185  1.00  0.00    -0.355 N 
ATOM      4  C   UNL A   1      30.648  26.082  26.223  1.00  0.00     0.238 C 
ATOM      5  O   UNL A   1      30.039  25.075  26.606  1.00  0.00    -0.273 OA
ATOM      6  H   UNL A   1      31.154  26.502  28.099  1.00  0.00     0.163 HD
BRANCH   4   7
ATOM      7  C   UNL A   1      30.839  26.344  24.728  1.00  0.00     0.161 C 
BRANCH   7   8
ATOM      8  C   UNL A   1      32.045  25.645  24.067  1.00  0.00     0.010 C 
ATOM      9  C   UNL A   1      33.053  25.001  25.028  1.00  0.00     0.009 C 
ATOM     10  C   UNL A   1      31.550  24.547  23.112  1.00  0.00     0.009 C 
ENDBRANCH   7   8
BRANCH   7  11
ATOM     11  N   UNL A   1      30.526  27.701  24.222  1.00  0.00    -0.198 NA
ATOM     12  H   UNL A   1      30.939  28.312  24.927  1.00  0.00     0.142 HD
BRANCH  11  13
ATOM     13  S   UNL A   1      30.850  28.494  22.792  1.00  0.00     0.241 S 
ATOM     14  O   UNL A   1      32.161  29.080  22.987  1.00  0.00    -0.207 OA
ATOM     15  O   UNL A   1      30.598  27.619  21.680  1.00  0.00    -0.207 OA
BRANCH  13  16
ATOM     16  C   UNL A   1      29.707  29.838  22.668  1.00  0.00     0.085 A 
ATOM     17  C   UNL A   1      29.507  30.679  23.778  1.00  0.00     0.022 A 
ATOM     18  C   UNL A   1      29.018  30.056  21.478  1.00  0.00     0.061 A 
ATOM     19  C   UNL A   1      28.718  31.821  23.650  1.00  0.00     0.004 A 
ATOM     20  C   UNL A   1      28.222  31.189  21.374  1.00  0.00     0.124 A 
ATOM     21  C   UNL A   1      28.087  32.084  22.435  1.00  0.00     0.039 A 
ATOM     22  F   UNL A   1      27.604  31.452  20.215  1.00  0.00    -0.207 F 
ENDBRANCH  13  16
ENDBRANCH  11  13
ENDBRANCH   7  11
ENDBRANCH   4   7
ENDBRANCH   2   3
ENDBRANCH   1   2
BRANCH   1  23
ATOM     23  C   UNL A   1      33.993  29.006  26.062  1.00  0.00     0.118 C 
BRANCH  23  24
ATOM     24  N   UNL A   1      33.882  30.354  26.606  1.00  0.00    -0.352 N 
ATOM     25  C   UNL A   1      34.555  30.927  27.658  1.00  0.00     0.251 C 
ATOM     26  H   UNL A   1      33.231  30.938  26.156  1.00  0.00     0.163 HD
ATOM     27  O   UNL A   1      34.087  31.928  28.195  1.00  0.00    -0.269 OA
BRANCH  25  28
ATOM     28  C   UNL A   1      35.834  30.352  28.129  1.00  0.00     0.039 A 
ATOM     29  C   UNL A   1      36.971  30.456  27.323  1.00  0.00     0.014 A 
ATOM     30  C   UNL A   1      35.905  29.670  29.345  1.00  0.00     0.014 A 
ATOM     31  C   UNL A   1      38.181  29.912  27.762  1.00  0.00     0.010 A 
ATOM     32  C   UNL A   1      37.130  29.242  29.834  1.00  0.00     0.010 A 
ATOM     33  C   UNL A   1      38.277  29.326  29.035  1.00  0.00    -0.014 A 
BRANCH  33  34
ATOM     34  C   UNL A   1      39.555  28.773  29.548  1.00  0.00     0.031 A 
ATOM     35  C   UNL A   1      40.270  29.458  30.684  1.00  0.00     0.074 A 
ATOM     36  C   UNL A   1      40.114  27.711  28.937  1.00  0.00     0.049 A 
ATOM     37  N   UNL A   1      41.431  29.172  31.215  1.00  0.00    -0.248 NA
ATOM     38  C   UNL A   1      39.618  30.637  31.283  1.00  0.00     0.031 C 
ATOM     39  C   UNL A   1      39.558  27.016  27.773  1.00  0.00     0.029 A 
ATOM     40  N   UNL A   1      41.289  27.046  29.189  1.00  0.00    -0.354 N 
ATOM     41  C   UNL A   1      41.665  30.157  32.168  1.00  0.00     0.074 A 
ATOM     42  C   UNL A   1      40.547  31.068  32.125  1.00  0.00     0.031 C 
ATOM     43  C   UNL A   1      40.383  26.020  27.420  1.00  0.00     0.029 A 
ATOM     44  C   UNL A   1      41.546  26.029  28.300  1.00  0.00     0.049 A 
ATOM     45  H   UNL A   1      41.889  27.275  29.935  1.00  0.00     0.167 HD
ATOM     46  C   UNL A   1      42.707  30.273  33.022  1.00  0.00     0.034 A 
ATOM     47  C   UNL A   1      42.608  25.205  28.193  1.00  0.00     0.034 A 
ATOM     48  C   UNL A   1      43.786  29.327  33.101  1.00  0.00     0.049 A 
ATOM     49  C   UNL A   1      43.728  25.324  29.190  1.00  0.00     0.074 A 
ATOM     50  C   UNL A   1      44.829  29.297  34.009  1.00  0.00     0.029 A 
ATOM     51  N   UNL A   1      43.969  28.257  32.240  1.00  0.00    -0.354 N 
ATOM     52  N   UNL A   1      43.855  26.167  30.186  1.00  0.00    -0.248 NA
ATOM     53  C   UNL A   1      44.833  24.361  29.074  1.00  0.00     0.031 C 
ATOM     54  C   UNL A   1      45.669  28.234  33.669  1.00  0.00     0.029 A 
ATOM     55  C   UNL A   1      45.120  27.572  32.582  1.00  0.00     0.049 A 
ATOM     56  H   UNL A   1      43.369  28.021  31.496  1.00  0.00     0.167 HD
ATOM     57  C   UNL A   1      45.035  25.820  30.832  1.00  0.00     0.074 A 
ATOM     58  C   UNL A   1      45.575  24.675  30.127  1.00  0.00     0.031 C 
ATOM     59  C   UNL A   1      45.623  26.405  31.904  1.00  0.00     0.034 A 
BRANCH  46  60
ATOM     60  C   UNL A   1      42.723  31.430  33.985  1.00  0.00     0.023 A 
ATOM     61  C   UNL A   1      43.281  32.663  33.591  1.00  0.00     0.012 A 
ATOM     62  C   UNL A   1      42.074  31.331  35.232  1.00  0.00     0.148 A 
ATOM     63  C   UNL A   1      43.204  33.776  34.427  1.00  0.00     0.002 A 
ATOM     64  C   UNL A   1      41.956  32.457  36.038  1.00  0.00     0.091 A 
ATOM     65  F   UNL A   1      41.570  30.144  35.597  1.00  0.00    -0.205 F 
ATOM     66  C   UNL A   1      42.528  33.677  35.641  1.00  0.00     0.022 A 
BRANCH  64  67
ATOM     67  S   UNL A   1      41.023  32.461  37.572  1.00  0.00     0.127 S 
ATOM     68  O   UNL A   1      41.852  31.608  38.423  1.00  0.00    -0.237 OA
ATOM     69  O   UNL A   1      41.036  33.878  37.932  1.00  0.00    -0.237 OA
ATOM     70  O   UNL A   1      39.709  31.922  37.249  1.00  0.00    -0.744 OA
ENDBRANCH  64  67
ENDBRANCH  46  60
BRANCH  47  71
ATOM     71  C   UNL A   1      42.628  24.166  27.124  1.00  0.00     0.023 A 
ATOM     72  C   UNL A   1      43.340  24.405  25.934  1.00  0.00     0.012 A 
ATOM     73  C   UNL A   1      41.997  22.921  27.310  1.00  0.00     0.148 A 
ATOM     74  C   UNL A   1      43.406  23.430  24.937  1.00  0.00     0.002 A 
ATOM     75  C   UNL A   1      42.118  21.933  26.341  1.00  0.00     0.091 A 
ATOM     76  F   UNL A   1      41.317  22.718  28.446  1.00  0.00    -0.205 F 
ATOM     77  C   UNL A   1      42.807  22.191  25.146  1.00  0.00     0.022 A 
BRANCH  75  78
ATOM     78  S   UNL A   1      41.503  20.262  26.583  1.00  0.00     0.127 S 
ATOM     79  O   UNL A   1      40.058  20.473  26.591  1.00  0.00    -0.237 OA
ATOM     80  O   UNL A   1      42.021  19.580  25.396  1.00  0.00    -0.237 OA
ATOM     81  O   UNL A   1      42.080  19.808  27.841  1.00  0.00    -0.744 OA
ENDBRANCH  75  78
ENDBRANCH  47  71
BRANCH  59  82
ATOM     82  C   UNL A   1      46.907  25.816  32.422  1.00  0.00     0.023 A 
ATOM     83  C   UNL A   1      48.142  26.333  31.986  1.00  0.00     0.012 A 
ATOM     84  C   UNL A   1      46.883  24.842  33.440  1.00  0.00     0.148 A 
ATOM     85  C   UNL A   1      49.336  25.874  32.542  1.00  0.00     0.002 A 
ATOM     86  C   UNL A   1      48.072  24.431  34.028  1.00  0.00     0.091 A 
ATOM     87  F   UNL A   1      45.696  24.355  33.831  1.00  0.00    -0.205 F 
ATOM     88  C   UNL A   1      49.300  24.937  33.572  1.00  0.00     0.022 A 
BRANCH  86  89
ATOM     89  S   UNL A   1      48.119  23.315  35.436  1.00  0.00     0.127 S 
ATOM     90  O   UNL A   1      47.062  22.364  35.096  1.00  0.00    -0.237 OA
ATOM     91  O   UNL A   1      49.476  22.775  35.356  1.00  0.00    -0.237 OA
ATOM     92  O   UNL A   1      47.859  24.136  36.612  1.00  0.00    -0.744 OA
ENDBRANCH  86  89
ENDBRANCH  59  82
ENDBRANCH  33  34
ENDBRANCH  25  28
ENDBRANCH  23  24
ENDBRANCH   1  23
TORSDOF 17
ENDMDL
MODEL 2
REMARK VINA RESULT:     -11.4      3.860      6.445
REMARK SMILES CC(C)[C@H](NS(=O)(=O)c1cccc(F)c1)C(=O)NCCCNC(=O)c1ccc(-c2c3nc(c(-c4cccc(S(=O)(=O)[O-])c4F)c4ccc([nH]4)c(-c4cccc(S(=O)(=O)[O-])c4F)c4nc(c(-c5cccc(S(=O)(=O)[O-])c5F)c5ccc2[nH]5)C=C4)C=C3)cc1
REMARK SMILES IDX 20 1 19 2 18 3 16 4 17 5 4 7 2 8 1 9 3 10 5 11 6 13 7 14
REMARK SMILES IDX 8 15 9 16 10 17 15 18 11 19 13 20 12 21 14 22 21 23 22 24
REMARK SMILES IDX 23 25 24 27 25 28 26 29 87 30 27 31 86 32 28 33 29 34 30 35
REMARK SMILES IDX 80 36 31 37 85 38 79 39 81 40 32 41 84 42 78 43 77 44 33 46
REMARK SMILES IDX 65 47 45 48 64 49 46 50 49 51 63 52 82 53 47 54 48 55 62 57
REMARK SMILES IDX 83 58 50 59 34 60 35 61 43 62 36 63 38 64 44 65 37 66 39 67
REMARK SMILES IDX 40 68 41 69 42 70 66 71 67 72 75 73 68 74 70 75 76 76 69 77
REMARK SMILES IDX 71 78 72 79 73 80 74 81 51 82 52 83 60 84 53 85 55 86 61 87
REMARK SMILES IDX 54 88 56 89 57 90 58 91 59 92
REMARK H PARENT 18 6 5 12 22 26 81 45 49 56
REMARK Flexibility Score: inf
ROOT
ATOM      1  C   UNL A   1      34.991  34.554  28.808  1.00  0.00     0.042 C 
ENDROOT
BRANCH   1   2
ATOM      2  C   UNL A   1      34.692  34.113  30.234  1.00  0.00     0.117 C 
BRANCH   2   3
ATOM      3  N   UNL A   1      34.617  35.260  31.107  1.00  0.00    -0.355 N 
ATOM      4  C   UNL A   1      35.084  35.408  32.372  1.00  0.00     0.238 C 
ATOM      5  O   UNL A   1      34.772  36.449  32.962  1.00  0.00    -0.273 OA
ATOM      6  H   UNL A   1      34.161  36.048  30.731  1.00  0.00     0.163 HD
BRANCH   4   7
ATOM      7  C   UNL A   1      36.034  34.405  33.030  1.00  0.00     0.161 C 
BRANCH   7   8
ATOM      8  C   UNL A   1      35.383  33.122  33.586  1.00  0.00     0.010 C 
ATOM      9  C   UNL A   1      33.851  33.068  33.522  1.00  0.00     0.009 C 
ATOM     10  C   UNL A   1      35.921  31.896  32.830  1.00  0.00     0.009 C 
ENDBRANCH   7   8
BRANCH   7  11
ATOM     11  N   UNL A   1      37.166  34.945  33.818  1.00  0.00    -0.198 NA
ATOM     12  H   UNL A   1      36.811  34.932  34.775  1.00  0.00     0.142 HD
BRANCH  11  13
ATOM     13  S   UNL A   1      38.760  34.488  33.996  1.00  0.00     0.241 S 
ATOM     14  O   UNL A   1      39.370  35.568  34.744  1.00  0.00    -0.207 OA
ATOM     15  O   UNL A   1      38.828  33.135  34.477  1.00  0.00    -0.207 OA
BRANCH  13  16
ATOM     16  C   UNL A   1      39.494  34.507  32.387  1.00  0.00     0.085 A 
ATOM     17  C   UNL A   1      40.894  34.566  32.267  1.00  0.00     0.022 A 
ATOM     18  C   UNL A   1      38.685  34.462  31.255  1.00  0.00     0.061 A 
ATOM     19  C   UNL A   1      41.489  34.441  31.013  1.00  0.00     0.004 A 
ATOM     20  C   UNL A   1      39.295  34.355  30.012  1.00  0.00     0.124 A 
ATOM     21  C   UNL A   1      40.683  34.317  29.883  1.00  0.00     0.039 A 
ATOM     22  F   UNL A   1      38.534  34.243  28.915  1.00  0.00    -0.207 F 
ENDBRANCH  13  16
ENDBRANCH  11  13
ENDBRANCH   7  11
ENDBRANCH   4   7
ENDBRANCH   2   3
ENDBRANCH   1   2
BRANCH   1  23
ATOM     23  C   UNL A   1      35.410  33.403  27.916  1.00  0.00     0.118 C 
BRANCH  23  24
ATOM     24  N   UNL A   1      34.397  32.355  27.908  1.00  0.00    -0.352 N 
ATOM     25  C   UNL A   1      34.556  30.990  27.915  1.00  0.00     0.251 C 
ATOM     26  H   UNL A   1      33.465  32.670  27.893  1.00  0.00     0.163 HD
ATOM     27  O   UNL A   1      33.626  30.276  27.547  1.00  0.00    -0.269 OA
BRANCH  25  28
ATOM     28  C   UNL A   1      35.827  30.389  28.373  1.00  0.00     0.039 A 
ATOM     29  C   UNL A   1      36.953  30.451  27.546  1.00  0.00     0.014 A 
ATOM     30  C   UNL A   1      35.902  29.723  29.598  1.00  0.00     0.014 A 
ATOM     31  C   UNL A   1      38.156  29.882  27.973  1.00  0.00     0.010 A 
ATOM     32  C   UNL A   1      37.124  29.271  30.073  1.00  0.00     0.010 A 
ATOM     33  C   UNL A   1      38.259  29.313  29.253  1.00  0.00    -0.014 A 
BRANCH  33  34
ATOM     34  C   UNL A   1      39.531  28.734  29.753  1.00  0.00     0.031 A 
ATOM     35  C   UNL A   1      40.277  29.411  30.874  1.00  0.00     0.074 A 
ATOM     36  C   UNL A   1      40.056  27.655  29.142  1.00  0.00     0.049 A 
ATOM     37  N   UNL A   1      41.438  29.102  31.391  1.00  0.00    -0.248 NA
ATOM     38  C   UNL A   1      39.661  30.609  31.472  1.00  0.00     0.031 C 
ATOM     39  C   UNL A   1      39.468  26.965  27.991  1.00  0.00     0.029 A 
ATOM     40  N   UNL A   1      41.219  26.965  29.383  1.00  0.00    -0.354 N 
ATOM     41  C   UNL A   1      41.708  30.088  32.332  1.00  0.00     0.074 A 
ATOM     42  C   UNL A   1      40.610  31.025  32.298  1.00  0.00     0.031 C 
ATOM     43  C   UNL A   1      40.265  25.947  27.634  1.00  0.00     0.029 A 
ATOM     44  C   UNL A   1      41.441  25.936  28.499  1.00  0.00     0.049 A 
ATOM     45  H   UNL A   1      41.834  27.186  30.119  1.00  0.00     0.167 HD
ATOM     46  C   UNL A   1      42.765  30.187  33.171  1.00  0.00     0.034 A 
ATOM     47  C   UNL A   1      42.482  25.087  28.383  1.00  0.00     0.034 A 
ATOM     48  C   UNL A   1      43.823  29.217  33.242  1.00  0.00     0.049 A 
ATOM     49  C   UNL A   1      43.617  25.187  29.364  1.00  0.00     0.074 A 
ATOM     50  C   UNL A   1      44.877  29.169  34.136  1.00  0.00     0.029 A 
ATOM     51  N   UNL A   1      43.968  28.137  32.387  1.00  0.00    -0.354 N 
ATOM     52  N   UNL A   1      43.777  26.034  30.351  1.00  0.00    -0.248 NA
ATOM     53  C   UNL A   1      44.698  24.199  29.240  1.00  0.00     0.031 C 
ATOM     54  C   UNL A   1      45.687  28.085  33.793  1.00  0.00     0.029 A 
ATOM     55  C   UNL A   1      45.108  27.428  32.719  1.00  0.00     0.049 A 
ATOM     56  H   UNL A   1      43.353  27.909  31.654  1.00  0.00     0.167 HD
ATOM     57  C   UNL A   1      44.959  25.665  30.983  1.00  0.00     0.074 A 
ATOM     58  C   UNL A   1      45.463  24.503  30.280  1.00  0.00     0.031 C 
ATOM     59  C   UNL A   1      45.575  26.245  32.043  1.00  0.00     0.034 A 
BRANCH  46  60
ATOM     60  C   UNL A   1      42.820  31.351  34.125  1.00  0.00     0.023 A 
ATOM     61  C   UNL A   1      43.477  32.538  33.745  1.00  0.00     0.012 A 
ATOM     62  C   UNL A   1      42.116  31.308  35.345  1.00  0.00     0.148 A 
ATOM     63  C   UNL A   1      43.442  33.663  34.568  1.00  0.00     0.002 A 
ATOM     64  C   UNL A   1      42.042  32.449  36.136  1.00  0.00     0.091 A 
ATOM     65  F   UNL A   1      41.517  30.162  35.698  1.00  0.00    -0.205 F 
ATOM     66  C   UNL A   1      42.712  33.623  35.754  1.00  0.00     0.022 A 
BRANCH  64  67
ATOM     67  S   UNL A   1      41.050  32.533  37.631  1.00  0.00     0.127 S 
ATOM     68  O   UNL A   1      41.868  31.767  38.571  1.00  0.00    -0.237 OA
ATOM     69  O   UNL A   1      41.010  33.971  37.889  1.00  0.00    -0.237 OA
ATOM     70  O   UNL A   1      39.765  31.933  37.299  1.00  0.00    -0.744 OA
ENDBRANCH  64  67
ENDBRANCH  46  60
BRANCH  47  71
ATOM     71  C   UNL A   1      42.462  24.040  27.322  1.00  0.00     0.023 A 
ATOM     72  C   UNL A   1      43.103  24.283  26.092  1.00  0.00     0.012 A 
ATOM     73  C   UNL A   1      41.867  22.784  27.552  1.00  0.00     0.148 A 
ATOM     74  C   UNL A   1      43.133  23.301  25.100  1.00  0.00     0.002 A 
ATOM     75  C   UNL A   1      41.954  21.791  26.584  1.00  0.00     0.091 A 
ATOM     76  F   UNL A   1      41.256  22.578  28.725  1.00  0.00    -0.205 F 
ATOM     77  C   UNL A   1      42.571  22.053  25.350  1.00  0.00     0.022 A 
BRANCH  75  78
ATOM     78  S   UNL A   1      41.386  20.111  26.871  1.00  0.00     0.127 S 
ATOM     79  O   UNL A   1      40.395  19.945  25.811  1.00  0.00    -0.237 OA
ATOM     80  O   UNL A   1      42.620  19.345  26.688  1.00  0.00    -0.237 OA
ATOM     81  O   UNL A   1      40.863  20.098  28.230  1.00  0.00    -0.744 OA
ENDBRANCH  75  78
ENDBRANCH  47  71
BRANCH  59  82
ATOM     82  C   UNL A   1      46.852  25.629  32.547  1.00  0.00     0.023 A 
ATOM     83  C   UNL A   1      48.091  26.079  32.052  1.00  0.00     0.012 A 
ATOM     84  C   UNL A   1      46.824  24.702  33.608  1.00  0.00     0.148 A 
ATOM     85  C   UNL A   1      49.284  25.600  32.591  1.00  0.00     0.002 A 
ATOM     86  C   UNL A   1      48.015  24.272  34.178  1.00  0.00     0.091 A 
ATOM     87  F   UNL A   1      45.633  24.279  34.055  1.00  0.00    -0.205 F 
ATOM     88  C   UNL A   1      49.246  24.710  33.663  1.00  0.00     0.022 A 
BRANCH  86  89
ATOM     89  S   UNL A   1      48.066  23.217  35.632  1.00  0.00     0.127 S 
ATOM     90  O   UNL A   1      47.205  23.949  36.560  1.00  0.00    -0.237 OA
ATOM     91  O   UNL A   1      47.496  21.968  35.126  1.00  0.00    -0.237 OA
ATOM     92  O   UNL A   1      49.467  23.132  36.022  1.00  0.00    -0.744 OA
ENDBRANCH  86  89
ENDBRANCH  59  82
ENDBRANCH  33  34
ENDBRANCH  25  28
ENDBRANCH  23  24
ENDBRANCH   1  23
TORSDOF 17
ENDMDL
MODEL 3
REMARK VINA RESULT:     -11.4      6.094      9.621
REMARK SMILES CC(C)[C@H](NS(=O)(=O)c1cccc(F)c1)C(=O)NCCCNC(=O)c1ccc(-c2c3nc(c(-c4cccc(S(=O)(=O)[O-])c4F)c4ccc([nH]4)c(-c4cccc(S(=O)(=O)[O-])c4F)c4nc(c(-c5cccc(S(=O)(=O)[O-])c5F)c5ccc2[nH]5)C=C4)C=C3)cc1
REMARK SMILES IDX 20 1 19 2 18 3 16 4 17 5 4 7 2 8 1 9 3 10 5 11 6 13 7 14
REMARK SMILES IDX 8 15 9 16 10 17 15 18 11 19 13 20 12 21 14 22 21 23 22 24
REMARK SMILES IDX 23 25 24 27 25 28 26 29 87 30 27 31 86 32 28 33 29 34 30 35
REMARK SMILES IDX 80 36 31 37 85 38 79 39 81 40 32 41 84 42 78 43 77 44 33 46
REMARK SMILES IDX 65 47 45 48 64 49 46 50 49 51 63 52 82 53 47 54 48 55 62 57
REMARK SMILES IDX 83 58 50 59 34 60 35 61 43 62 36 63 38 64 44 65 37 66 39 67
REMARK SMILES IDX 40 68 41 69 42 70 66 71 67 72 75 73 68 74 70 75 76 76 69 77
REMARK SMILES IDX 71 78 72 79 73 80 74 81 51 82 52 83 60 84 53 85 55 86 61 87
REMARK SMILES IDX 54 88 56 89 57 90 58 91 59 92
REMARK H PARENT 18 6 5 12 22 26 81 45 49 56
REMARK Flexibility Score: inf
ROOT
ATOM      1  C   UNL A   1      38.060  19.377  24.953  1.00  0.00     0.042 C 
ENDROOT
BRANCH   1   2
ATOM      2  C   UNL A   1      36.735  20.125  24.928  1.00  0.00     0.117 C 
BRANCH   2   3
ATOM      3  N   UNL A   1      36.948  21.509  24.575  1.00  0.00    -0.355 N 
ATOM      4  C   UNL A   1      36.061  22.535  24.551  1.00  0.00     0.238 C 
ATOM      5  O   UNL A   1      36.461  23.605  24.078  1.00  0.00    -0.273 OA
ATOM      6  H   UNL A   1      37.868  21.741  24.314  1.00  0.00     0.163 HD
BRANCH   4   7
ATOM      7  C   UNL A   1      34.661  22.438  25.161  1.00  0.00     0.161 C 
BRANCH   7   8
ATOM      8  C   UNL A   1      34.389  23.347  26.378  1.00  0.00     0.010 C 
ATOM      9  C   UNL A   1      33.283  24.395  26.195  1.00  0.00     0.009 C 
ATOM     10  C   UNL A   1      34.015  22.487  27.596  1.00  0.00     0.009 C 
ENDBRANCH   7   8
BRANCH   7  11
ATOM     11  N   UNL A   1      34.017  21.105  25.198  1.00  0.00    -0.198 NA
ATOM     12  H   UNL A   1      33.856  20.952  26.194  1.00  0.00     0.142 HD
BRANCH  11  13
ATOM     13  S   UNL A   1      32.647  20.474  24.488  1.00  0.00     0.241 S 
ATOM     14  O   UNL A   1      31.590  20.723  25.446  1.00  0.00    -0.207 OA
ATOM     15  O   UNL A   1      32.535  20.948  23.135  1.00  0.00    -0.207 OA
BRANCH  13  16
ATOM     16  C   UNL A   1      32.857  18.719  24.410  1.00  0.00     0.085 A 
ATOM     17  C   UNL A   1      33.460  18.146  23.277  1.00  0.00     0.022 A 
ATOM     18  C   UNL A   1      32.428  17.921  25.467  1.00  0.00     0.061 A 
ATOM     19  C   UNL A   1      33.758  16.784  23.264  1.00  0.00     0.004 A 
ATOM     20  C   UNL A   1      32.718  16.564  25.430  1.00  0.00     0.124 A 
ATOM     21  C   UNL A   1      33.399  15.995  24.355  1.00  0.00     0.039 A 
ATOM     22  F   UNL A   1      32.373  15.790  26.467  1.00  0.00    -0.207 F 
ENDBRANCH  13  16
ENDBRANCH  11  13
ENDBRANCH   7  11
ENDBRANCH   4   7
ENDBRANCH   2   3
ENDBRANCH   1   2
BRANCH   1  23
ATOM     23  C   UNL A   1      39.098  20.054  25.824  1.00  0.00     0.118 C 
BRANCH  23  24
ATOM     24  N   UNL A   1      40.241  19.177  26.050  1.00  0.00    -0.352 N 
ATOM     25  C   UNL A   1      41.577  19.489  26.128  1.00  0.00     0.251 C 
ATOM     26  H   UNL A   1      40.024  18.223  26.160  1.00  0.00     0.163 HD
ATOM     27  O   UNL A   1      42.411  18.602  25.963  1.00  0.00    -0.269 OA
BRANCH  25  28
ATOM     28  C   UNL A   1      42.004  20.874  26.421  1.00  0.00     0.039 A 
ATOM     29  C   UNL A   1      42.171  21.778  25.368  1.00  0.00     0.014 A 
ATOM     30  C   UNL A   1      42.284  21.274  27.729  1.00  0.00     0.014 A 
ATOM     31  C   UNL A   1      42.576  23.088  25.639  1.00  0.00     0.010 A 
ATOM     32  C   UNL A   1      42.564  22.603  28.008  1.00  0.00     0.010 A 
ATOM     33  C   UNL A   1      42.747  23.519  26.965  1.00  0.00    -0.014 A 
BRANCH  33  34
ATOM     34  C   UNL A   1      43.141  24.913  27.290  1.00  0.00     0.031 A 
ATOM     35  C   UNL A   1      42.151  25.841  27.945  1.00  0.00     0.074 A 
ATOM     36  C   UNL A   1      44.353  25.367  26.917  1.00  0.00     0.049 A 
ATOM     37  N   UNL A   1      42.282  27.110  28.234  1.00  0.00    -0.248 NA
ATOM     38  C   UNL A   1      40.830  25.287  28.293  1.00  0.00     0.031 C 
ATOM     39  C   UNL A   1      45.364  24.586  26.200  1.00  0.00     0.029 A 
ATOM     40  N   UNL A   1      44.931  26.603  27.063  1.00  0.00    -0.354 N 
ATOM     41  C   UNL A   1      41.055  27.511  28.747  1.00  0.00     0.074 A 
ATOM     42  C   UNL A   1      40.178  26.365  28.704  1.00  0.00     0.031 C 
ATOM     43  C   UNL A   1      46.439  25.356  25.978  1.00  0.00     0.029 A 
ATOM     44  C   UNL A   1      46.181  26.696  26.496  1.00  0.00     0.049 A 
ATOM     45  H   UNL A   1      44.494  27.352  27.529  1.00  0.00     0.167 HD
ATOM     46  C   UNL A   1      40.700  28.721  29.237  1.00  0.00     0.034 A 
ATOM     47  C   UNL A   1      47.020  27.745  26.388  1.00  0.00     0.034 A 
ATOM     48  C   UNL A   1      41.597  29.839  29.334  1.00  0.00     0.049 A 
ATOM     49  C   UNL A   1      46.620  29.064  26.991  1.00  0.00     0.074 A 
ATOM     50  C   UNL A   1      41.365  31.070  29.920  1.00  0.00     0.029 A 
ATOM     51  N   UNL A   1      42.886  29.868  28.828  1.00  0.00    -0.354 N 
ATOM     52  N   UNL A   1      45.511  29.380  27.614  1.00  0.00    -0.248 NA
ATOM     53  C   UNL A   1      47.595  30.162  26.907  1.00  0.00     0.031 C 
ATOM     54  C   UNL A   1      42.500  31.862  29.727  1.00  0.00     0.029 A 
ATOM     55  C   UNL A   1      43.456  31.105  29.069  1.00  0.00     0.049 A 
ATOM     56  H   UNL A   1      43.330  29.121  28.366  1.00  0.00     0.167 HD
ATOM     57  C   UNL A   1      45.665  30.700  28.022  1.00  0.00     0.074 A 
ATOM     58  C   UNL A   1      46.984  31.118  27.593  1.00  0.00     0.031 C 
ATOM     59  C   UNL A   1      44.787  31.495  28.681  1.00  0.00     0.034 A 
BRANCH  46  60
ATOM     60  C   UNL A   1      39.300  28.903  29.763  1.00  0.00     0.023 A 
ATOM     61  C   UNL A   1      38.991  28.517  31.083  1.00  0.00     0.012 A 
ATOM     62  C   UNL A   1      38.328  29.569  28.990  1.00  0.00     0.148 A 
ATOM     63  C   UNL A   1      37.733  28.780  31.622  1.00  0.00     0.002 A 
ATOM     64  C   UNL A   1      37.094  29.873  29.552  1.00  0.00     0.091 A 
ATOM     65  F   UNL A   1      38.635  29.907  27.730  1.00  0.00    -0.205 F 
ATOM     66  C   UNL A   1      36.792  29.472  30.864  1.00  0.00     0.022 A 
BRANCH  64  67
ATOM     67  S   UNL A   1      35.850  30.845  28.696  1.00  0.00     0.127 S 
ATOM     68  O   UNL A   1      35.132  29.811  27.949  1.00  0.00    -0.237 OA
ATOM     69  O   UNL A   1      35.099  31.426  29.808  1.00  0.00    -0.237 OA
ATOM     70  O   UNL A   1      36.577  31.805  27.877  1.00  0.00    -0.744 OA
ENDBRANCH  64  67
ENDBRANCH  46  60
BRANCH  47  71
ATOM     71  C   UNL A   1      48.341  27.565  25.722  1.00  0.00     0.023 A 
ATOM     72  C   UNL A   1      49.472  27.241  26.495  1.00  0.00     0.012 A 
ATOM     73  C   UNL A   1      48.467  27.652  24.322  1.00  0.00     0.148 A 
ATOM     74  C   UNL A   1      50.711  27.027  25.888  1.00  0.00     0.002 A 
ATOM     75  C   UNL A   1      49.689  27.378  23.719  1.00  0.00     0.091 A 
ATOM     76  F   UNL A   1      47.381  27.970  23.606  1.00  0.00    -0.205 F 
ATOM     77  C   UNL A   1      50.816  27.082  24.501  1.00  0.00     0.022 A 
BRANCH  75  78
ATOM     78  S   UNL A   1      49.887  27.285  21.936  1.00  0.00     0.127 S 
ATOM     79  O   UNL A   1      49.647  28.669  21.536  1.00  0.00    -0.237 OA
ATOM     80  O   UNL A   1      51.275  26.839  21.814  1.00  0.00    -0.237 OA
ATOM     81  O   UNL A   1      48.899  26.317  21.479  1.00  0.00    -0.744 OA
ENDBRANCH  75  78
ENDBRANCH  47  71
BRANCH  59  82
ATOM     82  C   UNL A   1      45.213  32.898  29.020  1.00  0.00     0.023 A 
ATOM     83  C   UNL A   1      45.843  33.161  30.252  1.00  0.00     0.012 A 
ATOM     84  C   UNL A   1      45.110  33.925  28.061  1.00  0.00     0.148 A 
ATOM     85  C   UNL A   1      46.345  34.431  30.532  1.00  0.00     0.002 A 
ATOM     86  C   UNL A   1      45.662  35.171  28.324  1.00  0.00     0.091 A 
ATOM     87  F   UNL A   1      44.496  33.655  26.900  1.00  0.00    -0.205 F 
ATOM     88  C   UNL A   1      46.269  35.430  29.563  1.00  0.00     0.022 A 
BRANCH  86  89
ATOM     89  S   UNL A   1      45.713  36.484  27.098  1.00  0.00     0.127 S 
ATOM     90  O   UNL A   1      46.129  35.756  25.901  1.00  0.00    -0.237 OA
ATOM     91  O   UNL A   1      44.325  36.945  27.081  1.00  0.00    -0.237 OA
ATOM     92  O   UNL A   1      46.673  37.463  27.593  1.00  0.00    -0.744 OA
ENDBRANCH  86  89
ENDBRANCH  59  82
ENDBRANCH  33  34
ENDBRANCH  25  28
ENDBRANCH  23  24
ENDBRANCH   1  23
TORSDOF 17
ENDMDL
