MODEL 1
REMARK VINA RESULT:     -12.9      0.000      0.000
REMARK SMILES CCc1c(C(=O)NCC(=O)NCCCNC(=O)c2ccc(-c3c4nc(c(-c5cccc(S(=O)(=O)[O-])c5F)c5ccc([nH]5)c(-c5cccc(S(=O)(=O)[O-])c5F)c5nc(c(-c6cccc(S(=O)(=O)[O-])c6F)c6ccc3[nH]6)C=C5)C=C4)cc2)nnn1-c1ccc(C)cc1
REMARK SMILES IDX 13 1 12 2 11 3 9 4 10 5 8 7 7 8 5 9 6 10 4 12 3 13 83 14
REMARK SMILES IDX 81 15 82 16 2 17 1 18 84 19 85 20 90 21 86 22 89 23 87 24
REMARK SMILES IDX 88 25 14 26 15 27 16 28 17 30 18 31 19 32 80 33 20 34 79 35
REMARK SMILES IDX 21 36 22 37 23 38 73 39 24 40 78 41 72 42 74 43 25 44 77 45
REMARK SMILES IDX 71 46 70 47 26 49 58 50 38 51 57 52 39 53 42 54 56 55 75 56
REMARK SMILES IDX 40 57 41 58 55 60 76 61 43 62 27 63 28 64 36 65 29 66 31 67
REMARK SMILES IDX 37 68 30 69 32 70 33 71 34 72 35 73 59 74 60 75 68 76 61 77
REMARK SMILES IDX 63 78 69 79 62 80 64 81 65 82 66 83 67 84 44 85 45 86 53 87
REMARK SMILES IDX 46 88 48 89 54 90 47 91 49 92 50 93 51 94 52 95
REMARK H PARENT 11 6 7 11 15 29 74 48 42 59
REMARK Flexibility Score: inf
ROOT
ATOM      1  C   UNL A   1      37.969  20.150  24.683  1.00  0.00     0.042 C 
ENDROOT
BRANCH   1   2
ATOM      2  C   UNL A   1      36.592  20.683  25.060  1.00  0.00     0.117 C 
BRANCH   2   3
ATOM      3  N   UNL A   1      35.525  19.712  24.922  1.00  0.00    -0.355 N 
ATOM      4  C   UNL A   1      34.173  19.864  24.918  1.00  0.00     0.239 C 
ATOM      5  O   UNL A   1      33.508  18.933  24.457  1.00  0.00    -0.273 OA
ATOM      6  H   UNL A   1      35.831  18.783  24.814  1.00  0.00     0.163 HD
BRANCH   4   7
ATOM      7  C   UNL A   1      33.461  21.180  25.246  1.00  0.00     0.216 C 
BRANCH   7   8
ATOM      8  N   UNL A   1      33.254  21.558  26.618  1.00  0.00    -0.342 N 
ATOM      9  C   UNL A   1      32.587  22.558  27.261  1.00  0.00     0.274 C 
ATOM     10  O   UNL A   1      32.554  22.413  28.489  1.00  0.00    -0.267 OA
ATOM     11  H   UNL A   1      33.703  20.947  27.245  1.00  0.00     0.164 HD
BRANCH   9  12
ATOM     12  C   UNL A   1      32.024  23.780  26.658  1.00  0.00     0.174 A 
ATOM     13  C   UNL A   1      32.419  24.822  25.803  1.00  0.00     0.077 A 
ATOM     14  N   UNL A   1      31.255  25.602  25.703  1.00  0.00    -0.217 N 
ATOM     15  N   UNL A   1      30.743  24.071  27.108  1.00  0.00    -0.124 NA
ATOM     16  N   UNL A   1      30.354  25.225  26.621  1.00  0.00    -0.061 NA
BRANCH  13  17
ATOM     17  C   UNL A   1      33.680  25.251  25.101  1.00  0.00     0.055 C 
ATOM     18  C   UNL A   1      34.418  26.422  25.744  1.00  0.00     0.011 C 
ENDBRANCH  13  17
BRANCH  14  19
ATOM     19  C   UNL A   1      30.951  26.682  24.842  1.00  0.00     0.067 A 
ATOM     20  C   UNL A   1      30.257  26.432  23.655  1.00  0.00     0.029 A 
ATOM     21  C   UNL A   1      31.336  27.985  25.170  1.00  0.00     0.029 A 
ATOM     22  C   UNL A   1      29.830  27.505  22.873  1.00  0.00     0.005 A 
ATOM     23  C   UNL A   1      30.911  29.053  24.383  1.00  0.00     0.005 A 
ATOM     24  C   UNL A   1      30.127  28.823  23.249  1.00  0.00    -0.051 A 
ATOM     25  C   UNL A   1      29.592  29.971  22.449  1.00  0.00     0.044 C 
ENDBRANCH  14  19
ENDBRANCH   9  12
ENDBRANCH   7   8
ENDBRANCH   4   7
ENDBRANCH   2   3
ENDBRANCH   1   2
BRANCH   1  26
ATOM     26  C   UNL A   1      38.958  20.351  25.818  1.00  0.00     0.118 C 
BRANCH  26  27
ATOM     27  N   UNL A   1      39.969  19.284  25.880  1.00  0.00    -0.352 N 
ATOM     28  C   UNL A   1      41.340  19.420  26.036  1.00  0.00     0.251 C 
ATOM     29  H   UNL A   1      39.631  18.362  25.803  1.00  0.00     0.163 HD
ATOM     30  O   UNL A   1      42.109  18.525  25.738  1.00  0.00    -0.269 OA
BRANCH  28  31
ATOM     31  C   UNL A   1      41.837  20.689  26.595  1.00  0.00     0.039 A 
ATOM     32  C   UNL A   1      42.392  21.686  25.788  1.00  0.00     0.014 A 
ATOM     33  C   UNL A   1      41.645  20.883  27.958  1.00  0.00     0.014 A 
ATOM     34  C   UNL A   1      42.668  22.926  26.360  1.00  0.00     0.010 A 
ATOM     35  C   UNL A   1      41.732  22.148  28.465  1.00  0.00     0.010 A 
ATOM     36  C   UNL A   1      42.310  23.153  27.696  1.00  0.00    -0.014 A 
BRANCH  36  37
ATOM     37  C   UNL A   1      42.393  24.475  28.301  1.00  0.00     0.031 A 
ATOM     38  C   UNL A   1      41.194  25.328  28.072  1.00  0.00     0.074 A 
ATOM     39  C   UNL A   1      43.358  24.769  29.203  1.00  0.00     0.049 A 
ATOM     40  N   UNL A   1      41.143  26.435  27.410  1.00  0.00    -0.248 NA
ATOM     41  C   UNL A   1      39.870  24.823  28.477  1.00  0.00     0.031 C 
ATOM     42  C   UNL A   1      44.414  23.877  29.706  1.00  0.00     0.029 A 
ATOM     43  N   UNL A   1      43.495  25.861  30.001  1.00  0.00    -0.354 N 
ATOM     44  C   UNL A   1      39.835  26.897  27.546  1.00  0.00     0.074 A 
ATOM     45  C   UNL A   1      39.062  25.770  27.992  1.00  0.00     0.031 C 
ATOM     46  C   UNL A   1      44.873  24.343  30.886  1.00  0.00     0.029 A 
ATOM     47  C   UNL A   1      44.269  25.636  31.140  1.00  0.00     0.049 A 
ATOM     48  H   UNL A   1      43.085  26.733  29.794  1.00  0.00     0.167 HD
ATOM     49  C   UNL A   1      39.563  28.232  27.557  1.00  0.00     0.034 A 
ATOM     50  C   UNL A   1      44.356  26.426  32.242  1.00  0.00     0.034 A 
ATOM     51  C   UNL A   1      40.708  28.992  27.111  1.00  0.00     0.049 A 
ATOM     52  C   UNL A   1      43.897  27.776  31.840  1.00  0.00     0.074 A 
ATOM     53  C   UNL A   1      41.481  29.007  25.968  1.00  0.00     0.029 A 
ATOM     54  N   UNL A   1      41.457  29.607  28.088  1.00  0.00    -0.354 N 
ATOM     55  N   UNL A   1      44.548  28.521  30.991  1.00  0.00    -0.248 NA
ATOM     56  C   UNL A   1      42.487  28.091  32.000  1.00  0.00     0.031 C 
ATOM     57  C   UNL A   1      42.816  29.179  26.436  1.00  0.00     0.029 A 
ATOM     58  C   UNL A   1      42.776  29.358  27.820  1.00  0.00     0.049 A 
ATOM     59  H   UNL A   1      41.107  30.132  28.843  1.00  0.00     0.167 HD
ATOM     60  C   UNL A   1      43.555  29.030  30.165  1.00  0.00     0.074 A 
ATOM     61  C   UNL A   1      42.306  28.834  30.904  1.00  0.00     0.031 C 
ATOM     62  C   UNL A   1      43.796  29.263  28.840  1.00  0.00     0.034 A 
BRANCH  49  63
ATOM     63  C   UNL A   1      38.451  28.906  28.333  1.00  0.00     0.023 A 
ATOM     64  C   UNL A   1      37.602  29.772  27.604  1.00  0.00     0.012 A 
ATOM     65  C   UNL A   1      38.372  28.973  29.743  1.00  0.00     0.148 A 
ATOM     66  C   UNL A   1      36.784  30.711  28.242  1.00  0.00     0.002 A 
ATOM     67  C   UNL A   1      37.503  29.860  30.373  1.00  0.00     0.091 A 
ATOM     68  F   UNL A   1      39.224  28.280  30.499  1.00  0.00    -0.205 F 
ATOM     69  C   UNL A   1      36.734  30.755  29.628  1.00  0.00     0.022 A 
BRANCH  67  70
ATOM     70  S   UNL A   1      37.369  29.937  32.164  1.00  0.00     0.127 S 
ATOM     71  O   UNL A   1      38.646  30.545  32.526  1.00  0.00    -0.237 OA
ATOM     72  O   UNL A   1      36.199  30.798  32.337  1.00  0.00    -0.237 OA
ATOM     73  O   UNL A   1      37.171  28.562  32.605  1.00  0.00    -0.744 OA
ENDBRANCH  67  70
ENDBRANCH  49  63
BRANCH  50  74
ATOM     74  C   UNL A   1      44.588  26.061  33.661  1.00  0.00     0.023 A 
ATOM     75  C   UNL A   1      45.903  25.952  34.157  1.00  0.00     0.012 A 
ATOM     76  C   UNL A   1      43.530  26.088  34.598  1.00  0.00     0.148 A 
ATOM     77  C   UNL A   1      46.157  25.907  35.535  1.00  0.00     0.002 A 
ATOM     78  C   UNL A   1      43.787  26.035  35.966  1.00  0.00     0.091 A 
ATOM     79  F   UNL A   1      42.279  26.265  34.154  1.00  0.00    -0.205 F 
ATOM     80  C   UNL A   1      45.100  25.956  36.440  1.00  0.00     0.022 A 
BRANCH  78  81
ATOM     81  S   UNL A   1      42.467  26.127  37.183  1.00  0.00     0.127 S 
ATOM     82  O   UNL A   1      41.703  24.912  36.898  1.00  0.00    -0.237 OA
ATOM     83  O   UNL A   1      43.214  26.103  38.438  1.00  0.00    -0.237 OA
ATOM     84  O   UNL A   1      41.753  27.363  36.892  1.00  0.00    -0.744 OA
ENDBRANCH  78  81
ENDBRANCH  50  74
BRANCH  62  85
ATOM     85  C   UNL A   1      45.219  29.170  28.346  1.00  0.00     0.023 A 
ATOM     86  C   UNL A   1      45.797  27.958  27.908  1.00  0.00     0.012 A 
ATOM     87  C   UNL A   1      45.924  30.366  28.137  1.00  0.00     0.148 A 
ATOM     88  C   UNL A   1      47.055  27.937  27.299  1.00  0.00     0.002 A 
ATOM     89  C   UNL A   1      47.151  30.348  27.487  1.00  0.00     0.091 A 
ATOM     90  F   UNL A   1      45.362  31.511  28.551  1.00  0.00    -0.205 F 
ATOM     91  C   UNL A   1      47.726  29.135  27.075  1.00  0.00     0.022 A 
BRANCH  89  92
ATOM     92  S   UNL A   1      47.996  31.868  27.052  1.00  0.00     0.127 S 
ATOM     93  O   UNL A   1      47.067  32.471  26.099  1.00  0.00    -0.237 OA
ATOM     94  O   UNL A   1      48.085  32.559  28.340  1.00  0.00    -0.237 OA
ATOM     95  O   UNL A   1      49.286  31.467  26.505  1.00  0.00    -0.744 OA
ENDBRANCH  89  92
ENDBRANCH  62  85
ENDBRANCH  36  37
ENDBRANCH  28  31
ENDBRANCH  26  27
ENDBRANCH   1  26
TORSDOF 17
ENDMDL
MODEL 2
REMARK VINA RESULT:     -12.9      4.092      9.568
REMARK SMILES CCc1c(C(=O)NCC(=O)NCCCNC(=O)c2ccc(-c3c4nc(c(-c5cccc(S(=O)(=O)[O-])c5F)c5ccc([nH]5)c(-c5cccc(S(=O)(=O)[O-])c5F)c5nc(c(-c6cccc(S(=O)(=O)[O-])c6F)c6ccc3[nH]6)C=C5)C=C4)cc2)nnn1-c1ccc(C)cc1
REMARK SMILES IDX 13 1 12 2 11 3 9 4 10 5 8 7 7 8 5 9 6 10 4 12 3 13 83 14
REMARK SMILES IDX 81 15 82 16 2 17 1 18 84 19 85 20 90 21 86 22 89 23 87 24
REMARK SMILES IDX 88 25 14 26 15 27 16 28 17 30 18 31 19 32 80 33 20 34 79 35
REMARK SMILES IDX 21 36 22 37 23 38 73 39 24 40 78 41 72 42 74 43 25 44 77 45
REMARK SMILES IDX 71 46 70 47 26 49 58 50 38 51 57 52 39 53 42 54 56 55 75 56
REMARK SMILES IDX 40 57 41 58 55 60 76 61 43 62 27 63 28 64 36 65 29 66 31 67
REMARK SMILES IDX 37 68 30 69 32 70 33 71 34 72 35 73 59 74 60 75 68 76 61 77
REMARK SMILES IDX 63 78 69 79 62 80 64 81 65 82 66 83 67 84 44 85 45 86 53 87
REMARK SMILES IDX 46 88 48 89 54 90 47 91 49 92 50 93 51 94 52 95
REMARK H PARENT 11 6 7 11 15 29 74 48 42 59
REMARK Flexibility Score: inf
ROOT
ATOM      1  C   UNL A   1      31.474  31.594  26.870  1.00  0.00     0.042 C 
ENDROOT
BRANCH   1   2
ATOM      2  C   UNL A   1      31.760  30.588  25.761  1.00  0.00     0.117 C 
BRANCH   2   3
ATOM      3  N   UNL A   1      30.742  30.539  24.731  1.00  0.00    -0.355 N 
ATOM      4  C   UNL A   1      30.449  29.582  23.809  1.00  0.00     0.239 C 
ATOM      5  O   UNL A   1      29.338  29.643  23.276  1.00  0.00    -0.273 OA
ATOM      6  H   UNL A   1      30.165  31.335  24.690  1.00  0.00     0.163 HD
BRANCH   4   7
ATOM      7  C   UNL A   1      31.313  28.342  23.561  1.00  0.00     0.216 C 
BRANCH   7   8
ATOM      8  N   UNL A   1      32.562  28.470  22.860  1.00  0.00    -0.342 N 
ATOM      9  C   UNL A   1      33.451  27.608  22.292  1.00  0.00     0.274 C 
ATOM     10  O   UNL A   1      34.345  28.176  21.653  1.00  0.00    -0.267 OA
ATOM     11  H   UNL A   1      32.844  29.409  22.769  1.00  0.00     0.164 HD
BRANCH   9  12
ATOM     12  C   UNL A   1      33.492  26.142  22.453  1.00  0.00     0.174 A 
ATOM     13  C   UNL A   1      33.736  25.190  23.456  1.00  0.00     0.077 A 
ATOM     14  N   UNL A   1      33.552  23.972  22.781  1.00  0.00    -0.217 N 
ATOM     15  N   UNL A   1      33.326  25.456  21.257  1.00  0.00    -0.124 NA
ATOM     16  N   UNL A   1      33.488  24.171  21.457  1.00  0.00    -0.061 NA
BRANCH  13  17
ATOM     17  C   UNL A   1      34.147  25.198  24.904  1.00  0.00     0.055 C 
ATOM     18  C   UNL A   1      33.859  26.495  25.656  1.00  0.00     0.011 C 
ENDBRANCH  13  17
BRANCH  14  19
ATOM     19  C   UNL A   1      33.470  22.653  23.285  1.00  0.00     0.067 A 
ATOM     20  C   UNL A   1      34.536  22.141  24.030  1.00  0.00     0.029 A 
ATOM     21  C   UNL A   1      32.339  21.868  23.046  1.00  0.00     0.029 A 
ATOM     22  C   UNL A   1      34.404  20.897  24.648  1.00  0.00     0.005 A 
ATOM     23  C   UNL A   1      32.214  20.625  23.661  1.00  0.00     0.005 A 
ATOM     24  C   UNL A   1      33.230  20.147  24.494  1.00  0.00    -0.051 A 
ATOM     25  C   UNL A   1      33.064  18.853  25.230  1.00  0.00     0.044 C 
ENDBRANCH  14  19
ENDBRANCH   9  12
ENDBRANCH   7   8
ENDBRANCH   4   7
ENDBRANCH   2   3
ENDBRANCH   1   2
BRANCH   1  26
ATOM     26  C   UNL A   1      32.733  32.354  27.249  1.00  0.00     0.118 C 
BRANCH  26  27
ATOM     27  N   UNL A   1      32.462  33.761  27.584  1.00  0.00    -0.352 N 
ATOM     28  C   UNL A   1      33.065  34.533  28.566  1.00  0.00     0.251 C 
ATOM     29  H   UNL A   1      31.769  34.209  27.046  1.00  0.00     0.163 HD
ATOM     30  O   UNL A   1      32.549  35.553  28.985  1.00  0.00    -0.269 OA
BRANCH  28  31
ATOM     31  C   UNL A   1      34.372  34.082  29.075  1.00  0.00     0.039 A 
ATOM     32  C   UNL A   1      34.494  33.372  30.273  1.00  0.00     0.014 A 
ATOM     33  C   UNL A   1      35.472  34.323  28.260  1.00  0.00     0.014 A 
ATOM     34  C   UNL A   1      35.733  32.821  30.594  1.00  0.00     0.010 A 
ATOM     35  C   UNL A   1      36.623  33.623  28.478  1.00  0.00     0.010 A 
ATOM     36  C   UNL A   1      36.785  32.933  29.676  1.00  0.00    -0.014 A 
BRANCH  36  37
ATOM     37  C   UNL A   1      38.044  32.223  29.858  1.00  0.00     0.031 A 
ATOM     38  C   UNL A   1      38.059  30.849  29.288  1.00  0.00     0.074 A 
ATOM     39  C   UNL A   1      39.158  32.875  30.268  1.00  0.00     0.049 A 
ATOM     40  N   UNL A   1      38.181  29.739  29.936  1.00  0.00    -0.248 NA
ATOM     41  C   UNL A   1      37.738  30.663  27.861  1.00  0.00     0.031 C 
ATOM     42  C   UNL A   1      39.295  34.308  30.572  1.00  0.00     0.029 A 
ATOM     43  N   UNL A   1      40.445  32.441  30.321  1.00  0.00    -0.354 N 
ATOM     44  C   UNL A   1      38.222  28.738  28.968  1.00  0.00     0.074 A 
ATOM     45  C   UNL A   1      37.710  29.331  27.763  1.00  0.00     0.031 C 
ATOM     46  C   UNL A   1      40.595  34.663  30.489  1.00  0.00     0.029 A 
ATOM     47  C   UNL A   1      41.390  33.468  30.290  1.00  0.00     0.049 A 
ATOM     48  H   UNL A   1      40.689  31.488  30.377  1.00  0.00     0.167 HD
ATOM     49  C   UNL A   1      38.939  27.597  29.172  1.00  0.00     0.034 A 
ATOM     50  C   UNL A   1      42.722  33.350  30.054  1.00  0.00     0.034 A 
ATOM     51  C   UNL A   1      39.331  27.479  30.558  1.00  0.00     0.049 A 
ATOM     52  C   UNL A   1      43.083  31.938  30.323  1.00  0.00     0.074 A 
ATOM     53  C   UNL A   1      38.655  27.447  31.761  1.00  0.00     0.029 A 
ATOM     54  N   UNL A   1      40.634  27.802  30.858  1.00  0.00    -0.354 N 
ATOM     55  N   UNL A   1      43.029  31.407  31.512  1.00  0.00    -0.248 NA
ATOM     56  C   UNL A   1      43.030  30.999  29.213  1.00  0.00     0.031 C 
ATOM     57  C   UNL A   1      39.458  28.223  32.647  1.00  0.00     0.029 A 
ATOM     58  C   UNL A   1      40.620  28.600  31.970  1.00  0.00     0.049 A 
ATOM     59  H   UNL A   1      41.433  27.511  30.363  1.00  0.00     0.167 HD
ATOM     60  C   UNL A   1      42.435  30.171  31.300  1.00  0.00     0.074 A 
ATOM     61  C   UNL A   1      42.572  29.924  29.862  1.00  0.00     0.031 C 
ATOM     62  C   UNL A   1      41.611  29.617  32.238  1.00  0.00     0.034 A 
BRANCH  49  63
ATOM     63  C   UNL A   1      39.646  26.790  28.104  1.00  0.00     0.023 A 
ATOM     64  C   UNL A   1      39.414  25.394  28.104  1.00  0.00     0.012 A 
ATOM     65  C   UNL A   1      40.721  27.257  27.314  1.00  0.00     0.148 A 
ATOM     66  C   UNL A   1      40.256  24.506  27.426  1.00  0.00     0.002 A 
ATOM     67  C   UNL A   1      41.511  26.376  26.582  1.00  0.00     0.091 A 
ATOM     68  F   UNL A   1      41.079  28.540  27.356  1.00  0.00    -0.205 F 
ATOM     69  C   UNL A   1      41.306  24.998  26.663  1.00  0.00     0.022 A 
BRANCH  67  70
ATOM     70  S   UNL A   1      42.863  26.956  25.548  1.00  0.00     0.127 S 
ATOM     71  O   UNL A   1      43.804  27.450  26.549  1.00  0.00    -0.237 OA
ATOM     72  O   UNL A   1      43.268  25.725  24.869  1.00  0.00    -0.237 OA
ATOM     73  O   UNL A   1      42.283  27.962  24.667  1.00  0.00    -0.744 OA
ENDBRANCH  67  70
ENDBRANCH  49  63
BRANCH  50  74
ATOM     74  C   UNL A   1      43.663  34.294  29.403  1.00  0.00     0.023 A 
ATOM     75  C   UNL A   1      44.339  35.263  30.174  1.00  0.00     0.012 A 
ATOM     76  C   UNL A   1      44.110  34.075  28.081  1.00  0.00     0.148 A 
ATOM     77  C   UNL A   1      45.439  35.961  29.658  1.00  0.00     0.002 A 
ATOM     78  C   UNL A   1      45.199  34.777  27.570  1.00  0.00     0.091 A 
ATOM     79  F   UNL A   1      43.532  33.109  27.356  1.00  0.00    -0.205 F 
ATOM     80  C   UNL A   1      45.875  35.713  28.360  1.00  0.00     0.022 A 
BRANCH  78  81
ATOM     81  S   UNL A   1      45.828  34.478  25.913  1.00  0.00     0.127 S 
ATOM     82  O   UNL A   1      46.372  33.125  26.031  1.00  0.00    -0.237 OA
ATOM     83  O   UNL A   1      44.614  34.583  25.108  1.00  0.00    -0.237 OA
ATOM     84  O   UNL A   1      46.833  35.508  25.684  1.00  0.00    -0.744 OA
ENDBRANCH  78  81
ENDBRANCH  50  74
BRANCH  62  85
ATOM     85  C   UNL A   1      41.539  30.269  33.599  1.00  0.00     0.023 A 
ATOM     86  C   UNL A   1      42.522  30.071  34.592  1.00  0.00     0.012 A 
ATOM     87  C   UNL A   1      40.560  31.253  33.806  1.00  0.00     0.148 A 
ATOM     88  C   UNL A   1      42.515  30.819  35.773  1.00  0.00     0.002 A 
ATOM     89  C   UNL A   1      40.585  32.029  34.957  1.00  0.00     0.091 A 
ATOM     90  F   UNL A   1      39.635  31.436  32.852  1.00  0.00    -0.205 F 
ATOM     91  C   UNL A   1      41.554  31.810  35.949  1.00  0.00     0.022 A 
BRANCH  89  92
ATOM     92  S   UNL A   1      39.456  33.405  35.176  1.00  0.00     0.127 S 
ATOM     93  O   UNL A   1      39.621  33.711  36.595  1.00  0.00    -0.237 OA
ATOM     94  O   UNL A   1      40.005  34.411  34.265  1.00  0.00    -0.237 OA
ATOM     95  O   UNL A   1      38.140  32.909  34.789  1.00  0.00    -0.744 OA
ENDBRANCH  89  92
ENDBRANCH  62  85
ENDBRANCH  36  37
ENDBRANCH  28  31
ENDBRANCH  26  27
ENDBRANCH   1  26
TORSDOF 17
ENDMDL
MODEL 3
REMARK VINA RESULT:     -12.7      1.560      1.946
REMARK SMILES CCc1c(C(=O)NCC(=O)NCCCNC(=O)c2ccc(-c3c4nc(c(-c5cccc(S(=O)(=O)[O-])c5F)c5ccc([nH]5)c(-c5cccc(S(=O)(=O)[O-])c5F)c5nc(c(-c6cccc(S(=O)(=O)[O-])c6F)c6ccc3[nH]6)C=C5)C=C4)cc2)nnn1-c1ccc(C)cc1
REMARK SMILES IDX 13 1 12 2 11 3 9 4 10 5 8 7 7 8 5 9 6 10 4 12 3 13 83 14
REMARK SMILES IDX 81 15 82 16 2 17 1 18 84 19 85 20 90 21 86 22 89 23 87 24
REMARK SMILES IDX 88 25 14 26 15 27 16 28 17 30 18 31 19 32 80 33 20 34 79 35
REMARK SMILES IDX 21 36 22 37 23 38 73 39 24 40 78 41 72 42 74 43 25 44 77 45
REMARK SMILES IDX 71 46 70 47 26 49 58 50 38 51 57 52 39 53 42 54 56 55 75 56
REMARK SMILES IDX 40 57 41 58 55 60 76 61 43 62 27 63 28 64 36 65 29 66 31 67
REMARK SMILES IDX 37 68 30 69 32 70 33 71 34 72 35 73 59 74 60 75 68 76 61 77
REMARK SMILES IDX 63 78 69 79 62 80 64 81 65 82 66 83 67 84 44 85 45 86 53 87
REMARK SMILES IDX 46 88 48 89 54 90 47 91 49 92 50 93 51 94 52 95
REMARK H PARENT 11 6 7 11 15 29 74 48 42 59
REMARK Flexibility Score: inf
ROOT
ATOM      1  C   UNL A   1      37.991  19.843  24.830  1.00  0.00     0.042 C 
ENDROOT
BRANCH   1   2
ATOM      2  C   UNL A   1      37.235  21.047  24.282  1.00  0.00     0.117 C 
BRANCH   2   3
ATOM      3  N   UNL A   1      37.346  22.237  25.100  1.00  0.00    -0.355 N 
ATOM      4  C   UNL A   1      36.403  22.949  25.775  1.00  0.00     0.239 C 
ATOM      5  O   UNL A   1      36.805  23.716  26.654  1.00  0.00    -0.273 OA
ATOM      6  H   UNL A   1      38.260  22.592  25.182  1.00  0.00     0.163 HD
BRANCH   4   7
ATOM      7  C   UNL A   1      34.897  22.699  25.655  1.00  0.00     0.216 C 
BRANCH   7   8
ATOM      8  N   UNL A   1      34.100  22.547  26.843  1.00  0.00    -0.342 N 
ATOM      9  C   UNL A   1      32.909  23.040  27.284  1.00  0.00     0.274 C 
ATOM     10  O   UNL A   1      32.522  22.517  28.337  1.00  0.00    -0.267 OA
ATOM     11  H   UNL A   1      34.517  21.940  27.496  1.00  0.00     0.164 HD
BRANCH   9  12
ATOM     12  C   UNL A   1      32.138  24.154  26.700  1.00  0.00     0.174 A 
ATOM     13  C   UNL A   1      32.365  25.355  26.010  1.00  0.00     0.077 A 
ATOM     14  N   UNL A   1      31.065  25.836  25.787  1.00  0.00    -0.217 N 
ATOM     15  N   UNL A   1      30.776  24.070  26.959  1.00  0.00    -0.124 NA
ATOM     16  N   UNL A   1      30.174  25.146  26.512  1.00  0.00    -0.061 NA
BRANCH  13  17
ATOM     17  C   UNL A   1      33.556  26.157  25.560  1.00  0.00     0.055 C 
ATOM     18  C   UNL A   1      34.005  25.906  24.123  1.00  0.00     0.011 C 
ENDBRANCH  13  17
BRANCH  14  19
ATOM     19  C   UNL A   1      30.614  26.907  24.979  1.00  0.00     0.067 A 
ATOM     20  C   UNL A   1      31.182  28.173  25.145  1.00  0.00     0.029 A 
ATOM     21  C   UNL A   1      29.614  26.706  24.024  1.00  0.00     0.029 A 
ATOM     22  C   UNL A   1      30.845  29.196  24.260  1.00  0.00     0.005 A 
ATOM     23  C   UNL A   1      29.278  27.732  23.144  1.00  0.00     0.005 A 
ATOM     24  C   UNL A   1      29.916  28.973  23.234  1.00  0.00    -0.051 A 
ATOM     25  C   UNL A   1      29.624  30.052  22.238  1.00  0.00     0.044 C 
ENDBRANCH  14  19
ENDBRANCH   9  12
ENDBRANCH   7   8
ENDBRANCH   4   7
ENDBRANCH   2   3
ENDBRANCH   1   2
BRANCH   1  26
ATOM     26  C   UNL A   1      39.172  20.284  25.677  1.00  0.00     0.118 C 
BRANCH  26  27
ATOM     27  N   UNL A   1      40.172  19.218  25.848  1.00  0.00    -0.352 N 
ATOM     28  C   UNL A   1      41.532  19.358  26.081  1.00  0.00     0.251 C 
ATOM     29  H   UNL A   1      39.835  18.295  25.791  1.00  0.00     0.163 HD
ATOM     30  O   UNL A   1      42.313  18.448  25.872  1.00  0.00    -0.269 OA
BRANCH  28  31
ATOM     31  C   UNL A   1      42.000  20.649  26.613  1.00  0.00     0.039 A 
ATOM     32  C   UNL A   1      42.482  21.662  25.778  1.00  0.00     0.014 A 
ATOM     33  C   UNL A   1      41.857  20.846  27.981  1.00  0.00     0.014 A 
ATOM     34  C   UNL A   1      42.731  22.916  26.332  1.00  0.00     0.010 A 
ATOM     35  C   UNL A   1      41.914  22.116  28.478  1.00  0.00     0.010 A 
ATOM     36  C   UNL A   1      42.419  23.138  27.680  1.00  0.00    -0.014 A 
BRANCH  36  37
ATOM     37  C   UNL A   1      42.474  24.467  28.274  1.00  0.00     0.031 A 
ATOM     38  C   UNL A   1      41.248  25.282  28.059  1.00  0.00     0.074 A 
ATOM     39  C   UNL A   1      43.446  24.795  29.157  1.00  0.00     0.049 A 
ATOM     40  N   UNL A   1      41.153  26.383  27.390  1.00  0.00    -0.248 NA
ATOM     41  C   UNL A   1      39.946  24.743  28.490  1.00  0.00     0.031 C 
ATOM     42  C   UNL A   1      44.535  23.937  29.650  1.00  0.00     0.029 A 
ATOM     43  N   UNL A   1      43.564  25.897  29.945  1.00  0.00    -0.354 N 
ATOM     44  C   UNL A   1      39.836  26.808  27.545  1.00  0.00     0.074 A 
ATOM     45  C   UNL A   1      39.103  25.663  28.012  1.00  0.00     0.031 C 
ATOM     46  C   UNL A   1      44.999  24.426  30.819  1.00  0.00     0.029 A 
ATOM     47  C   UNL A   1      44.362  25.702  31.073  1.00  0.00     0.049 A 
ATOM     48  H   UNL A   1      43.126  26.754  29.739  1.00  0.00     0.167 HD
ATOM     49  C   UNL A   1      39.526  28.135  27.551  1.00  0.00     0.034 A 
ATOM     50  C   UNL A   1      44.446  26.503  32.167  1.00  0.00     0.034 A 
ATOM     51  C   UNL A   1      40.640  28.924  27.080  1.00  0.00     0.049 A 
ATOM     52  C   UNL A   1      43.941  27.836  31.764  1.00  0.00     0.074 A 
ATOM     53  C   UNL A   1      41.394  28.951  25.924  1.00  0.00     0.029 A 
ATOM     54  N   UNL A   1      41.387  29.567  28.040  1.00  0.00    -0.354 N 
ATOM     55  N   UNL A   1      44.556  28.593  30.898  1.00  0.00    -0.248 NA
ATOM     56  C   UNL A   1      42.525  28.112  31.945  1.00  0.00     0.031 C 
ATOM     57  C   UNL A   1      42.731  29.166  26.368  1.00  0.00     0.029 A 
ATOM     58  C   UNL A   1      42.708  29.355  27.752  1.00  0.00     0.049 A 
ATOM     59  H   UNL A   1      41.035  30.088  28.797  1.00  0.00     0.167 HD
ATOM     60  C   UNL A   1      43.535  29.067  30.085  1.00  0.00     0.074 A 
ATOM     61  C   UNL A   1      42.305  28.841  30.847  1.00  0.00     0.031 C 
ATOM     62  C   UNL A   1      43.747  29.297  28.755  1.00  0.00     0.034 A 
BRANCH  49  63
ATOM     63  C   UNL A   1      38.407  28.782  28.341  1.00  0.00     0.023 A 
ATOM     64  C   UNL A   1      37.507  29.598  27.616  1.00  0.00     0.012 A 
ATOM     65  C   UNL A   1      38.361  28.878  29.750  1.00  0.00     0.148 A 
ATOM     66  C   UNL A   1      36.669  30.519  28.253  1.00  0.00     0.002 A 
ATOM     67  C   UNL A   1      37.474  29.744  30.383  1.00  0.00     0.091 A 
ATOM     68  F   UNL A   1      39.257  28.235  30.498  1.00  0.00    -0.205 F 
ATOM     69  C   UNL A   1      36.652  30.592  29.639  1.00  0.00     0.022 A 
BRANCH  67  70
ATOM     70  S   UNL A   1      37.381  29.856  32.175  1.00  0.00     0.127 S 
ATOM     71  O   UNL A   1      37.172  28.460  32.545  1.00  0.00    -0.237 OA
ATOM     72  O   UNL A   1      38.699  30.397  32.508  1.00  0.00    -0.237 OA
ATOM     73  O   UNL A   1      36.274  30.762  32.457  1.00  0.00    -0.744 OA
ENDBRANCH  67  70
ENDBRANCH  49  63
BRANCH  50  74
ATOM     74  C   UNL A   1      44.711  26.156  33.585  1.00  0.00     0.023 A 
ATOM     75  C   UNL A   1      46.036  26.106  34.064  1.00  0.00     0.012 A 
ATOM     76  C   UNL A   1      43.665  26.142  34.536  1.00  0.00     0.148 A 
ATOM     77  C   UNL A   1      46.310  26.079  35.439  1.00  0.00     0.002 A 
ATOM     78  C   UNL A   1      43.942  26.108  35.900  1.00  0.00     0.091 A 
ATOM     79  F   UNL A   1      42.403  26.263  34.108  1.00  0.00    -0.205 F 
ATOM     80  C   UNL A   1      45.264  26.088  36.357  1.00  0.00     0.022 A 
BRANCH  78  81
ATOM     81  S   UNL A   1      42.635  26.149  37.134  1.00  0.00     0.127 S 
ATOM     82  O   UNL A   1      43.395  26.192  38.384  1.00  0.00    -0.237 OA
ATOM     83  O   UNL A   1      41.942  27.389  36.795  1.00  0.00    -0.237 OA
ATOM     84  O   UNL A   1      41.875  24.922  36.939  1.00  0.00    -0.744 OA
ENDBRANCH  78  81
ENDBRANCH  50  74
BRANCH  62  85
ATOM     85  C   UNL A   1      45.164  29.240  28.238  1.00  0.00     0.023 A 
ATOM     86  C   UNL A   1      46.083  30.298  28.412  1.00  0.00     0.012 A 
ATOM     87  C   UNL A   1      45.634  28.016  27.735  1.00  0.00     0.148 A 
ATOM     88  C   UNL A   1      47.430  30.146  28.073  1.00  0.00     0.002 A 
ATOM     89  C   UNL A   1      46.982  27.852  27.446  1.00  0.00     0.091 A 
ATOM     90  F   UNL A   1      44.753  27.017  27.580  1.00  0.00    -0.205 F 
ATOM     91  C   UNL A   1      47.884  28.917  27.604  1.00  0.00     0.022 A 
BRANCH  89  92
ATOM     92  S   UNL A   1      47.643  26.256  26.967  1.00  0.00     0.127 S 
ATOM     93  O   UNL A   1      46.952  26.007  25.703  1.00  0.00    -0.237 OA
ATOM     94  O   UNL A   1      49.075  26.533  26.837  1.00  0.00    -0.237 OA
ATOM     95  O   UNL A   1      47.312  25.342  28.054  1.00  0.00    -0.744 OA
ENDBRANCH  89  92
ENDBRANCH  62  85
ENDBRANCH  36  37
ENDBRANCH  28  31
ENDBRANCH  26  27
ENDBRANCH   1  26
TORSDOF 17
ENDMDL
