MODEL 1
REMARK VINA RESULT:     -12.6      0.000      0.000
REMARK SMILES O=C(NCCCNC(=O)[C@@H]1[C@@H](C(=O)Nc2ccc(F)c(F)c2)[C@H]2C=C[C@@H]1O2)c1ccc(-c2c3nc(c(-c4cccc(S(=O)(=O)[O-])c4F)c4ccc([nH]4)c(-c4cccc(S(=O)(=O)[O-])c4F)c4nc(c(-c5cccc(S(=O)(=O)[O-])c5F)c5ccc2[nH]5)C=C4)C=C3)cc1
REMARK SMILES IDX 4 1 3 2 1 3 2 4 28 6 29 7 90 8 30 9 89 10 31 11 32 12 33 13
REMARK SMILES IDX 83 14 34 15 88 16 82 17 84 18 35 19 87 20 81 21 80 22 36 24
REMARK SMILES IDX 68 25 48 26 67 27 49 28 52 29 66 30 85 31 50 32 51 33 65 35
REMARK SMILES IDX 86 36 53 37 37 38 38 39 46 40 39 41 41 42 47 43 40 44 42 45
REMARK SMILES IDX 43 46 44 47 45 48 69 49 70 50 78 51 71 52 73 53 79 54 72 55
REMARK SMILES IDX 74 56 75 57 76 58 77 59 54 60 55 61 63 62 56 63 58 64 64 65
REMARK SMILES IDX 57 66 59 67 60 68 61 69 62 70 5 71 6 72 7 73 8 74 9 76 10 77
REMARK SMILES IDX 11 78 26 79 23 80 25 81 27 82 24 83 12 84 13 85 14 86 15 88
REMARK SMILES IDX 16 89 22 90 17 91 20 92 18 93 21 94 19 95
REMARK H PARENT 3 5 84 23 52 34 7 75 14 87
REMARK Flexibility Score: inf
ROOT
ATOM      1  C   UNL A   1      32.696  32.822  27.206  1.00  0.00     0.118 C 
ENDROOT
BRANCH   1   2
ATOM      2  N   UNL A   1      32.522  34.175  27.715  1.00  0.00    -0.352 N 
ATOM      3  O   UNL A   1      32.677  35.879  29.170  1.00  0.00    -0.269 OA
ATOM      4  C   UNL A   1      33.131  34.813  28.771  1.00  0.00     0.251 C 
ATOM      5  H   UNL A   1      31.864  34.720  27.226  1.00  0.00     0.163 HD
BRANCH   4   6
ATOM      6  C   UNL A   1      34.304  34.201  29.438  1.00  0.00     0.039 A 
ATOM      7  C   UNL A   1      34.135  33.317  30.503  1.00  0.00     0.014 A 
ATOM      8  C   UNL A   1      35.590  34.489  28.973  1.00  0.00     0.014 A 
ATOM      9  C   UNL A   1      35.237  32.867  31.216  1.00  0.00     0.010 A 
ATOM     10  C   UNL A   1      36.702  33.934  29.616  1.00  0.00     0.010 A 
ATOM     11  C   UNL A   1      36.536  33.139  30.760  1.00  0.00    -0.014 A 
BRANCH  11  12
ATOM     12  C   UNL A   1      37.687  32.482  31.431  1.00  0.00     0.031 A 
ATOM     13  C   UNL A   1      38.425  31.339  30.793  1.00  0.00     0.074 A 
ATOM     14  C   UNL A   1      38.055  32.933  32.648  1.00  0.00     0.049 A 
ATOM     15  N   UNL A   1      39.443  30.661  31.258  1.00  0.00    -0.248 NA
ATOM     16  C   UNL A   1      37.961  30.890  29.470  1.00  0.00     0.031 C 
ATOM     17  C   UNL A   1      37.386  34.012  33.383  1.00  0.00     0.029 A 
ATOM     18  N   UNL A   1      39.069  32.546  33.485  1.00  0.00    -0.354 N 
ATOM     19  C   UNL A   1      39.716  29.680  30.313  1.00  0.00     0.074 A 
ATOM     20  C   UNL A   1      38.755  29.849  29.244  1.00  0.00     0.031 C 
ATOM     21  C   UNL A   1      38.019  34.214  34.546  1.00  0.00     0.029 A 
ATOM     22  C   UNL A   1      39.089  33.234  34.675  1.00  0.00     0.049 A 
ATOM     23  H   UNL A   1      39.721  31.844  33.256  1.00  0.00     0.167 HD
ATOM     24  C   UNL A   1      40.683  28.732  30.334  1.00  0.00     0.034 A 
ATOM     25  C   UNL A   1      39.853  33.075  35.771  1.00  0.00     0.034 A 
ATOM     26  C   UNL A   1      41.648  28.587  31.394  1.00  0.00     0.049 A 
ATOM     27  C   UNL A   1      40.912  32.013  35.764  1.00  0.00     0.074 A 
ATOM     28  C   UNL A   1      42.712  27.703  31.472  1.00  0.00     0.029 A 
ATOM     29  N   UNL A   1      41.656  29.324  32.568  1.00  0.00    -0.354 N 
ATOM     30  N   UNL A   1      41.238  31.184  34.804  1.00  0.00    -0.248 NA
ATOM     31  C   UNL A   1      41.723  31.878  36.980  1.00  0.00     0.031 C 
ATOM     32  C   UNL A   1      43.335  27.878  32.712  1.00  0.00     0.029 A 
ATOM     33  C   UNL A   1      42.690  28.900  33.387  1.00  0.00     0.049 A 
ATOM     34  H   UNL A   1      41.021  30.043  32.788  1.00  0.00     0.167 HD
ATOM     35  C   UNL A   1      42.310  30.446  35.288  1.00  0.00     0.074 A 
ATOM     36  C   UNL A   1      42.594  30.946  36.618  1.00  0.00     0.031 C 
ATOM     37  C   UNL A   1      42.987  29.435  34.692  1.00  0.00     0.034 A 
BRANCH  24  38
ATOM     38  C   UNL A   1      40.765  27.775  29.172  1.00  0.00     0.023 A 
ATOM     39  C   UNL A   1      39.907  26.658  29.117  1.00  0.00     0.012 A 
ATOM     40  C   UNL A   1      41.636  28.028  28.093  1.00  0.00     0.148 A 
ATOM     41  C   UNL A   1      39.936  25.792  28.024  1.00  0.00     0.002 A 
ATOM     42  C   UNL A   1      41.629  27.185  26.987  1.00  0.00     0.091 A 
ATOM     43  F   UNL A   1      42.457  29.085  28.169  1.00  0.00    -0.205 F 
ATOM     44  C   UNL A   1      40.788  26.061  26.956  1.00  0.00     0.022 A 
BRANCH  42  45
ATOM     45  S   UNL A   1      42.629  27.490  25.526  1.00  0.00     0.127 S 
ATOM     46  O   UNL A   1      43.978  27.492  26.089  1.00  0.00    -0.237 OA
ATOM     47  O   UNL A   1      42.317  26.328  24.693  1.00  0.00    -0.237 OA
ATOM     48  O   UNL A   1      42.176  28.764  24.986  1.00  0.00    -0.744 OA
ENDBRANCH  42  45
ENDBRANCH  24  38
BRANCH  25  49
ATOM     49  C   UNL A   1      39.641  33.951  36.957  1.00  0.00     0.023 A 
ATOM     50  C   UNL A   1      40.047  35.298  36.911  1.00  0.00     0.012 A 
ATOM     51  C   UNL A   1      39.003  33.463  38.115  1.00  0.00     0.148 A 
ATOM     52  C   UNL A   1      39.849  36.134  38.010  1.00  0.00     0.002 A 
ATOM     53  C   UNL A   1      38.754  34.317  39.181  1.00  0.00     0.091 A 
ATOM     54  F   UNL A   1      38.634  32.174  38.140  1.00  0.00    -0.205 F 
ATOM     55  C   UNL A   1      39.194  35.648  39.139  1.00  0.00     0.022 A 
BRANCH  53  56
ATOM     56  S   UNL A   1      37.793  33.812  40.610  1.00  0.00     0.127 S 
ATOM     57  O   UNL A   1      36.629  33.191  39.984  1.00  0.00    -0.237 OA
ATOM     58  O   UNL A   1      38.707  32.881  41.274  1.00  0.00    -0.237 OA
ATOM     59  O   UNL A   1      37.533  35.033  41.363  1.00  0.00    -0.744 OA
ENDBRANCH  53  56
ENDBRANCH  25  49
BRANCH  37  60
ATOM     60  C   UNL A   1      44.131  28.821  35.456  1.00  0.00     0.023 A 
ATOM     61  C   UNL A   1      45.427  29.359  35.337  1.00  0.00     0.012 A 
ATOM     62  C   UNL A   1      43.904  27.750  36.343  1.00  0.00     0.148 A 
ATOM     63  C   UNL A   1      46.486  28.820  36.065  1.00  0.00     0.002 A 
ATOM     64  C   UNL A   1      44.953  27.253  37.105  1.00  0.00     0.091 A 
ATOM     65  F   UNL A   1      42.666  27.241  36.426  1.00  0.00    -0.205 F 
ATOM     66  C   UNL A   1      46.248  27.777  36.958  1.00  0.00     0.022 A 
BRANCH  64  67
ATOM     67  S   UNL A   1      44.723  25.980  38.349  1.00  0.00     0.127 S 
ATOM     68  O   UNL A   1      46.084  25.809  38.856  1.00  0.00    -0.237 OA
ATOM     69  O   UNL A   1      43.800  26.625  39.283  1.00  0.00    -0.237 OA
ATOM     70  O   UNL A   1      44.172  24.827  37.651  1.00  0.00    -0.744 OA
ENDBRANCH  64  67
ENDBRANCH  37  60
ENDBRANCH  11  12
ENDBRANCH   4   6
ENDBRANCH   1   2
BRANCH   1  71
ATOM     71  C   UNL A   1      31.434  32.275  26.558  1.00  0.00     0.042 C 
BRANCH  71  72
ATOM     72  C   UNL A   1      31.421  30.765  26.382  1.00  0.00     0.117 C 
BRANCH  72  73
ATOM     73  N   UNL A   1      32.543  30.263  25.608  1.00  0.00    -0.356 N 
ATOM     74  C   UNL A   1      32.663  29.143  24.842  1.00  0.00     0.227 C 
ATOM     75  H   UNL A   1      33.350  30.824  25.644  1.00  0.00     0.163 HD
ATOM     76  O   UNL A   1      33.734  28.977  24.256  1.00  0.00    -0.275 OA
BRANCH  74  77
ATOM     77  C   UNL A   1      31.554  28.108  24.834  1.00  0.00     0.127 C 
ATOM     78  C   UNL A   1      32.104  26.658  24.709  1.00  0.00     0.127 C 
ATOM     79  C   UNL A   1      30.653  28.211  23.592  1.00  0.00     0.155 C 
ATOM     80  C   UNL A   1      31.275  26.142  23.513  1.00  0.00     0.155 C 
ATOM     81  C   UNL A   1      29.416  27.406  23.878  1.00  0.00     0.004 C 
ATOM     82  O   UNL A   1      31.315  27.319  22.666  1.00  0.00    -0.365 OA
ATOM     83  C   UNL A   1      29.805  26.124  23.833  1.00  0.00     0.004 C 
BRANCH  78  84
ATOM     84  C   UNL A   1      32.046  25.643  25.845  1.00  0.00     0.231 C 
ATOM     85  O   UNL A   1      31.246  25.800  26.778  1.00  0.00    -0.274 OA
ATOM     86  N   UNL A   1      32.636  24.415  25.764  1.00  0.00    -0.326 N 
ATOM     87  H   UNL A   1      32.233  23.731  26.346  1.00  0.00     0.169 HD
BRANCH  86  88
ATOM     88  C   UNL A   1      33.710  23.958  25.002  1.00  0.00     0.044 A 
ATOM     89  C   UNL A   1      33.515  23.369  23.749  1.00  0.00     0.029 A 
ATOM     90  C   UNL A   1      35.005  24.238  25.438  1.00  0.00     0.068 A 
ATOM     91  C   UNL A   1      34.607  22.916  23.006  1.00  0.00     0.044 A 
ATOM     92  C   UNL A   1      36.089  23.784  24.693  1.00  0.00     0.160 A 
ATOM     93  C   UNL A   1      35.892  23.103  23.499  1.00  0.00     0.158 A 
ATOM     94  F   UNL A   1      37.332  24.017  25.139  1.00  0.00    -0.204 F 
ATOM     95  F   UNL A   1      36.937  22.644  22.798  1.00  0.00    -0.204 F 
ENDBRANCH  86  88
ENDBRANCH  78  84
ENDBRANCH  74  77
ENDBRANCH  72  73
ENDBRANCH  71  72
ENDBRANCH   1  71
TORSDOF 15
ENDMDL
MODEL 2
REMARK VINA RESULT:     -12.6      3.458      8.662
REMARK SMILES O=C(NCCCNC(=O)[C@@H]1[C@@H](C(=O)Nc2ccc(F)c(F)c2)[C@H]2C=C[C@@H]1O2)c1ccc(-c2c3nc(c(-c4cccc(S(=O)(=O)[O-])c4F)c4ccc([nH]4)c(-c4cccc(S(=O)(=O)[O-])c4F)c4nc(c(-c5cccc(S(=O)(=O)[O-])c5F)c5ccc2[nH]5)C=C4)C=C3)cc1
REMARK SMILES IDX 4 1 3 2 1 3 2 4 28 6 29 7 90 8 30 9 89 10 31 11 32 12 33 13
REMARK SMILES IDX 83 14 34 15 88 16 82 17 84 18 35 19 87 20 81 21 80 22 36 24
REMARK SMILES IDX 68 25 48 26 67 27 49 28 52 29 66 30 85 31 50 32 51 33 65 35
REMARK SMILES IDX 86 36 53 37 37 38 38 39 46 40 39 41 41 42 47 43 40 44 42 45
REMARK SMILES IDX 43 46 44 47 45 48 69 49 70 50 78 51 71 52 73 53 79 54 72 55
REMARK SMILES IDX 74 56 75 57 76 58 77 59 54 60 55 61 63 62 56 63 58 64 64 65
REMARK SMILES IDX 57 66 59 67 60 68 61 69 62 70 5 71 6 72 7 73 8 74 9 76 10 77
REMARK SMILES IDX 11 78 26 79 23 80 25 81 27 82 24 83 12 84 13 85 14 86 15 88
REMARK SMILES IDX 16 89 22 90 17 91 20 92 18 93 21 94 19 95
REMARK H PARENT 3 5 84 23 52 34 7 75 14 87
REMARK Flexibility Score: inf
ROOT
ATOM      1  C   UNL A   1      33.658  28.688  27.241  1.00  0.00     0.118 C 
ENDROOT
BRANCH   1   2
ATOM      2  N   UNL A   1      33.653  30.138  27.379  1.00  0.00    -0.352 N 
ATOM      3  O   UNL A   1      34.237  32.145  28.201  1.00  0.00    -0.269 OA
ATOM      4  C   UNL A   1      34.546  30.975  28.008  1.00  0.00     0.251 C 
ATOM      5  H   UNL A   1      32.888  30.591  26.955  1.00  0.00     0.163 HD
BRANCH   4   6
ATOM      6  C   UNL A   1      35.854  30.458  28.473  1.00  0.00     0.039 A 
ATOM      7  C   UNL A   1      37.020  30.730  27.759  1.00  0.00     0.014 A 
ATOM      8  C   UNL A   1      35.922  29.717  29.656  1.00  0.00     0.014 A 
ATOM      9  C   UNL A   1      38.214  30.119  28.116  1.00  0.00     0.010 A 
ATOM     10  C   UNL A   1      37.151  29.205  30.086  1.00  0.00     0.010 A 
ATOM     11  C   UNL A   1      38.304  29.379  29.304  1.00  0.00    -0.014 A 
BRANCH  11  12
ATOM     12  C   UNL A   1      39.637  28.904  29.758  1.00  0.00     0.031 A 
ATOM     13  C   UNL A   1      40.382  29.589  30.868  1.00  0.00     0.074 A 
ATOM     14  C   UNL A   1      40.175  27.835  29.136  1.00  0.00     0.049 A 
ATOM     15  N   UNL A   1      41.554  29.295  31.370  1.00  0.00    -0.248 NA
ATOM     16  C   UNL A   1      39.740  30.756  31.494  1.00  0.00     0.031 C 
ATOM     17  C   UNL A   1      39.560  27.113  28.018  1.00  0.00     0.029 A 
ATOM     18  N   UNL A   1      41.356  27.171  29.345  1.00  0.00    -0.354 N 
ATOM     19  C   UNL A   1      41.814  30.261  32.334  1.00  0.00     0.074 A 
ATOM     20  C   UNL A   1      40.674  31.153  32.350  1.00  0.00     0.031 C 
ATOM     21  C   UNL A   1      40.354  26.098  27.655  1.00  0.00     0.029 A 
ATOM     22  C   UNL A   1      41.567  26.139  28.460  1.00  0.00     0.049 A 
ATOM     23  H   UNL A   1      41.992  27.409  30.058  1.00  0.00     0.167 HD
ATOM     24  C   UNL A   1      42.899  30.385  33.135  1.00  0.00     0.034 A 
ATOM     25  C   UNL A   1      42.631  25.336  28.283  1.00  0.00     0.034 A 
ATOM     26  C   UNL A   1      44.017  29.477  33.126  1.00  0.00     0.049 A 
ATOM     27  C   UNL A   1      43.819  25.502  29.184  1.00  0.00     0.074 A 
ATOM     28  C   UNL A   1      45.131  29.477  33.950  1.00  0.00     0.029 A 
ATOM     29  N   UNL A   1      44.180  28.424  32.238  1.00  0.00    -0.354 N 
ATOM     30  N   UNL A   1      43.986  26.339  30.178  1.00  0.00    -0.248 NA
ATOM     31  C   UNL A   1      44.956  24.601  28.955  1.00  0.00     0.031 C 
ATOM     32  C   UNL A   1      45.985  28.452  33.531  1.00  0.00     0.029 A 
ATOM     33  C   UNL A   1      45.384  27.783  32.477  1.00  0.00     0.049 A 
ATOM     34  H   UNL A   1      43.534  28.170  31.540  1.00  0.00     0.167 HD
ATOM     35  C   UNL A   1      45.234  26.049  30.712  1.00  0.00     0.074 A 
ATOM     36  C   UNL A   1      45.768  24.940  29.946  1.00  0.00     0.031 C 
ATOM     37  C   UNL A   1      45.886  26.655  31.733  1.00  0.00     0.034 A 
BRANCH  24  38
ATOM     38  C   UNL A   1      42.935  31.536  34.108  1.00  0.00     0.023 A 
ATOM     39  C   UNL A   1      43.516  32.762  33.725  1.00  0.00     0.012 A 
ATOM     40  C   UNL A   1      42.321  31.430  35.372  1.00  0.00     0.148 A 
ATOM     41  C   UNL A   1      43.512  33.853  34.596  1.00  0.00     0.002 A 
ATOM     42  C   UNL A   1      42.283  32.533  36.217  1.00  0.00     0.091 A 
ATOM     43  F   UNL A   1      41.789  30.251  35.726  1.00  0.00    -0.205 F 
ATOM     44  C   UNL A   1      42.887  33.742  35.835  1.00  0.00     0.022 A 
BRANCH  42  45
ATOM     45  S   UNL A   1      41.433  32.517  37.800  1.00  0.00     0.127 S 
ATOM     46  O   UNL A   1      42.230  31.548  38.551  1.00  0.00    -0.237 OA
ATOM     47  O   UNL A   1      41.582  33.904  38.242  1.00  0.00    -0.237 OA
ATOM     48  O   UNL A   1      40.063  32.112  37.517  1.00  0.00    -0.744 OA
ENDBRANCH  42  45
ENDBRANCH  24  38
BRANCH  25  49
ATOM     49  C   UNL A   1      42.610  24.302  27.211  1.00  0.00     0.023 A 
ATOM     50  C   UNL A   1      43.227  24.567  25.973  1.00  0.00     0.012 A 
ATOM     51  C   UNL A   1      42.014  23.043  27.428  1.00  0.00     0.148 A 
ATOM     52  C   UNL A   1      43.222  23.608  24.961  1.00  0.00     0.002 A 
ATOM     53  C   UNL A   1      42.068  22.072  26.437  1.00  0.00     0.091 A 
ATOM     54  F   UNL A   1      41.424  22.816  28.610  1.00  0.00    -0.205 F 
ATOM     55  C   UNL A   1      42.654  22.358  25.196  1.00  0.00     0.022 A 
BRANCH  53  56
ATOM     56  S   UNL A   1      41.489  20.394  26.707  1.00  0.00     0.127 S 
ATOM     57  O   UNL A   1      41.876  19.741  25.459  1.00  0.00    -0.237 OA
ATOM     58  O   UNL A   1      42.267  19.992  27.880  1.00  0.00    -0.237 OA
ATOM     59  O   UNL A   1      40.057  20.505  26.948  1.00  0.00    -0.744 OA
ENDBRANCH  53  56
ENDBRANCH  25  49
BRANCH  37  60
ATOM     60  C   UNL A   1      47.238  26.112  32.113  1.00  0.00     0.023 A 
ATOM     61  C   UNL A   1      48.397  26.598  31.476  1.00  0.00     0.012 A 
ATOM     62  C   UNL A   1      47.362  25.165  33.149  1.00  0.00     0.148 A 
ATOM     63  C   UNL A   1      49.656  26.127  31.842  1.00  0.00     0.002 A 
ATOM     64  C   UNL A   1      48.624  24.741  33.545  1.00  0.00     0.091 A 
ATOM     65  F   UNL A   1      46.245  24.702  33.728  1.00  0.00    -0.205 F 
ATOM     66  C   UNL A   1      49.771  25.210  32.885  1.00  0.00     0.022 A 
BRANCH  64  67
ATOM     67  S   UNL A   1      48.877  23.638  34.939  1.00  0.00     0.127 S 
ATOM     68  O   UNL A   1      50.326  23.450  34.911  1.00  0.00    -0.237 OA
ATOM     69  O   UNL A   1      48.386  24.440  36.060  1.00  0.00    -0.237 OA
ATOM     70  O   UNL A   1      48.091  22.444  34.658  1.00  0.00    -0.744 OA
ENDBRANCH  64  67
ENDBRANCH  37  60
ENDBRANCH  11  12
ENDBRANCH   4   6
ENDBRANCH   1   2
BRANCH   1  71
ATOM     71  C   UNL A   1      34.184  28.232  25.890  1.00  0.00     0.042 C 
BRANCH  71  72
ATOM     72  C   UNL A   1      33.287  28.581  24.713  1.00  0.00     0.117 C 
BRANCH  72  73
ATOM     73  N   UNL A   1      33.744  28.023  23.452  1.00  0.00    -0.356 N 
ATOM     74  C   UNL A   1      33.391  26.876  22.808  1.00  0.00     0.227 C 
ATOM     75  H   UNL A   1      34.422  28.564  22.986  1.00  0.00     0.163 HD
ATOM     76  O   UNL A   1      33.917  26.663  21.715  1.00  0.00    -0.275 OA
BRANCH  74  77
ATOM     77  C   UNL A   1      32.486  25.871  23.493  1.00  0.00     0.127 C 
ATOM     78  C   UNL A   1      33.287  24.729  24.182  1.00  0.00     0.127 C 
ATOM     79  C   UNL A   1      31.610  25.087  22.501  1.00  0.00     0.155 C 
ATOM     80  C   UNL A   1      32.592  23.490  23.578  1.00  0.00     0.155 C 
ATOM     81  C   UNL A   1      30.530  24.416  23.303  1.00  0.00     0.004 C 
ATOM     82  O   UNL A   1      32.442  23.941  22.207  1.00  0.00    -0.365 OA
ATOM     83  C   UNL A   1      31.141  23.430  23.972  1.00  0.00     0.004 C 
BRANCH  78  84
ATOM     84  C   UNL A   1      33.383  24.573  25.695  1.00  0.00     0.231 C 
ATOM     85  O   UNL A   1      32.657  25.249  26.437  1.00  0.00    -0.274 OA
ATOM     86  N   UNL A   1      34.035  23.528  26.286  1.00  0.00    -0.326 N 
ATOM     87  H   UNL A   1      33.721  23.316  27.195  1.00  0.00     0.169 HD
BRANCH  86  88
ATOM     88  C   UNL A   1      35.065  22.708  25.828  1.00  0.00     0.044 A 
ATOM     89  C   UNL A   1      36.391  23.150  25.804  1.00  0.00     0.029 A 
ATOM     90  C   UNL A   1      34.777  21.375  25.538  1.00  0.00     0.068 A 
ATOM     91  C   UNL A   1      37.405  22.311  25.339  1.00  0.00     0.044 A 
ATOM     92  C   UNL A   1      35.792  20.543  25.075  1.00  0.00     0.160 A 
ATOM     93  C   UNL A   1      37.092  21.015  24.949  1.00  0.00     0.158 A 
ATOM     94  F   UNL A   1      35.501  19.274  24.755  1.00  0.00    -0.204 F 
ATOM     95  F   UNL A   1      38.061  20.220  24.476  1.00  0.00    -0.204 F 
ENDBRANCH  86  88
ENDBRANCH  78  84
ENDBRANCH  74  77
ENDBRANCH  72  73
ENDBRANCH  71  72
ENDBRANCH   1  71
TORSDOF 15
ENDMDL
MODEL 3
REMARK VINA RESULT:     -12.5      6.413     11.502
REMARK SMILES O=C(NCCCNC(=O)[C@@H]1[C@@H](C(=O)Nc2ccc(F)c(F)c2)[C@H]2C=C[C@@H]1O2)c1ccc(-c2c3nc(c(-c4cccc(S(=O)(=O)[O-])c4F)c4ccc([nH]4)c(-c4cccc(S(=O)(=O)[O-])c4F)c4nc(c(-c5cccc(S(=O)(=O)[O-])c5F)c5ccc2[nH]5)C=C4)C=C3)cc1
REMARK SMILES IDX 4 1 3 2 1 3 2 4 28 6 29 7 90 8 30 9 89 10 31 11 32 12 33 13
REMARK SMILES IDX 83 14 34 15 88 16 82 17 84 18 35 19 87 20 81 21 80 22 36 24
REMARK SMILES IDX 68 25 48 26 67 27 49 28 52 29 66 30 85 31 50 32 51 33 65 35
REMARK SMILES IDX 86 36 53 37 37 38 38 39 46 40 39 41 41 42 47 43 40 44 42 45
REMARK SMILES IDX 43 46 44 47 45 48 69 49 70 50 78 51 71 52 73 53 79 54 72 55
REMARK SMILES IDX 74 56 75 57 76 58 77 59 54 60 55 61 63 62 56 63 58 64 64 65
REMARK SMILES IDX 57 66 59 67 60 68 61 69 62 70 5 71 6 72 7 73 8 74 9 76 10 77
REMARK SMILES IDX 11 78 26 79 23 80 25 81 27 82 24 83 12 84 13 85 14 86 15 88
REMARK SMILES IDX 16 89 22 90 17 91 20 92 18 93 21 94 19 95
REMARK H PARENT 3 5 84 23 52 34 7 75 14 87
REMARK Flexibility Score: inf
ROOT
ATOM      1  C   UNL A   1      38.960  20.033  26.090  1.00  0.00     0.118 C 
ENDROOT
BRANCH   1   2
ATOM      2  N   UNL A   1      40.171  19.224  26.092  1.00  0.00    -0.352 N 
ATOM      3  O   UNL A   1      42.363  18.771  25.904  1.00  0.00    -0.269 OA
ATOM      4  C   UNL A   1      41.494  19.602  26.140  1.00  0.00     0.251 C 
ATOM      5  H   UNL A   1      40.019  18.252  26.052  1.00  0.00     0.163 HD
BRANCH   4   6
ATOM      6  C   UNL A   1      41.859  21.005  26.443  1.00  0.00     0.039 A 
ATOM      7  C   UNL A   1      42.161  21.394  27.748  1.00  0.00     0.014 A 
ATOM      8  C   UNL A   1      41.932  21.939  25.406  1.00  0.00     0.014 A 
ATOM      9  C   UNL A   1      42.355  22.735  28.047  1.00  0.00     0.010 A 
ATOM     10  C   UNL A   1      42.252  23.271  25.692  1.00  0.00     0.010 A 
ATOM     11  C   UNL A   1      42.440  23.686  27.019  1.00  0.00    -0.014 A 
BRANCH  11  12
ATOM     12  C   UNL A   1      42.841  25.076  27.356  1.00  0.00     0.031 A 
ATOM     13  C   UNL A   1      41.892  26.033  28.019  1.00  0.00     0.074 A 
ATOM     14  C   UNL A   1      44.092  25.470  27.039  1.00  0.00     0.049 A 
ATOM     15  N   UNL A   1      42.095  27.278  28.368  1.00  0.00    -0.248 NA
ATOM     16  C   UNL A   1      40.539  25.540  28.324  1.00  0.00     0.031 C 
ATOM     17  C   UNL A   1      45.089  24.639  26.357  1.00  0.00     0.029 A 
ATOM     18  N   UNL A   1      44.740  26.662  27.239  1.00  0.00    -0.354 N 
ATOM     19  C   UNL A   1      40.891  27.733  28.891  1.00  0.00     0.074 A 
ATOM     20  C   UNL A   1      39.958  26.628  28.815  1.00  0.00     0.031 C 
ATOM     21  C   UNL A   1      46.224  25.335  26.215  1.00  0.00     0.029 A 
ATOM     22  C   UNL A   1      46.016  26.683  26.726  1.00  0.00     0.049 A 
ATOM     23  H   UNL A   1      44.332  27.428  27.704  1.00  0.00     0.167 HD
ATOM     24  C   UNL A   1      40.596  28.955  29.394  1.00  0.00     0.034 A 
ATOM     25  C   UNL A   1      46.912  27.682  26.637  1.00  0.00     0.034 A 
ATOM     26  C   UNL A   1      41.539  30.040  29.485  1.00  0.00     0.049 A 
ATOM     27  C   UNL A   1      46.553  29.026  27.200  1.00  0.00     0.074 A 
ATOM     28  C   UNL A   1      41.356  31.293  30.045  1.00  0.00     0.029 A 
ATOM     29  N   UNL A   1      42.833  30.012  28.985  1.00  0.00    -0.354 N 
ATOM     30  N   UNL A   1      45.453  29.394  27.810  1.00  0.00    -0.248 NA
ATOM     31  C   UNL A   1      47.562  30.085  27.082  1.00  0.00     0.031 C 
ATOM     32  C   UNL A   1      42.524  32.037  29.844  1.00  0.00     0.029 A 
ATOM     33  C   UNL A   1      43.451  31.233  29.201  1.00  0.00     0.049 A 
ATOM     34  H   UNL A   1      43.250  29.239  28.542  1.00  0.00     0.167 HD
ATOM     35  C   UNL A   1      45.648  30.719  28.174  1.00  0.00     0.074 A 
ATOM     36  C   UNL A   1      46.982  31.080  27.739  1.00  0.00     0.031 C 
ATOM     37  C   UNL A   1      44.794  31.566  28.799  1.00  0.00     0.034 A 
BRANCH  24  38
ATOM     38  C   UNL A   1      39.197  29.195  29.903  1.00  0.00     0.023 A 
ATOM     39  C   UNL A   1      38.862  28.856  31.229  1.00  0.00     0.012 A 
ATOM     40  C   UNL A   1      38.235  29.831  29.091  1.00  0.00     0.148 A 
ATOM     41  C   UNL A   1      37.587  29.118  31.730  1.00  0.00     0.002 A 
ATOM     42  C   UNL A   1      36.981  30.128  29.610  1.00  0.00     0.091 A 
ATOM     43  F   UNL A   1      38.566  30.131  27.826  1.00  0.00    -0.205 F 
ATOM     44  C   UNL A   1      36.651  29.763  30.925  1.00  0.00     0.022 A 
BRANCH  42  45
ATOM     45  S   UNL A   1      35.733  31.028  28.682  1.00  0.00     0.127 S 
ATOM     46  O   UNL A   1      35.144  29.962  27.873  1.00  0.00    -0.237 OA
ATOM     47  O   UNL A   1      34.867  31.536  29.746  1.00  0.00    -0.237 OA
ATOM     48  O   UNL A   1      36.447  32.055  27.937  1.00  0.00    -0.744 OA
ENDBRANCH  42  45
ENDBRANCH  24  38
BRANCH  25  49
ATOM     49  C   UNL A   1      48.233  27.439  25.994  1.00  0.00     0.023 A 
ATOM     50  C   UNL A   1      49.324  27.020  26.778  1.00  0.00     0.012 A 
ATOM     51  C   UNL A   1      48.401  27.585  24.603  1.00  0.00     0.148 A 
ATOM     52  C   UNL A   1      50.567  26.781  26.192  1.00  0.00     0.002 A 
ATOM     53  C   UNL A   1      49.624  27.285  24.018  1.00  0.00     0.091 A 
ATOM     54  F   UNL A   1      47.351  27.995  23.876  1.00  0.00    -0.205 F 
ATOM     55  C   UNL A   1      50.714  26.902  24.813  1.00  0.00     0.022 A 
BRANCH  53  56
ATOM     56  S   UNL A   1      49.859  27.277  22.238  1.00  0.00     0.127 S 
ATOM     57  O   UNL A   1      49.668  28.686  21.905  1.00  0.00    -0.237 OA
ATOM     58  O   UNL A   1      51.237  26.797  22.119  1.00  0.00    -0.237 OA
ATOM     59  O   UNL A   1      48.858  26.359  21.711  1.00  0.00    -0.744 OA
ENDBRANCH  53  56
ENDBRANCH  25  49
BRANCH  37  60
ATOM     60  C   UNL A   1      45.285  32.961  29.085  1.00  0.00     0.023 A 
ATOM     61  C   UNL A   1      45.966  33.235  30.288  1.00  0.00     0.012 A 
ATOM     62  C   UNL A   1      45.128  33.983  28.130  1.00  0.00     0.148 A 
ATOM     63  C   UNL A   1      46.453  34.514  30.549  1.00  0.00     0.002 A 
ATOM     64  C   UNL A   1      45.664  35.241  28.374  1.00  0.00     0.091 A 
ATOM     65  F   UNL A   1      44.460  33.705  27.001  1.00  0.00    -0.205 F 
ATOM     66  C   UNL A   1      46.316  35.512  29.588  1.00  0.00     0.022 A 
BRANCH  64  67
ATOM     67  S   UNL A   1      45.622  36.560  27.156  1.00  0.00     0.127 S 
ATOM     68  O   UNL A   1      44.185  36.793  27.019  1.00  0.00    -0.237 OA
ATOM     69  O   UNL A   1      46.352  37.630  27.836  1.00  0.00    -0.237 OA
ATOM     70  O   UNL A   1      46.281  36.036  25.968  1.00  0.00    -0.744 OA
ENDBRANCH  64  67
ENDBRANCH  37  60
ENDBRANCH  11  12
ENDBRANCH   4   6
ENDBRANCH   1   2
BRANCH   1  71
ATOM     71  C   UNL A   1      38.101  19.799  24.859  1.00  0.00     0.042 C 
BRANCH  71  72
ATOM     72  C   UNL A   1      37.015  20.839  24.640  1.00  0.00     0.117 C 
BRANCH  72  73
ATOM     73  N   UNL A   1      36.077  20.937  25.746  1.00  0.00    -0.356 N 
ATOM     74  C   UNL A   1      34.727  21.117  25.752  1.00  0.00     0.227 C 
ATOM     75  H   UNL A   1      36.486  20.862  26.638  1.00  0.00     0.163 HD
ATOM     76  O   UNL A   1      34.168  21.126  26.850  1.00  0.00    -0.275 OA
BRANCH  74  77
ATOM     77  C   UNL A   1      33.997  21.415  24.457  1.00  0.00     0.127 C 
ATOM     78  C   UNL A   1      33.583  22.910  24.344  1.00  0.00     0.127 C 
ATOM     79  C   UNL A   1      32.635  20.704  24.365  1.00  0.00     0.155 C 
ATOM     80  C   UNL A   1      32.079  22.767  24.032  1.00  0.00     0.155 C 
ATOM     81  C   UNL A   1      32.197  20.777  22.930  1.00  0.00     0.004 C 
ATOM     82  O   UNL A   1      31.745  21.687  24.942  1.00  0.00    -0.365 OA
ATOM     83  C   UNL A   1      31.856  22.056  22.724  1.00  0.00     0.004 C 
BRANCH  78  84
ATOM     84  C   UNL A   1      34.219  23.879  23.353  1.00  0.00     0.231 C 
ATOM     85  O   UNL A   1      34.924  23.449  22.430  1.00  0.00    -0.274 OA
ATOM     86  N   UNL A   1      33.839  25.186  23.257  1.00  0.00    -0.326 N 
ATOM     87  H   UNL A   1      34.015  25.597  22.380  1.00  0.00     0.169 HD
BRANCH  86  88
ATOM     88  C   UNL A   1      33.244  26.043  24.182  1.00  0.00     0.044 A 
ATOM     89  C   UNL A   1      33.874  26.363  25.388  1.00  0.00     0.029 A 
ATOM     90  C   UNL A   1      32.073  26.707  23.819  1.00  0.00     0.068 A 
ATOM     91  C   UNL A   1      33.256  27.221  26.300  1.00  0.00     0.044 A 
ATOM     92  C   UNL A   1      31.461  27.562  24.732  1.00  0.00     0.160 A 
ATOM     93  C   UNL A   1      32.034  27.795  25.975  1.00  0.00     0.158 A 
ATOM     94  F   UNL A   1      30.311  28.162  24.395  1.00  0.00    -0.204 F 
ATOM     95  F   UNL A   1      31.429  28.596  26.862  1.00  0.00    -0.204 F 
ENDBRANCH  86  88
ENDBRANCH  78  84
ENDBRANCH  74  77
ENDBRANCH  72  73
ENDBRANCH  71  72
ENDBRANCH   1  71
TORSDOF 15
ENDMDL
