MODEL 1
REMARK VINA RESULT:     -12.8      0.000      0.000
REMARK SMILES Cc1cc(F)ccc1OC1(C(=O)NCCCNC(=O)c2ccc(-c3c4nc(c(-c5cccc(S(=O)(=O)[O-])c5F)c5ccc([nH]5)c(-c5cccc(S(=O)(=O)[O-])c5F)c5nc(c(-c6cccc(S(=O)(=O)[O-])c6F)c6ccc3[nH]6)C=C5)C=C4)cc2)CCN(C(=O)[C@H]2CCOC2)CC1
REMARK SMILES IDX 15 1 14 2 13 3 11 4 12 5 10 7 83 8 94 9 84 10 93 11 85 12
REMARK SMILES IDX 86 13 87 14 9 15 8 16 1 17 2 18 3 19 4 20 7 21 5 22 6 23
REMARK SMILES IDX 88 24 89 25 92 26 90 27 91 28 16 29 17 30 18 31 19 33 20 34
REMARK SMILES IDX 21 35 82 36 22 37 81 38 23 39 24 40 25 41 75 42 26 43 80 44
REMARK SMILES IDX 74 45 76 46 27 47 79 48 73 49 72 50 28 52 60 53 40 54 59 55
REMARK SMILES IDX 41 56 44 57 58 58 77 59 42 60 43 61 57 63 78 64 45 65 29 66
REMARK SMILES IDX 30 67 38 68 31 69 33 70 39 71 32 72 34 73 35 74 36 75 37 76
REMARK SMILES IDX 61 77 62 78 70 79 63 80 65 81 71 82 64 83 66 84 67 85 68 86
REMARK SMILES IDX 69 87 46 88 47 89 55 90 48 91 50 92 56 93 49 94 51 95 52 96
REMARK SMILES IDX 53 97 54 98
REMARK H PARENT 13 6 17 32 76 51 44 62
REMARK Flexibility Score: inf
ROOT
ATOM      1  C   UNL A   1      33.402  28.633  27.280  1.00  0.00     0.042 C 
ENDROOT
BRANCH   1   2
ATOM      2  C   UNL A   1      33.398  27.377  26.420  1.00  0.00     0.118 C 
BRANCH   2   3
ATOM      3  N   UNL A   1      32.243  26.531  26.657  1.00  0.00    -0.353 N 
ATOM      4  C   UNL A   1      31.255  26.059  25.840  1.00  0.00     0.264 C 
ATOM      5  O   UNL A   1      30.471  25.274  26.391  1.00  0.00    -0.270 OA
ATOM      6  H   UNL A   1      32.154  26.239  27.592  1.00  0.00     0.163 HD
BRANCH   4   7
ATOM      7  C   UNL A   1      31.119  26.463  24.318  1.00  0.00     0.190 C 
ATOM      8  C   UNL A   1      29.744  26.016  23.847  1.00  0.00     0.080 C 
ATOM      9  C   UNL A   1      31.523  27.932  24.203  1.00  0.00     0.080 C 
ATOM     10  C   UNL A   1      28.742  27.103  23.507  1.00  0.00     0.124 C 
ATOM     11  C   UNL A   1      30.601  28.841  23.412  1.00  0.00     0.124 C 
ATOM     12  N   UNL A   1      29.189  28.485  23.369  1.00  0.00    -0.342 N 
ATOM     13  C   UNL A   1      28.179  29.384  23.004  1.00  0.00     0.228 C 
ATOM     14  O   UNL A   1      26.993  29.055  23.056  1.00  0.00    -0.274 OA
BRANCH   7  15
ATOM     15  O   UNL A   1      32.151  25.623  23.749  1.00  0.00    -0.477 OA
BRANCH  15  16
ATOM     16  C   UNL A   1      32.548  24.341  23.921  1.00  0.00     0.124 A 
ATOM     17  C   UNL A   1      34.766  24.434  25.278  1.00  0.00     0.048 C 
ATOM     18  C   UNL A   1      33.638  23.752  24.578  1.00  0.00    -0.006 A 
ATOM     19  C   UNL A   1      33.785  22.342  24.523  1.00  0.00     0.046 A 
ATOM     20  C   UNL A   1      32.880  21.540  23.847  1.00  0.00     0.123 A 
ATOM     21  C   UNL A   1      31.647  23.490  23.241  1.00  0.00     0.050 A 
ATOM     22  F   UNL A   1      33.063  20.214  23.815  1.00  0.00    -0.207 F 
ATOM     23  C   UNL A   1      31.803  22.104  23.199  1.00  0.00     0.043 A 
ENDBRANCH  15  16
ENDBRANCH   7  15
BRANCH  13  24
ATOM     24  C   UNL A   1      28.579  30.744  22.459  1.00  0.00     0.107 C 
ATOM     25  C   UNL A   1      28.147  30.916  21.014  1.00  0.00     0.044 C 
ATOM     26  C   UNL A   1      27.829  31.877  23.137  1.00  0.00     0.173 C 
ATOM     27  C   UNL A   1      27.869  32.401  20.885  1.00  0.00     0.161 C 
ATOM     28  O   UNL A   1      27.855  32.962  22.201  1.00  0.00    -0.381 OA
ENDBRANCH  13  24
ENDBRANCH   4   7
ENDBRANCH   2   3
ENDBRANCH   1   2
BRANCH   1  29
ATOM     29  C   UNL A   1      34.095  29.833  26.651  1.00  0.00     0.118 C 
BRANCH  29  30
ATOM     30  N   UNL A   1      33.895  31.058  27.408  1.00  0.00    -0.352 N 
ATOM     31  C   UNL A   1      34.590  31.571  28.474  1.00  0.00     0.251 C 
ATOM     32  H   UNL A   1      33.136  31.608  27.107  1.00  0.00     0.163 HD
ATOM     33  O   UNL A   1      34.114  32.527  29.083  1.00  0.00    -0.269 OA
BRANCH  31  34
ATOM     34  C   UNL A   1      35.889  30.997  28.901  1.00  0.00     0.039 A 
ATOM     35  C   UNL A   1      37.069  31.565  28.410  1.00  0.00     0.014 A 
ATOM     36  C   UNL A   1      35.959  29.871  29.724  1.00  0.00     0.014 A 
ATOM     37  C   UNL A   1      38.308  31.029  28.772  1.00  0.00     0.010 A 
ATOM     38  C   UNL A   1      37.194  29.396  30.160  1.00  0.00     0.010 A 
ATOM     39  C   UNL A   1      38.383  29.950  29.666  1.00  0.00    -0.014 A 
BRANCH  39  40
ATOM     40  C   UNL A   1      39.692  29.366  30.065  1.00  0.00     0.031 A 
ATOM     41  C   UNL A   1      40.478  29.972  31.200  1.00  0.00     0.074 A 
ATOM     42  C   UNL A   1      40.206  28.334  29.368  1.00  0.00     0.049 A 
ATOM     43  N   UNL A   1      41.644  29.620  31.678  1.00  0.00    -0.248 NA
ATOM     44  C   UNL A   1      39.891  31.147  31.869  1.00  0.00     0.031 C 
ATOM     45  C   UNL A   1      39.583  27.709  28.200  1.00  0.00     0.029 A 
ATOM     46  N   UNL A   1      41.378  27.639  29.531  1.00  0.00    -0.354 N 
ATOM     47  C   UNL A   1      41.947  30.547  32.669  1.00  0.00     0.074 A 
ATOM     48  C   UNL A   1      40.862  31.503  32.698  1.00  0.00     0.031 C 
ATOM     49  C   UNL A   1      40.371  26.713  27.762  1.00  0.00     0.029 A 
ATOM     50  C   UNL A   1      41.563  26.643  28.602  1.00  0.00     0.049 A 
ATOM     51  H   UNL A   1      42.025  27.835  30.246  1.00  0.00     0.167 HD
ATOM     52  C   UNL A   1      43.011  30.583  33.506  1.00  0.00     0.034 A 
ATOM     53  C   UNL A   1      42.575  25.768  28.448  1.00  0.00     0.034 A 
ATOM     54  C   UNL A   1      44.060  29.600  33.515  1.00  0.00     0.049 A 
ATOM     55  C   UNL A   1      43.718  25.792  29.427  1.00  0.00     0.074 A 
ATOM     56  C   UNL A   1      45.135  29.494  34.381  1.00  0.00     0.029 A 
ATOM     57  N   UNL A   1      44.166  28.551  32.615  1.00  0.00    -0.354 N 
ATOM     58  N   UNL A   1      43.905  26.578  30.459  1.00  0.00    -0.248 NA
ATOM     59  C   UNL A   1      44.769  24.780  29.244  1.00  0.00     0.031 C 
ATOM     60  C   UNL A   1      45.899  28.387  33.992  1.00  0.00     0.029 A 
ATOM     61  C   UNL A   1      45.288  27.793  32.900  1.00  0.00     0.049 A 
ATOM     62  H   UNL A   1      43.536  28.372  31.881  1.00  0.00     0.167 HD
ATOM     63  C   UNL A   1      45.069  26.132  31.073  1.00  0.00     0.074 A 
ATOM     64  C   UNL A   1      45.535  24.994  30.307  1.00  0.00     0.031 C 
ATOM     65  C   UNL A   1      45.706  26.628  32.163  1.00  0.00     0.034 A 
BRANCH  52  66
ATOM     66  C   UNL A   1      43.057  31.692  34.529  1.00  0.00     0.023 A 
ATOM     67  C   UNL A   1      43.726  32.894  34.219  1.00  0.00     0.012 A 
ATOM     68  C   UNL A   1      42.411  31.564  35.773  1.00  0.00     0.148 A 
ATOM     69  C   UNL A   1      43.788  33.934  35.144  1.00  0.00     0.002 A 
ATOM     70  C   UNL A   1      42.437  32.625  36.674  1.00  0.00     0.091 A 
ATOM     71  F   UNL A   1      41.798  30.407  36.062  1.00  0.00    -0.205 F 
ATOM     72  C   UNL A   1      43.136  33.803  36.367  1.00  0.00     0.022 A 
BRANCH  70  73
ATOM     73  S   UNL A   1      41.561  32.583  38.242  1.00  0.00     0.127 S 
ATOM     74  O   UNL A   1      42.335  31.591  38.987  1.00  0.00    -0.237 OA
ATOM     75  O   UNL A   1      41.713  33.958  38.718  1.00  0.00    -0.237 OA
ATOM     76  O   UNL A   1      40.192  32.201  37.923  1.00  0.00    -0.744 OA
ENDBRANCH  70  73
ENDBRANCH  52  66
BRANCH  53  77
ATOM     77  C   UNL A   1      42.507  24.730  27.380  1.00  0.00     0.023 A 
ATOM     78  C   UNL A   1      43.298  24.883  26.223  1.00  0.00     0.012 A 
ATOM     79  C   UNL A   1      41.695  23.587  27.509  1.00  0.00     0.148 A 
ATOM     80  C   UNL A   1      43.256  23.934  25.202  1.00  0.00     0.002 A 
ATOM     81  C   UNL A   1      41.698  22.620  26.510  1.00  0.00     0.091 A 
ATOM     82  F   UNL A   1      40.943  23.465  28.612  1.00  0.00    -0.205 F 
ATOM     83  C   UNL A   1      42.465  22.800  25.349  1.00  0.00     0.022 A 
BRANCH  81  84
ATOM     84  S   UNL A   1      40.807  21.068  26.669  1.00  0.00     0.127 S 
ATOM     85  O   UNL A   1      40.742  20.907  28.118  1.00  0.00    -0.237 OA
ATOM     86  O   UNL A   1      39.531  21.385  26.026  1.00  0.00    -0.237 OA
ATOM     87  O   UNL A   1      41.608  20.081  25.957  1.00  0.00    -0.744 OA
ENDBRANCH  81  84
ENDBRANCH  53  77
BRANCH  65  88
ATOM     88  C   UNL A   1      46.954  25.921  32.623  1.00  0.00     0.023 A 
ATOM     89  C   UNL A   1      48.210  26.323  32.130  1.00  0.00     0.012 A 
ATOM     90  C   UNL A   1      46.887  24.901  33.593  1.00  0.00     0.148 A 
ATOM     91  C   UNL A   1      49.378  25.698  32.568  1.00  0.00     0.002 A 
ATOM     92  C   UNL A   1      48.058  24.317  34.062  1.00  0.00     0.091 A 
ATOM     93  F   UNL A   1      45.681  24.517  34.037  1.00  0.00    -0.205 F 
ATOM     94  C   UNL A   1      49.302  24.705  33.540  1.00  0.00     0.022 A 
BRANCH  92  95
ATOM     95  S   UNL A   1      48.058  23.101  35.383  1.00  0.00     0.127 S 
ATOM     96  O   UNL A   1      47.296  22.007  34.783  1.00  0.00    -0.237 OA
ATOM     97  O   UNL A   1      49.485  22.826  35.556  1.00  0.00    -0.237 OA
ATOM     98  O   UNL A   1      47.430  23.753  36.524  1.00  0.00    -0.744 OA
ENDBRANCH  92  95
ENDBRANCH  65  88
ENDBRANCH  39  40
ENDBRANCH  31  34
ENDBRANCH  29  30
ENDBRANCH   1  29
TORSDOF 16
ENDMDL
MODEL 2
REMARK VINA RESULT:     -12.7      5.637      8.558
REMARK SMILES Cc1cc(F)ccc1OC1(C(=O)NCCCNC(=O)c2ccc(-c3c4nc(c(-c5cccc(S(=O)(=O)[O-])c5F)c5ccc([nH]5)c(-c5cccc(S(=O)(=O)[O-])c5F)c5nc(c(-c6cccc(S(=O)(=O)[O-])c6F)c6ccc3[nH]6)C=C5)C=C4)cc2)CCN(C(=O)[C@H]2CCOC2)CC1
REMARK SMILES IDX 15 1 14 2 13 3 11 4 12 5 10 7 83 8 94 9 84 10 93 11 85 12
REMARK SMILES IDX 86 13 87 14 9 15 8 16 1 17 2 18 3 19 4 20 7 21 5 22 6 23
REMARK SMILES IDX 88 24 89 25 92 26 90 27 91 28 16 29 17 30 18 31 19 33 20 34
REMARK SMILES IDX 21 35 82 36 22 37 81 38 23 39 24 40 25 41 75 42 26 43 80 44
REMARK SMILES IDX 74 45 76 46 27 47 79 48 73 49 72 50 28 52 60 53 40 54 59 55
REMARK SMILES IDX 41 56 44 57 58 58 77 59 42 60 43 61 57 63 78 64 45 65 29 66
REMARK SMILES IDX 30 67 38 68 31 69 33 70 39 71 32 72 34 73 35 74 36 75 37 76
REMARK SMILES IDX 61 77 62 78 70 79 63 80 65 81 71 82 64 83 66 84 67 85 68 86
REMARK SMILES IDX 69 87 46 88 47 89 55 90 48 91 50 92 56 93 49 94 51 95 52 96
REMARK SMILES IDX 53 97 54 98
REMARK H PARENT 13 6 17 32 76 51 44 62
REMARK Flexibility Score: inf
ROOT
ATOM      1  C   UNL A   1      39.158  21.352  26.242  1.00  0.00     0.042 C 
ENDROOT
BRANCH   1   2
ATOM      2  C   UNL A   1      37.881  22.140  25.988  1.00  0.00     0.118 C 
BRANCH   2   3
ATOM      3  N   UNL A   1      37.636  22.387  24.579  1.00  0.00    -0.353 N 
ATOM      4  C   UNL A   1      36.519  22.744  23.879  1.00  0.00     0.264 C 
ATOM      5  O   UNL A   1      36.717  22.954  22.676  1.00  0.00    -0.270 OA
ATOM      6  H   UNL A   1      38.435  22.275  24.015  1.00  0.00     0.163 HD
BRANCH   4   7
ATOM      7  C   UNL A   1      35.090  22.891  24.540  1.00  0.00     0.190 C 
ATOM      8  C   UNL A   1      35.187  23.974  25.603  1.00  0.00     0.080 C 
ATOM      9  C   UNL A   1      34.078  23.028  23.404  1.00  0.00     0.080 C 
ATOM     10  C   UNL A   1      34.436  25.267  25.344  1.00  0.00     0.124 C 
ATOM     11  C   UNL A   1      33.059  24.147  23.518  1.00  0.00     0.124 C 
ATOM     12  N   UNL A   1      33.450  25.330  24.271  1.00  0.00    -0.342 N 
ATOM     13  C   UNL A   1      32.790  26.562  24.167  1.00  0.00     0.228 C 
ATOM     14  O   UNL A   1      33.205  27.553  24.768  1.00  0.00    -0.274 OA
BRANCH   7  15
ATOM     15  O   UNL A   1      34.968  21.585  25.152  1.00  0.00    -0.477 OA
BRANCH  15  16
ATOM     16  C   UNL A   1      34.313  20.441  24.848  1.00  0.00     0.124 A 
ATOM     17  C   UNL A   1      31.774  20.975  25.033  1.00  0.00     0.048 C 
ATOM     18  C   UNL A   1      32.955  20.106  24.754  1.00  0.00    -0.006 A 
ATOM     19  C   UNL A   1      32.603  18.766  24.451  1.00  0.00     0.046 A 
ATOM     20  C   UNL A   1      33.564  17.790  24.240  1.00  0.00     0.123 A 
ATOM     21  C   UNL A   1      35.263  19.418  24.627  1.00  0.00     0.050 A 
ATOM     22  F   UNL A   1      33.185  16.535  23.965  1.00  0.00    -0.207 F 
ATOM     23  C   UNL A   1      34.902  18.104  24.327  1.00  0.00     0.043 A 
ENDBRANCH  15  16
ENDBRANCH   7  15
BRANCH  13  24
ATOM     24  C   UNL A   1      31.500  26.629  23.369  1.00  0.00     0.107 C 
ATOM     25  C   UNL A   1      30.330  27.067  24.232  1.00  0.00     0.044 C 
ATOM     26  C   UNL A   1      31.531  27.725  22.319  1.00  0.00     0.173 C 
ATOM     27  C   UNL A   1      29.427  27.823  23.276  1.00  0.00     0.161 C 
ATOM     28  O   UNL A   1      30.157  28.047  22.066  1.00  0.00    -0.381 OA
ENDBRANCH  13  24
ENDBRANCH   4   7
ENDBRANCH   2   3
ENDBRANCH   1   2
BRANCH   1  29
ATOM     29  C   UNL A   1      39.322  20.110  25.377  1.00  0.00     0.118 C 
BRANCH  29  30
ATOM     30  N   UNL A   1      40.332  19.199  25.889  1.00  0.00    -0.352 N 
ATOM     31  C   UNL A   1      41.618  19.435  26.307  1.00  0.00     0.251 C 
ATOM     32  H   UNL A   1      40.047  18.258  25.946  1.00  0.00     0.163 HD
ATOM     33  O   UNL A   1      42.357  18.475  26.511  1.00  0.00    -0.269 OA
BRANCH  31  34
ATOM     34  C   UNL A   1      42.125  20.814  26.509  1.00  0.00     0.039 A 
ATOM     35  C   UNL A   1      42.267  21.293  27.815  1.00  0.00     0.014 A 
ATOM     36  C   UNL A   1      42.402  21.661  25.433  1.00  0.00     0.014 A 
ATOM     37  C   UNL A   1      42.716  22.598  28.039  1.00  0.00     0.010 A 
ATOM     38  C   UNL A   1      42.938  22.927  25.656  1.00  0.00     0.010 A 
ATOM     39  C   UNL A   1      43.075  23.421  26.960  1.00  0.00    -0.014 A 
BRANCH  39  40
ATOM     40  C   UNL A   1      43.557  24.811  27.176  1.00  0.00     0.031 A 
ATOM     41  C   UNL A   1      42.619  25.866  27.704  1.00  0.00     0.074 A 
ATOM     42  C   UNL A   1      44.819  25.143  26.837  1.00  0.00     0.049 A 
ATOM     43  N   UNL A   1      42.847  27.134  27.935  1.00  0.00    -0.248 NA
ATOM     44  C   UNL A   1      41.233  25.451  27.982  1.00  0.00     0.031 C 
ATOM     45  C   UNL A   1      45.802  24.236  26.242  1.00  0.00     0.029 A 
ATOM     46  N   UNL A   1      45.485  26.340  26.929  1.00  0.00    -0.354 N 
ATOM     47  C   UNL A   1      41.632  27.673  28.343  1.00  0.00     0.074 A 
ATOM     48  C   UNL A   1      40.658  26.604  28.290  1.00  0.00     0.031 C 
ATOM     49  C   UNL A   1      46.949  24.903  26.038  1.00  0.00     0.029 A 
ATOM     50  C   UNL A   1      46.779  26.288  26.465  1.00  0.00     0.049 A 
ATOM     51  H   UNL A   1      45.076  27.157  27.294  1.00  0.00     0.167 HD
ATOM     52  C   UNL A   1      41.354  28.930  28.762  1.00  0.00     0.034 A 
ATOM     53  C   UNL A   1      47.722  27.247  26.398  1.00  0.00     0.034 A 
ATOM     54  C   UNL A   1      42.336  29.976  28.870  1.00  0.00     0.049 A 
ATOM     55  C   UNL A   1      47.406  28.622  26.923  1.00  0.00     0.074 A 
ATOM     56  C   UNL A   1      42.178  31.258  29.367  1.00  0.00     0.029 A 
ATOM     57  N   UNL A   1      43.660  29.860  28.475  1.00  0.00    -0.354 N 
ATOM     58  N   UNL A   1      46.294  29.067  27.456  1.00  0.00    -0.248 NA
ATOM     59  C   UNL A   1      48.489  29.616  26.874  1.00  0.00     0.031 C 
ATOM     60  C   UNL A   1      43.406  31.922  29.257  1.00  0.00     0.029 A 
ATOM     61  C   UNL A   1      44.331  31.046  28.712  1.00  0.00     0.049 A 
ATOM     62  H   UNL A   1      44.062  29.052  28.082  1.00  0.00     0.167 HD
ATOM     63  C   UNL A   1      46.554  30.376  27.845  1.00  0.00     0.074 A 
ATOM     64  C   UNL A   1      47.936  30.646  27.502  1.00  0.00     0.031 C 
ATOM     65  C   UNL A   1      45.722  31.280  28.419  1.00  0.00     0.034 A 
BRANCH  52  66
ATOM     66  C   UNL A   1      39.940  29.226  29.198  1.00  0.00     0.023 A 
ATOM     67  C   UNL A   1      38.959  29.504  28.224  1.00  0.00     0.012 A 
ATOM     68  C   UNL A   1      39.572  29.190  30.556  1.00  0.00     0.148 A 
ATOM     69  C   UNL A   1      37.645  29.783  28.597  1.00  0.00     0.002 A 
ATOM     70  C   UNL A   1      38.249  29.423  30.918  1.00  0.00     0.091 A 
ATOM     71  F   UNL A   1      40.521  28.945  31.471  1.00  0.00    -0.205 F 
ATOM     72  C   UNL A   1      37.288  29.733  29.942  1.00  0.00     0.022 A 
BRANCH  70  73
ATOM     73  S   UNL A   1      37.675  29.303  32.615  1.00  0.00     0.127 S 
ATOM     74  O   UNL A   1      36.303  29.796  32.499  1.00  0.00    -0.237 OA
ATOM     75  O   UNL A   1      37.786  27.869  32.879  1.00  0.00    -0.237 OA
ATOM     76  O   UNL A   1      38.576  30.134  33.401  1.00  0.00    -0.744 OA
ENDBRANCH  70  73
ENDBRANCH  52  66
BRANCH  53  77
ATOM     77  C   UNL A   1      49.088  26.916  25.901  1.00  0.00     0.023 A 
ATOM     78  C   UNL A   1      49.963  26.190  26.734  1.00  0.00     0.012 A 
ATOM     79  C   UNL A   1      49.515  27.284  24.611  1.00  0.00     0.148 A 
ATOM     80  C   UNL A   1      51.249  25.865  26.304  1.00  0.00     0.002 A 
ATOM     81  C   UNL A   1      50.781  26.911  24.170  1.00  0.00     0.091 A 
ATOM     82  F   UNL A   1      48.672  27.983  23.838  1.00  0.00    -0.205 F 
ATOM     83  C   UNL A   1      51.654  26.217  25.020  1.00  0.00     0.022 A 
BRANCH  81  84
ATOM     84  S   UNL A   1      51.342  27.213  22.490  1.00  0.00     0.127 S 
ATOM     85  O   UNL A   1      50.220  26.709  21.704  1.00  0.00    -0.237 OA
ATOM     86  O   UNL A   1      51.498  28.668  22.480  1.00  0.00    -0.237 OA
ATOM     87  O   UNL A   1      52.592  26.475  22.356  1.00  0.00    -0.744 OA
ENDBRANCH  81  84
ENDBRANCH  53  77
BRANCH  65  88
ATOM     88  C   UNL A   1      46.288  32.635  28.755  1.00  0.00     0.023 A 
ATOM     89  C   UNL A   1      46.919  32.843  29.997  1.00  0.00     0.012 A 
ATOM     90  C   UNL A   1      46.252  33.682  27.813  1.00  0.00     0.148 A 
ATOM     91  C   UNL A   1      47.474  34.084  30.311  1.00  0.00     0.002 A 
ATOM     92  C   UNL A   1      46.851  34.900  28.114  1.00  0.00     0.091 A 
ATOM     93  F   UNL A   1      45.630  33.472  26.644  1.00  0.00    -0.205 F 
ATOM     94  C   UNL A   1      47.449  35.107  29.367  1.00  0.00     0.022 A 
BRANCH  92  95
ATOM     95  S   UNL A   1      46.952  36.238  26.919  1.00  0.00     0.127 S 
ATOM     96  O   UNL A   1      45.547  36.617  26.776  1.00  0.00    -0.237 OA
ATOM     97  O   UNL A   1      47.780  37.221  27.619  1.00  0.00    -0.237 OA
ATOM     98  O   UNL A   1      47.573  35.665  25.733  1.00  0.00    -0.744 OA
ENDBRANCH  92  95
ENDBRANCH  65  88
ENDBRANCH  39  40
ENDBRANCH  31  34
ENDBRANCH  29  30
ENDBRANCH   1  29
TORSDOF 16
ENDMDL
MODEL 3
REMARK VINA RESULT:     -12.7      2.052      4.793
REMARK SMILES Cc1cc(F)ccc1OC1(C(=O)NCCCNC(=O)c2ccc(-c3c4nc(c(-c5cccc(S(=O)(=O)[O-])c5F)c5ccc([nH]5)c(-c5cccc(S(=O)(=O)[O-])c5F)c5nc(c(-c6cccc(S(=O)(=O)[O-])c6F)c6ccc3[nH]6)C=C5)C=C4)cc2)CCN(C(=O)[C@H]2CCOC2)CC1
REMARK SMILES IDX 15 1 14 2 13 3 11 4 12 5 10 7 83 8 94 9 84 10 93 11 85 12
REMARK SMILES IDX 86 13 87 14 9 15 8 16 1 17 2 18 3 19 4 20 7 21 5 22 6 23
REMARK SMILES IDX 88 24 89 25 92 26 90 27 91 28 16 29 17 30 18 31 19 33 20 34
REMARK SMILES IDX 21 35 82 36 22 37 81 38 23 39 24 40 25 41 75 42 26 43 80 44
REMARK SMILES IDX 74 45 76 46 27 47 79 48 73 49 72 50 28 52 60 53 40 54 59 55
REMARK SMILES IDX 41 56 44 57 58 58 77 59 42 60 43 61 57 63 78 64 45 65 29 66
REMARK SMILES IDX 30 67 38 68 31 69 33 70 39 71 32 72 34 73 35 74 36 75 37 76
REMARK SMILES IDX 61 77 62 78 70 79 63 80 65 81 71 82 64 83 66 84 67 85 68 86
REMARK SMILES IDX 69 87 46 88 47 89 55 90 48 91 50 92 56 93 49 94 51 95 52 96
REMARK SMILES IDX 53 97 54 98
REMARK H PARENT 13 6 17 32 76 51 44 62
REMARK Flexibility Score: inf
ROOT
ATOM      1  C   UNL A   1      32.758  27.771  26.029  1.00  0.00     0.042 C 
ENDROOT
BRANCH   1   2
ATOM      2  C   UNL A   1      33.036  26.277  26.121  1.00  0.00     0.118 C 
BRANCH   2   3
ATOM      3  N   UNL A   1      31.964  25.539  26.763  1.00  0.00    -0.353 N 
ATOM      4  C   UNL A   1      31.291  24.399  26.426  1.00  0.00     0.264 C 
ATOM      5  O   UNL A   1      30.484  24.013  27.281  1.00  0.00    -0.270 OA
ATOM      6  H   UNL A   1      31.662  25.939  27.608  1.00  0.00     0.163 HD
BRANCH   4   7
ATOM      7  C   UNL A   1      31.524  23.622  25.068  1.00  0.00     0.190 C 
ATOM      8  C   UNL A   1      32.981  23.808  24.679  1.00  0.00     0.080 C 
ATOM      9  C   UNL A   1      30.958  22.214  25.251  1.00  0.00     0.080 C 
ATOM     10  C   UNL A   1      33.873  22.581  24.728  1.00  0.00     0.124 C 
ATOM     11  C   UNL A   1      31.836  21.056  24.815  1.00  0.00     0.124 C 
ATOM     12  N   UNL A   1      33.277  21.256  24.863  1.00  0.00    -0.342 N 
ATOM     13  C   UNL A   1      34.202  20.204  24.845  1.00  0.00     0.228 C 
ATOM     14  O   UNL A   1      35.409  20.423  24.964  1.00  0.00    -0.274 OA
BRANCH   7  15
ATOM     15  O   UNL A   1      30.660  24.389  24.197  1.00  0.00    -0.477 OA
BRANCH  15  16
ATOM     16  C   UNL A   1      30.782  25.540  23.496  1.00  0.00     0.124 A 
ATOM     17  C   UNL A   1      32.680  25.148  21.761  1.00  0.00     0.048 C 
ATOM     18  C   UNL A   1      31.603  25.935  22.430  1.00  0.00    -0.006 A 
ATOM     19  C   UNL A   1      31.504  27.266  21.951  1.00  0.00     0.046 A 
ATOM     20  C   UNL A   1      30.616  28.175  22.503  1.00  0.00     0.123 A 
ATOM     21  C   UNL A   1      29.890  26.496  24.034  1.00  0.00     0.050 A 
ATOM     22  F   UNL A   1      30.563  29.424  22.023  1.00  0.00    -0.207 F 
ATOM     23  C   UNL A   1      29.801  27.802  23.549  1.00  0.00     0.043 A 
ENDBRANCH  15  16
ENDBRANCH   7  15
BRANCH  13  24
ATOM     24  C   UNL A   1      33.695  18.796  24.588  1.00  0.00     0.107 C 
ATOM     25  C   UNL A   1      34.837  17.829  24.332  1.00  0.00     0.044 C 
ATOM     26  C   UNL A   1      33.050  18.185  25.819  1.00  0.00     0.173 C 
ATOM     27  C   UNL A   1      34.332  16.506  24.876  1.00  0.00     0.161 C 
ATOM     28  O   UNL A   1      33.146  16.767  25.633  1.00  0.00    -0.381 OA
ENDBRANCH  13  24
ENDBRANCH   4   7
ENDBRANCH   2   3
ENDBRANCH   1   2
BRANCH   1  29
ATOM     29  C   UNL A   1      34.001  28.648  25.988  1.00  0.00     0.118 C 
BRANCH  29  30
ATOM     30  N   UNL A   1      33.790  29.951  26.597  1.00  0.00    -0.352 N 
ATOM     31  C   UNL A   1      34.500  30.606  27.572  1.00  0.00     0.251 C 
ATOM     32  H   UNL A   1      33.009  30.444  26.254  1.00  0.00     0.163 HD
ATOM     33  O   UNL A   1      34.016  31.617  28.075  1.00  0.00    -0.269 OA
BRANCH  31  34
ATOM     34  C   UNL A   1      35.823  30.116  28.027  1.00  0.00     0.039 A 
ATOM     35  C   UNL A   1      35.921  29.517  29.288  1.00  0.00     0.014 A 
ATOM     36  C   UNL A   1      36.977  30.296  27.261  1.00  0.00     0.014 A 
ATOM     37  C   UNL A   1      37.160  29.071  29.758  1.00  0.00     0.010 A 
ATOM     38  C   UNL A   1      38.193  29.767  27.688  1.00  0.00     0.010 A 
ATOM     39  C   UNL A   1      38.305  29.174  28.953  1.00  0.00    -0.014 A 
BRANCH  39  40
ATOM     40  C   UNL A   1      39.632  28.704  29.433  1.00  0.00     0.031 A 
ATOM     41  C   UNL A   1      40.334  29.429  30.552  1.00  0.00     0.074 A 
ATOM     42  C   UNL A   1      40.236  27.665  28.822  1.00  0.00     0.049 A 
ATOM     43  N   UNL A   1      41.502  29.185  31.091  1.00  0.00    -0.248 NA
ATOM     44  C   UNL A   1      39.650  30.602  31.124  1.00  0.00     0.031 C 
ATOM     45  C   UNL A   1      39.698  26.929  27.677  1.00  0.00     0.029 A 
ATOM     46  N   UNL A   1      41.443  27.060  29.069  1.00  0.00    -0.354 N 
ATOM     47  C   UNL A   1      41.708  30.190  32.029  1.00  0.00     0.074 A 
ATOM     48  C   UNL A   1      40.564  31.073  31.959  1.00  0.00     0.031 C 
ATOM     49  C   UNL A   1      40.564  25.962  27.331  1.00  0.00     0.029 A 
ATOM     50  C   UNL A   1      41.725  26.022  28.213  1.00  0.00     0.049 A 
ATOM     51  H   UNL A   1      42.049  27.343  29.791  1.00  0.00     0.167 HD
ATOM     52  C   UNL A   1      42.735  30.348  32.898  1.00  0.00     0.034 A 
ATOM     53  C   UNL A   1      42.796  25.207  28.150  1.00  0.00     0.034 A 
ATOM     54  C   UNL A   1      43.844  29.438  33.005  1.00  0.00     0.049 A 
ATOM     55  C   UNL A   1      43.897  25.368  29.163  1.00  0.00     0.074 A 
ATOM     56  C   UNL A   1      44.889  29.456  33.911  1.00  0.00     0.029 A 
ATOM     57  N   UNL A   1      44.050  28.344  32.179  1.00  0.00    -0.354 N 
ATOM     58  N   UNL A   1      43.995  26.228  30.148  1.00  0.00    -0.248 NA
ATOM     59  C   UNL A   1      45.016  24.418  29.082  1.00  0.00     0.031 C 
ATOM     60  C   UNL A   1      45.737  28.380  33.622  1.00  0.00     0.029 A 
ATOM     61  C   UNL A   1      45.206  27.680  32.550  1.00  0.00     0.049 A 
ATOM     62  H   UNL A   1      43.460  28.079  31.437  1.00  0.00     0.167 HD
ATOM     63  C   UNL A   1      45.161  25.898  30.828  1.00  0.00     0.074 A 
ATOM     64  C   UNL A   1      45.726  24.747  30.154  1.00  0.00     0.031 C 
ATOM     65  C   UNL A   1      45.724  26.501  31.905  1.00  0.00     0.034 A 
BRANCH  52  66
ATOM     66  C   UNL A   1      42.673  31.519  33.847  1.00  0.00     0.023 A 
ATOM     67  C   UNL A   1      43.193  32.766  33.445  1.00  0.00     0.012 A 
ATOM     68  C   UNL A   1      42.070  31.400  35.114  1.00  0.00     0.148 A 
ATOM     69  C   UNL A   1      43.152  33.865  34.301  1.00  0.00     0.002 A 
ATOM     70  C   UNL A   1      41.990  32.513  35.946  1.00  0.00     0.091 A 
ATOM     71  F   UNL A   1      41.600  30.202  35.491  1.00  0.00    -0.205 F 
ATOM     72  C   UNL A   1      42.543  33.741  35.547  1.00  0.00     0.022 A 
BRANCH  70  73
ATOM     73  S   UNL A   1      41.154  32.475  37.535  1.00  0.00     0.127 S 
ATOM     74  O   UNL A   1      41.128  33.893  37.889  1.00  0.00    -0.237 OA
ATOM     75  O   UNL A   1      39.851  31.909  37.186  1.00  0.00    -0.237 OA
ATOM     76  O   UNL A   1      41.970  31.628  38.394  1.00  0.00    -0.744 OA
ENDBRANCH  70  73
ENDBRANCH  52  66
BRANCH  53  77
ATOM     77  C   UNL A   1      42.834  24.102  27.150  1.00  0.00     0.023 A 
ATOM     78  C   UNL A   1      43.570  24.279  25.961  1.00  0.00     0.012 A 
ATOM     79  C   UNL A   1      42.176  22.878  27.375  1.00  0.00     0.148 A 
ATOM     80  C   UNL A   1      43.624  23.269  25.001  1.00  0.00     0.002 A 
ATOM     81  C   UNL A   1      42.278  21.856  26.437  1.00  0.00     0.091 A 
ATOM     82  F   UNL A   1      41.473  22.734  28.506  1.00  0.00    -0.205 F 
ATOM     83  C   UNL A   1      42.987  22.056  25.243  1.00  0.00     0.022 A 
BRANCH  81  84
ATOM     84  S   UNL A   1      41.595  20.219  26.718  1.00  0.00     0.127 S 
ATOM     85  O   UNL A   1      41.863  19.559  25.444  1.00  0.00    -0.237 OA
ATOM     86  O   UNL A   1      42.402  19.743  27.842  1.00  0.00    -0.237 OA
ATOM     87  O   UNL A   1      40.189  20.431  27.038  1.00  0.00    -0.744 OA
ENDBRANCH  81  84
ENDBRANCH  53  77
BRANCH  65  88
ATOM     88  C   UNL A   1      46.996  25.908  32.452  1.00  0.00     0.023 A 
ATOM     89  C   UNL A   1      48.242  26.367  31.983  1.00  0.00     0.012 A 
ATOM     90  C   UNL A   1      46.956  24.941  33.476  1.00  0.00     0.148 A 
ATOM     91  C   UNL A   1      49.429  25.848  32.500  1.00  0.00     0.002 A 
ATOM     92  C   UNL A   1      48.143  24.465  34.020  1.00  0.00     0.091 A 
ATOM     93  F   UNL A   1      45.761  24.500  33.895  1.00  0.00    -0.205 F 
ATOM     94  C   UNL A   1      49.379  24.907  33.525  1.00  0.00     0.022 A 
BRANCH  92  95
ATOM     95  S   UNL A   1      48.169  23.326  35.409  1.00  0.00     0.127 S 
ATOM     96  O   UNL A   1      47.479  24.098  36.442  1.00  0.00    -0.237 OA
ATOM     97  O   UNL A   1      47.413  22.185  34.893  1.00  0.00    -0.237 OA
ATOM     98  O   UNL A   1      49.575  23.046  35.667  1.00  0.00    -0.744 OA
ENDBRANCH  92  95
ENDBRANCH  65  88
ENDBRANCH  39  40
ENDBRANCH  31  34
ENDBRANCH  29  30
ENDBRANCH   1  29
TORSDOF 16
ENDMDL
