MODEL 1
REMARK VINA RESULT:     -12.1      0.000      0.000
REMARK SMILES COCC1CCN(C(=O)NC[C@H]2CC[C@H](C(=O)NCCCNC(=O)c3ccc(-c4c5nc(c(-c6cccc(S(=O)(=O)[O-])c6F)c6ccc([nH]6)c(-c6cccc(S(=O)(=O)[O-])c6F)c6nc(c(-c7cccc(S(=O)(=O)[O-])c7F)c7ccc4[nH]7)C=C6)C=C5)cc3)O2)CC1
REMARK SMILES IDX 19 1 18 2 16 3 17 4 15 6 12 7 13 8 88 9 14 10 11 11 10 12
REMARK SMILES IDX 4 13 5 14 90 15 6 16 89 17 7 18 8 19 9 20 3 22 2 23 1 24
REMARK SMILES IDX 20 25 21 26 22 27 23 28 24 30 25 31 26 32 87 33 27 34 86 35
REMARK SMILES IDX 28 36 29 37 30 38 80 39 31 40 85 41 79 42 81 43 32 44 84 45
REMARK SMILES IDX 78 46 77 47 33 49 65 50 45 51 64 52 46 53 49 54 63 55 82 56
REMARK SMILES IDX 47 57 48 58 62 60 83 61 50 62 34 63 35 64 43 65 36 66 38 67
REMARK SMILES IDX 44 68 37 69 39 70 40 71 41 72 42 73 66 74 67 75 75 76 68 77
REMARK SMILES IDX 70 78 76 79 69 80 71 81 72 82 73 83 74 84 51 85 52 86 60 87
REMARK SMILES IDX 53 88 55 89 61 90 54 91 56 92 57 93 58 94 59 95
REMARK H PARENT 18 5 10 21 22 29 81 48 49 59
REMARK Flexibility Score: inf
ROOT
ATOM      1  C   UNL A   1      31.194  29.392  24.817  1.00  0.00     0.117 C 
ENDROOT
BRANCH   1   2
ATOM      2  N   UNL A   1      30.706  29.826  23.526  1.00  0.00    -0.354 N 
ATOM      3  C   UNL A   1      30.275  29.092  22.463  1.00  0.00     0.249 C 
ATOM      4  O   UNL A   1      29.860  29.714  21.479  1.00  0.00    -0.272 OA
ATOM      5  H   UNL A   1      30.684  30.801  23.396  1.00  0.00     0.163 HD
BRANCH   3   6
ATOM      6  C   UNL A   1      30.362  27.545  22.429  1.00  0.00     0.207 C 
ATOM      7  C   UNL A   1      30.955  25.974  24.078  1.00  0.00     0.138 C 
ATOM      8  C   UNL A   1      32.208  26.236  23.263  1.00  0.00     0.037 C 
ATOM      9  O   UNL A   1      29.913  26.820  23.566  1.00  0.00    -0.363 OA
ATOM     10  C   UNL A   1      31.748  27.042  22.071  1.00  0.00     0.045 C 
BRANCH   7  11
ATOM     11  C   UNL A   1      30.554  24.487  24.109  1.00  0.00     0.149 C 
BRANCH  11  12
ATOM     12  N   UNL A   1      30.316  23.995  25.455  1.00  0.00    -0.335 N 
ATOM     13  C   UNL A   1      35.086  22.747  25.495  1.00  0.00     0.018 C 
ATOM     14  C   UNL A   1      34.501  22.972  26.907  1.00  0.00     0.027 C 
ATOM     15  C   UNL A   1      34.028  23.045  24.417  1.00  0.00     0.027 C 
ATOM     16  C   UNL A   1      33.137  22.305  27.101  1.00  0.00     0.121 C 
ATOM     17  C   UNL A   1      32.714  22.323  24.707  1.00  0.00     0.121 C 
ATOM     18  N   UNL A   1      32.233  22.707  26.025  1.00  0.00    -0.325 N 
ATOM     19  C   UNL A   1      31.056  23.319  26.355  1.00  0.00     0.317 C 
ATOM     20  O   UNL A   1      30.623  23.321  27.512  1.00  0.00    -0.249 OA
ATOM     21  H   UNL A   1      29.412  24.203  25.784  1.00  0.00     0.165 HD
BRANCH  13  22
ATOM     22  C   UNL A   1      35.664  21.332  25.314  1.00  0.00     0.163 C 
BRANCH  22  23
ATOM     23  O   UNL A   1      37.050  21.251  25.641  1.00  0.00    -0.384 OA
ATOM     24  C   UNL A   1      37.752  20.272  24.886  1.00  0.00     0.194 C 
ENDBRANCH  22  23
ENDBRANCH  13  22
ENDBRANCH  11  12
ENDBRANCH   7  11
ENDBRANCH   3   6
ENDBRANCH   1   2
BRANCH   1  25
ATOM     25  C   UNL A   1      32.715  29.427  24.900  1.00  0.00     0.042 C 
BRANCH  25  26
ATOM     26  C   UNL A   1      33.239  29.678  26.309  1.00  0.00     0.118 C 
BRANCH  26  27
ATOM     27  N   UNL A   1      33.143  31.084  26.679  1.00  0.00    -0.352 N 
ATOM     28  C   UNL A   1      33.879  31.828  27.564  1.00  0.00     0.251 C 
ATOM     29  H   UNL A   1      32.431  31.582  26.216  1.00  0.00     0.163 HD
ATOM     30  O   UNL A   1      33.468  32.942  27.879  1.00  0.00    -0.269 OA
BRANCH  28  31
ATOM     31  C   UNL A   1      35.146  31.319  28.136  1.00  0.00     0.039 A 
ATOM     32  C   UNL A   1      35.155  30.037  28.699  1.00  0.00     0.014 A 
ATOM     33  C   UNL A   1      36.297  32.110  28.199  1.00  0.00     0.014 A 
ATOM     34  C   UNL A   1      36.315  29.548  29.302  1.00  0.00     0.010 A 
ATOM     35  C   UNL A   1      37.477  31.588  28.723  1.00  0.00     0.010 A 
ATOM     36  C   UNL A   1      37.490  30.316  29.311  1.00  0.00    -0.014 A 
BRANCH  36  37
ATOM     37  C   UNL A   1      38.724  29.817  29.967  1.00  0.00     0.031 A 
ATOM     38  C   UNL A   1      39.111  30.320  31.335  1.00  0.00     0.074 A 
ATOM     39  C   UNL A   1      39.529  28.958  29.311  1.00  0.00     0.049 A 
ATOM     40  N   UNL A   1      40.155  30.014  32.061  1.00  0.00    -0.248 NA
ATOM     41  C   UNL A   1      38.227  31.320  31.956  1.00  0.00     0.031 C 
ATOM     42  C   UNL A   1      39.307  28.466  27.950  1.00  0.00     0.029 A 
ATOM     43  N   UNL A   1      40.703  28.361  29.694  1.00  0.00    -0.354 N 
ATOM     44  C   UNL A   1      40.074  30.809  33.199  1.00  0.00     0.074 A 
ATOM     45  C   UNL A   1      38.901  31.641  33.050  1.00  0.00     0.031 C 
ATOM     46  C   UNL A   1      40.307  27.634  27.615  1.00  0.00     0.029 A 
ATOM     47  C   UNL A   1      41.249  27.549  28.728  1.00  0.00     0.049 A 
ATOM     48  H   UNL A   1      41.115  28.501  30.576  1.00  0.00     0.167 HD
ATOM     49  C   UNL A   1      40.880  30.821  34.287  1.00  0.00     0.034 A 
ATOM     50  C   UNL A   1      42.378  26.815  28.740  1.00  0.00     0.034 A 
ATOM     51  C   UNL A   1      42.012  29.949  34.456  1.00  0.00     0.049 A 
ATOM     52  C   UNL A   1      43.216  26.790  29.989  1.00  0.00     0.074 A 
ATOM     53  C   UNL A   1      42.835  29.811  35.560  1.00  0.00     0.029 A 
ATOM     54  N   UNL A   1      42.479  29.068  33.495  1.00  0.00    -0.354 N 
ATOM     55  N   UNL A   1      43.028  27.422  31.122  1.00  0.00    -0.248 NA
ATOM     56  C   UNL A   1      44.399  25.918  29.977  1.00  0.00     0.031 C 
ATOM     57  C   UNL A   1      43.812  28.855  35.258  1.00  0.00     0.029 A 
ATOM     58  C   UNL A   1      43.583  28.385  33.974  1.00  0.00     0.049 A 
ATOM     59  H   UNL A   1      42.083  28.944  32.601  1.00  0.00     0.167 HD
ATOM     60  C   UNL A   1      44.048  27.003  31.967  1.00  0.00     0.074 A 
ATOM     61  C   UNL A   1      44.833  26.039  31.224  1.00  0.00     0.031 C 
ATOM     62  C   UNL A   1      44.324  27.393  33.237  1.00  0.00     0.034 A 
BRANCH  49  63
ATOM     63  C   UNL A   1      40.527  31.765  35.409  1.00  0.00     0.023 A 
ATOM     64  C   UNL A   1      41.311  32.918  35.619  1.00  0.00     0.012 A 
ATOM     65  C   UNL A   1      39.399  31.541  36.222  1.00  0.00     0.148 A 
ATOM     66  C   UNL A   1      41.003  33.812  36.644  1.00  0.00     0.002 A 
ATOM     67  C   UNL A   1      39.071  32.460  37.213  1.00  0.00     0.091 A 
ATOM     68  F   UNL A   1      38.677  30.429  36.024  1.00  0.00    -0.205 F 
ATOM     69  C   UNL A   1      39.879  33.589  37.432  1.00  0.00     0.022 A 
BRANCH  67  70
ATOM     70  S   UNL A   1      37.601  32.305  38.233  1.00  0.00     0.127 S 
ATOM     71  O   UNL A   1      38.036  32.939  39.476  1.00  0.00    -0.237 OA
ATOM     72  O   UNL A   1      36.614  33.070  37.470  1.00  0.00    -0.237 OA
ATOM     73  O   UNL A   1      37.324  30.878  38.322  1.00  0.00    -0.744 OA
ENDBRANCH  67  70
ENDBRANCH  49  63
BRANCH  50  74
ATOM     74  C   UNL A   1      42.732  25.977  27.559  1.00  0.00     0.023 A 
ATOM     75  C   UNL A   1      43.595  26.498  26.576  1.00  0.00     0.012 A 
ATOM     76  C   UNL A   1      42.251  24.661  27.422  1.00  0.00     0.148 A 
ATOM     77  C   UNL A   1      43.946  25.738  25.460  1.00  0.00     0.002 A 
ATOM     78  C   UNL A   1      42.649  23.888  26.337  1.00  0.00     0.091 A 
ATOM     79  F   UNL A   1      41.422  24.186  28.363  1.00  0.00    -0.205 F 
ATOM     80  C   UNL A   1      43.482  24.430  25.346  1.00  0.00     0.022 A 
BRANCH  78  81
ATOM     81  S   UNL A   1      42.211  22.152  26.181  1.00  0.00     0.127 S 
ATOM     82  O   UNL A   1      42.952  21.761  24.987  1.00  0.00    -0.237 OA
ATOM     83  O   UNL A   1      42.720  21.596  27.435  1.00  0.00    -0.237 OA
ATOM     84  O   UNL A   1      40.757  22.126  26.065  1.00  0.00    -0.744 OA
ENDBRANCH  78  81
ENDBRANCH  50  74
BRANCH  62  85
ATOM     85  C   UNL A   1      45.514  26.763  33.913  1.00  0.00     0.023 A 
ATOM     86  C   UNL A   1      46.757  27.427  33.894  1.00  0.00     0.012 A 
ATOM     87  C   UNL A   1      45.389  25.548  34.611  1.00  0.00     0.148 A 
ATOM     88  C   UNL A   1      47.868  26.869  34.527  1.00  0.00     0.002 A 
ATOM     89  C   UNL A   1      46.487  25.023  35.282  1.00  0.00     0.091 A 
ATOM     90  F   UNL A   1      44.204  24.921  34.601  1.00  0.00    -0.205 F 
ATOM     91  C   UNL A   1      47.730  25.674  35.229  1.00  0.00     0.022 A 
BRANCH  89  92
ATOM     92  S   UNL A   1      46.373  23.540  36.290  1.00  0.00     0.127 S 
ATOM     93  O   UNL A   1      47.733  23.431  36.815  1.00  0.00    -0.237 OA
ATOM     94  O   UNL A   1      45.365  23.912  37.282  1.00  0.00    -0.237 OA
ATOM     95  O   UNL A   1      45.961  22.476  35.383  1.00  0.00    -0.744 OA
ENDBRANCH  89  92
ENDBRANCH  62  85
ENDBRANCH  36  37
ENDBRANCH  28  31
ENDBRANCH  26  27
ENDBRANCH  25  26
ENDBRANCH   1  25
TORSDOF 17
ENDMDL
MODEL 2
REMARK VINA RESULT:     -12.0      2.353      8.072
REMARK SMILES COCC1CCN(C(=O)NC[C@H]2CC[C@H](C(=O)NCCCNC(=O)c3ccc(-c4c5nc(c(-c6cccc(S(=O)(=O)[O-])c6F)c6ccc([nH]6)c(-c6cccc(S(=O)(=O)[O-])c6F)c6nc(c(-c7cccc(S(=O)(=O)[O-])c7F)c7ccc4[nH]7)C=C6)C=C5)cc3)O2)CC1
REMARK SMILES IDX 19 1 18 2 16 3 17 4 15 6 12 7 13 8 88 9 14 10 11 11 10 12
REMARK SMILES IDX 4 13 5 14 90 15 6 16 89 17 7 18 8 19 9 20 3 22 2 23 1 24
REMARK SMILES IDX 20 25 21 26 22 27 23 28 24 30 25 31 26 32 87 33 27 34 86 35
REMARK SMILES IDX 28 36 29 37 30 38 80 39 31 40 85 41 79 42 81 43 32 44 84 45
REMARK SMILES IDX 78 46 77 47 33 49 65 50 45 51 64 52 46 53 49 54 63 55 82 56
REMARK SMILES IDX 47 57 48 58 62 60 83 61 50 62 34 63 35 64 43 65 36 66 38 67
REMARK SMILES IDX 44 68 37 69 39 70 40 71 41 72 42 73 66 74 67 75 75 76 68 77
REMARK SMILES IDX 70 78 76 79 69 80 71 81 72 82 73 83 74 84 51 85 52 86 60 87
REMARK SMILES IDX 53 88 55 89 61 90 54 91 56 92 57 93 58 94 59 95
REMARK H PARENT 18 5 10 21 22 29 81 48 49 59
REMARK Flexibility Score: inf
ROOT
ATOM      1  C   UNL A   1      31.401  30.583  26.256  1.00  0.00     0.117 C 
ENDROOT
BRANCH   1   2
ATOM      2  N   UNL A   1      32.509  30.186  25.416  1.00  0.00    -0.354 N 
ATOM      3  C   UNL A   1      32.621  29.136  24.555  1.00  0.00     0.249 C 
ATOM      4  O   UNL A   1      33.673  29.044  23.913  1.00  0.00    -0.272 OA
ATOM      5  H   UNL A   1      33.305  30.762  25.478  1.00  0.00     0.163 HD
BRANCH   3   6
ATOM      6  C   UNL A   1      31.528  28.047  24.424  1.00  0.00     0.207 C 
ATOM      7  C   UNL A   1      31.485  26.007  23.250  1.00  0.00     0.138 C 
ATOM      8  C   UNL A   1      30.815  27.034  22.355  1.00  0.00     0.037 C 
ATOM      9  O   UNL A   1      31.931  26.684  24.436  1.00  0.00    -0.363 OA
ATOM     10  C   UNL A   1      30.629  28.258  23.219  1.00  0.00     0.045 C 
BRANCH   7  11
ATOM     11  C   UNL A   1      30.586  24.795  23.557  1.00  0.00     0.149 C 
BRANCH  11  12
ATOM     12  N   UNL A   1      30.381  24.591  24.981  1.00  0.00    -0.335 N 
ATOM     13  C   UNL A   1      34.685  22.189  24.930  1.00  0.00     0.018 C 
ATOM     14  C   UNL A   1      34.325  22.768  26.315  1.00  0.00     0.027 C 
ATOM     15  C   UNL A   1      33.622  22.579  23.886  1.00  0.00     0.027 C 
ATOM     16  C   UNL A   1      32.870  22.509  26.711  1.00  0.00     0.121 C 
ATOM     17  C   UNL A   1      32.211  22.269  24.383  1.00  0.00     0.121 C 
ATOM     18  N   UNL A   1      31.980  22.960  25.642  1.00  0.00    -0.325 N 
ATOM     19  C   UNL A   1      31.027  23.894  25.935  1.00  0.00     0.317 C 
ATOM     20  O   UNL A   1      30.732  24.184  27.099  1.00  0.00    -0.249 OA
ATOM     21  H   UNL A   1      29.593  25.071  25.326  1.00  0.00     0.165 HD
BRANCH  13  22
ATOM     22  C   UNL A   1      34.883  20.663  24.962  1.00  0.00     0.163 C 
BRANCH  22  23
ATOM     23  O   UNL A   1      36.247  20.281  25.135  1.00  0.00    -0.384 OA
ATOM     24  C   UNL A   1      37.170  21.270  24.700  1.00  0.00     0.194 C 
ENDBRANCH  22  23
ENDBRANCH  13  22
ENDBRANCH  11  12
ENDBRANCH   7  11
ENDBRANCH   3   6
ENDBRANCH   1   2
BRANCH   1  25
ATOM     25  C   UNL A   1      31.404  32.079  26.547  1.00  0.00     0.042 C 
BRANCH  25  26
ATOM     26  C   UNL A   1      32.682  32.563  27.221  1.00  0.00     0.118 C 
BRANCH  26  27
ATOM     27  N   UNL A   1      32.595  33.967  27.598  1.00  0.00    -0.352 N 
ATOM     28  C   UNL A   1      33.198  34.658  28.617  1.00  0.00     0.251 C 
ATOM     29  H   UNL A   1      32.006  34.510  27.027  1.00  0.00     0.163 HD
ATOM     30  O   UNL A   1      32.796  35.789  28.878  1.00  0.00    -0.269 OA
BRANCH  28  31
ATOM     31  C   UNL A   1      34.312  34.071  29.396  1.00  0.00     0.039 A 
ATOM     32  C   UNL A   1      35.623  34.399  29.033  1.00  0.00     0.014 A 
ATOM     33  C   UNL A   1      34.088  33.147  30.420  1.00  0.00     0.014 A 
ATOM     34  C   UNL A   1      36.699  33.817  29.706  1.00  0.00     0.010 A 
ATOM     35  C   UNL A   1      35.160  32.635  31.148  1.00  0.00     0.010 A 
ATOM     36  C   UNL A   1      36.477  32.938  30.777  1.00  0.00    -0.014 A 
BRANCH  36  37
ATOM     37  C   UNL A   1      37.611  32.296  31.487  1.00  0.00     0.031 A 
ATOM     38  C   UNL A   1      38.377  31.174  30.834  1.00  0.00     0.074 A 
ATOM     39  C   UNL A   1      37.916  32.680  32.742  1.00  0.00     0.049 A 
ATOM     40  N   UNL A   1      39.384  30.482  31.300  1.00  0.00    -0.248 NA
ATOM     41  C   UNL A   1      37.934  30.752  29.494  1.00  0.00     0.031 C 
ATOM     42  C   UNL A   1      37.194  33.693  33.514  1.00  0.00     0.029 A 
ATOM     43  N   UNL A   1      38.900  32.251  33.596  1.00  0.00    -0.354 N 
ATOM     44  C   UNL A   1      39.668  29.523  30.334  1.00  0.00     0.074 A 
ATOM     45  C   UNL A   1      38.702  29.695  29.272  1.00  0.00     0.031 C 
ATOM     46  C   UNL A   1      37.766  33.816  34.723  1.00  0.00     0.029 A 
ATOM     47  C   UNL A   1      38.880  32.878  34.820  1.00  0.00     0.049 A 
ATOM     48  H   UNL A   1      39.558  31.560  33.355  1.00  0.00     0.167 HD
ATOM     49  C   UNL A   1      40.665  28.607  30.311  1.00  0.00     0.034 A 
ATOM     50  C   UNL A   1      39.674  32.718  35.896  1.00  0.00     0.034 A 
ATOM     51  C   UNL A   1      41.660  28.480  31.342  1.00  0.00     0.049 A 
ATOM     52  C   UNL A   1      40.819  31.744  35.817  1.00  0.00     0.074 A 
ATOM     53  C   UNL A   1      42.769  27.652  31.372  1.00  0.00     0.029 A 
ATOM     54  N   UNL A   1      41.666  29.201  32.526  1.00  0.00    -0.354 N 
ATOM     55  N   UNL A   1      41.173  30.965  34.823  1.00  0.00    -0.248 NA
ATOM     56  C   UNL A   1      41.699  31.659  36.991  1.00  0.00     0.031 C 
ATOM     57  C   UNL A   1      43.437  27.862  32.583  1.00  0.00     0.029 A 
ATOM     58  C   UNL A   1      42.755  28.835  33.298  1.00  0.00     0.049 A 
ATOM     59  H   UNL A   1      40.995  29.875  32.780  1.00  0.00     0.167 HD
ATOM     60  C   UNL A   1      42.332  30.320  35.239  1.00  0.00     0.074 A 
ATOM     61  C   UNL A   1      42.636  30.824  36.562  1.00  0.00     0.031 C 
ATOM     62  C   UNL A   1      43.069  29.382  34.594  1.00  0.00     0.034 A 
BRANCH  49  63
ATOM     63  C   UNL A   1      40.766  27.712  29.102  1.00  0.00     0.023 A 
ATOM     64  C   UNL A   1      39.930  26.580  29.004  1.00  0.00     0.012 A 
ATOM     65  C   UNL A   1      41.647  28.011  28.045  1.00  0.00     0.148 A 
ATOM     66  C   UNL A   1      39.996  25.739  27.894  1.00  0.00     0.002 A 
ATOM     67  C   UNL A   1      41.675  27.194  26.920  1.00  0.00     0.091 A 
ATOM     68  F   UNL A   1      42.450  29.078  28.163  1.00  0.00    -0.205 F 
ATOM     69  C   UNL A   1      40.860  26.052  26.849  1.00  0.00     0.022 A 
BRANCH  67  70
ATOM     70  S   UNL A   1      42.696  27.551  25.487  1.00  0.00     0.127 S 
ATOM     71  O   UNL A   1      42.481  26.360  24.666  1.00  0.00    -0.237 OA
ATOM     72  O   UNL A   1      42.080  28.771  24.964  1.00  0.00    -0.237 OA
ATOM     73  O   UNL A   1      44.051  27.725  25.993  1.00  0.00    -0.744 OA
ENDBRANCH  67  70
ENDBRANCH  49  63
BRANCH  50  74
ATOM     74  C   UNL A   1      39.464  33.561  37.106  1.00  0.00     0.023 A 
ATOM     75  C   UNL A   1      39.947  34.884  37.118  1.00  0.00     0.012 A 
ATOM     76  C   UNL A   1      38.762  33.077  38.226  1.00  0.00     0.148 A 
ATOM     77  C   UNL A   1      39.765  35.699  38.237  1.00  0.00     0.002 A 
ATOM     78  C   UNL A   1      38.534  33.912  39.315  1.00  0.00     0.091 A 
ATOM     79  F   UNL A   1      38.318  31.812  38.200  1.00  0.00    -0.205 F 
ATOM     80  C   UNL A   1      39.050  35.217  39.329  1.00  0.00     0.022 A 
BRANCH  78  81
ATOM     81  S   UNL A   1      37.508  33.420  40.705  1.00  0.00     0.127 S 
ATOM     82  O   UNL A   1      37.416  34.662  41.465  1.00  0.00    -0.237 OA
ATOM     83  O   UNL A   1      36.271  33.009  40.039  1.00  0.00    -0.237 OA
ATOM     84  O   UNL A   1      38.226  32.328  41.353  1.00  0.00    -0.744 OA
ENDBRANCH  78  81
ENDBRANCH  50  74
BRANCH  62  85
ATOM     85  C   UNL A   1      44.288  28.850  35.301  1.00  0.00     0.023 A 
ATOM     86  C   UNL A   1      45.552  29.410  35.026  1.00  0.00     0.012 A 
ATOM     87  C   UNL A   1      44.175  27.840  36.274  1.00  0.00     0.148 A 
ATOM     88  C   UNL A   1      46.691  28.943  35.681  1.00  0.00     0.002 A 
ATOM     89  C   UNL A   1      45.307  27.414  36.958  1.00  0.00     0.091 A 
ATOM     90  F   UNL A   1      42.968  27.305  36.507  1.00  0.00    -0.205 F 
ATOM     91  C   UNL A   1      46.567  27.954  36.654  1.00  0.00     0.022 A 
BRANCH  89  92
ATOM     92  S   UNL A   1      45.223  26.214  38.293  1.00  0.00     0.127 S 
ATOM     93  O   UNL A   1      46.566  26.309  38.865  1.00  0.00    -0.237 OA
ATOM     94  O   UNL A   1      44.161  26.760  39.139  1.00  0.00    -0.237 OA
ATOM     95  O   UNL A   1      44.895  24.943  37.662  1.00  0.00    -0.744 OA
ENDBRANCH  89  92
ENDBRANCH  62  85
ENDBRANCH  36  37
ENDBRANCH  28  31
ENDBRANCH  26  27
ENDBRANCH  25  26
ENDBRANCH   1  25
TORSDOF 17
ENDMDL
MODEL 3
REMARK VINA RESULT:     -11.9      1.538      1.981
REMARK SMILES COCC1CCN(C(=O)NC[C@H]2CC[C@H](C(=O)NCCCNC(=O)c3ccc(-c4c5nc(c(-c6cccc(S(=O)(=O)[O-])c6F)c6ccc([nH]6)c(-c6cccc(S(=O)(=O)[O-])c6F)c6nc(c(-c7cccc(S(=O)(=O)[O-])c7F)c7ccc4[nH]7)C=C6)C=C5)cc3)O2)CC1
REMARK SMILES IDX 19 1 18 2 16 3 17 4 15 6 12 7 13 8 88 9 14 10 11 11 10 12
REMARK SMILES IDX 4 13 5 14 90 15 6 16 89 17 7 18 8 19 9 20 3 22 2 23 1 24
REMARK SMILES IDX 20 25 21 26 22 27 23 28 24 30 25 31 26 32 87 33 27 34 86 35
REMARK SMILES IDX 28 36 29 37 30 38 80 39 31 40 85 41 79 42 81 43 32 44 84 45
REMARK SMILES IDX 78 46 77 47 33 49 65 50 45 51 64 52 46 53 49 54 63 55 82 56
REMARK SMILES IDX 47 57 48 58 62 60 83 61 50 62 34 63 35 64 43 65 36 66 38 67
REMARK SMILES IDX 44 68 37 69 39 70 40 71 41 72 42 73 66 74 67 75 75 76 68 77
REMARK SMILES IDX 70 78 76 79 69 80 71 81 72 82 73 83 74 84 51 85 52 86 60 87
REMARK SMILES IDX 53 88 55 89 61 90 54 91 56 92 57 93 58 94 59 95
REMARK H PARENT 18 5 10 21 22 29 81 48 49 59
REMARK Flexibility Score: inf
ROOT
ATOM      1  C   UNL A   1      31.880  29.650  25.061  1.00  0.00     0.117 C 
ENDROOT
BRANCH   1   2
ATOM      2  N   UNL A   1      30.989  29.424  23.944  1.00  0.00    -0.354 N 
ATOM      3  C   UNL A   1      30.767  28.292  23.220  1.00  0.00     0.249 C 
ATOM      4  O   UNL A   1      29.908  28.351  22.333  1.00  0.00    -0.272 OA
ATOM      5  H   UNL A   1      30.466  30.209  23.664  1.00  0.00     0.163 HD
BRANCH   3   6
ATOM      6  C   UNL A   1      31.592  26.997  23.424  1.00  0.00     0.207 C 
ATOM      7  C   UNL A   1      31.801  25.052  22.114  1.00  0.00     0.138 C 
ATOM      8  C   UNL A   1      30.746  24.754  23.164  1.00  0.00     0.037 C 
ATOM      9  O   UNL A   1      32.221  26.415  22.290  1.00  0.00    -0.363 OA
ATOM     10  C   UNL A   1      30.810  25.908  24.136  1.00  0.00     0.045 C 
BRANCH   7  11
ATOM     11  C   UNL A   1      32.975  24.057  22.137  1.00  0.00     0.149 C 
BRANCH  11  12
ATOM     12  N   UNL A   1      33.971  24.382  23.145  1.00  0.00    -0.335 N 
ATOM     13  C   UNL A   1      33.604  19.674  24.560  1.00  0.00     0.018 C 
ATOM     14  C   UNL A   1      34.957  20.320  24.930  1.00  0.00     0.027 C 
ATOM     15  C   UNL A   1      32.730  20.664  23.769  1.00  0.00     0.027 C 
ATOM     16  C   UNL A   1      34.807  21.717  25.536  1.00  0.00     0.121 C 
ATOM     17  C   UNL A   1      32.644  22.018  24.469  1.00  0.00     0.121 C 
ATOM     18  N   UNL A   1      33.984  22.549  24.660  1.00  0.00    -0.325 N 
ATOM     19  C   UNL A   1      34.511  23.716  24.182  1.00  0.00     0.317 C 
ATOM     20  O   UNL A   1      35.544  24.207  24.651  1.00  0.00    -0.249 OA
ATOM     21  H   UNL A   1      34.331  25.293  23.046  1.00  0.00     0.165 HD
BRANCH  13  22
ATOM     22  C   UNL A   1      32.848  19.144  25.792  1.00  0.00     0.163 C 
BRANCH  22  23
ATOM     23  O   UNL A   1      32.236  17.875  25.567  1.00  0.00    -0.384 OA
ATOM     24  C   UNL A   1      33.020  17.006  24.760  1.00  0.00     0.194 C 
ENDBRANCH  22  23
ENDBRANCH  13  22
ENDBRANCH  11  12
ENDBRANCH   7  11
ENDBRANCH   3   6
ENDBRANCH   1   2
BRANCH   1  25
ATOM     25  C   UNL A   1      31.474  30.866  25.886  1.00  0.00     0.042 C 
BRANCH  25  26
ATOM     26  C   UNL A   1      32.460  31.200  26.999  1.00  0.00     0.118 C 
BRANCH  26  27
ATOM     27  N   UNL A   1      32.662  32.637  27.127  1.00  0.00    -0.352 N 
ATOM     28  C   UNL A   1      33.611  33.348  27.815  1.00  0.00     0.251 C 
ATOM     29  H   UNL A   1      32.010  33.189  26.639  1.00  0.00     0.163 HD
ATOM     30  O   UNL A   1      33.447  34.557  27.964  1.00  0.00    -0.269 OA
BRANCH  28  31
ATOM     31  C   UNL A   1      34.816  32.692  28.373  1.00  0.00     0.039 A 
ATOM     32  C   UNL A   1      34.659  31.482  29.056  1.00  0.00     0.014 A 
ATOM     33  C   UNL A   1      36.078  33.288  28.302  1.00  0.00     0.014 A 
ATOM     34  C   UNL A   1      35.764  30.866  29.648  1.00  0.00     0.010 A 
ATOM     35  C   UNL A   1      37.193  32.630  28.816  1.00  0.00     0.010 A 
ATOM     36  C   UNL A   1      37.043  31.430  29.524  1.00  0.00    -0.014 A 
BRANCH  36  37
ATOM     37  C   UNL A   1      38.223  30.798  30.166  1.00  0.00     0.031 A 
ATOM     38  C   UNL A   1      38.610  31.170  31.574  1.00  0.00     0.074 A 
ATOM     39  C   UNL A   1      38.981  29.933  29.463  1.00  0.00     0.049 A 
ATOM     40  N   UNL A   1      39.612  30.739  32.295  1.00  0.00    -0.248 NA
ATOM     41  C   UNL A   1      37.783  32.184  32.251  1.00  0.00     0.031 C 
ATOM     42  C   UNL A   1      38.759  29.559  28.065  1.00  0.00     0.029 A 
ATOM     43  N   UNL A   1      40.100  29.227  29.823  1.00  0.00    -0.354 N 
ATOM     44  C   UNL A   1      39.559  31.452  33.488  1.00  0.00     0.074 A 
ATOM     45  C   UNL A   1      38.451  32.374  33.379  1.00  0.00     0.031 C 
ATOM     46  C   UNL A   1      39.706  28.684  27.689  1.00  0.00     0.029 A 
ATOM     47  C   UNL A   1      40.612  28.451  28.810  1.00  0.00     0.049 A 
ATOM     48  H   UNL A   1      40.499  29.272  30.721  1.00  0.00     0.167 HD
ATOM     49  C   UNL A   1      40.336  31.326  34.589  1.00  0.00     0.034 A 
ATOM     50  C   UNL A   1      41.686  27.639  28.789  1.00  0.00     0.034 A 
ATOM     51  C   UNL A   1      41.399  30.366  34.715  1.00  0.00     0.049 A 
ATOM     52  C   UNL A   1      42.489  27.463  30.049  1.00  0.00     0.074 A 
ATOM     53  C   UNL A   1      42.184  30.089  35.821  1.00  0.00     0.029 A 
ATOM     54  N   UNL A   1      41.827  29.526  33.700  1.00  0.00    -0.354 N 
ATOM     55  N   UNL A   1      42.318  28.023  31.223  1.00  0.00    -0.248 NA
ATOM     56  C   UNL A   1      43.608  26.511  29.995  1.00  0.00     0.031 C 
ATOM     57  C   UNL A   1      43.098  29.090  35.468  1.00  0.00     0.029 A 
ATOM     58  C   UNL A   1      42.868  28.732  34.149  1.00  0.00     0.049 A 
ATOM     59  H   UNL A   1      41.445  29.497  32.792  1.00  0.00     0.167 HD
ATOM     60  C   UNL A   1      43.285  27.471  32.054  1.00  0.00     0.074 A 
ATOM     61  C   UNL A   1      44.019  26.509  31.256  1.00  0.00     0.031 C 
ATOM     62  C   UNL A   1      43.556  27.746  33.354  1.00  0.00     0.034 A 
BRANCH  49  63
ATOM     63  C   UNL A   1      40.022  32.209  35.771  1.00  0.00     0.023 A 
ATOM     64  C   UNL A   1      40.759  33.395  35.967  1.00  0.00     0.012 A 
ATOM     65  C   UNL A   1      38.974  31.894  36.658  1.00  0.00     0.148 A 
ATOM     66  C   UNL A   1      40.485  34.234  37.047  1.00  0.00     0.002 A 
ATOM     67  C   UNL A   1      38.676  32.758  37.706  1.00  0.00     0.091 A 
ATOM     68  F   UNL A   1      38.297  30.753  36.470  1.00  0.00    -0.205 F 
ATOM     69  C   UNL A   1      39.439  33.921  37.909  1.00  0.00     0.022 A 
BRANCH  67  70
ATOM     70  S   UNL A   1      37.300  32.486  38.827  1.00  0.00     0.127 S 
ATOM     71  O   UNL A   1      36.175  32.991  38.041  1.00  0.00    -0.237 OA
ATOM     72  O   UNL A   1      37.322  31.033  38.996  1.00  0.00    -0.237 OA
ATOM     73  O   UNL A   1      37.609  33.242  40.033  1.00  0.00    -0.744 OA
ENDBRANCH  67  70
ENDBRANCH  49  63
BRANCH  50  74
ATOM     74  C   UNL A   1      42.010  26.866  27.557  1.00  0.00     0.023 A 
ATOM     75  C   UNL A   1      42.537  27.539  26.438  1.00  0.00     0.012 A 
ATOM     76  C   UNL A   1      41.834  25.470  27.498  1.00  0.00     0.148 A 
ATOM     77  C   UNL A   1      42.851  26.843  25.270  1.00  0.00     0.002 A 
ATOM     78  C   UNL A   1      42.201  24.774  26.351  1.00  0.00     0.091 A 
ATOM     79  F   UNL A   1      41.321  24.849  28.569  1.00  0.00    -0.205 F 
ATOM     80  C   UNL A   1      42.693  25.460  25.231  1.00  0.00     0.022 A 
BRANCH  78  81
ATOM     81  S   UNL A   1      42.160  22.980  26.262  1.00  0.00     0.127 S 
ATOM     82  O   UNL A   1      40.731  22.706  26.364  1.00  0.00    -0.237 OA
ATOM     83  O   UNL A   1      42.747  22.727  24.946  1.00  0.00    -0.237 OA
ATOM     84  O   UNL A   1      42.978  22.516  27.377  1.00  0.00    -0.744 OA
ENDBRANCH  78  81
ENDBRANCH  50  74
BRANCH  62  85
ATOM     85  C   UNL A   1      44.682  26.985  34.004  1.00  0.00     0.023 A 
ATOM     86  C   UNL A   1      46.007  27.441  33.856  1.00  0.00     0.012 A 
ATOM     87  C   UNL A   1      44.424  25.857  34.804  1.00  0.00     0.148 A 
ATOM     88  C   UNL A   1      47.063  26.761  34.463  1.00  0.00     0.002 A 
ATOM     89  C   UNL A   1      45.475  25.213  35.446  1.00  0.00     0.091 A 
ATOM     90  F   UNL A   1      43.159  25.425  34.917  1.00  0.00    -0.205 F 
ATOM     91  C   UNL A   1      46.796  25.654  35.266  1.00  0.00     0.022 A 
BRANCH  89  92
ATOM     92  S   UNL A   1      45.210  23.840  36.575  1.00  0.00     0.127 S 
ATOM     93  O   UNL A   1      46.580  23.481  36.935  1.00  0.00    -0.237 OA
ATOM     94  O   UNL A   1      44.441  24.464  37.652  1.00  0.00    -0.237 OA
ATOM     95  O   UNL A   1      44.474  22.839  35.813  1.00  0.00    -0.744 OA
ENDBRANCH  89  92
ENDBRANCH  62  85
ENDBRANCH  36  37
ENDBRANCH  28  31
ENDBRANCH  26  27
ENDBRANCH  25  26
ENDBRANCH   1  25
TORSDOF 17
ENDMDL
