MODEL 1
REMARK VINA RESULT:     -11.8      0.000      0.000
REMARK SMILES CCc1ccsc1CNC(=O)N1[C@H]2CC[C@@H]1[C@H](C(=O)NCCCNC(=O)c1ccc(-c3c4nc(c(-c5cccc(S(=O)(=O)[O-])c5F)c5ccc([nH]5)c(-c5cccc(S(=O)(=O)[O-])c5F)c5nc(c(-c6cccc(S(=O)(=O)[O-])c6F)c6ccc3[nH]6)C=C5)C=C4)cc1)C2
REMARK SMILES IDX 21 1 20 2 18 3 19 4 17 6 12 7 13 8 16 9 14 10 90 11 15 12
REMARK SMILES IDX 10 13 9 14 11 16 8 17 7 18 3 19 4 20 5 21 6 22 2 23 1 24
REMARK SMILES IDX 22 25 23 26 24 27 25 28 26 30 27 31 28 32 89 33 29 34 88 35
REMARK SMILES IDX 30 36 31 37 32 38 82 39 33 40 87 41 81 42 83 43 34 44 86 45
REMARK SMILES IDX 80 46 79 47 35 49 67 50 47 51 66 52 48 53 51 54 65 55 84 56
REMARK SMILES IDX 49 57 50 58 64 60 85 61 52 62 36 63 37 64 45 65 38 66 40 67
REMARK SMILES IDX 46 68 39 69 41 70 42 71 43 72 44 73 68 74 69 75 77 76 70 77
REMARK SMILES IDX 72 78 78 79 71 80 73 81 74 82 75 83 76 84 53 85 54 86 62 87
REMARK SMILES IDX 55 88 57 89 63 90 56 91 58 92 59 93 60 94 61 95
REMARK H PARENT 20 5 9 15 24 29 83 48 51 59
REMARK Flexibility Score: inf
ROOT
ATOM      1  C   UNL A   1      32.083  27.844  26.946  1.00  0.00     0.117 C 
ENDROOT
BRANCH   1   2
ATOM      2  N   UNL A   1      31.085  26.794  26.892  1.00  0.00    -0.356 N 
ATOM      3  C   UNL A   1      30.935  25.684  26.134  1.00  0.00     0.225 C 
ATOM      4  O   UNL A   1      29.873  25.069  26.300  1.00  0.00    -0.275 OA
ATOM      5  H   UNL A   1      30.362  26.915  27.548  1.00  0.00     0.163 HD
BRANCH   3   6
ATOM      6  C   UNL A   1      31.933  25.154  25.123  1.00  0.00     0.103 C 
ATOM      7  N   UNL A   1      32.816  24.894  23.045  1.00  0.00    -0.318 N 
ATOM      8  C   UNL A   1      33.716  25.840  23.672  1.00  0.00     0.088 C 
ATOM      9  C   UNL A   1      31.558  25.320  23.632  1.00  0.00     0.099 C 
ATOM     10  C   UNL A   1      33.049  27.165  23.259  1.00  0.00     0.027 C 
ATOM     11  C   UNL A   1      33.435  25.524  25.152  1.00  0.00     0.040 C 
ATOM     12  C   UNL A   1      31.554  26.785  23.192  1.00  0.00     0.028 C 
BRANCH   7  13
ATOM     13  C   UNL A   1      32.950  24.138  21.935  1.00  0.00     0.318 C 
ATOM     14  N   UNL A   1      32.817  22.795  22.051  1.00  0.00    -0.333 N 
ATOM     15  H   UNL A   1      33.219  22.254  21.333  1.00  0.00     0.165 HD
ATOM     16  O   UNL A   1      33.136  24.618  20.819  1.00  0.00    -0.249 OA
BRANCH  14  17
ATOM     17  C   UNL A   1      32.155  22.063  23.105  1.00  0.00     0.165 C 
BRANCH  17  18
ATOM     18  C   UNL A   1      33.083  21.070  23.744  1.00  0.00     0.027 A 
ATOM     19  C   UNL A   1      34.303  21.236  24.396  1.00  0.00    -0.033 A 
ATOM     20  C   UNL A   1      34.766  19.970  24.916  1.00  0.00     0.016 A 
ATOM     21  C   UNL A   1      33.909  18.926  24.676  1.00  0.00     0.065 A 
ATOM     22  S   UNL A   1      32.531  19.431  23.829  1.00  0.00    -0.147 S 
BRANCH  19  23
ATOM     23  C   UNL A   1      35.140  22.476  24.618  1.00  0.00     0.033 C 
ATOM     24  C   UNL A   1      36.184  22.851  23.587  1.00  0.00     0.009 C 
ENDBRANCH  19  23
ENDBRANCH  17  18
ENDBRANCH  14  17
ENDBRANCH   7  13
ENDBRANCH   3   6
ENDBRANCH   1   2
BRANCH   1  25
ATOM     25  C   UNL A   1      31.709  29.023  26.062  1.00  0.00     0.042 C 
BRANCH  25  26
ATOM     26  C   UNL A   1      32.887  29.921  25.747  1.00  0.00     0.118 C 
BRANCH  26  27
ATOM     27  N   UNL A   1      32.637  31.302  26.132  1.00  0.00    -0.352 N 
ATOM     28  C   UNL A   1      33.219  32.060  27.120  1.00  0.00     0.251 C 
ATOM     29  H   UNL A   1      31.946  31.764  25.604  1.00  0.00     0.163 HD
ATOM     30  O   UNL A   1      32.709  33.137  27.423  1.00  0.00    -0.269 OA
BRANCH  28  31
ATOM     31  C   UNL A   1      34.435  31.589  27.825  1.00  0.00     0.039 A 
ATOM     32  C   UNL A   1      35.500  32.475  28.011  1.00  0.00     0.014 A 
ATOM     33  C   UNL A   1      34.549  30.271  28.274  1.00  0.00     0.014 A 
ATOM     34  C   UNL A   1      36.653  32.050  28.678  1.00  0.00     0.010 A 
ATOM     35  C   UNL A   1      35.640  29.887  29.044  1.00  0.00     0.010 A 
ATOM     36  C   UNL A   1      36.723  30.756  29.219  1.00  0.00    -0.014 A 
BRANCH  36  37
ATOM     37  C   UNL A   1      37.941  30.261  29.910  1.00  0.00     0.031 A 
ATOM     38  C   UNL A   1      38.238  30.714  31.318  1.00  0.00     0.074 A 
ATOM     39  C   UNL A   1      38.819  29.477  29.254  1.00  0.00     0.049 A 
ATOM     40  N   UNL A   1      39.277  30.455  32.068  1.00  0.00    -0.248 NA
ATOM     41  C   UNL A   1      37.256  31.612  31.954  1.00  0.00     0.031 C 
ATOM     42  C   UNL A   1      38.695  29.047  27.859  1.00  0.00     0.029 A 
ATOM     43  N   UNL A   1      40.001  28.919  29.668  1.00  0.00    -0.354 N 
ATOM     44  C   UNL A   1      39.100  31.197  33.231  1.00  0.00     0.074 A 
ATOM     45  C   UNL A   1      37.879  31.952  33.072  1.00  0.00     0.031 C 
ATOM     46  C   UNL A   1      39.749  28.278  27.541  1.00  0.00     0.029 A 
ATOM     47  C   UNL A   1      40.633  28.177  28.697  1.00  0.00     0.049 A 
ATOM     48  H   UNL A   1      40.366  29.040  30.575  1.00  0.00     0.167 HD
ATOM     49  C   UNL A   1      39.858  31.216  34.352  1.00  0.00     0.034 A 
ATOM     50  C   UNL A   1      41.788  27.485  28.741  1.00  0.00     0.034 A 
ATOM     51  C   UNL A   1      41.019  30.393  34.543  1.00  0.00     0.049 A 
ATOM     52  C   UNL A   1      42.559  27.438  30.033  1.00  0.00     0.074 A 
ATOM     53  C   UNL A   1      41.799  30.251  35.677  1.00  0.00     0.029 A 
ATOM     54  N   UNL A   1      41.558  29.557  33.577  1.00  0.00    -0.354 N 
ATOM     55  N   UNL A   1      42.289  28.020  31.177  1.00  0.00    -0.248 NA
ATOM     56  C   UNL A   1      43.773  26.609  30.055  1.00  0.00     0.031 C 
ATOM     57  C   UNL A   1      42.809  29.325  35.396  1.00  0.00     0.029 A 
ATOM     58  C   UNL A   1      42.655  28.889  34.089  1.00  0.00     0.049 A 
ATOM     59  H   UNL A   1      41.210  29.455  32.661  1.00  0.00     0.167 HD
ATOM     60  C   UNL A   1      43.273  27.600  32.062  1.00  0.00     0.074 A 
ATOM     61  C   UNL A   1      44.138  26.698  31.327  1.00  0.00     0.031 C 
ATOM     62  C   UNL A   1      43.460  27.943  33.360  1.00  0.00     0.034 A 
BRANCH  49  63
ATOM     63  C   UNL A   1      39.402  32.092  35.489  1.00  0.00     0.023 A 
ATOM     64  C   UNL A   1      38.507  31.570  36.446  1.00  0.00     0.012 A 
ATOM     65  C   UNL A   1      39.879  33.408  35.638  1.00  0.00     0.148 A 
ATOM     66  C   UNL A   1      38.063  32.355  37.509  1.00  0.00     0.002 A 
ATOM     67  C   UNL A   1      39.465  34.170  36.725  1.00  0.00     0.091 A 
ATOM     68  F   UNL A   1      40.709  33.899  34.706  1.00  0.00    -0.205 F 
ATOM     69  C   UNL A   1      38.549  33.651  37.653  1.00  0.00     0.022 A 
BRANCH  67  70
ATOM     70  S   UNL A   1      40.095  35.824  37.038  1.00  0.00     0.127 S 
ATOM     71  O   UNL A   1      39.706  36.525  35.816  1.00  0.00    -0.237 OA
ATOM     72  O   UNL A   1      39.346  36.221  38.233  1.00  0.00    -0.237 OA
ATOM     73  O   UNL A   1      41.527  35.670  37.249  1.00  0.00    -0.744 OA
ENDBRANCH  67  70
ENDBRANCH  49  63
BRANCH  50  74
ATOM     74  C   UNL A   1      42.219  26.688  27.558  1.00  0.00     0.023 A 
ATOM     75  C   UNL A   1      42.952  27.324  26.536  1.00  0.00     0.012 A 
ATOM     76  C   UNL A   1      41.953  25.310  27.455  1.00  0.00     0.148 A 
ATOM     77  C   UNL A   1      43.390  26.608  25.422  1.00  0.00     0.002 A 
ATOM     78  C   UNL A   1      42.437  24.592  26.366  1.00  0.00     0.091 A 
ATOM     79  F   UNL A   1      41.242  24.725  28.429  1.00  0.00    -0.205 F 
ATOM     80  C   UNL A   1      43.144  25.241  25.342  1.00  0.00     0.022 A 
BRANCH  78  81
ATOM     81  S   UNL A   1      42.279  22.805  26.250  1.00  0.00     0.127 S 
ATOM     82  O   UNL A   1      40.832  22.628  26.307  1.00  0.00    -0.237 OA
ATOM     83  O   UNL A   1      42.884  22.528  24.947  1.00  0.00    -0.237 OA
ATOM     84  O   UNL A   1      43.033  22.277  27.380  1.00  0.00    -0.744 OA
ENDBRANCH  78  81
ENDBRANCH  50  74
BRANCH  62  85
ATOM     85  C   UNL A   1      44.621  27.324  34.088  1.00  0.00     0.023 A 
ATOM     86  C   UNL A   1      45.891  27.927  34.007  1.00  0.00     0.012 A 
ATOM     87  C   UNL A   1      44.435  26.203  34.920  1.00  0.00     0.148 A 
ATOM     88  C   UNL A   1      46.966  27.409  34.728  1.00  0.00     0.002 A 
ATOM     89  C   UNL A   1      45.502  25.718  35.668  1.00  0.00     0.091 A 
ATOM     90  F   UNL A   1      43.223  25.632  34.965  1.00  0.00    -0.205 F 
ATOM     91  C   UNL A   1      46.769  26.314  35.567  1.00  0.00     0.022 A 
BRANCH  89  92
ATOM     92  S   UNL A   1      45.310  24.372  36.841  1.00  0.00     0.127 S 
ATOM     93  O   UNL A   1      44.163  24.822  37.627  1.00  0.00    -0.237 OA
ATOM     94  O   UNL A   1      45.040  23.229  35.968  1.00  0.00    -0.237 OA
ATOM     95  O   UNL A   1      46.575  24.290  37.561  1.00  0.00    -0.744 OA
ENDBRANCH  89  92
ENDBRANCH  62  85
ENDBRANCH  36  37
ENDBRANCH  28  31
ENDBRANCH  26  27
ENDBRANCH  25  26
ENDBRANCH   1  25
TORSDOF 17
ENDMDL
MODEL 2
REMARK VINA RESULT:     -11.8      2.547      8.016
REMARK SMILES CCc1ccsc1CNC(=O)N1[C@H]2CC[C@@H]1[C@H](C(=O)NCCCNC(=O)c1ccc(-c3c4nc(c(-c5cccc(S(=O)(=O)[O-])c5F)c5ccc([nH]5)c(-c5cccc(S(=O)(=O)[O-])c5F)c5nc(c(-c6cccc(S(=O)(=O)[O-])c6F)c6ccc3[nH]6)C=C5)C=C4)cc1)C2
REMARK SMILES IDX 21 1 20 2 18 3 19 4 17 6 12 7 13 8 16 9 14 10 90 11 15 12
REMARK SMILES IDX 10 13 9 14 11 16 8 17 7 18 3 19 4 20 5 21 6 22 2 23 1 24
REMARK SMILES IDX 22 25 23 26 24 27 25 28 26 30 27 31 28 32 89 33 29 34 88 35
REMARK SMILES IDX 30 36 31 37 32 38 82 39 33 40 87 41 81 42 83 43 34 44 86 45
REMARK SMILES IDX 80 46 79 47 35 49 67 50 47 51 66 52 48 53 51 54 65 55 84 56
REMARK SMILES IDX 49 57 50 58 64 60 85 61 52 62 36 63 37 64 45 65 38 66 40 67
REMARK SMILES IDX 46 68 39 69 41 70 42 71 43 72 44 73 68 74 69 75 77 76 70 77
REMARK SMILES IDX 72 78 78 79 71 80 73 81 74 82 75 83 76 84 53 85 54 86 62 87
REMARK SMILES IDX 55 88 57 89 63 90 56 91 58 92 59 93 60 94 61 95
REMARK H PARENT 20 5 9 15 24 29 83 48 51 59
REMARK Flexibility Score: inf
ROOT
ATOM      1  C   UNL A   1      31.580  30.820  25.821  1.00  0.00     0.117 C 
ENDROOT
BRANCH   1   2
ATOM      2  N   UNL A   1      30.567  30.686  24.792  1.00  0.00    -0.356 N 
ATOM      3  C   UNL A   1      30.275  29.725  23.885  1.00  0.00     0.225 C 
ATOM      4  O   UNL A   1      29.385  30.015  23.075  1.00  0.00    -0.275 OA
ATOM      5  H   UNL A   1      29.962  31.461  24.742  1.00  0.00     0.163 HD
BRANCH   3   6
ATOM      6  C   UNL A   1      30.937  28.365  23.785  1.00  0.00     0.103 C 
ATOM      7  N   UNL A   1      32.471  26.875  23.015  1.00  0.00    -0.318 N 
ATOM      8  C   UNL A   1      32.947  27.182  24.349  1.00  0.00     0.088 C 
ATOM      9  C   UNL A   1      31.948  28.174  22.631  1.00  0.00     0.099 C 
ATOM     10  C   UNL A   1      33.886  28.361  24.036  1.00  0.00     0.027 C 
ATOM     11  C   UNL A   1      31.636  27.680  24.984  1.00  0.00     0.040 C 
ATOM     12  C   UNL A   1      33.209  29.020  22.816  1.00  0.00     0.028 C 
BRANCH   7  13
ATOM     13  C   UNL A   1      32.778  25.869  22.169  1.00  0.00     0.318 C 
ATOM     14  N   UNL A   1      32.188  24.665  22.360  1.00  0.00    -0.333 N 
ATOM     15  H   UNL A   1      32.642  23.889  21.958  1.00  0.00     0.165 HD
ATOM     16  O   UNL A   1      33.528  26.012  21.207  1.00  0.00    -0.249 OA
BRANCH  14  17
ATOM     17  C   UNL A   1      30.970  24.385  23.084  1.00  0.00     0.165 C 
BRANCH  17  18
ATOM     18  C   UNL A   1      31.247  23.585  24.324  1.00  0.00     0.027 A 
ATOM     19  C   UNL A   1      31.981  22.418  24.524  1.00  0.00    -0.033 A 
ATOM     20  C   UNL A   1      32.020  22.089  25.931  1.00  0.00     0.016 A 
ATOM     21  C   UNL A   1      31.363  22.990  26.729  1.00  0.00     0.065 A 
ATOM     22  S   UNL A   1      30.689  24.253  25.821  1.00  0.00    -0.147 S 
BRANCH  19  23
ATOM     23  C   UNL A   1      32.692  21.520  23.536  1.00  0.00     0.033 C 
ATOM     24  C   UNL A   1      31.920  20.972  22.355  1.00  0.00     0.009 C 
ENDBRANCH  19  23
ENDBRANCH  17  18
ENDBRANCH  14  17
ENDBRANCH   7  13
ENDBRANCH   3   6
ENDBRANCH   1   2
BRANCH   1  25
ATOM     25  C   UNL A   1      31.376  32.075  26.652  1.00  0.00     0.042 C 
BRANCH  25  26
ATOM     26  C   UNL A   1      32.663  32.603  27.251  1.00  0.00     0.118 C 
BRANCH  26  27
ATOM     27  N   UNL A   1      32.552  34.001  27.635  1.00  0.00    -0.352 N 
ATOM     28  C   UNL A   1      33.188  34.693  28.638  1.00  0.00     0.251 C 
ATOM     29  H   UNL A   1      31.927  34.534  27.093  1.00  0.00     0.163 HD
ATOM     30  O   UNL A   1      32.788  35.818  28.932  1.00  0.00    -0.269 OA
BRANCH  28  31
ATOM     31  C   UNL A   1      34.331  34.095  29.369  1.00  0.00     0.039 A 
ATOM     32  C   UNL A   1      35.632  34.470  29.021  1.00  0.00     0.014 A 
ATOM     33  C   UNL A   1      34.133  33.143  30.371  1.00  0.00     0.014 A 
ATOM     34  C   UNL A   1      36.722  33.920  29.703  1.00  0.00     0.010 A 
ATOM     35  C   UNL A   1      35.206  32.692  31.129  1.00  0.00     0.010 A 
ATOM     36  C   UNL A   1      36.516  33.041  30.778  1.00  0.00    -0.014 A 
BRANCH  36  37
ATOM     37  C   UNL A   1      37.650  32.417  31.508  1.00  0.00     0.031 A 
ATOM     38  C   UNL A   1      38.419  31.288  30.869  1.00  0.00     0.074 A 
ATOM     39  C   UNL A   1      37.936  32.801  32.768  1.00  0.00     0.049 A 
ATOM     40  N   UNL A   1      39.391  30.566  31.363  1.00  0.00    -0.248 NA
ATOM     41  C   UNL A   1      38.016  30.888  29.508  1.00  0.00     0.031 C 
ATOM     42  C   UNL A   1      37.205  33.815  33.532  1.00  0.00     0.029 A 
ATOM     43  N   UNL A   1      38.906  32.368  33.635  1.00  0.00    -0.354 N 
ATOM     44  C   UNL A   1      39.673  29.602  30.403  1.00  0.00     0.074 A 
ATOM     45  C   UNL A   1      38.743  29.798  29.316  1.00  0.00     0.031 C 
ATOM     46  C   UNL A   1      37.766  33.938  34.747  1.00  0.00     0.029 A 
ATOM     47  C   UNL A   1      38.878  33.001  34.856  1.00  0.00     0.049 A 
ATOM     48  H   UNL A   1      39.560  31.669  33.406  1.00  0.00     0.167 HD
ATOM     49  C   UNL A   1      40.650  28.663  30.400  1.00  0.00     0.034 A 
ATOM     50  C   UNL A   1      39.670  32.848  35.936  1.00  0.00     0.034 A 
ATOM     51  C   UNL A   1      41.632  28.532  31.438  1.00  0.00     0.049 A 
ATOM     52  C   UNL A   1      40.812  31.870  35.868  1.00  0.00     0.074 A 
ATOM     53  C   UNL A   1      42.728  27.690  31.487  1.00  0.00     0.029 A 
ATOM     54  N   UNL A   1      41.645  29.278  32.607  1.00  0.00    -0.354 N 
ATOM     55  N   UNL A   1      41.162  31.077  34.884  1.00  0.00    -0.248 NA
ATOM     56  C   UNL A   1      41.694  31.794  37.042  1.00  0.00     0.031 C 
ATOM     57  C   UNL A   1      43.407  27.930  32.686  1.00  0.00     0.029 A 
ATOM     58  C   UNL A   1      42.735  28.923  33.381  1.00  0.00     0.049 A 
ATOM     59  H   UNL A   1      40.977  29.959  32.849  1.00  0.00     0.167 HD
ATOM     60  C   UNL A   1      42.320  30.436  35.303  1.00  0.00     0.074 A 
ATOM     61  C   UNL A   1      42.626  30.947  36.624  1.00  0.00     0.031 C 
ATOM     62  C   UNL A   1      43.057  29.495  34.663  1.00  0.00     0.034 A 
BRANCH  49  63
ATOM     63  C   UNL A   1      40.751  27.765  29.194  1.00  0.00     0.023 A 
ATOM     64  C   UNL A   1      39.942  26.613  29.123  1.00  0.00     0.012 A 
ATOM     65  C   UNL A   1      41.608  28.073  28.121  1.00  0.00     0.148 A 
ATOM     66  C   UNL A   1      40.012  25.759  28.023  1.00  0.00     0.002 A 
ATOM     67  C   UNL A   1      41.641  27.240  27.007  1.00  0.00     0.091 A 
ATOM     68  F   UNL A   1      42.391  29.158  28.215  1.00  0.00    -0.205 F 
ATOM     69  C   UNL A   1      40.854  26.079  26.962  1.00  0.00     0.022 A 
BRANCH  67  70
ATOM     70  S   UNL A   1      42.638  27.608  25.558  1.00  0.00     0.127 S 
ATOM     71  O   UNL A   1      43.974  27.724  26.139  1.00  0.00    -0.237 OA
ATOM     72  O   UNL A   1      42.435  26.417  24.730  1.00  0.00    -0.237 OA
ATOM     73  O   UNL A   1      42.086  28.832  24.996  1.00  0.00    -0.744 OA
ENDBRANCH  67  70
ENDBRANCH  49  63
BRANCH  50  74
ATOM     74  C   UNL A   1      39.476  33.725  37.125  1.00  0.00     0.023 A 
ATOM     75  C   UNL A   1      39.914  35.063  37.067  1.00  0.00     0.012 A 
ATOM     76  C   UNL A   1      38.826  33.265  38.286  1.00  0.00     0.148 A 
ATOM     77  C   UNL A   1      39.732  35.920  38.153  1.00  0.00     0.002 A 
ATOM     78  C   UNL A   1      38.603  34.140  39.345  1.00  0.00     0.091 A 
ATOM     79  F   UNL A   1      38.429  31.987  38.330  1.00  0.00    -0.205 F 
ATOM     80  C   UNL A   1      39.067  35.464  39.286  1.00  0.00     0.022 A 
BRANCH  78  81
ATOM     81  S   UNL A   1      37.638  33.672  40.788  1.00  0.00     0.127 S 
ATOM     82  O   UNL A   1      38.537  32.739  41.459  1.00  0.00    -0.237 OA
ATOM     83  O   UNL A   1      37.462  34.956  41.468  1.00  0.00    -0.237 OA
ATOM     84  O   UNL A   1      36.405  33.104  40.259  1.00  0.00    -0.744 OA
ENDBRANCH  78  81
ENDBRANCH  50  74
BRANCH  62  85
ATOM     85  C   UNL A   1      44.283  28.972  35.360  1.00  0.00     0.023 A 
ATOM     86  C   UNL A   1      45.532  29.576  35.112  1.00  0.00     0.012 A 
ATOM     87  C   UNL A   1      44.184  27.949  36.323  1.00  0.00     0.148 A 
ATOM     88  C   UNL A   1      46.669  29.151  35.797  1.00  0.00     0.002 A 
ATOM     89  C   UNL A   1      45.315  27.562  37.032  1.00  0.00     0.091 A 
ATOM     90  F   UNL A   1      42.990  27.375  36.527  1.00  0.00    -0.205 F 
ATOM     91  C   UNL A   1      46.559  28.155  36.765  1.00  0.00     0.022 A 
BRANCH  89  92
ATOM     92  S   UNL A   1      45.241  26.352  38.358  1.00  0.00     0.127 S 
ATOM     93  O   UNL A   1      44.825  25.148  37.642  1.00  0.00    -0.237 OA
ATOM     94  O   UNL A   1      46.622  26.329  38.841  1.00  0.00    -0.237 OA
ATOM     95  O   UNL A   1      44.280  26.878  39.320  1.00  0.00    -0.744 OA
ENDBRANCH  89  92
ENDBRANCH  62  85
ENDBRANCH  36  37
ENDBRANCH  28  31
ENDBRANCH  26  27
ENDBRANCH  25  26
ENDBRANCH   1  25
TORSDOF 17
ENDMDL
MODEL 3
REMARK VINA RESULT:     -11.6      1.599      2.337
REMARK SMILES CCc1ccsc1CNC(=O)N1[C@H]2CC[C@@H]1[C@H](C(=O)NCCCNC(=O)c1ccc(-c3c4nc(c(-c5cccc(S(=O)(=O)[O-])c5F)c5ccc([nH]5)c(-c5cccc(S(=O)(=O)[O-])c5F)c5nc(c(-c6cccc(S(=O)(=O)[O-])c6F)c6ccc3[nH]6)C=C5)C=C4)cc1)C2
REMARK SMILES IDX 21 1 20 2 18 3 19 4 17 6 12 7 13 8 16 9 14 10 90 11 15 12
REMARK SMILES IDX 10 13 9 14 11 16 8 17 7 18 3 19 4 20 5 21 6 22 2 23 1 24
REMARK SMILES IDX 22 25 23 26 24 27 25 28 26 30 27 31 28 32 89 33 29 34 88 35
REMARK SMILES IDX 30 36 31 37 32 38 82 39 33 40 87 41 81 42 83 43 34 44 86 45
REMARK SMILES IDX 80 46 79 47 35 49 67 50 47 51 66 52 48 53 51 54 65 55 84 56
REMARK SMILES IDX 49 57 50 58 64 60 85 61 52 62 36 63 37 64 45 65 38 66 40 67
REMARK SMILES IDX 46 68 39 69 41 70 42 71 43 72 44 73 68 74 69 75 77 76 70 77
REMARK SMILES IDX 72 78 78 79 71 80 73 81 74 82 75 83 76 84 53 85 54 86 62 87
REMARK SMILES IDX 55 88 57 89 63 90 56 91 58 92 59 93 60 94 61 95
REMARK H PARENT 20 5 9 15 24 29 83 48 51 59
REMARK Flexibility Score: inf
ROOT
ATOM      1  C   UNL A   1      32.375  28.139  23.570  1.00  0.00     0.117 C 
ENDROOT
BRANCH   1   2
ATOM      2  N   UNL A   1      33.069  27.108  22.824  1.00  0.00    -0.356 N 
ATOM      3  C   UNL A   1      33.127  25.760  22.921  1.00  0.00     0.225 C 
ATOM      4  O   UNL A   1      33.932  25.208  22.160  1.00  0.00    -0.275 OA
ATOM      5  H   UNL A   1      33.616  27.466  22.088  1.00  0.00     0.163 HD
BRANCH   3   6
ATOM      6  C   UNL A   1      32.310  24.900  23.865  1.00  0.00     0.103 C 
ATOM      7  N   UNL A   1      31.828  23.917  25.857  1.00  0.00    -0.318 N 
ATOM      8  C   UNL A   1      30.886  25.016  25.793  1.00  0.00     0.088 C 
ATOM      9  C   UNL A   1      32.974  24.533  25.212  1.00  0.00     0.099 C 
ATOM     10  C   UNL A   1      31.703  26.115  26.495  1.00  0.00     0.027 C 
ATOM     11  C   UNL A   1      30.856  25.244  24.270  1.00  0.00     0.040 C 
ATOM     12  C   UNL A   1      33.155  25.748  26.122  1.00  0.00     0.028 C 
BRANCH   7  13
ATOM     13  C   UNL A   1      31.861  22.817  26.639  1.00  0.00     0.318 C 
ATOM     14  N   UNL A   1      31.808  21.602  26.042  1.00  0.00    -0.333 N 
ATOM     15  H   UNL A   1      31.519  20.851  26.610  1.00  0.00     0.165 HD
ATOM     16  O   UNL A   1      31.990  22.870  27.859  1.00  0.00    -0.249 OA
BRANCH  14  17
ATOM     17  C   UNL A   1      32.124  21.278  24.671  1.00  0.00     0.165 C 
BRANCH  17  18
ATOM     18  C   UNL A   1      33.122  20.159  24.594  1.00  0.00     0.027 A 
ATOM     19  C   UNL A   1      34.509  20.150  24.724  1.00  0.00    -0.033 A 
ATOM     20  C   UNL A   1      35.007  18.795  24.655  1.00  0.00     0.016 A 
ATOM     21  C   UNL A   1      34.023  17.850  24.504  1.00  0.00     0.065 A 
ATOM     22  S   UNL A   1      32.484  18.556  24.448  1.00  0.00    -0.147 S 
BRANCH  19  23
ATOM     23  C   UNL A   1      35.488  21.286  24.919  1.00  0.00     0.033 C 
ATOM     24  C   UNL A   1      36.962  20.968  25.060  1.00  0.00     0.009 C 
ENDBRANCH  19  23
ENDBRANCH  17  18
ENDBRANCH  14  17
ENDBRANCH   7  13
ENDBRANCH   3   6
ENDBRANCH   1   2
BRANCH   1  25
ATOM     25  C   UNL A   1      33.329  29.205  24.080  1.00  0.00     0.042 C 
BRANCH  25  26
ATOM     26  C   UNL A   1      33.380  29.279  25.592  1.00  0.00     0.118 C 
BRANCH  26  27
ATOM     27  N   UNL A   1      33.021  30.600  26.085  1.00  0.00    -0.352 N 
ATOM     28  C   UNL A   1      33.544  31.323  27.130  1.00  0.00     0.251 C 
ATOM     29  H   UNL A   1      32.291  31.044  25.595  1.00  0.00     0.163 HD
ATOM     30  O   UNL A   1      32.950  32.327  27.517  1.00  0.00    -0.269 OA
BRANCH  28  31
ATOM     31  C   UNL A   1      34.799  30.898  27.797  1.00  0.00     0.039 A 
ATOM     32  C   UNL A   1      35.905  31.753  27.771  1.00  0.00     0.014 A 
ATOM     33  C   UNL A   1      34.906  29.651  28.416  1.00  0.00     0.014 A 
ATOM     34  C   UNL A   1      37.095  31.372  28.398  1.00  0.00     0.010 A 
ATOM     35  C   UNL A   1      36.044  29.328  29.143  1.00  0.00     0.010 A 
ATOM     36  C   UNL A   1      37.168  30.163  29.108  1.00  0.00    -0.014 A 
BRANCH  36  37
ATOM     37  C   UNL A   1      38.422  29.713  29.764  1.00  0.00     0.031 A 
ATOM     38  C   UNL A   1      38.801  30.269  31.114  1.00  0.00     0.074 A 
ATOM     39  C   UNL A   1      39.259  28.876  29.119  1.00  0.00     0.049 A 
ATOM     40  N   UNL A   1      39.881  30.060  31.820  1.00  0.00    -0.248 NA
ATOM     41  C   UNL A   1      37.860  31.219  31.735  1.00  0.00     0.031 C 
ATOM     42  C   UNL A   1      39.053  28.342  27.771  1.00  0.00     0.029 A 
ATOM     43  N   UNL A   1      40.462  28.342  29.506  1.00  0.00    -0.354 N 
ATOM     44  C   UNL A   1      39.774  30.888  32.932  1.00  0.00     0.074 A 
ATOM     45  C   UNL A   1      38.547  31.638  32.787  1.00  0.00     0.031 C 
ATOM     46  C   UNL A   1      40.085  27.544  27.451  1.00  0.00     0.029 A 
ATOM     47  C   UNL A   1      41.034  27.525  28.559  1.00  0.00     0.049 A 
ATOM     48  H   UNL A   1      40.878  28.529  30.378  1.00  0.00     0.167 HD
ATOM     49  C   UNL A   1      40.596  30.986  34.003  1.00  0.00     0.034 A 
ATOM     50  C   UNL A   1      42.188  26.830  28.589  1.00  0.00     0.034 A 
ATOM     51  C   UNL A   1      41.764  30.172  34.189  1.00  0.00     0.049 A 
ATOM     52  C   UNL A   1      43.033  26.875  29.834  1.00  0.00     0.074 A 
ATOM     53  C   UNL A   1      42.607  30.111  35.283  1.00  0.00     0.029 A 
ATOM     54  N   UNL A   1      42.244  29.263  33.259  1.00  0.00    -0.354 N 
ATOM     55  N   UNL A   1      42.830  27.544  30.944  1.00  0.00    -0.248 NA
ATOM     56  C   UNL A   1      44.243  26.042  29.849  1.00  0.00     0.031 C 
ATOM     57  C   UNL A   1      43.597  29.160  35.016  1.00  0.00     0.029 A 
ATOM     58  C   UNL A   1      43.367  28.628  33.757  1.00  0.00     0.049 A 
ATOM     59  H   UNL A   1      41.843  29.094  32.375  1.00  0.00     0.167 HD
ATOM     60  C   UNL A   1      43.863  27.185  31.800  1.00  0.00     0.074 A 
ATOM     61  C   UNL A   1      44.681  26.224  31.088  1.00  0.00     0.031 C 
ATOM     62  C   UNL A   1      44.126  27.624  33.056  1.00  0.00     0.034 A 
BRANCH  49  63
ATOM     63  C   UNL A   1      40.208  31.950  35.095  1.00  0.00     0.023 A 
ATOM     64  C   UNL A   1      40.848  33.204  35.167  1.00  0.00     0.012 A 
ATOM     65  C   UNL A   1      39.193  31.640  36.020  1.00  0.00     0.148 A 
ATOM     66  C   UNL A   1      40.515  34.118  36.165  1.00  0.00     0.002 A 
ATOM     67  C   UNL A   1      38.836  32.573  36.986  1.00  0.00     0.091 A 
ATOM     68  F   UNL A   1      38.612  30.432  35.954  1.00  0.00    -0.205 F 
ATOM     69  C   UNL A   1      39.502  33.806  37.068  1.00  0.00     0.022 A 
BRANCH  67  70
ATOM     70  S   UNL A   1      37.492  32.294  38.147  1.00  0.00     0.127 S 
ATOM     71  O   UNL A   1      36.383  32.979  37.485  1.00  0.00    -0.237 OA
ATOM     72  O   UNL A   1      37.388  30.833  38.156  1.00  0.00    -0.237 OA
ATOM     73  O   UNL A   1      37.930  32.875  39.408  1.00  0.00    -0.744 OA
ENDBRANCH  67  70
ENDBRANCH  49  63
BRANCH  50  74
ATOM     74  C   UNL A   1      42.548  25.943  27.447  1.00  0.00     0.023 A 
ATOM     75  C   UNL A   1      43.379  26.446  26.426  1.00  0.00     0.012 A 
ATOM     76  C   UNL A   1      42.117  24.605  27.383  1.00  0.00     0.148 A 
ATOM     77  C   UNL A   1      43.754  25.641  25.350  1.00  0.00     0.002 A 
ATOM     78  C   UNL A   1      42.537  23.793  26.334  1.00  0.00     0.091 A 
ATOM     79  F   UNL A   1      41.316  24.147  28.354  1.00  0.00    -0.205 F 
ATOM     80  C   UNL A   1      43.344  24.313  25.309  1.00  0.00     0.022 A 
BRANCH  78  81
ATOM     81  S   UNL A   1      42.164  22.035  26.274  1.00  0.00     0.127 S 
ATOM     82  O   UNL A   1      42.523  21.606  27.621  1.00  0.00    -0.237 OA
ATOM     83  O   UNL A   1      40.728  22.037  25.989  1.00  0.00    -0.237 OA
ATOM     84  O   UNL A   1      42.984  21.504  25.192  1.00  0.00    -0.744 OA
ENDBRANCH  78  81
ENDBRANCH  50  74
BRANCH  62  85
ATOM     85  C   UNL A   1      45.325  27.053  33.760  1.00  0.00     0.023 A 
ATOM     86  C   UNL A   1      46.561  27.724  33.679  1.00  0.00     0.012 A 
ATOM     87  C   UNL A   1      45.208  25.909  34.573  1.00  0.00     0.148 A 
ATOM     88  C   UNL A   1      47.670  27.250  34.379  1.00  0.00     0.002 A 
ATOM     89  C   UNL A   1      46.306  25.467  35.302  1.00  0.00     0.091 A 
ATOM     90  F   UNL A   1      44.028  25.274  34.619  1.00  0.00    -0.205 F 
ATOM     91  C   UNL A   1      47.539  26.131  35.199  1.00  0.00     0.022 A 
BRANCH  89  92
ATOM     92  S   UNL A   1      46.198  24.091  36.451  1.00  0.00     0.127 S 
ATOM     93  O   UNL A   1      47.564  24.024  36.966  1.00  0.00    -0.237 OA
ATOM     94  O   UNL A   1      45.204  24.564  37.416  1.00  0.00    -0.237 OA
ATOM     95  O   UNL A   1      45.766  22.947  35.659  1.00  0.00    -0.744 OA
ENDBRANCH  89  92
ENDBRANCH  62  85
ENDBRANCH  36  37
ENDBRANCH  28  31
ENDBRANCH  26  27
ENDBRANCH  25  26
ENDBRANCH   1  25
TORSDOF 17
ENDMDL
