MODEL 1
REMARK VINA RESULT:     -12.0      0.000      0.000
REMARK SMILES COc1ncnc(N2CCCC[C@H]2CC(=O)NCCCNC(=O)c2ccc(-c3c4nc(c(-c5cccc(S(=O)(=O)[O-])c5F)c5ccc([nH]5)c(-c5cccc(S(=O)(=O)[O-])c5F)c5nc(c(-c6cccc(S(=O)(=O)[O-])c6F)c6ccc3[nH]6)C=C5)C=C4)cc2)c1[N+](=O)[O-]
REMARK SMILES IDX 19 1 18 2 17 3 15 4 16 5 14 7 13 8 8 9 9 10 10 11 12 12
REMARK SMILES IDX 11 13 7 14 3 15 4 16 87 17 5 18 6 19 2 20 1 21 88 22 89 23
REMARK SMILES IDX 90 24 20 25 21 26 22 27 23 29 24 30 25 31 86 32 26 33 85 34
REMARK SMILES IDX 27 35 28 36 29 37 79 38 30 39 84 40 78 41 80 42 31 43 83 44
REMARK SMILES IDX 77 45 76 46 32 48 64 49 44 50 63 51 45 52 48 53 62 54 81 55
REMARK SMILES IDX 46 56 47 57 61 59 82 60 49 61 33 62 34 63 42 64 35 65 37 66
REMARK SMILES IDX 43 67 36 68 38 69 39 70 40 71 41 72 65 73 66 74 74 75 67 76
REMARK SMILES IDX 69 77 75 78 68 79 70 80 71 81 72 82 73 83 50 84 51 85 59 86
REMARK SMILES IDX 52 87 54 88 60 89 53 90 55 91 56 92 57 93 58 94
REMARK H PARENT 17 6 21 28 80 47 48 58
REMARK Flexibility Score: inf
ROOT
ATOM      1  C   UNL A   1      31.449  32.228  26.636  1.00  0.00     0.042 C 
ENDROOT
BRANCH   1   2
ATOM      2  C   UNL A   1      31.447  30.712  26.427  1.00  0.00     0.117 C 
BRANCH   2   3
ATOM      3  N   UNL A   1      32.672  30.049  26.843  1.00  0.00    -0.356 N 
ATOM      4  C   UNL A   1      33.008  28.740  26.990  1.00  0.00     0.222 C 
ATOM      5  O   UNL A   1      34.181  28.500  27.282  1.00  0.00    -0.275 OA
ATOM      6  H   UNL A   1      33.403  30.672  27.061  1.00  0.00     0.163 HD
BRANCH   4   7
ATOM      7  C   UNL A   1      32.007  27.629  26.759  1.00  0.00     0.125 C 
BRANCH   7   8
ATOM      8  C   UNL A   1      32.026  26.864  25.420  1.00  0.00     0.093 C 
ATOM      9  N   UNL A   1      31.015  25.792  25.336  1.00  0.00    -0.347 N 
ATOM     10  C   UNL A   1      29.641  26.182  24.976  1.00  0.00     0.118 C 
ATOM     11  C   UNL A   1      29.598  27.035  23.710  1.00  0.00     0.022 C 
ATOM     12  C   UNL A   1      31.984  27.704  24.142  1.00  0.00     0.026 C 
ATOM     13  C   UNL A   1      30.586  28.192  23.773  1.00  0.00     0.004 C 
BRANCH   9  14
ATOM     14  C   UNL A   1      31.440  24.572  24.802  1.00  0.00     0.215 A 
ATOM     15  C   UNL A   1      31.741  22.230  24.852  1.00  0.00     0.299 A 
ATOM     16  N   UNL A   1      32.122  22.190  23.564  1.00  0.00    -0.196 NA
ATOM     17  C   UNL A   1      31.457  23.397  25.521  1.00  0.00     0.372 A 
ATOM     18  C   UNL A   1      32.163  23.378  22.952  1.00  0.00     0.228 A 
ATOM     19  N   UNL A   1      31.802  24.550  23.500  1.00  0.00    -0.212 NA
BRANCH  15  20
ATOM     20  O   UNL A   1      31.614  21.004  25.457  1.00  0.00    -0.476 OA
ATOM     21  C   UNL A   1      32.882  20.343  25.424  1.00  0.00     0.280 C 
ENDBRANCH  15  20
BRANCH  17  22
ATOM     22  N   UNL A   1      31.122  23.350  26.903  1.00  0.00     0.072 N 
ATOM     23  O   UNL A   1      29.922  23.349  27.206  1.00  0.00    -0.258 OA
ATOM     24  O   UNL A   1      32.064  23.285  27.707  1.00  0.00    -0.258 OA
ENDBRANCH  17  22
ENDBRANCH   9  14
ENDBRANCH   7   8
ENDBRANCH   4   7
ENDBRANCH   2   3
ENDBRANCH   1   2
BRANCH   1  25
ATOM     25  C   UNL A   1      32.685  32.806  27.316  1.00  0.00     0.118 C 
BRANCH  25  26
ATOM     26  N   UNL A   1      32.523  34.215  27.614  1.00  0.00    -0.352 N 
ATOM     27  C   UNL A   1      33.070  34.939  28.646  1.00  0.00     0.251 C 
ATOM     28  H   UNL A   1      31.946  34.720  26.997  1.00  0.00     0.163 HD
ATOM     29  O   UNL A   1      32.609  36.048  28.910  1.00  0.00    -0.269 OA
BRANCH  27  30
ATOM     30  C   UNL A   1      34.200  34.397  29.440  1.00  0.00     0.039 A 
ATOM     31  C   UNL A   1      35.495  34.493  28.919  1.00  0.00     0.014 A 
ATOM     32  C   UNL A   1      33.989  33.726  30.649  1.00  0.00     0.014 A 
ATOM     33  C   UNL A   1      36.572  33.927  29.609  1.00  0.00     0.010 A 
ATOM     34  C   UNL A   1      35.073  33.214  31.366  1.00  0.00     0.010 A 
ATOM     35  C   UNL A   1      36.371  33.281  30.840  1.00  0.00    -0.014 A 
BRANCH  35  36
ATOM     36  C   UNL A   1      37.503  32.628  31.553  1.00  0.00     0.031 A 
ATOM     37  C   UNL A   1      38.238  31.477  30.914  1.00  0.00     0.074 A 
ATOM     38  C   UNL A   1      37.851  33.037  32.789  1.00  0.00     0.049 A 
ATOM     39  N   UNL A   1      39.239  30.775  31.381  1.00  0.00    -0.248 NA
ATOM     40  C   UNL A   1      37.774  31.042  29.587  1.00  0.00     0.031 C 
ATOM     41  C   UNL A   1      37.184  34.097  33.546  1.00  0.00     0.029 A 
ATOM     42  N   UNL A   1      38.838  32.594  33.634  1.00  0.00    -0.354 N 
ATOM     43  C   UNL A   1      39.504  29.801  30.424  1.00  0.00     0.074 A 
ATOM     44  C   UNL A   1      38.536  29.981  29.364  1.00  0.00     0.031 C 
ATOM     45  C   UNL A   1      37.781  34.223  34.743  1.00  0.00     0.029 A 
ATOM     46  C   UNL A   1      38.858  33.241  34.847  1.00  0.00     0.049 A 
ATOM     47  H   UNL A   1      39.472  31.880  33.395  1.00  0.00     0.167 HD
ATOM     48  C   UNL A   1      40.481  28.863  30.409  1.00  0.00     0.034 A 
ATOM     49  C   UNL A   1      39.652  33.065  35.923  1.00  0.00     0.034 A 
ATOM     50  C   UNL A   1      41.474  28.714  31.438  1.00  0.00     0.049 A 
ATOM     51  C   UNL A   1      40.755  32.042  35.866  1.00  0.00     0.074 A 
ATOM     52  C   UNL A   1      42.552  27.845  31.475  1.00  0.00     0.029 A 
ATOM     53  N   UNL A   1      41.511  29.446  32.615  1.00  0.00    -0.354 N 
ATOM     54  N   UNL A   1      41.085  31.238  34.885  1.00  0.00    -0.248 NA
ATOM     55  C   UNL A   1      41.622  31.931  37.048  1.00  0.00     0.031 C 
ATOM     56  C   UNL A   1      43.231  28.041  32.682  1.00  0.00     0.029 A 
ATOM     57  C   UNL A   1      42.590  29.046  33.387  1.00  0.00     0.049 A 
ATOM     58  H   UNL A   1      40.866  30.146  32.865  1.00  0.00     0.167 HD
ATOM     59  C   UNL A   1      42.218  30.555  35.314  1.00  0.00     0.074 A 
ATOM     60  C   UNL A   1      42.530  31.055  36.637  1.00  0.00     0.031 C 
ATOM     61  C   UNL A   1      42.928  29.593  34.675  1.00  0.00     0.034 A 
BRANCH  48  62
ATOM     62  C   UNL A   1      40.563  27.956  29.208  1.00  0.00     0.023 A 
ATOM     63  C   UNL A   1      39.685  26.857  29.110  1.00  0.00     0.012 A 
ATOM     64  C   UNL A   1      41.458  28.222  28.153  1.00  0.00     0.148 A 
ATOM     65  C   UNL A   1      39.719  26.016  27.997  1.00  0.00     0.002 A 
ATOM     66  C   UNL A   1      41.456  27.404  27.028  1.00  0.00     0.091 A 
ATOM     67  F   UNL A   1      42.298  29.259  28.272  1.00  0.00    -0.205 F 
ATOM     68  C   UNL A   1      40.597  26.296  26.954  1.00  0.00     0.022 A 
BRANCH  66  69
ATOM     69  S   UNL A   1      42.493  27.727  25.595  1.00  0.00     0.127 S 
ATOM     70  O   UNL A   1      41.936  28.988  25.108  1.00  0.00    -0.237 OA
ATOM     71  O   UNL A   1      43.823  27.839  26.195  1.00  0.00    -0.237 OA
ATOM     72  O   UNL A   1      42.321  26.583  24.712  1.00  0.00    -0.744 OA
ENDBRANCH  66  69
ENDBRANCH  48  62
BRANCH  49  73
ATOM     73  C   UNL A   1      39.478  33.931  37.125  1.00  0.00     0.023 A 
ATOM     74  C   UNL A   1      39.916  35.269  37.081  1.00  0.00     0.012 A 
ATOM     75  C   UNL A   1      38.862  33.447  38.294  1.00  0.00     0.148 A 
ATOM     76  C   UNL A   1      39.772  36.101  38.193  1.00  0.00     0.002 A 
ATOM     77  C   UNL A   1      38.672  34.297  39.379  1.00  0.00     0.091 A 
ATOM     78  F   UNL A   1      38.465  32.167  38.322  1.00  0.00    -0.205 F 
ATOM     79  C   UNL A   1      39.143  35.619  39.336  1.00  0.00     0.022 A 
BRANCH  77  80
ATOM     80  S   UNL A   1      37.752  33.799  40.838  1.00  0.00     0.127 S 
ATOM     81  O   UNL A   1      38.705  32.914  41.505  1.00  0.00    -0.237 OA
ATOM     82  O   UNL A   1      37.530  35.081  41.509  1.00  0.00    -0.237 OA
ATOM     83  O   UNL A   1      36.540  33.167  40.341  1.00  0.00    -0.744 OA
ENDBRANCH  77  80
ENDBRANCH  49  73
BRANCH  61  84
ATOM     84  C   UNL A   1      44.142  29.035  35.373  1.00  0.00     0.023 A 
ATOM     85  C   UNL A   1      45.418  29.555  35.084  1.00  0.00     0.012 A 
ATOM     86  C   UNL A   1      44.006  28.049  36.371  1.00  0.00     0.148 A 
ATOM     87  C   UNL A   1      46.545  29.081  35.756  1.00  0.00     0.002 A 
ATOM     88  C   UNL A   1      45.126  27.616  37.070  1.00  0.00     0.091 A 
ATOM     89  F   UNL A   1      42.785  27.552  36.618  1.00  0.00    -0.205 F 
ATOM     90  C   UNL A   1      46.399  28.122  36.756  1.00  0.00     0.022 A 
BRANCH  88  91
ATOM     91  S   UNL A   1      45.018  26.455  38.437  1.00  0.00     0.127 S 
ATOM     92  O   UNL A   1      44.137  25.426  37.885  1.00  0.00    -0.237 OA
ATOM     93  O   UNL A   1      46.411  26.038  38.603  1.00  0.00    -0.237 OA
ATOM     94  O   UNL A   1      44.477  27.209  39.559  1.00  0.00    -0.744 OA
ENDBRANCH  88  91
ENDBRANCH  61  84
ENDBRANCH  35  36
ENDBRANCH  27  30
ENDBRANCH  25  26
ENDBRANCH   1  25
TORSDOF 17
ENDMDL
MODEL 2
REMARK VINA RESULT:     -11.9      6.002     11.995
REMARK SMILES COc1ncnc(N2CCCC[C@H]2CC(=O)NCCCNC(=O)c2ccc(-c3c4nc(c(-c5cccc(S(=O)(=O)[O-])c5F)c5ccc([nH]5)c(-c5cccc(S(=O)(=O)[O-])c5F)c5nc(c(-c6cccc(S(=O)(=O)[O-])c6F)c6ccc3[nH]6)C=C5)C=C4)cc2)c1[N+](=O)[O-]
REMARK SMILES IDX 19 1 18 2 17 3 15 4 16 5 14 7 13 8 8 9 9 10 10 11 12 12
REMARK SMILES IDX 11 13 7 14 3 15 4 16 87 17 5 18 6 19 2 20 1 21 88 22 89 23
REMARK SMILES IDX 90 24 20 25 21 26 22 27 23 29 24 30 25 31 86 32 26 33 85 34
REMARK SMILES IDX 27 35 28 36 29 37 79 38 30 39 84 40 78 41 80 42 31 43 83 44
REMARK SMILES IDX 77 45 76 46 32 48 64 49 44 50 63 51 45 52 48 53 62 54 81 55
REMARK SMILES IDX 46 56 47 57 61 59 82 60 49 61 33 62 34 63 42 64 35 65 37 66
REMARK SMILES IDX 43 67 36 68 38 69 39 70 40 71 41 72 65 73 66 74 74 75 67 76
REMARK SMILES IDX 69 77 75 78 68 79 70 80 71 81 72 82 73 83 50 84 51 85 59 86
REMARK SMILES IDX 52 87 54 88 60 89 53 90 55 91 56 92 57 93 58 94
REMARK H PARENT 17 6 21 28 80 47 48 58
REMARK Flexibility Score: inf
ROOT
ATOM      1  C   UNL A   1      38.222  19.599  25.029  1.00  0.00     0.042 C 
ENDROOT
BRANCH   1   2
ATOM      2  C   UNL A   1      37.146  20.623  24.665  1.00  0.00     0.117 C 
BRANCH   2   3
ATOM      3  N   UNL A   1      37.361  21.944  25.233  1.00  0.00    -0.356 N 
ATOM      4  C   UNL A   1      36.791  23.155  24.991  1.00  0.00     0.222 C 
ATOM      5  O   UNL A   1      37.142  24.085  25.720  1.00  0.00    -0.275 OA
ATOM      6  H   UNL A   1      38.055  21.966  25.930  1.00  0.00     0.163 HD
BRANCH   4   7
ATOM      7  C   UNL A   1      35.742  23.343  23.917  1.00  0.00     0.125 C 
BRANCH   7   8
ATOM      8  C   UNL A   1      34.259  23.457  24.323  1.00  0.00     0.093 C 
ATOM      9  N   UNL A   1      33.350  23.689  23.184  1.00  0.00    -0.347 N 
ATOM     10  C   UNL A   1      32.938  22.515  22.396  1.00  0.00     0.118 C 
ATOM     11  C   UNL A   1      32.390  21.393  23.276  1.00  0.00     0.022 C 
ATOM     12  C   UNL A   1      33.696  22.342  25.206  1.00  0.00     0.026 C 
ATOM     13  C   UNL A   1      33.325  21.077  24.436  1.00  0.00     0.004 C 
BRANCH   9  14
ATOM     14  C   UNL A   1      32.355  24.656  23.364  1.00  0.00     0.215 A 
ATOM     15  C   UNL A   1      31.083  26.531  22.699  1.00  0.00     0.299 A 
ATOM     16  N   UNL A   1      30.226  26.389  23.725  1.00  0.00    -0.196 NA
ATOM     17  C   UNL A   1      32.188  25.733  22.521  1.00  0.00     0.372 A 
ATOM     18  C   UNL A   1      30.498  25.373  24.550  1.00  0.00     0.228 A 
ATOM     19  N   UNL A   1      31.493  24.485  24.391  1.00  0.00    -0.212 NA
BRANCH  15  20
ATOM     20  O   UNL A   1      30.756  27.519  21.804  1.00  0.00    -0.476 OA
ATOM     21  C   UNL A   1      30.623  28.755  22.512  1.00  0.00     0.280 C 
ENDBRANCH  15  20
BRANCH  17  22
ATOM     22  N   UNL A   1      33.077  25.995  21.443  1.00  0.00     0.072 N 
ATOM     23  O   UNL A   1      32.868  25.416  20.368  1.00  0.00    -0.258 OA
ATOM     24  O   UNL A   1      33.987  26.813  21.650  1.00  0.00    -0.258 OA
ENDBRANCH  17  22
ENDBRANCH   9  14
ENDBRANCH   7   8
ENDBRANCH   4   7
ENDBRANCH   2   3
ENDBRANCH   1   2
BRANCH   1  25
ATOM     25  C   UNL A   1      39.422  20.138  25.801  1.00  0.00     0.118 C 
BRANCH  25  26
ATOM     26  N   UNL A   1      40.420  19.110  26.026  1.00  0.00    -0.352 N 
ATOM     27  C   UNL A   1      41.780  19.252  26.146  1.00  0.00     0.251 C 
ATOM     28  H   UNL A   1      40.077  18.191  26.103  1.00  0.00     0.163 HD
ATOM     29  O   UNL A   1      42.497  18.257  26.054  1.00  0.00    -0.269 OA
BRANCH  27  30
ATOM     30  C   UNL A   1      42.389  20.585  26.379  1.00  0.00     0.039 A 
ATOM     31  C   UNL A   1      42.373  21.114  27.674  1.00  0.00     0.014 A 
ATOM     32  C   UNL A   1      42.901  21.350  25.325  1.00  0.00     0.014 A 
ATOM     33  C   UNL A   1      42.872  22.399  27.912  1.00  0.00     0.010 A 
ATOM     34  C   UNL A   1      43.454  22.608  25.575  1.00  0.00     0.010 A 
ATOM     35  C   UNL A   1      43.418  23.159  26.865  1.00  0.00    -0.014 A 
BRANCH  35  36
ATOM     36  C   UNL A   1      43.900  24.547  27.100  1.00  0.00     0.031 A 
ATOM     37  C   UNL A   1      42.956  25.599  27.625  1.00  0.00     0.074 A 
ATOM     38  C   UNL A   1      45.173  24.881  26.806  1.00  0.00     0.049 A 
ATOM     39  N   UNL A   1      43.187  26.861  27.884  1.00  0.00    -0.248 NA
ATOM     40  C   UNL A   1      41.566  25.185  27.873  1.00  0.00     0.031 C 
ATOM     41  C   UNL A   1      46.172  23.977  26.235  1.00  0.00     0.029 A 
ATOM     42  N   UNL A   1      45.837  26.076  26.929  1.00  0.00    -0.354 N 
ATOM     43  C   UNL A   1      41.971  27.398  28.292  1.00  0.00     0.074 A 
ATOM     44  C   UNL A   1      40.996  26.331  28.216  1.00  0.00     0.031 C 
ATOM     45  C   UNL A   1      47.321  24.650  26.056  1.00  0.00     0.029 A 
ATOM     46  C   UNL A   1      47.136  26.035  26.480  1.00  0.00     0.049 A 
ATOM     47  H   UNL A   1      45.421  26.888  27.301  1.00  0.00     0.167 HD
ATOM     48  C   UNL A   1      41.693  28.651  28.723  1.00  0.00     0.034 A 
ATOM     49  C   UNL A   1      48.074  27.003  26.417  1.00  0.00     0.034 A 
ATOM     50  C   UNL A   1      42.670  29.699  28.845  1.00  0.00     0.049 A 
ATOM     51  C   UNL A   1      47.750  28.378  26.938  1.00  0.00     0.074 A 
ATOM     52  C   UNL A   1      42.501  30.979  29.346  1.00  0.00     0.029 A 
ATOM     53  N   UNL A   1      43.997  29.593  28.459  1.00  0.00    -0.354 N 
ATOM     54  N   UNL A   1      46.635  28.819  27.467  1.00  0.00    -0.248 NA
ATOM     55  C   UNL A   1      48.828  29.378  26.892  1.00  0.00     0.031 C 
ATOM     56  C   UNL A   1      43.723  31.652  29.248  1.00  0.00     0.029 A 
ATOM     57  C   UNL A   1      44.658  30.785  28.706  1.00  0.00     0.049 A 
ATOM     58  H   UNL A   1      44.409  28.790  28.068  1.00  0.00     0.167 HD
ATOM     59  C   UNL A   1      46.888  30.132  27.852  1.00  0.00     0.074 A 
ATOM     60  C   UNL A   1      48.269  30.407  27.514  1.00  0.00     0.031 C 
ATOM     61  C   UNL A   1      46.049  31.030  28.423  1.00  0.00     0.034 A 
BRANCH  48  62
ATOM     62  C   UNL A   1      40.279  28.947  29.153  1.00  0.00     0.023 A 
ATOM     63  C   UNL A   1      39.305  29.241  28.176  1.00  0.00     0.012 A 
ATOM     64  C   UNL A   1      39.898  28.874  30.507  1.00  0.00     0.148 A 
ATOM     65  C   UNL A   1      37.982  29.492  28.542  1.00  0.00     0.002 A 
ATOM     66  C   UNL A   1      38.569  29.083  30.860  1.00  0.00     0.091 A 
ATOM     67  F   UNL A   1      40.840  28.613  31.424  1.00  0.00    -0.205 F 
ATOM     68  C   UNL A   1      37.614  29.402  29.882  1.00  0.00     0.022 A 
BRANCH  66  69
ATOM     69  S   UNL A   1      37.977  28.912  32.549  1.00  0.00     0.127 S 
ATOM     70  O   UNL A   1      36.603  29.395  32.429  1.00  0.00    -0.237 OA
ATOM     71  O   UNL A   1      38.099  27.471  32.775  1.00  0.00    -0.237 OA
ATOM     72  O   UNL A   1      38.861  29.730  33.366  1.00  0.00    -0.744 OA
ENDBRANCH  66  69
ENDBRANCH  48  62
BRANCH  49  73
ATOM     73  C   UNL A   1      49.436  26.684  25.903  1.00  0.00     0.023 A 
ATOM     74  C   UNL A   1      50.326  25.949  26.712  1.00  0.00     0.012 A 
ATOM     75  C   UNL A   1      49.846  27.079  24.616  1.00  0.00     0.148 A 
ATOM     76  C   UNL A   1      51.610  25.642  26.260  1.00  0.00     0.002 A 
ATOM     77  C   UNL A   1      51.107  26.722  24.150  1.00  0.00     0.091 A 
ATOM     78  F   UNL A   1      48.991  27.790  23.867  1.00  0.00    -0.205 F 
ATOM     79  C   UNL A   1      51.997  26.019  24.977  1.00  0.00     0.022 A 
BRANCH  77  80
ATOM     80  S   UNL A   1      51.635  27.049  22.466  1.00  0.00     0.127 S 
ATOM     81  O   UNL A   1      50.450  26.668  21.701  1.00  0.00    -0.237 OA
ATOM     82  O   UNL A   1      51.905  28.488  22.506  1.00  0.00    -0.237 OA
ATOM     83  O   UNL A   1      52.816  26.226  22.257  1.00  0.00    -0.744 OA
ENDBRANCH  77  80
ENDBRANCH  49  73
BRANCH  61  84
ATOM     84  C   UNL A   1      46.600  32.391  28.761  1.00  0.00     0.023 A 
ATOM     85  C   UNL A   1      47.181  32.620  30.023  1.00  0.00     0.012 A 
ATOM     86  C   UNL A   1      46.611  33.421  27.797  1.00  0.00     0.148 A 
ATOM     87  C   UNL A   1      47.737  33.861  30.332  1.00  0.00     0.002 A 
ATOM     88  C   UNL A   1      47.210  34.638  28.096  1.00  0.00     0.091 A 
ATOM     89  F   UNL A   1      46.035  33.190  26.608  1.00  0.00    -0.205 F 
ATOM     90  C   UNL A   1      47.763  34.865  29.367  1.00  0.00     0.022 A 
BRANCH  88  91
ATOM     91  S   UNL A   1      47.373  35.953  26.882  1.00  0.00     0.127 S 
ATOM     92  O   UNL A   1      47.909  35.231  25.729  1.00  0.00    -0.237 OA
ATOM     93  O   UNL A   1      45.990  36.408  26.727  1.00  0.00    -0.237 OA
ATOM     94  O   UNL A   1      48.267  36.937  27.477  1.00  0.00    -0.744 OA
ENDBRANCH  88  91
ENDBRANCH  61  84
ENDBRANCH  35  36
ENDBRANCH  27  30
ENDBRANCH  25  26
ENDBRANCH   1  25
TORSDOF 17
ENDMDL
MODEL 3
REMARK VINA RESULT:     -11.7      2.460      7.996
REMARK SMILES COc1ncnc(N2CCCC[C@H]2CC(=O)NCCCNC(=O)c2ccc(-c3c4nc(c(-c5cccc(S(=O)(=O)[O-])c5F)c5ccc([nH]5)c(-c5cccc(S(=O)(=O)[O-])c5F)c5nc(c(-c6cccc(S(=O)(=O)[O-])c6F)c6ccc3[nH]6)C=C5)C=C4)cc2)c1[N+](=O)[O-]
REMARK SMILES IDX 19 1 18 2 17 3 15 4 16 5 14 7 13 8 8 9 9 10 10 11 12 12
REMARK SMILES IDX 11 13 7 14 3 15 4 16 87 17 5 18 6 19 2 20 1 21 88 22 89 23
REMARK SMILES IDX 90 24 20 25 21 26 22 27 23 29 24 30 25 31 86 32 26 33 85 34
REMARK SMILES IDX 27 35 28 36 29 37 79 38 30 39 84 40 78 41 80 42 31 43 83 44
REMARK SMILES IDX 77 45 76 46 32 48 64 49 44 50 63 51 45 52 48 53 62 54 81 55
REMARK SMILES IDX 46 56 47 57 61 59 82 60 49 61 33 62 34 63 42 64 35 65 37 66
REMARK SMILES IDX 43 67 36 68 38 69 39 70 40 71 41 72 65 73 66 74 74 75 67 76
REMARK SMILES IDX 69 77 75 78 68 79 70 80 71 81 72 82 73 83 50 84 51 85 59 86
REMARK SMILES IDX 52 87 54 88 60 89 53 90 55 91 56 92 57 93 58 94
REMARK H PARENT 17 6 21 28 80 47 48 58
REMARK Flexibility Score: inf
ROOT
ATOM      1  C   UNL A   1      31.543  29.260  26.777  1.00  0.00     0.042 C 
ENDROOT
BRANCH   1   2
ATOM      2  C   UNL A   1      32.022  27.891  27.263  1.00  0.00     0.117 C 
BRANCH   2   3
ATOM      3  N   UNL A   1      31.015  26.844  27.190  1.00  0.00    -0.356 N 
ATOM      4  C   UNL A   1      30.543  26.088  26.163  1.00  0.00     0.222 C 
ATOM      5  O   UNL A   1      29.733  25.207  26.453  1.00  0.00    -0.275 OA
ATOM      6  H   UNL A   1      30.592  26.643  28.056  1.00  0.00     0.163 HD
BRANCH   4   7
ATOM      7  C   UNL A   1      31.026  26.283  24.743  1.00  0.00     0.125 C 
BRANCH   7   8
ATOM      8  C   UNL A   1      32.493  25.960  24.394  1.00  0.00     0.093 C 
ATOM      9  N   UNL A   1      32.644  24.811  23.480  1.00  0.00    -0.347 N 
ATOM     10  C   UNL A   1      32.465  25.061  22.040  1.00  0.00     0.118 C 
ATOM     11  C   UNL A   1      33.315  26.230  21.548  1.00  0.00     0.022 C 
ATOM     12  C   UNL A   1      33.359  27.119  23.901  1.00  0.00     0.026 C 
ATOM     13  C   UNL A   1      33.148  27.462  22.428  1.00  0.00     0.004 C 
BRANCH   9  14
ATOM     14  C   UNL A   1      33.646  23.888  23.796  1.00  0.00     0.215 A 
ATOM     15  C   UNL A   1      34.482  21.957  24.870  1.00  0.00     0.299 A 
ATOM     16  N   UNL A   1      35.639  22.005  24.187  1.00  0.00    -0.196 NA
ATOM     17  C   UNL A   1      33.496  22.907  24.753  1.00  0.00     0.372 A 
ATOM     18  C   UNL A   1      35.750  23.031  23.337  1.00  0.00     0.228 A 
ATOM     19  N   UNL A   1      34.795  23.941  23.086  1.00  0.00    -0.212 NA
BRANCH  15  20
ATOM     20  O   UNL A   1      34.331  20.857  25.677  1.00  0.00    -0.476 OA
ATOM     21  C   UNL A   1      34.043  19.721  24.856  1.00  0.00     0.280 C 
ENDBRANCH  15  20
BRANCH  17  22
ATOM     22  N   UNL A   1      32.329  22.812  25.562  1.00  0.00     0.072 N 
ATOM     23  O   UNL A   1      31.316  22.312  25.056  1.00  0.00    -0.258 OA
ATOM     24  O   UNL A   1      32.423  23.212  26.732  1.00  0.00    -0.258 OA
ENDBRANCH  17  22
ENDBRANCH   9  14
ENDBRANCH   7   8
ENDBRANCH   4   7
ENDBRANCH   2   3
ENDBRANCH   1   2
BRANCH   1  25
ATOM     25  C   UNL A   1      32.578  30.108  26.047  1.00  0.00     0.118 C 
BRANCH  25  26
ATOM     26  N   UNL A   1      32.443  31.515  26.369  1.00  0.00    -0.352 N 
ATOM     27  C   UNL A   1      33.146  32.252  27.291  1.00  0.00     0.251 C 
ATOM     28  H   UNL A   1      31.758  32.006  25.861  1.00  0.00     0.163 HD
ATOM     29  O   UNL A   1      32.716  33.353  27.631  1.00  0.00    -0.269 OA
BRANCH  27  30
ATOM     30  C   UNL A   1      34.407  31.735  27.877  1.00  0.00     0.039 A 
ATOM     31  C   UNL A   1      34.426  30.434  28.390  1.00  0.00     0.014 A 
ATOM     32  C   UNL A   1      35.541  32.545  28.002  1.00  0.00     0.014 A 
ATOM     33  C   UNL A   1      35.577  29.944  29.015  1.00  0.00     0.010 A 
ATOM     34  C   UNL A   1      36.709  32.033  28.573  1.00  0.00     0.010 A 
ATOM     35  C   UNL A   1      36.730  30.739  29.114  1.00  0.00    -0.014 A 
BRANCH  35  36
ATOM     36  C   UNL A   1      37.940  30.245  29.827  1.00  0.00     0.031 A 
ATOM     37  C   UNL A   1      38.240  30.719  31.227  1.00  0.00     0.074 A 
ATOM     38  C   UNL A   1      38.793  29.404  29.210  1.00  0.00     0.049 A 
ATOM     39  N   UNL A   1      39.246  30.410  32.004  1.00  0.00    -0.248 NA
ATOM     40  C   UNL A   1      37.299  31.680  31.823  1.00  0.00     0.031 C 
ATOM     41  C   UNL A   1      38.655  28.918  27.837  1.00  0.00     0.029 A 
ATOM     42  N   UNL A   1      39.958  28.827  29.652  1.00  0.00    -0.354 N 
ATOM     43  C   UNL A   1      39.078  31.159  33.164  1.00  0.00     0.074 A 
ATOM     44  C   UNL A   1      37.889  31.962  32.975  1.00  0.00     0.031 C 
ATOM     45  C   UNL A   1      39.693  28.116  27.549  1.00  0.00     0.029 A 
ATOM     46  C   UNL A   1      40.581  28.047  28.707  1.00  0.00     0.049 A 
ATOM     47  H   UNL A   1      40.315  28.960  30.560  1.00  0.00     0.167 HD
ATOM     48  C   UNL A   1      39.822  31.158  34.296  1.00  0.00     0.034 A 
ATOM     49  C   UNL A   1      41.737  27.354  28.764  1.00  0.00     0.034 A 
ATOM     50  C   UNL A   1      40.976  30.325  34.505  1.00  0.00     0.049 A 
ATOM     51  C   UNL A   1      42.525  27.338  30.047  1.00  0.00     0.074 A 
ATOM     52  C   UNL A   1      41.748  30.195  35.647  1.00  0.00     0.029 A 
ATOM     53  N   UNL A   1      41.527  29.484  33.551  1.00  0.00    -0.354 N 
ATOM     54  N   UNL A   1      42.261  27.932  31.185  1.00  0.00    -0.248 NA
ATOM     55  C   UNL A   1      43.749  26.523  30.067  1.00  0.00     0.031 C 
ATOM     56  C   UNL A   1      42.777  29.286  35.377  1.00  0.00     0.029 A 
ATOM     57  C   UNL A   1      42.633  28.835  34.076  1.00  0.00     0.049 A 
ATOM     58  H   UNL A   1      41.184  29.366  32.636  1.00  0.00     0.167 HD
ATOM     59  C   UNL A   1      43.260  27.532  32.066  1.00  0.00     0.074 A 
ATOM     60  C   UNL A   1      44.124  26.629  31.334  1.00  0.00     0.031 C 
ATOM     61  C   UNL A   1      43.451  27.891  33.359  1.00  0.00     0.034 A 
BRANCH  48  62
ATOM     62  C   UNL A   1      39.376  32.047  35.429  1.00  0.00     0.023 A 
ATOM     63  C   UNL A   1      38.518  31.528  36.420  1.00  0.00     0.012 A 
ATOM     64  C   UNL A   1      39.850  33.368  35.549  1.00  0.00     0.148 A 
ATOM     65  C   UNL A   1      38.111  32.319  37.495  1.00  0.00     0.002 A 
ATOM     66  C   UNL A   1      39.474  34.137  36.645  1.00  0.00     0.091 A 
ATOM     67  F   UNL A   1      40.649  33.852  34.588  1.00  0.00    -0.205 F 
ATOM     68  C   UNL A   1      38.597  33.618  37.612  1.00  0.00     0.022 A 
BRANCH  66  69
ATOM     69  S   UNL A   1      40.109  35.794  36.929  1.00  0.00     0.127 S 
ATOM     70  O   UNL A   1      41.548  35.550  37.004  1.00  0.00    -0.237 OA
ATOM     71  O   UNL A   1      39.672  36.503  35.725  1.00  0.00    -0.237 OA
ATOM     72  O   UNL A   1      39.487  36.254  38.162  1.00  0.00    -0.744 OA
ENDBRANCH  66  69
ENDBRANCH  48  62
BRANCH  49  73
ATOM     73  C   UNL A   1      42.183  26.555  27.587  1.00  0.00     0.023 A 
ATOM     74  C   UNL A   1      42.973  27.169  26.594  1.00  0.00     0.012 A 
ATOM     75  C   UNL A   1      41.855  25.193  27.457  1.00  0.00     0.148 A 
ATOM     76  C   UNL A   1      43.399  26.448  25.477  1.00  0.00     0.002 A 
ATOM     77  C   UNL A   1      42.330  24.466  26.370  1.00  0.00     0.091 A 
ATOM     78  F   UNL A   1      41.091  24.630  28.404  1.00  0.00    -0.205 F 
ATOM     79  C   UNL A   1      43.087  25.097  25.370  1.00  0.00     0.022 A 
BRANCH  77  80
ATOM     80  S   UNL A   1      42.088  22.693  26.223  1.00  0.00     0.127 S 
ATOM     81  O   UNL A   1      42.736  22.408  24.944  1.00  0.00    -0.237 OA
ATOM     82  O   UNL A   1      42.802  22.191  27.399  1.00  0.00    -0.237 OA
ATOM     83  O   UNL A   1      40.649  22.488  26.264  1.00  0.00    -0.744 OA
ENDBRANCH  77  80
ENDBRANCH  49  73
BRANCH  61  84
ATOM     84  C   UNL A   1      44.617  27.280  34.093  1.00  0.00     0.023 A 
ATOM     85  C   UNL A   1      45.894  27.863  33.989  1.00  0.00     0.012 A 
ATOM     86  C   UNL A   1      44.428  26.175  34.948  1.00  0.00     0.148 A 
ATOM     87  C   UNL A   1      46.973  27.337  34.700  1.00  0.00     0.002 A 
ATOM     88  C   UNL A   1      45.496  25.686  35.689  1.00  0.00     0.091 A 
ATOM     89  F   UNL A   1      43.208  25.621  35.018  1.00  0.00    -0.205 F 
ATOM     90  C   UNL A   1      46.773  26.258  35.558  1.00  0.00     0.022 A 
BRANCH  88  91
ATOM     91  S   UNL A   1      45.309  24.362  36.890  1.00  0.00     0.127 S 
ATOM     92  O   UNL A   1      46.613  24.372  37.552  1.00  0.00    -0.237 OA
ATOM     93  O   UNL A   1      44.202  24.844  37.716  1.00  0.00    -0.237 OA
ATOM     94  O   UNL A   1      45.007  23.164  36.117  1.00  0.00    -0.744 OA
ENDBRANCH  88  91
ENDBRANCH  61  84
ENDBRANCH  35  36
ENDBRANCH  27  30
ENDBRANCH  25  26
ENDBRANCH   1  25
TORSDOF 17
ENDMDL
