MODEL 1
REMARK VINA RESULT:      -9.9      0.000      0.000
REMARK SMILES CC[N@@H+](C/C(Cl)=C/Cl)C[C@@H](C)C(=O)NCCCNC(=O)c1ccc(-c2c3nc(c(-c4cccc(S(=O)(=O)[O-])c4F)c4ccc([nH]4)c(-c4cccc(S(=O)(=O)[O-])c4F)c4nc(c(-c5cccc(S(=O)(=O)[O-])c5F)c5ccc2[nH]5)C=C4)C=C3)cc1
REMARK SMILES IDX 15 1 14 2 12 3 13 4 10 6 11 7 9 8 3 9 2 11 1 12 4 13 5 14
REMARK SMILES IDX 6 15 7 16 8 17 16 18 17 19 18 20 19 21 20 23 21 24 22 25
REMARK SMILES IDX 83 26 23 27 82 28 24 29 25 30 26 31 76 32 27 33 81 34 75 35
REMARK SMILES IDX 77 36 28 37 80 38 74 39 73 40 29 42 61 43 41 44 60 45 42 46
REMARK SMILES IDX 45 47 59 48 78 49 43 50 44 51 58 53 79 54 46 55 30 56 31 57
REMARK SMILES IDX 39 58 32 59 34 60 40 61 33 62 35 63 36 64 37 65 38 66 62 67
REMARK SMILES IDX 63 68 71 69 64 70 66 71 72 72 65 73 67 74 68 75 69 76 70 77
REMARK SMILES IDX 47 78 48 79 56 80 49 81 51 82 57 83 50 84 52 85 53 86 54 87
REMARK SMILES IDX 55 88
REMARK H PARENT 14 5 3 10 18 22 77 41 45 52
REMARK Flexibility Score: inf
ROOT
ATOM      1  C   UNL A   1      36.868  20.732  24.595  1.00  0.00     0.117 C 
ENDROOT
BRANCH   1   2
ATOM      2  N   UNL A   1      35.799  20.707  25.574  1.00  0.00    -0.356 N 
ATOM      3  C   UNL A   1      35.117  21.723  26.163  1.00  0.00     0.228 C 
ATOM      4  O   UNL A   1      34.279  21.427  27.019  1.00  0.00    -0.275 OA
ATOM      5  H   UNL A   1      35.521  19.805  25.857  1.00  0.00     0.163 HD
BRANCH   3   6
ATOM      6  C   UNL A   1      35.347  23.176  25.767  1.00  0.00     0.130 C 
ATOM      7  C   UNL A   1      36.788  23.584  26.066  1.00  0.00     0.024 C 
BRANCH   6   8
ATOM      8  C   UNL A   1      34.203  24.071  26.292  1.00  0.00     0.275 C 
BRANCH   8   9
ATOM      9  N   UNL A   1      33.209  24.624  25.368  1.00  0.00    -0.330 N 
ATOM     10  H   UNL A   1      32.430  24.024  25.637  1.00  0.00     0.348 HD
BRANCH   9  11
ATOM     11  C   UNL A   1      32.584  25.904  25.671  1.00  0.00     0.259 C 
ATOM     12  C   UNL A   1      33.556  27.023  26.038  1.00  0.00     0.071 C 
ENDBRANCH   9  11
BRANCH   9  13
ATOM     13  C   UNL A   1      33.401  24.317  23.948  1.00  0.00     0.312 C 
BRANCH  13  14
ATOM     14  C   UNL A   1      32.452  23.343  23.286  1.00  0.00     0.083 C 
ATOM     15  Cl  UNL A   1      30.804  23.890  23.181  1.00  0.00    -0.082 Cl
ATOM     16  C   UNL A   1      32.829  22.159  22.786  1.00  0.00     0.102 C 
ATOM     17  Cl  UNL A   1      31.797  20.986  22.079  1.00  0.00    -0.091 Cl
ENDBRANCH  13  14
ENDBRANCH   9  13
ENDBRANCH   8   9
ENDBRANCH   6   8
ENDBRANCH   3   6
ENDBRANCH   1   2
BRANCH   1  18
ATOM     18  C   UNL A   1      37.913  19.666  24.872  1.00  0.00     0.042 C 
BRANCH  18  19
ATOM     19  C   UNL A   1      38.820  20.016  26.038  1.00  0.00     0.118 C 
BRANCH  19  20
ATOM     20  N   UNL A   1      40.028  19.200  26.059  1.00  0.00    -0.352 N 
ATOM     21  C   UNL A   1      41.344  19.587  26.135  1.00  0.00     0.251 C 
ATOM     22  H   UNL A   1      39.879  18.227  26.012  1.00  0.00     0.163 HD
ATOM     23  O   UNL A   1      42.234  18.780  25.901  1.00  0.00    -0.269 OA
BRANCH  21  24
ATOM     24  C   UNL A   1      41.666  20.983  26.491  1.00  0.00     0.039 A 
ATOM     25  C   UNL A   1      42.153  21.267  27.767  1.00  0.00     0.014 A 
ATOM     26  C   UNL A   1      41.497  22.005  25.554  1.00  0.00     0.014 A 
ATOM     27  C   UNL A   1      42.529  22.575  28.081  1.00  0.00     0.010 A 
ATOM     28  C   UNL A   1      41.972  23.278  25.830  1.00  0.00     0.010 A 
ATOM     29  C   UNL A   1      42.475  23.582  27.102  1.00  0.00    -0.014 A 
BRANCH  29  30
ATOM     30  C   UNL A   1      42.932  24.963  27.388  1.00  0.00     0.031 A 
ATOM     31  C   UNL A   1      41.991  25.948  28.030  1.00  0.00     0.074 A 
ATOM     32  C   UNL A   1      44.157  25.355  26.988  1.00  0.00     0.049 A 
ATOM     33  N   UNL A   1      42.182  27.212  28.301  1.00  0.00    -0.248 NA
ATOM     34  C   UNL A   1      40.647  25.458  28.384  1.00  0.00     0.031 C 
ATOM     35  C   UNL A   1      45.125  24.513  26.278  1.00  0.00     0.029 A 
ATOM     36  N   UNL A   1      44.789  26.567  27.097  1.00  0.00    -0.354 N 
ATOM     37  C   UNL A   1      40.979  27.675  28.818  1.00  0.00     0.074 A 
ATOM     38  C   UNL A   1      40.048  26.569  28.783  1.00  0.00     0.031 C 
ATOM     39  C   UNL A   1      46.232  25.232  26.028  1.00  0.00     0.029 A 
ATOM     40  C   UNL A   1      46.039  26.591  26.522  1.00  0.00     0.049 A 
ATOM     41  H   UNL A   1      44.387  27.346  27.544  1.00  0.00     0.167 HD
ATOM     42  C   UNL A   1      40.681  28.901  29.308  1.00  0.00     0.034 A 
ATOM     43  C   UNL A   1      46.924  27.598  26.397  1.00  0.00     0.034 A 
ATOM     44  C   UNL A   1      41.623  29.984  29.377  1.00  0.00     0.049 A 
ATOM     45  C   UNL A   1      46.583  28.942  26.982  1.00  0.00     0.074 A 
ATOM     46  C   UNL A   1      41.454  31.236  29.937  1.00  0.00     0.029 A 
ATOM     47  N   UNL A   1      42.909  29.946  28.858  1.00  0.00    -0.354 N 
ATOM     48  N   UNL A   1      45.495  29.315  27.611  1.00  0.00    -0.248 NA
ATOM     49  C   UNL A   1      47.604  29.993  26.872  1.00  0.00     0.031 C 
ATOM     50  C   UNL A   1      42.626  31.970  29.726  1.00  0.00     0.029 A 
ATOM     51  C   UNL A   1      43.540  31.160  29.072  1.00  0.00     0.049 A 
ATOM     52  H   UNL A   1      43.313  29.172  28.405  1.00  0.00     0.167 HD
ATOM     53  C   UNL A   1      45.715  30.629  28.006  1.00  0.00     0.074 A 
ATOM     54  C   UNL A   1      47.049  30.980  27.561  1.00  0.00     0.031 C 
ATOM     55  C   UNL A   1      44.885  31.475  28.665  1.00  0.00     0.034 A 
BRANCH  42  56
ATOM     56  C   UNL A   1      39.293  29.123  29.849  1.00  0.00     0.023 A 
ATOM     57  C   UNL A   1      38.985  28.737  31.170  1.00  0.00     0.012 A 
ATOM     58  C   UNL A   1      38.308  29.761  29.070  1.00  0.00     0.148 A 
ATOM     59  C   UNL A   1      37.711  28.945  31.694  1.00  0.00     0.002 A 
ATOM     60  C   UNL A   1      37.054  30.013  29.617  1.00  0.00     0.091 A 
ATOM     61  F   UNL A   1      38.611  30.103  27.810  1.00  0.00    -0.205 F 
ATOM     62  C   UNL A   1      36.750  29.592  30.923  1.00  0.00     0.022 A 
BRANCH  60  63
ATOM     63  S   UNL A   1      35.775  30.915  28.737  1.00  0.00     0.127 S 
ATOM     64  O   UNL A   1      35.132  29.844  27.976  1.00  0.00    -0.237 OA
ATOM     65  O   UNL A   1      34.970  31.451  29.834  1.00  0.00    -0.237 OA
ATOM     66  O   UNL A   1      36.465  31.919  27.940  1.00  0.00    -0.744 OA
ENDBRANCH  60  63
ENDBRANCH  42  56
BRANCH  43  67
ATOM     67  C   UNL A   1      48.241  27.358  25.741  1.00  0.00     0.023 A 
ATOM     68  C   UNL A   1      49.339  26.943  26.520  1.00  0.00     0.012 A 
ATOM     69  C   UNL A   1      48.405  27.514  24.352  1.00  0.00     0.148 A 
ATOM     70  C   UNL A   1      50.586  26.727  25.933  1.00  0.00     0.002 A 
ATOM     71  C   UNL A   1      49.635  27.240  23.764  1.00  0.00     0.091 A 
ATOM     72  F   UNL A   1      47.350  27.916  23.629  1.00  0.00    -0.205 F 
ATOM     73  C   UNL A   1      50.732  26.866  24.556  1.00  0.00     0.022 A 
BRANCH  71  74
ATOM     74  S   UNL A   1      49.881  27.263  21.985  1.00  0.00     0.127 S 
ATOM     75  O   UNL A   1      49.683  28.676  21.674  1.00  0.00    -0.237 OA
ATOM     76  O   UNL A   1      51.261  26.792  21.868  1.00  0.00    -0.237 OA
ATOM     77  O   UNL A   1      48.887  26.350  21.438  1.00  0.00    -0.744 OA
ENDBRANCH  71  74
ENDBRANCH  43  67
BRANCH  55  78
ATOM     78  C   UNL A   1      45.405  32.851  28.992  1.00  0.00     0.023 A 
ATOM     79  C   UNL A   1      46.138  33.066  30.176  1.00  0.00     0.012 A 
ATOM     80  C   UNL A   1      45.230  33.913  28.083  1.00  0.00     0.148 A 
ATOM     81  C   UNL A   1      46.656  34.327  30.467  1.00  0.00     0.002 A 
ATOM     82  C   UNL A   1      45.797  35.151  28.353  1.00  0.00     0.091 A 
ATOM     83  F   UNL A   1      44.515  33.690  26.970  1.00  0.00    -0.205 F 
ATOM     84  C   UNL A   1      46.497  35.364  29.551  1.00  0.00     0.022 A 
BRANCH  82  85
ATOM     85  S   UNL A   1      45.729  36.517  27.188  1.00  0.00     0.127 S 
ATOM     86  O   UNL A   1      46.357  35.931  26.006  1.00  0.00    -0.237 OA
ATOM     87  O   UNL A   1      44.289  36.746  27.065  1.00  0.00    -0.237 OA
ATOM     88  O   UNL A   1      46.465  37.612  27.808  1.00  0.00    -0.744 OA
ENDBRANCH  82  85
ENDBRANCH  55  78
ENDBRANCH  29  30
ENDBRANCH  21  24
ENDBRANCH  19  20
ENDBRANCH  18  19
ENDBRANCH   1  18
TORSDOF 18
ENDMDL
MODEL 2
REMARK VINA RESULT:      -9.9      5.826     10.646
REMARK SMILES CC[N@@H+](C/C(Cl)=C/Cl)C[C@@H](C)C(=O)NCCCNC(=O)c1ccc(-c2c3nc(c(-c4cccc(S(=O)(=O)[O-])c4F)c4ccc([nH]4)c(-c4cccc(S(=O)(=O)[O-])c4F)c4nc(c(-c5cccc(S(=O)(=O)[O-])c5F)c5ccc2[nH]5)C=C4)C=C3)cc1
REMARK SMILES IDX 15 1 14 2 12 3 13 4 10 6 11 7 9 8 3 9 2 11 1 12 4 13 5 14
REMARK SMILES IDX 6 15 7 16 8 17 16 18 17 19 18 20 19 21 20 23 21 24 22 25
REMARK SMILES IDX 83 26 23 27 82 28 24 29 25 30 26 31 76 32 27 33 81 34 75 35
REMARK SMILES IDX 77 36 28 37 80 38 74 39 73 40 29 42 61 43 41 44 60 45 42 46
REMARK SMILES IDX 45 47 59 48 78 49 43 50 44 51 58 53 79 54 46 55 30 56 31 57
REMARK SMILES IDX 39 58 32 59 34 60 40 61 33 62 35 63 36 64 37 65 38 66 62 67
REMARK SMILES IDX 63 68 71 69 64 70 66 71 72 72 65 73 67 74 68 75 69 76 70 77
REMARK SMILES IDX 47 78 48 79 56 80 49 81 51 82 57 83 50 84 52 85 53 86 54 87
REMARK SMILES IDX 55 88
REMARK H PARENT 14 5 3 10 18 22 77 41 45 52
REMARK Flexibility Score: inf
ROOT
ATOM      1  C   UNL A   1      33.935  28.590  22.897  1.00  0.00     0.117 C 
ENDROOT
BRANCH   1   2
ATOM      2  N   UNL A   1      33.619  27.580  21.908  1.00  0.00    -0.356 N 
ATOM      3  C   UNL A   1      33.378  26.250  22.049  1.00  0.00     0.228 C 
ATOM      4  O   UNL A   1      33.186  25.593  21.024  1.00  0.00    -0.275 OA
ATOM      5  H   UNL A   1      33.569  27.911  20.982  1.00  0.00     0.163 HD
BRANCH   3   6
ATOM      6  C   UNL A   1      33.314  25.591  23.422  1.00  0.00     0.130 C 
ATOM      7  C   UNL A   1      34.486  24.627  23.600  1.00  0.00     0.024 C 
BRANCH   6   8
ATOM      8  C   UNL A   1      31.886  25.079  23.713  1.00  0.00     0.275 C 
BRANCH   8   9
ATOM      9  N   UNL A   1      31.224  25.406  24.978  1.00  0.00    -0.330 N 
ATOM     10  H   UNL A   1      32.024  25.843  25.437  1.00  0.00     0.348 HD
BRANCH   9  11
ATOM     11  C   UNL A   1      30.318  26.544  25.038  1.00  0.00     0.259 C 
ATOM     12  C   UNL A   1      29.203  26.533  23.995  1.00  0.00     0.071 C 
ENDBRANCH   9  11
BRANCH   9  13
ATOM     13  C   UNL A   1      30.906  24.277  25.856  1.00  0.00     0.312 C 
BRANCH  13  14
ATOM     14  C   UNL A   1      31.837  23.086  25.866  1.00  0.00     0.083 C 
ATOM     15  Cl  UNL A   1      33.306  23.319  26.769  1.00  0.00    -0.082 Cl
ATOM     16  C   UNL A   1      31.566  21.922  25.261  1.00  0.00     0.102 C 
ATOM     17  Cl  UNL A   1      32.601  20.558  25.183  1.00  0.00    -0.091 Cl
ENDBRANCH  13  14
ENDBRANCH   9  13
ENDBRANCH   8   9
ENDBRANCH   6   8
ENDBRANCH   3   6
ENDBRANCH   1   2
BRANCH   1  18
ATOM     18  C   UNL A   1      32.715  28.990  23.708  1.00  0.00     0.042 C 
BRANCH  18  19
ATOM     19  C   UNL A   1      33.022  29.181  25.182  1.00  0.00     0.118 C 
BRANCH  19  20
ATOM     20  N   UNL A   1      32.462  30.422  25.705  1.00  0.00    -0.352 N 
ATOM     21  C   UNL A   1      32.862  31.176  26.780  1.00  0.00     0.251 C 
ATOM     22  H   UNL A   1      31.683  30.770  25.214  1.00  0.00     0.163 HD
ATOM     23  O   UNL A   1      32.132  32.057  27.216  1.00  0.00    -0.269 OA
BRANCH  21  24
ATOM     24  C   UNL A   1      34.171  30.905  27.407  1.00  0.00     0.039 A 
ATOM     25  C   UNL A   1      35.065  31.958  27.603  1.00  0.00     0.014 A 
ATOM     26  C   UNL A   1      34.504  29.610  27.808  1.00  0.00     0.014 A 
ATOM     27  C   UNL A   1      36.272  31.717  28.262  1.00  0.00     0.010 A 
ATOM     28  C   UNL A   1      35.650  29.395  28.558  1.00  0.00     0.010 A 
ATOM     29  C   UNL A   1      36.556  30.442  28.777  1.00  0.00    -0.014 A 
BRANCH  29  30
ATOM     30  C   UNL A   1      37.799  30.174  29.540  1.00  0.00     0.031 A 
ATOM     31  C   UNL A   1      38.843  29.247  28.974  1.00  0.00     0.074 A 
ATOM     32  C   UNL A   1      37.946  30.690  30.775  1.00  0.00     0.049 A 
ATOM     33  N   UNL A   1      39.962  28.841  29.514  1.00  0.00    -0.248 NA
ATOM     34  C   UNL A   1      38.581  28.676  27.641  1.00  0.00     0.031 C 
ATOM     35  C   UNL A   1      36.962  31.532  31.463  1.00  0.00     0.029 A 
ATOM     36  N   UNL A   1      38.966  30.564  31.683  1.00  0.00    -0.354 N 
ATOM     37  C   UNL A   1      40.515  27.943  28.610  1.00  0.00     0.074 A 
ATOM     38  C   UNL A   1      39.588  27.828  27.506  1.00  0.00     0.031 C 
ATOM     39  C   UNL A   1      37.434  31.855  32.678  1.00  0.00     0.029 A 
ATOM     40  C   UNL A   1      38.730  31.215  32.871  1.00  0.00     0.049 A 
ATOM     41  H   UNL A   1      39.789  30.055  31.501  1.00  0.00     0.167 HD
ATOM     42  C   UNL A   1      41.701  27.294  28.676  1.00  0.00     0.034 A 
ATOM     43  C   UNL A   1      39.470  31.279  33.995  1.00  0.00     0.034 A 
ATOM     44  C   UNL A   1      42.634  27.444  29.757  1.00  0.00     0.049 A 
ATOM     45  C   UNL A   1      40.802  30.578  34.028  1.00  0.00     0.074 A 
ATOM     46  C   UNL A   1      43.902  26.906  29.880  1.00  0.00     0.029 A 
ATOM     47  N   UNL A   1      42.397  28.179  30.909  1.00  0.00    -0.354 N 
ATOM     48  N   UNL A   1      41.379  29.860  33.096  1.00  0.00    -0.248 NA
ATOM     49  C   UNL A   1      41.599  30.725  35.253  1.00  0.00     0.031 C 
ATOM     50  C   UNL A   1      44.418  27.286  31.122  1.00  0.00     0.029 A 
ATOM     51  C   UNL A   1      43.489  28.096  31.756  1.00  0.00     0.049 A 
ATOM     52  H   UNL A   1      41.573  28.684  31.097  1.00  0.00     0.167 HD
ATOM     53  C   UNL A   1      42.622  29.502  33.604  1.00  0.00     0.074 A 
ATOM     54  C   UNL A   1      42.720  30.100  34.921  1.00  0.00     0.031 C 
ATOM     55  C   UNL A   1      43.590  28.737  33.041  1.00  0.00     0.034 A 
BRANCH  42  56
ATOM     56  C   UNL A   1      42.075  26.397  27.524  1.00  0.00     0.023 A 
ATOM     57  C   UNL A   1      42.809  26.919  26.439  1.00  0.00     0.012 A 
ATOM     58  C   UNL A   1      41.747  25.027  27.540  1.00  0.00     0.148 A 
ATOM     59  C   UNL A   1      43.176  26.103  25.370  1.00  0.00     0.002 A 
ATOM     60  C   UNL A   1      42.162  24.208  26.496  1.00  0.00     0.091 A 
ATOM     61  F   UNL A   1      41.032  24.552  28.569  1.00  0.00    -0.205 F 
ATOM     62  C   UNL A   1      42.863  24.747  25.404  1.00  0.00     0.022 A 
BRANCH  60  63
ATOM     63  S   UNL A   1      41.884  22.434  26.484  1.00  0.00     0.127 S 
ATOM     64  O   UNL A   1      40.452  22.363  26.195  1.00  0.00    -0.237 OA
ATOM     65  O   UNL A   1      42.750  21.997  25.389  1.00  0.00    -0.237 OA
ATOM     66  O   UNL A   1      42.279  21.956  27.801  1.00  0.00    -0.744 OA
ENDBRANCH  60  63
ENDBRANCH  42  56
BRANCH  43  67
ATOM     67  C   UNL A   1      38.997  32.083  35.157  1.00  0.00     0.023 A 
ATOM     68  C   UNL A   1      39.100  33.488  35.116  1.00  0.00     0.012 A 
ATOM     69  C   UNL A   1      38.425  31.468  36.286  1.00  0.00     0.148 A 
ATOM     70  C   UNL A   1      38.677  34.263  36.197  1.00  0.00     0.002 A 
ATOM     71  C   UNL A   1      37.953  32.249  37.335  1.00  0.00     0.091 A 
ATOM     72  F   UNL A   1      38.343  30.131  36.308  1.00  0.00    -0.205 F 
ATOM     73  C   UNL A   1      38.096  33.645  37.302  1.00  0.00     0.022 A 
BRANCH  71  74
ATOM     74  S   UNL A   1      37.072  31.552  38.736  1.00  0.00     0.127 S 
ATOM     75  O   UNL A   1      36.816  30.189  38.281  1.00  0.00    -0.237 OA
ATOM     76  O   UNL A   1      38.065  31.670  39.804  1.00  0.00    -0.237 OA
ATOM     77  O   UNL A   1      35.894  32.389  38.918  1.00  0.00    -0.744 OA
ENDBRANCH  71  74
ENDBRANCH  43  67
BRANCH  55  78
ATOM     78  C   UNL A   1      44.864  28.538  33.820  1.00  0.00     0.023 A 
ATOM     79  C   UNL A   1      45.931  29.446  33.674  1.00  0.00     0.012 A 
ATOM     80  C   UNL A   1      44.970  27.488  34.754  1.00  0.00     0.148 A 
ATOM     81  C   UNL A   1      47.098  29.290  34.420  1.00  0.00     0.002 A 
ATOM     82  C   UNL A   1      46.114  27.373  35.533  1.00  0.00     0.091 A 
ATOM     83  F   UNL A   1      43.949  26.625  34.865  1.00  0.00    -0.205 F 
ATOM     84  C   UNL A   1      47.184  28.263  35.356  1.00  0.00     0.022 A 
BRANCH  82  85
ATOM     85  S   UNL A   1      46.274  26.144  36.833  1.00  0.00     0.127 S 
ATOM     86  O   UNL A   1      44.966  26.221  37.479  1.00  0.00    -0.237 OA
ATOM     87  O   UNL A   1      46.507  24.917  36.070  1.00  0.00    -0.237 OA
ATOM     88  O   UNL A   1      47.401  26.570  37.653  1.00  0.00    -0.744 OA
ENDBRANCH  82  85
ENDBRANCH  55  78
ENDBRANCH  29  30
ENDBRANCH  21  24
ENDBRANCH  19  20
ENDBRANCH  18  19
ENDBRANCH   1  18
TORSDOF 18
ENDMDL
MODEL 3
REMARK VINA RESULT:      -9.8      1.670      2.353
REMARK SMILES CC[N@@H+](C/C(Cl)=C/Cl)C[C@@H](C)C(=O)NCCCNC(=O)c1ccc(-c2c3nc(c(-c4cccc(S(=O)(=O)[O-])c4F)c4ccc([nH]4)c(-c4cccc(S(=O)(=O)[O-])c4F)c4nc(c(-c5cccc(S(=O)(=O)[O-])c5F)c5ccc2[nH]5)C=C4)C=C3)cc1
REMARK SMILES IDX 15 1 14 2 12 3 13 4 10 6 11 7 9 8 3 9 2 11 1 12 4 13 5 14
REMARK SMILES IDX 6 15 7 16 8 17 16 18 17 19 18 20 19 21 20 23 21 24 22 25
REMARK SMILES IDX 83 26 23 27 82 28 24 29 25 30 26 31 76 32 27 33 81 34 75 35
REMARK SMILES IDX 77 36 28 37 80 38 74 39 73 40 29 42 61 43 41 44 60 45 42 46
REMARK SMILES IDX 45 47 59 48 78 49 43 50 44 51 58 53 79 54 46 55 30 56 31 57
REMARK SMILES IDX 39 58 32 59 34 60 40 61 33 62 35 63 36 64 37 65 38 66 62 67
REMARK SMILES IDX 63 68 71 69 64 70 66 71 72 72 65 73 67 74 68 75 69 76 70 77
REMARK SMILES IDX 47 78 48 79 56 80 49 81 51 82 57 83 50 84 52 85 53 86 54 87
REMARK SMILES IDX 55 88
REMARK H PARENT 14 5 3 10 18 22 77 41 45 52
REMARK Flexibility Score: inf
ROOT
ATOM      1  C   UNL A   1      36.875  21.024  24.962  1.00  0.00     0.117 C 
ENDROOT
BRANCH   1   2
ATOM      2  N   UNL A   1      35.557  20.425  25.024  1.00  0.00    -0.356 N 
ATOM      3  C   UNL A   1      34.400  20.890  25.563  1.00  0.00     0.228 C 
ATOM      4  O   UNL A   1      33.417  20.146  25.532  1.00  0.00    -0.275 OA
ATOM      5  H   UNL A   1      35.488  19.536  24.606  1.00  0.00     0.163 HD
BRANCH   3   6
ATOM      6  C   UNL A   1      34.301  22.289  26.159  1.00  0.00     0.130 C 
ATOM      7  C   UNL A   1      34.181  22.209  27.680  1.00  0.00     0.024 C 
BRANCH   6   8
ATOM      8  C   UNL A   1      33.272  23.140  25.381  1.00  0.00     0.275 C 
BRANCH   8   9
ATOM      9  N   UNL A   1      33.128  22.987  23.931  1.00  0.00    -0.330 N 
ATOM     10  H   UNL A   1      33.673  22.130  23.833  1.00  0.00     0.348 HD
BRANCH   9  11
ATOM     11  C   UNL A   1      31.874  22.486  23.386  1.00  0.00     0.259 C 
ATOM     12  C   UNL A   1      32.017  21.309  22.423  1.00  0.00     0.071 C 
ENDBRANCH   9  11
BRANCH   9  13
ATOM     13  C   UNL A   1      33.857  23.950  23.101  1.00  0.00     0.312 C 
BRANCH  13  14
ATOM     14  C   UNL A   1      33.185  25.259  22.756  1.00  0.00     0.083 C 
ATOM     15  Cl  UNL A   1      32.815  25.465  21.068  1.00  0.00    -0.082 Cl
ATOM     16  C   UNL A   1      32.863  26.193  23.660  1.00  0.00     0.102 C 
ATOM     17  Cl  UNL A   1      32.158  27.720  23.330  1.00  0.00    -0.091 Cl
ENDBRANCH  13  14
ENDBRANCH   9  13
ENDBRANCH   8   9
ENDBRANCH   6   8
ENDBRANCH   3   6
ENDBRANCH   1   2
BRANCH   1  18
ATOM     18  C   UNL A   1      37.975  19.979  25.010  1.00  0.00     0.042 C 
BRANCH  18  19
ATOM     19  C   UNL A   1      39.173  20.419  25.833  1.00  0.00     0.118 C 
BRANCH  19  20
ATOM     20  N   UNL A   1      40.155  19.353  25.987  1.00  0.00    -0.352 N 
ATOM     21  C   UNL A   1      41.521  19.433  26.101  1.00  0.00     0.251 C 
ATOM     22  H   UNL A   1      39.785  18.440  26.013  1.00  0.00     0.163 HD
ATOM     23  O   UNL A   1      42.207  18.426  25.983  1.00  0.00    -0.269 OA
BRANCH  21  24
ATOM     24  C   UNL A   1      42.149  20.745  26.357  1.00  0.00     0.039 A 
ATOM     25  C   UNL A   1      42.465  21.572  25.278  1.00  0.00     0.014 A 
ATOM     26  C   UNL A   1      42.411  21.157  27.665  1.00  0.00     0.014 A 
ATOM     27  C   UNL A   1      42.989  22.843  25.520  1.00  0.00     0.010 A 
ATOM     28  C   UNL A   1      42.827  22.458  27.907  1.00  0.00     0.010 A 
ATOM     29  C   UNL A   1      43.139  23.308  26.838  1.00  0.00    -0.014 A 
BRANCH  29  30
ATOM     30  C   UNL A   1      43.629  24.678  27.124  1.00  0.00     0.031 A 
ATOM     31  C   UNL A   1      42.680  25.718  27.658  1.00  0.00     0.074 A 
ATOM     32  C   UNL A   1      44.899  25.007  26.819  1.00  0.00     0.049 A 
ATOM     33  N   UNL A   1      42.903  26.981  27.911  1.00  0.00    -0.248 NA
ATOM     34  C   UNL A   1      41.292  25.294  27.909  1.00  0.00     0.031 C 
ATOM     35  C   UNL A   1      45.886  24.106  26.217  1.00  0.00     0.029 A 
ATOM     36  N   UNL A   1      45.572  26.195  26.950  1.00  0.00    -0.354 N 
ATOM     37  C   UNL A   1      41.681  27.508  28.312  1.00  0.00     0.074 A 
ATOM     38  C   UNL A   1      40.711  26.441  28.227  1.00  0.00     0.031 C 
ATOM     39  C   UNL A   1      47.039  24.771  26.042  1.00  0.00     0.029 A 
ATOM     40  C   UNL A   1      46.864  26.151  26.482  1.00  0.00     0.049 A 
ATOM     41  H   UNL A   1      45.167  27.003  27.341  1.00  0.00     0.167 HD
ATOM     42  C   UNL A   1      41.397  28.760  28.742  1.00  0.00     0.034 A 
ATOM     43  C   UNL A   1      47.800  27.117  26.406  1.00  0.00     0.034 A 
ATOM     44  C   UNL A   1      42.376  29.805  28.862  1.00  0.00     0.049 A 
ATOM     45  C   UNL A   1      47.469  28.491  26.925  1.00  0.00     0.074 A 
ATOM     46  C   UNL A   1      42.215  31.079  29.373  1.00  0.00     0.029 A 
ATOM     47  N   UNL A   1      43.698  29.699  28.455  1.00  0.00    -0.354 N 
ATOM     48  N   UNL A   1      46.350  28.927  27.449  1.00  0.00    -0.248 NA
ATOM     49  C   UNL A   1      48.540  29.495  26.874  1.00  0.00     0.031 C 
ATOM     50  C   UNL A   1      43.431  31.758  29.243  1.00  0.00     0.029 A 
ATOM     51  C   UNL A   1      44.361  30.892  28.690  1.00  0.00     0.049 A 
ATOM     52  H   UNL A   1      44.104  28.896  28.059  1.00  0.00     0.167 HD
ATOM     53  C   UNL A   1      46.592  30.242  27.827  1.00  0.00     0.074 A 
ATOM     54  C   UNL A   1      47.972  30.524  27.487  1.00  0.00     0.031 C 
ATOM     55  C   UNL A   1      45.747  31.140  28.391  1.00  0.00     0.034 A 
BRANCH  42  56
ATOM     56  C   UNL A   1      39.979  29.054  29.158  1.00  0.00     0.023 A 
ATOM     57  C   UNL A   1      38.995  29.286  28.175  1.00  0.00     0.012 A 
ATOM     58  C   UNL A   1      39.609  29.050  30.517  1.00  0.00     0.148 A 
ATOM     59  C   UNL A   1      37.675  29.546  28.538  1.00  0.00     0.002 A 
ATOM     60  C   UNL A   1      38.281  29.260  30.869  1.00  0.00     0.091 A 
ATOM     61  F   UNL A   1      40.562  28.850  31.439  1.00  0.00    -0.205 F 
ATOM     62  C   UNL A   1      37.316  29.523  29.882  1.00  0.00     0.022 A 
BRANCH  60  63
ATOM     63  S   UNL A   1      37.700  29.166  32.566  1.00  0.00     0.127 S 
ATOM     64  O   UNL A   1      36.326  29.650  32.433  1.00  0.00    -0.237 OA
ATOM     65  O   UNL A   1      37.818  27.736  32.849  1.00  0.00    -0.237 OA
ATOM     66  O   UNL A   1      38.589  30.016  33.343  1.00  0.00    -0.744 OA
ENDBRANCH  60  63
ENDBRANCH  42  56
BRANCH  43  67
ATOM     67  C   UNL A   1      49.155  26.805  25.871  1.00  0.00     0.023 A 
ATOM     68  C   UNL A   1      50.059  26.066  26.660  1.00  0.00     0.012 A 
ATOM     69  C   UNL A   1      49.543  27.212  24.581  1.00  0.00     0.148 A 
ATOM     70  C   UNL A   1      51.339  25.773  26.188  1.00  0.00     0.002 A 
ATOM     71  C   UNL A   1      50.799  26.866  24.094  1.00  0.00     0.091 A 
ATOM     72  F   UNL A   1      48.671  27.919  23.849  1.00  0.00    -0.205 F 
ATOM     73  C   UNL A   1      51.706  26.164  24.903  1.00  0.00     0.022 A 
BRANCH  71  74
ATOM     74  S   UNL A   1      51.308  27.212  22.406  1.00  0.00     0.127 S 
ATOM     75  O   UNL A   1      52.548  26.448  22.306  1.00  0.00    -0.237 OA
ATOM     76  O   UNL A   1      50.186  26.671  21.639  1.00  0.00    -0.237 OA
ATOM     77  O   UNL A   1      51.448  28.659  22.325  1.00  0.00    -0.744 OA
ENDBRANCH  71  74
ENDBRANCH  43  67
BRANCH  55  78
ATOM     78  C   UNL A   1      46.297  32.502  28.724  1.00  0.00     0.023 A 
ATOM     79  C   UNL A   1      46.763  32.777  30.025  1.00  0.00     0.012 A 
ATOM     80  C   UNL A   1      46.420  33.486  27.722  1.00  0.00     0.148 A 
ATOM     81  C   UNL A   1      47.310  34.023  30.332  1.00  0.00     0.002 A 
ATOM     82  C   UNL A   1      47.015  34.704  28.022  1.00  0.00     0.091 A 
ATOM     83  F   UNL A   1      45.954  33.209  26.495  1.00  0.00    -0.205 F 
ATOM     84  C   UNL A   1      47.447  34.979  29.329  1.00  0.00     0.022 A 
BRANCH  82  85
ATOM     85  S   UNL A   1      47.325  35.957  26.774  1.00  0.00     0.127 S 
ATOM     86  O   UNL A   1      45.968  36.333  26.385  1.00  0.00    -0.237 OA
ATOM     87  O   UNL A   1      48.046  36.978  27.536  1.00  0.00    -0.237 OA
ATOM     88  O   UNL A   1      48.115  35.307  25.736  1.00  0.00    -0.744 OA
ENDBRANCH  82  85
ENDBRANCH  55  78
ENDBRANCH  29  30
ENDBRANCH  21  24
ENDBRANCH  19  20
ENDBRANCH  18  19
ENDBRANCH   1  18
TORSDOF 18
ENDMDL
