MODEL 1
REMARK VINA RESULT:     -13.1      0.000      0.000
REMARK SMILES COc1ccc(-n2c(SCc3cn(-c4ccc(C(=O)NCCCNC(=O)c5ccc(-c6c7nc(c(-c8cccc(S(=O)(=O)[O-])c8F)c8ccc([nH]8)c(-c8cccc(S(=O)(=O)[O-])c8F)c8nc(c(-c9cccc(S(=O)(=O)[O-])c9F)c9ccc6[nH]9)C=C8)C=C7)cc5)cc4)nn3)nc3ccccc3c2=O)cc1
REMARK SMILES IDX 18 1 19 2 20 3 17 5 14 6 15 7 91 8 16 9 90 10 13 11 11 12
REMARK SMILES IDX 12 13 93 14 92 15 10 16 9 17 8 18 7 19 101 20 94 21 100 22
REMARK SMILES IDX 102 23 95 24 99 25 96 26 98 27 97 28 6 29 3 30 4 31 104 32
REMARK SMILES IDX 5 33 103 34 2 35 1 36 21 37 22 38 23 39 24 40 25 41 26 43
REMARK SMILES IDX 27 44 28 45 89 46 29 47 88 48 30 49 31 50 32 51 82 52 33 53
REMARK SMILES IDX 87 54 81 55 83 56 34 57 86 58 80 59 79 60 35 62 67 63 47 64
REMARK SMILES IDX 66 65 48 66 51 67 65 68 84 69 49 70 50 71 64 73 85 74 52 75
REMARK SMILES IDX 36 76 37 77 45 78 38 79 40 80 46 81 39 82 41 83 42 84 43 85
REMARK SMILES IDX 44 86 68 87 69 88 77 89 70 90 72 91 78 92 71 93 73 94 74 95
REMARK SMILES IDX 75 96 76 97 53 98 54 99 62 100 55 101 57 102 63 103 56 104
REMARK SMILES IDX 58 105 59 106 60 107 61 108
REMARK H PARENT 20 4 24 42 83 61 51 72
REMARK Flexibility Score: inf
ROOT
ATOM      1  C   UNL A   1      32.013  31.339  26.561  1.00  0.00     0.251 C 
ATOM      2  O   UNL A   1      31.033  31.929  26.121  1.00  0.00    -0.269 OA
ATOM      3  N   UNL A   1      32.906  32.047  27.330  1.00  0.00    -0.352 N 
ATOM      4  H   UNL A   1      32.759  33.022  27.315  1.00  0.00     0.163 HD
ENDROOT
BRANCH   1   5
ATOM      5  C   UNL A   1      32.123  29.874  26.345  1.00  0.00     0.039 A 
ATOM      6  C   UNL A   1      31.815  27.217  25.647  1.00  0.00     0.066 A 
ATOM      7  C   UNL A   1      32.384  28.085  24.720  1.00  0.00     0.029 A 
ATOM      8  C   UNL A   1      31.583  27.612  26.965  1.00  0.00     0.029 A 
ATOM      9  C   UNL A   1      32.503  29.428  25.068  1.00  0.00     0.016 A 
ATOM     10  C   UNL A   1      31.796  28.931  27.315  1.00  0.00     0.016 A 
BRANCH   6  11
ATOM     11  N   UNL A   1      31.329  25.976  25.234  1.00  0.00    -0.220 N 
ATOM     12  C   UNL A   1      30.801  23.879  25.184  1.00  0.00     0.093 A 
ATOM     13  C   UNL A   1      31.342  24.842  25.995  1.00  0.00     0.141 A 
ATOM     14  N   UNL A   1      30.384  24.458  24.022  1.00  0.00    -0.134 NA
ATOM     15  N   UNL A   1      30.654  25.757  24.090  1.00  0.00    -0.062 NA
BRANCH  12  16
ATOM     16  C   UNL A   1      30.618  22.449  25.448  1.00  0.00     0.138 C 
BRANCH  16  17
ATOM     17  S   UNL A   1      32.144  21.629  25.909  1.00  0.00    -0.081 SA
BRANCH  17  18
ATOM     18  C   UNL A   1      32.841  21.031  24.339  1.00  0.00     0.176 A 
ATOM     19  N   UNL A   1      33.850  20.112  24.535  1.00  0.00    -0.255 N 
ATOM     20  C   UNL A   1      35.110  20.642  24.777  1.00  0.00     0.266 A 
ATOM     21  N   UNL A   1      33.032  21.958  23.444  1.00  0.00    -0.223 NA
ATOM     22  C   UNL A   1      35.164  22.134  24.615  1.00  0.00     0.066 A 
ATOM     23  O   UNL A   1      36.104  20.025  25.142  1.00  0.00    -0.268 OA
ATOM     24  C   UNL A   1      34.160  22.727  23.818  1.00  0.00     0.079 A 
ATOM     25  C   UNL A   1      35.969  22.925  25.430  1.00  0.00     0.016 A 
ATOM     26  C   UNL A   1      34.078  24.114  23.712  1.00  0.00     0.029 A 
ATOM     27  C   UNL A   1      35.792  24.312  25.414  1.00  0.00     0.001 A 
ATOM     28  C   UNL A   1      34.883  24.906  24.530  1.00  0.00     0.002 A 
BRANCH  19  29
ATOM     29  C   UNL A   1      33.539  18.734  24.557  1.00  0.00     0.052 A 
ATOM     30  C   UNL A   1      33.564  15.977  24.969  1.00  0.00     0.119 A 
ATOM     31  C   UNL A   1      32.878  16.792  25.863  1.00  0.00     0.048 A 
ATOM     32  C   UNL A   1      34.124  16.514  23.810  1.00  0.00     0.048 A 
ATOM     33  C   UNL A   1      32.896  18.178  25.676  1.00  0.00     0.030 A 
ATOM     34  C   UNL A   1      34.077  17.892  23.582  1.00  0.00     0.030 A 
BRANCH  30  35
ATOM     35  O   UNL A   1      33.649  14.632  25.210  1.00  0.00    -0.497 OA
ATOM     36  C   UNL A   1      32.428  14.145  25.785  1.00  0.00     0.278 C 
ENDBRANCH  30  35
ENDBRANCH  19  29
ENDBRANCH  17  18
ENDBRANCH  16  17
ENDBRANCH  12  16
ENDBRANCH   6  11
ENDBRANCH   1   5
BRANCH   3  37
ATOM     37  C   UNL A   1      34.024  31.630  28.162  1.00  0.00     0.118 C 
BRANCH  37  38
ATOM     38  C   UNL A   1      35.377  32.099  27.608  1.00  0.00     0.042 C 
BRANCH  38  39
ATOM     39  C   UNL A   1      36.067  33.057  28.548  1.00  0.00     0.118 C 
BRANCH  39  40
ATOM     40  N   UNL A   1      35.477  33.047  29.896  1.00  0.00    -0.352 N 
ATOM     41  C   UNL A   1      35.638  32.099  30.900  1.00  0.00     0.251 C 
ATOM     42  H   UNL A   1      34.893  33.809  30.115  1.00  0.00     0.163 HD
ATOM     43  O   UNL A   1      34.861  32.019  31.831  1.00  0.00    -0.269 OA
BRANCH  41  44
ATOM     44  C   UNL A   1      36.807  31.208  30.799  1.00  0.00     0.039 A 
ATOM     45  C   UNL A   1      36.761  29.913  30.276  1.00  0.00     0.014 A 
ATOM     46  C   UNL A   1      38.011  31.779  31.171  1.00  0.00     0.014 A 
ATOM     47  C   UNL A   1      37.967  29.239  30.103  1.00  0.00     0.010 A 
ATOM     48  C   UNL A   1      39.147  31.291  30.623  1.00  0.00     0.010 A 
ATOM     49  C   UNL A   1      39.158  29.954  30.291  1.00  0.00    -0.014 A 
BRANCH  49  50
ATOM     50  C   UNL A   1      40.482  29.391  30.136  1.00  0.00     0.031 A 
ATOM     51  C   UNL A   1      41.140  29.053  31.417  1.00  0.00     0.074 A 
ATOM     52  C   UNL A   1      40.909  28.946  28.929  1.00  0.00     0.049 A 
ATOM     53  N   UNL A   1      42.124  29.676  31.971  1.00  0.00    -0.248 NA
ATOM     54  C   UNL A   1      40.517  28.035  32.277  1.00  0.00     0.031 C 
ATOM     55  C   UNL A   1      40.178  28.879  27.649  1.00  0.00     0.029 A 
ATOM     56  N   UNL A   1      42.048  28.277  28.635  1.00  0.00    -0.354 N 
ATOM     57  C   UNL A   1      42.418  28.945  33.117  1.00  0.00     0.074 A 
ATOM     58  C   UNL A   1      41.256  28.138  33.384  1.00  0.00     0.031 C 
ATOM     59  C   UNL A   1      40.765  27.967  26.841  1.00  0.00     0.029 A 
ATOM     60  C   UNL A   1      41.995  27.523  27.465  1.00  0.00     0.049 A 
ATOM     61  H   UNL A   1      42.851  28.320  29.202  1.00  0.00     0.167 HD
ATOM     62  C   UNL A   1      43.697  28.840  33.572  1.00  0.00     0.034 A 
ATOM     63  C   UNL A   1      42.870  26.553  27.102  1.00  0.00     0.034 A 
ATOM     64  C   UNL A   1      44.573  29.762  32.887  1.00  0.00     0.049 A 
ATOM     65  C   UNL A   1      44.106  26.782  27.896  1.00  0.00     0.074 A 
ATOM     66  C   UNL A   1      44.578  31.130  32.689  1.00  0.00     0.029 A 
ATOM     67  N   UNL A   1      45.376  29.237  31.901  1.00  0.00    -0.354 N 
ATOM     68  N   UNL A   1      44.843  27.854  27.772  1.00  0.00    -0.248 NA
ATOM     69  C   UNL A   1      44.222  26.085  29.169  1.00  0.00     0.031 C 
ATOM     70  C   UNL A   1      44.936  31.290  31.316  1.00  0.00     0.029 A 
ATOM     71  C   UNL A   1      45.222  30.028  30.791  1.00  0.00     0.049 A 
ATOM     72  H   UNL A   1      45.953  28.443  31.977  1.00  0.00     0.167 HD
ATOM     73  C   UNL A   1      45.140  28.222  29.079  1.00  0.00     0.074 A 
ATOM     74  C   UNL A   1      44.811  27.046  29.890  1.00  0.00     0.031 C 
ATOM     75  C   UNL A   1      45.312  29.532  29.435  1.00  0.00     0.034 A 
BRANCH  62  76
ATOM     76  C   UNL A   1      44.259  27.662  34.330  1.00  0.00     0.023 A 
ATOM     77  C   UNL A   1      45.090  27.952  35.435  1.00  0.00     0.012 A 
ATOM     78  C   UNL A   1      44.252  26.327  33.865  1.00  0.00     0.148 A 
ATOM     79  C   UNL A   1      45.916  26.981  36.007  1.00  0.00     0.002 A 
ATOM     80  C   UNL A   1      45.015  25.347  34.489  1.00  0.00     0.091 A 
ATOM     81  F   UNL A   1      43.620  26.012  32.733  1.00  0.00    -0.205 F 
ATOM     82  C   UNL A   1      45.874  25.675  35.537  1.00  0.00     0.022 A 
BRANCH  80  83
ATOM     83  S   UNL A   1      44.967  23.634  33.947  1.00  0.00     0.127 S 
ATOM     84  O   UNL A   1      46.292  23.166  34.344  1.00  0.00    -0.237 OA
ATOM     85  O   UNL A   1      43.857  23.102  34.738  1.00  0.00    -0.237 OA
ATOM     86  O   UNL A   1      44.706  23.686  32.514  1.00  0.00    -0.744 OA
ENDBRANCH  80  83
ENDBRANCH  62  76
BRANCH  63  87
ATOM     87  C   UNL A   1      42.609  25.280  26.379  1.00  0.00     0.023 A 
ATOM     88  C   UNL A   1      43.475  24.861  25.348  1.00  0.00     0.012 A 
ATOM     89  C   UNL A   1      41.675  24.343  26.875  1.00  0.00     0.148 A 
ATOM     90  C   UNL A   1      43.429  23.549  24.851  1.00  0.00     0.002 A 
ATOM     91  C   UNL A   1      41.629  23.043  26.375  1.00  0.00     0.091 A 
ATOM     92  F   UNL A   1      40.895  24.695  27.906  1.00  0.00    -0.205 F 
ATOM     93  C   UNL A   1      42.511  22.639  25.367  1.00  0.00     0.022 A 
BRANCH  91  94
ATOM     94  S   UNL A   1      40.485  21.813  27.016  1.00  0.00     0.127 S 
ATOM     95  O   UNL A   1      39.189  22.454  26.787  1.00  0.00    -0.237 OA
ATOM     96  O   UNL A   1      40.761  20.666  26.155  1.00  0.00    -0.237 OA
ATOM     97  O   UNL A   1      40.837  21.651  28.419  1.00  0.00    -0.744 OA
ENDBRANCH  91  94
ENDBRANCH  63  87
BRANCH  75  98
ATOM     98  C   UNL A   1      45.349  30.582  28.349  1.00  0.00     0.023 A 
ATOM     99  C   UNL A   1      44.182  31.195  27.842  1.00  0.00     0.012 A 
ATOM    100  C   UNL A   1      46.596  31.111  27.982  1.00  0.00     0.148 A 
ATOM    101  C   UNL A   1      44.258  32.297  26.983  1.00  0.00     0.002 A 
ATOM    102  C   UNL A   1      46.669  32.230  27.162  1.00  0.00     0.091 A 
ATOM    103  F   UNL A   1      47.698  30.528  28.478  1.00  0.00    -0.205 F 
ATOM    104  C   UNL A   1      45.503  32.822  26.653  1.00  0.00     0.022 A 
BRANCH 102 105
ATOM    105  S   UNL A   1      48.235  33.027  26.803  1.00  0.00     0.127 S 
ATOM    106  O   UNL A   1      48.618  33.549  28.114  1.00  0.00    -0.237 OA
ATOM    107  O   UNL A   1      49.055  31.911  26.325  1.00  0.00    -0.237 OA
ATOM    108  O   UNL A   1      47.951  34.032  25.787  1.00  0.00    -0.744 OA
ENDBRANCH 102 105
ENDBRANCH  75  98
ENDBRANCH  49  50
ENDBRANCH  41  44
ENDBRANCH  39  40
ENDBRANCH  38  39
ENDBRANCH  37  38
ENDBRANCH   3  37
TORSDOF 19
ENDMDL
MODEL 2
REMARK VINA RESULT:     -12.1      1.903      2.302
REMARK SMILES COc1ccc(-n2c(SCc3cn(-c4ccc(C(=O)NCCCNC(=O)c5ccc(-c6c7nc(c(-c8cccc(S(=O)(=O)[O-])c8F)c8ccc([nH]8)c(-c8cccc(S(=O)(=O)[O-])c8F)c8nc(c(-c9cccc(S(=O)(=O)[O-])c9F)c9ccc6[nH]9)C=C8)C=C7)cc5)cc4)nn3)nc3ccccc3c2=O)cc1
REMARK SMILES IDX 18 1 19 2 20 3 17 5 14 6 15 7 91 8 16 9 90 10 13 11 11 12
REMARK SMILES IDX 12 13 93 14 92 15 10 16 9 17 8 18 7 19 101 20 94 21 100 22
REMARK SMILES IDX 102 23 95 24 99 25 96 26 98 27 97 28 6 29 3 30 4 31 104 32
REMARK SMILES IDX 5 33 103 34 2 35 1 36 21 37 22 38 23 39 24 40 25 41 26 43
REMARK SMILES IDX 27 44 28 45 89 46 29 47 88 48 30 49 31 50 32 51 82 52 33 53
REMARK SMILES IDX 87 54 81 55 83 56 34 57 86 58 80 59 79 60 35 62 67 63 47 64
REMARK SMILES IDX 66 65 48 66 51 67 65 68 84 69 49 70 50 71 64 73 85 74 52 75
REMARK SMILES IDX 36 76 37 77 45 78 38 79 40 80 46 81 39 82 41 83 42 84 43 85
REMARK SMILES IDX 44 86 68 87 69 88 77 89 70 90 72 91 78 92 71 93 73 94 74 95
REMARK SMILES IDX 75 96 76 97 53 98 54 99 62 100 55 101 57 102 63 103 56 104
REMARK SMILES IDX 58 105 59 106 60 107 61 108
REMARK H PARENT 20 4 24 42 83 61 51 72
REMARK Flexibility Score: inf
ROOT
ATOM      1  C   UNL A   1      32.491  31.418  26.932  1.00  0.00     0.251 C 
ATOM      2  O   UNL A   1      31.588  32.070  26.418  1.00  0.00    -0.269 OA
ATOM      3  N   UNL A   1      33.449  32.094  27.651  1.00  0.00    -0.352 N 
ATOM      4  H   UNL A   1      33.413  33.072  27.542  1.00  0.00     0.163 HD
ENDROOT
BRANCH   1   5
ATOM      5  C   UNL A   1      32.437  29.936  26.857  1.00  0.00     0.039 A 
ATOM      6  C   UNL A   1      32.021  27.278  26.221  1.00  0.00     0.066 A 
ATOM      7  C   UNL A   1      33.067  27.953  25.599  1.00  0.00     0.029 A 
ATOM      8  C   UNL A   1      31.317  27.849  27.282  1.00  0.00     0.029 A 
ATOM      9  C   UNL A   1      33.248  29.302  25.900  1.00  0.00     0.016 A 
ATOM     10  C   UNL A   1      31.576  29.161  27.627  1.00  0.00     0.016 A 
BRANCH   6  11
ATOM     11  N   UNL A   1      31.561  26.071  25.695  1.00  0.00    -0.220 N 
ATOM     12  C   UNL A   1      30.990  23.995  25.486  1.00  0.00     0.093 A 
ATOM     13  C   UNL A   1      31.450  24.907  26.400  1.00  0.00     0.141 A 
ATOM     14  N   UNL A   1      30.737  24.634  24.308  1.00  0.00    -0.134 NA
ATOM     15  N   UNL A   1      31.029  25.920  24.468  1.00  0.00    -0.062 NA
BRANCH  12  16
ATOM     16  C   UNL A   1      30.740  22.562  25.661  1.00  0.00     0.138 C 
BRANCH  16  17
ATOM     17  S   UNL A   1      32.230  21.639  26.036  1.00  0.00    -0.081 SA
BRANCH  17  18
ATOM     18  C   UNL A   1      32.849  21.079  24.420  1.00  0.00     0.176 A 
ATOM     19  N   UNL A   1      33.804  20.093  24.542  1.00  0.00    -0.255 N 
ATOM     20  C   UNL A   1      35.100  20.533  24.773  1.00  0.00     0.266 A 
ATOM     21  N   UNL A   1      33.072  22.036  23.565  1.00  0.00    -0.223 NA
ATOM     22  C   UNL A   1      35.241  22.026  24.682  1.00  0.00     0.066 A 
ATOM     23  O   UNL A   1      36.064  19.840  25.079  1.00  0.00    -0.268 OA
ATOM     24  C   UNL A   1      34.255  22.717  23.943  1.00  0.00     0.079 A 
ATOM     25  C   UNL A   1      36.114  22.725  25.510  1.00  0.00     0.016 A 
ATOM     26  C   UNL A   1      34.255  24.110  23.906  1.00  0.00     0.029 A 
ATOM     27  C   UNL A   1      36.022  24.119  25.565  1.00  0.00     0.001 A 
ATOM     28  C   UNL A   1      35.128  24.811  24.738  1.00  0.00     0.002 A 
BRANCH  19  29
ATOM     29  C   UNL A   1      33.410  18.737  24.507  1.00  0.00     0.052 A 
ATOM     30  C   UNL A   1      33.265  15.968  24.805  1.00  0.00     0.119 A 
ATOM     31  C   UNL A   1      32.627  16.786  25.731  1.00  0.00     0.048 A 
ATOM     32  C   UNL A   1      33.862  16.518  23.670  1.00  0.00     0.048 A 
ATOM     33  C   UNL A   1      32.730  18.175  25.602  1.00  0.00     0.030 A 
ATOM     34  C   UNL A   1      33.899  17.903  23.499  1.00  0.00     0.030 A 
BRANCH  30  35
ATOM     35  O   UNL A   1      33.267  14.612  24.992  1.00  0.00    -0.497 OA
ATOM     36  C   UNL A   1      32.441  14.255  26.108  1.00  0.00     0.278 C 
ENDBRANCH  30  35
ENDBRANCH  19  29
ENDBRANCH  17  18
ENDBRANCH  16  17
ENDBRANCH  12  16
ENDBRANCH   6  11
ENDBRANCH   1   5
BRANCH   3  37
ATOM     37  C   UNL A   1      34.504  31.636  28.542  1.00  0.00     0.118 C 
BRANCH  37  38
ATOM     38  C   UNL A   1      35.761  31.185  27.783  1.00  0.00     0.042 C 
BRANCH  38  39
ATOM     39  C   UNL A   1      36.994  31.248  28.652  1.00  0.00     0.118 C 
BRANCH  39  40
ATOM     40  N   UNL A   1      36.802  32.092  29.843  1.00  0.00    -0.352 N 
ATOM     41  C   UNL A   1      37.238  31.859  31.143  1.00  0.00     0.251 C 
ATOM     42  H   UNL A   1      36.300  32.927  29.702  1.00  0.00     0.163 HD
ATOM     43  O   UNL A   1      36.751  32.441  32.091  1.00  0.00    -0.269 OA
BRANCH  41  44
ATOM     44  C   UNL A   1      38.335  30.891  31.317  1.00  0.00     0.039 A 
ATOM     45  C   UNL A   1      38.152  29.509  31.409  1.00  0.00     0.014 A 
ATOM     46  C   UNL A   1      39.606  31.437  31.286  1.00  0.00     0.014 A 
ATOM     47  C   UNL A   1      39.287  28.703  31.423  1.00  0.00     0.010 A 
ATOM     48  C   UNL A   1      40.632  30.648  30.890  1.00  0.00     0.010 A 
ATOM     49  C   UNL A   1      40.528  29.302  31.166  1.00  0.00    -0.014 A 
BRANCH  49  50
ATOM     50  C   UNL A   1      41.788  28.591  31.136  1.00  0.00     0.031 A 
ATOM     51  C   UNL A   1      42.400  28.407  32.469  1.00  0.00     0.074 A 
ATOM     52  C   UNL A   1      42.174  27.911  30.028  1.00  0.00     0.049 A 
ATOM     53  N   UNL A   1      43.440  29.011  32.936  1.00  0.00    -0.248 NA
ATOM     54  C   UNL A   1      41.671  27.613  33.471  1.00  0.00     0.031 C 
ATOM     55  C   UNL A   1      41.447  27.706  28.761  1.00  0.00     0.029 A 
ATOM     56  N   UNL A   1      43.240  27.091  29.875  1.00  0.00    -0.354 N 
ATOM     57  C   UNL A   1      43.650  28.456  34.193  1.00  0.00     0.074 A 
ATOM     58  C   UNL A   1      42.411  27.824  34.562  1.00  0.00     0.031 C 
ATOM     59  C   UNL A   1      41.942  26.618  28.128  1.00  0.00     0.029 A 
ATOM     60  C   UNL A   1      43.116  26.163  28.845  1.00  0.00     0.049 A 
ATOM     61  H   UNL A   1      44.040  27.147  30.445  1.00  0.00     0.167 HD
ATOM     62  C   UNL A   1      44.909  28.299  34.688  1.00  0.00     0.034 A 
ATOM     63  C   UNL A   1      43.889  25.062  28.666  1.00  0.00     0.034 A 
ATOM     64  C   UNL A   1      45.879  29.002  33.880  1.00  0.00     0.049 A 
ATOM     65  C   UNL A   1      45.138  25.295  29.440  1.00  0.00     0.074 A 
ATOM     66  C   UNL A   1      46.027  30.311  33.459  1.00  0.00     0.029 A 
ATOM     67  N   UNL A   1      46.630  28.242  33.013  1.00  0.00    -0.354 N 
ATOM     68  N   UNL A   1      45.981  26.252  29.157  1.00  0.00    -0.248 NA
ATOM     69  C   UNL A   1      45.174  24.812  30.813  1.00  0.00     0.031 C 
ATOM     70  C   UNL A   1      46.407  30.203  32.088  1.00  0.00     0.029 A 
ATOM     71  C   UNL A   1      46.565  28.849  31.784  1.00  0.00     0.049 A 
ATOM     72  H   UNL A   1      47.122  27.418  33.232  1.00  0.00     0.167 HD
ATOM     73  C   UNL A   1      46.308  26.800  30.393  1.00  0.00     0.074 A 
ATOM     74  C   UNL A   1      45.854  25.815  31.378  1.00  0.00     0.031 C 
ATOM     75  C   UNL A   1      46.611  28.127  30.531  1.00  0.00     0.034 A 
BRANCH  62  76
ATOM     76  C   UNL A   1      45.343  27.213  35.642  1.00  0.00     0.023 A 
ATOM     77  C   UNL A   1      46.123  27.612  36.750  1.00  0.00     0.012 A 
ATOM     78  C   UNL A   1      45.273  25.828  35.372  1.00  0.00     0.148 A 
ATOM     79  C   UNL A   1      46.844  26.688  37.511  1.00  0.00     0.002 A 
ATOM     80  C   UNL A   1      45.928  24.906  36.179  1.00  0.00     0.091 A 
ATOM     81  F   UNL A   1      44.692  25.389  34.254  1.00  0.00    -0.205 F 
ATOM     82  C   UNL A   1      46.743  25.332  37.229  1.00  0.00     0.022 A 
BRANCH  80  83
ATOM     83  S   UNL A   1      45.797  23.138  35.884  1.00  0.00     0.127 S 
ATOM     84  O   UNL A   1      45.487  22.641  37.221  1.00  0.00    -0.237 OA
ATOM     85  O   UNL A   1      44.693  23.078  34.926  1.00  0.00    -0.237 OA
ATOM     86  O   UNL A   1      47.085  22.739  35.333  1.00  0.00    -0.744 OA
ENDBRANCH  80  83
ENDBRANCH  62  76
BRANCH  63  87
ATOM     87  C   UNL A   1      43.503  23.720  28.157  1.00  0.00     0.023 A 
ATOM     88  C   UNL A   1      42.274  23.145  28.541  1.00  0.00     0.012 A 
ATOM     89  C   UNL A   1      44.204  23.120  27.086  1.00  0.00     0.148 A 
ATOM     90  C   UNL A   1      41.751  22.031  27.864  1.00  0.00     0.002 A 
ATOM     91  C   UNL A   1      43.684  22.012  26.421  1.00  0.00     0.091 A 
ATOM     92  F   UNL A   1      45.334  23.695  26.655  1.00  0.00    -0.205 F 
ATOM     93  C   UNL A   1      42.452  21.469  26.802  1.00  0.00     0.022 A 
BRANCH  91  94
ATOM     94  S   UNL A   1      44.527  21.254  25.025  1.00  0.00     0.127 S 
ATOM     95  O   UNL A   1      44.324  22.250  23.971  1.00  0.00    -0.237 OA
ATOM     96  O   UNL A   1      45.898  21.156  25.517  1.00  0.00    -0.237 OA
ATOM     97  O   UNL A   1      43.842  19.990  24.798  1.00  0.00    -0.744 OA
ENDBRANCH  91  94
ENDBRANCH  63  87
BRANCH  75  98
ATOM     98  C   UNL A   1      46.762  28.973  29.288  1.00  0.00     0.023 A 
ATOM     99  C   UNL A   1      47.890  28.891  28.443  1.00  0.00     0.012 A 
ATOM    100  C   UNL A   1      45.650  29.710  28.850  1.00  0.00     0.148 A 
ATOM    101  C   UNL A   1      47.915  29.538  27.203  1.00  0.00     0.002 A 
ATOM    102  C   UNL A   1      45.659  30.317  27.600  1.00  0.00     0.091 A 
ATOM    103  F   UNL A   1      44.578  29.771  29.655  1.00  0.00    -0.205 F 
ATOM    104  C   UNL A   1      46.792  30.241  26.776  1.00  0.00     0.022 A 
BRANCH 102 105
ATOM    105  S   UNL A   1      44.202  31.130  26.944  1.00  0.00     0.127 S 
ATOM    106  O   UNL A   1      43.799  31.981  28.061  1.00  0.00    -0.237 OA
ATOM    107  O   UNL A   1      44.737  31.851  25.787  1.00  0.00    -0.237 OA
ATOM    108  O   UNL A   1      43.269  30.065  26.599  1.00  0.00    -0.744 OA
ENDBRANCH 102 105
ENDBRANCH  75  98
ENDBRANCH  49  50
ENDBRANCH  41  44
ENDBRANCH  39  40
ENDBRANCH  38  39
ENDBRANCH  37  38
ENDBRANCH   3  37
TORSDOF 19
ENDMDL
MODEL 3
REMARK VINA RESULT:     -11.8      4.738      7.199
REMARK SMILES COc1ccc(-n2c(SCc3cn(-c4ccc(C(=O)NCCCNC(=O)c5ccc(-c6c7nc(c(-c8cccc(S(=O)(=O)[O-])c8F)c8ccc([nH]8)c(-c8cccc(S(=O)(=O)[O-])c8F)c8nc(c(-c9cccc(S(=O)(=O)[O-])c9F)c9ccc6[nH]9)C=C8)C=C7)cc5)cc4)nn3)nc3ccccc3c2=O)cc1
REMARK SMILES IDX 18 1 19 2 20 3 17 5 14 6 15 7 91 8 16 9 90 10 13 11 11 12
REMARK SMILES IDX 12 13 93 14 92 15 10 16 9 17 8 18 7 19 101 20 94 21 100 22
REMARK SMILES IDX 102 23 95 24 99 25 96 26 98 27 97 28 6 29 3 30 4 31 104 32
REMARK SMILES IDX 5 33 103 34 2 35 1 36 21 37 22 38 23 39 24 40 25 41 26 43
REMARK SMILES IDX 27 44 28 45 89 46 29 47 88 48 30 49 31 50 32 51 82 52 33 53
REMARK SMILES IDX 87 54 81 55 83 56 34 57 86 58 80 59 79 60 35 62 67 63 47 64
REMARK SMILES IDX 66 65 48 66 51 67 65 68 84 69 49 70 50 71 64 73 85 74 52 75
REMARK SMILES IDX 36 76 37 77 45 78 38 79 40 80 46 81 39 82 41 83 42 84 43 85
REMARK SMILES IDX 44 86 68 87 69 88 77 89 70 90 72 91 78 92 71 93 73 94 74 95
REMARK SMILES IDX 75 96 76 97 53 98 54 99 62 100 55 101 57 102 63 103 56 104
REMARK SMILES IDX 58 105 59 106 60 107 61 108
REMARK H PARENT 20 4 24 42 83 61 51 72
REMARK Flexibility Score: inf
ROOT
ATOM      1  C   UNL A   1      39.424  29.350  28.673  1.00  0.00     0.251 C 
ATOM      2  O   UNL A   1      40.358  30.126  28.849  1.00  0.00    -0.269 OA
ATOM      3  N   UNL A   1      38.150  29.867  28.644  1.00  0.00    -0.352 N 
ATOM      4  H   UNL A   1      38.093  30.805  28.940  1.00  0.00     0.163 HD
ENDROOT
BRANCH   1   5
ATOM      5  C   UNL A   1      39.722  27.925  28.382  1.00  0.00     0.039 A 
ATOM      6  C   UNL A   1      39.805  25.314  27.478  1.00  0.00     0.066 A 
ATOM      7  C   UNL A   1      40.397  26.305  26.700  1.00  0.00     0.029 A 
ATOM      8  C   UNL A   1      39.354  25.579  28.771  1.00  0.00     0.029 A 
ATOM      9  C   UNL A   1      40.320  27.622  27.147  1.00  0.00     0.016 A 
ATOM     10  C   UNL A   1      39.372  26.881  29.232  1.00  0.00     0.016 A 
BRANCH   6  11
ATOM     11  N   UNL A   1      39.520  24.068  26.921  1.00  0.00    -0.220 N 
ATOM     12  C   UNL A   1      38.497  22.424  25.957  1.00  0.00     0.093 A 
ATOM     13  C   UNL A   1      38.337  23.734  26.324  1.00  0.00     0.141 A 
ATOM     14  N   UNL A   1      39.774  22.036  26.233  1.00  0.00    -0.134 NA
ATOM     15  N   UNL A   1      40.412  23.073  26.765  1.00  0.00    -0.062 NA
BRANCH  12  16
ATOM     16  C   UNL A   1      37.530  21.520  25.327  1.00  0.00     0.138 C 
BRANCH  16  17
ATOM     17  S   UNL A   1      36.253  22.394  24.421  1.00  0.00    -0.081 SA
BRANCH  17  18
ATOM     18  C   UNL A   1      34.740  22.152  25.400  1.00  0.00     0.176 A 
ATOM     19  N   UNL A   1      33.816  21.367  24.744  1.00  0.00    -0.255 N 
ATOM     20  C   UNL A   1      33.002  22.027  23.835  1.00  0.00     0.266 A 
ATOM     21  N   UNL A   1      34.308  23.223  26.001  1.00  0.00    -0.223 NA
ATOM     22  C   UNL A   1      33.176  23.519  23.860  1.00  0.00     0.066 A 
ATOM     23  O   UNL A   1      32.238  21.510  23.028  1.00  0.00    -0.268 OA
ATOM     24  C   UNL A   1      33.719  24.079  25.038  1.00  0.00     0.079 A 
ATOM     25  C   UNL A   1      33.089  24.281  22.698  1.00  0.00     0.016 A 
ATOM     26  C   UNL A   1      34.014  25.439  25.095  1.00  0.00     0.029 A 
ATOM     27  C   UNL A   1      33.509  25.614  22.731  1.00  0.00     0.001 A 
ATOM     28  C   UNL A   1      33.929  26.202  23.931  1.00  0.00     0.002 A 
BRANCH  19  29
ATOM     29  C   UNL A   1      33.806  19.972  24.968  1.00  0.00     0.052 A 
ATOM     30  C   UNL A   1      33.373  17.223  24.799  1.00  0.00     0.119 A 
ATOM     31  C   UNL A   1      34.529  17.764  24.248  1.00  0.00     0.048 A 
ATOM     32  C   UNL A   1      32.502  18.023  25.540  1.00  0.00     0.048 A 
ATOM     33  C   UNL A   1      34.729  19.148  24.301  1.00  0.00     0.030 A 
ATOM     34  C   UNL A   1      32.740  19.394  25.660  1.00  0.00     0.030 A 
BRANCH  30  35
ATOM     35  O   UNL A   1      33.115  15.887  24.647  1.00  0.00    -0.497 OA
ATOM     36  C   UNL A   1      34.092  15.103  25.344  1.00  0.00     0.278 C 
ENDBRANCH  30  35
ENDBRANCH  19  29
ENDBRANCH  17  18
ENDBRANCH  16  17
ENDBRANCH  12  16
ENDBRANCH   6  11
ENDBRANCH   1   5
BRANCH   3  37
ATOM     37  C   UNL A   1      36.872  29.290  28.256  1.00  0.00     0.118 C 
BRANCH  37  38
ATOM     38  C   UNL A   1      35.849  30.355  27.834  1.00  0.00     0.042 C 
BRANCH  38  39
ATOM     39  C   UNL A   1      36.362  31.753  28.079  1.00  0.00     0.118 C 
BRANCH  39  40
ATOM     40  N   UNL A   1      35.288  32.691  28.445  1.00  0.00    -0.352 N 
ATOM     41  C   UNL A   1      34.855  33.051  29.717  1.00  0.00     0.251 C 
ATOM     42  H   UNL A   1      34.815  33.118  27.694  1.00  0.00     0.163 HD
ATOM     43  O   UNL A   1      33.769  33.565  29.897  1.00  0.00    -0.269 OA
BRANCH  41  44
ATOM     44  C   UNL A   1      35.781  32.802  30.835  1.00  0.00     0.039 A 
ATOM     45  C   UNL A   1      35.858  31.594  31.532  1.00  0.00     0.014 A 
ATOM     46  C   UNL A   1      36.668  33.830  31.099  1.00  0.00     0.014 A 
ATOM     47  C   UNL A   1      36.880  31.448  32.467  1.00  0.00     0.010 A 
ATOM     48  C   UNL A   1      37.852  33.522  31.676  1.00  0.00     0.010 A 
ATOM     49  C   UNL A   1      37.870  32.437  32.526  1.00  0.00    -0.014 A 
BRANCH  49  50
ATOM     50  C   UNL A   1      38.996  32.414  33.435  1.00  0.00     0.031 A 
ATOM     51  C   UNL A   1      38.758  33.149  34.696  1.00  0.00     0.074 A 
ATOM     52  C   UNL A   1      40.017  31.542  33.251  1.00  0.00     0.049 A 
ATOM     53  N   UNL A   1      39.271  34.280  35.043  1.00  0.00    -0.248 NA
ATOM     54  C   UNL A   1      37.686  32.681  35.588  1.00  0.00     0.031 C 
ATOM     55  C   UNL A   1      40.169  30.486  32.232  1.00  0.00     0.029 A 
ATOM     56  N   UNL A   1      41.068  31.294  34.068  1.00  0.00    -0.354 N 
ATOM     57  C   UNL A   1      38.792  34.519  36.326  1.00  0.00     0.074 A 
ATOM     58  C   UNL A   1      37.645  33.666  36.489  1.00  0.00     0.031 C 
ATOM     59  C   UNL A   1      41.057  29.563  32.667  1.00  0.00     0.029 A 
ATOM     60  C   UNL A   1      41.658  30.046  33.893  1.00  0.00     0.049 A 
ATOM     61  H   UNL A   1      41.389  31.945  34.733  1.00  0.00     0.167 HD
ATOM     62  C   UNL A   1      39.555  35.168  37.249  1.00  0.00     0.034 A 
ATOM     63  C   UNL A   1      42.517  29.442  34.754  1.00  0.00     0.034 A 
ATOM     64  C   UNL A   1      40.724  35.759  36.639  1.00  0.00     0.049 A 
ATOM     65  C   UNL A   1      43.067  30.517  35.622  1.00  0.00     0.074 A 
ATOM     66  C   UNL A   1      40.933  36.644  35.598  1.00  0.00     0.029 A 
ATOM     67  N   UNL A   1      41.916  35.093  36.810  1.00  0.00    -0.354 N 
ATOM     68  N   UNL A   1      43.806  31.493  35.163  1.00  0.00    -0.248 NA
ATOM     69  C   UNL A   1      42.373  30.790  36.872  1.00  0.00     0.031 C 
ATOM     70  C   UNL A   1      42.034  36.093  34.877  1.00  0.00     0.029 A 
ATOM     71  C   UNL A   1      42.491  34.970  35.570  1.00  0.00     0.049 A 
ATOM     72  H   UNL A   1      42.287  34.766  37.661  1.00  0.00     0.167 HD
ATOM     73  C   UNL A   1      43.307  32.628  35.792  1.00  0.00     0.074 A 
ATOM     74  C   UNL A   1      42.491  32.122  36.899  1.00  0.00     0.031 C 
ATOM     75  C   UNL A   1      43.323  33.852  35.181  1.00  0.00     0.034 A 
BRANCH  62  76
ATOM     76  C   UNL A   1      39.491  34.952  38.742  1.00  0.00     0.023 A 
ATOM     77  C   UNL A   1      39.433  36.108  39.552  1.00  0.00     0.012 A 
ATOM     78  C   UNL A   1      39.763  33.726  39.390  1.00  0.00     0.148 A 
ATOM     79  C   UNL A   1      39.693  36.056  40.924  1.00  0.00     0.002 A 
ATOM     80  C   UNL A   1      39.943  33.668  40.768  1.00  0.00     0.091 A 
ATOM     81  F   UNL A   1      39.993  32.623  38.676  1.00  0.00    -0.205 F 
ATOM     82  C   UNL A   1      39.943  34.833  41.534  1.00  0.00     0.022 A 
BRANCH  80  83
ATOM     83  S   UNL A   1      40.228  32.108  41.613  1.00  0.00     0.127 S 
ATOM     84  O   UNL A   1      39.024  31.362  41.260  1.00  0.00    -0.237 OA
ATOM     85  O   UNL A   1      41.458  31.642  40.971  1.00  0.00    -0.237 OA
ATOM     86  O   UNL A   1      40.383  32.450  43.020  1.00  0.00    -0.744 OA
ENDBRANCH  80  83
ENDBRANCH  62  76
BRANCH  63  87
ATOM     87  C   UNL A   1      42.644  27.999  35.089  1.00  0.00     0.023 A 
ATOM     88  C   UNL A   1      41.760  27.406  36.013  1.00  0.00     0.012 A 
ATOM     89  C   UNL A   1      43.450  27.141  34.306  1.00  0.00     0.148 A 
ATOM     90  C   UNL A   1      41.664  26.011  36.133  1.00  0.00     0.002 A 
ATOM     91  C   UNL A   1      43.356  25.757  34.433  1.00  0.00     0.091 A 
ATOM     92  F   UNL A   1      44.241  27.679  33.369  1.00  0.00    -0.205 F 
ATOM     93  C   UNL A   1      42.456  25.187  35.340  1.00  0.00     0.022 A 
BRANCH  91  94
ATOM     94  S   UNL A   1      44.332  24.637  33.419  1.00  0.00     0.127 S 
ATOM     95  O   UNL A   1      44.277  25.287  32.109  1.00  0.00    -0.237 OA
ATOM     96  O   UNL A   1      45.635  24.695  34.076  1.00  0.00    -0.237 OA
ATOM     97  O   UNL A   1      43.645  23.356  33.486  1.00  0.00    -0.744 OA
ENDBRANCH  91  94
ENDBRANCH  63  87
BRANCH  75  98
ATOM     98  C   UNL A   1      44.055  34.001  33.867  1.00  0.00     0.023 A 
ATOM     99  C   UNL A   1      45.461  34.102  33.786  1.00  0.00     0.012 A 
ATOM    100  C   UNL A   1      43.327  33.822  32.681  1.00  0.00     0.148 A 
ATOM    101  C   UNL A   1      46.121  34.042  32.554  1.00  0.00     0.002 A 
ATOM    102  C   UNL A   1      43.987  33.720  31.462  1.00  0.00     0.091 A 
ATOM    103  F   UNL A   1      41.992  33.714  32.770  1.00  0.00    -0.205 F 
ATOM    104  C   UNL A   1      45.383  33.838  31.392  1.00  0.00     0.022 A 
BRANCH 102 105
ATOM    105  S   UNL A   1      43.104  33.333  29.950  1.00  0.00     0.127 S 
ATOM    106  O   UNL A   1      42.172  34.454  29.847  1.00  0.00    -0.237 OA
ATOM    107  O   UNL A   1      44.176  33.334  28.950  1.00  0.00    -0.237 OA
ATOM    108  O   UNL A   1      42.494  32.028  30.163  1.00  0.00    -0.744 OA
ENDBRANCH 102 105
ENDBRANCH  75  98
ENDBRANCH  49  50
ENDBRANCH  41  44
ENDBRANCH  39  40
ENDBRANCH  38  39
ENDBRANCH  37  38
ENDBRANCH   3  37
TORSDOF 19
ENDMDL
