MODEL 1
REMARK VINA RESULT:     -13.9      0.000      0.000
REMARK SMILES Cc1ccccc1C(=O)Nc1ccc(OCC(=O)NCCCNC(=O)c2ccc(-c3c4nc(c(-c5cccc(S(=O)(=O)[O-])c5F)c5ccc([nH]5)c(-c5cccc(S(=O)(=O)[O-])c5F)c5nc(c(-c6cccc(S(=O)(=O)[O-])c6F)c6ccc3[nH]6)C=C5)C=C4)cc2)c(-c2nc3ccccc3s2)c1
REMARK SMILES IDX 20 1 19 2 17 3 18 4 16 6 15 7 14 8 11 9 12 10 99 11 13 12
REMARK SMILES IDX 89 13 10 14 8 15 9 16 7 18 1 19 2 20 3 21 4 22 6 23 5 24
REMARK SMILES IDX 90 25 91 26 98 27 92 28 97 29 93 30 96 31 94 32 95 33 21 34
REMARK SMILES IDX 22 35 23 36 24 37 25 39 26 40 27 41 88 42 28 43 87 44 29 45
REMARK SMILES IDX 30 46 31 47 81 48 32 49 86 50 80 51 82 52 33 53 85 54 79 55
REMARK SMILES IDX 78 56 34 58 66 59 46 60 65 61 47 62 50 63 64 64 83 65 48 66
REMARK SMILES IDX 49 67 63 69 84 70 51 71 35 72 36 73 44 74 37 75 39 76 45 77
REMARK SMILES IDX 38 78 40 79 41 80 42 81 43 82 67 83 68 84 76 85 69 86 71 87
REMARK SMILES IDX 77 88 70 89 72 90 73 91 74 92 75 93 52 94 53 95 61 96 54 97
REMARK SMILES IDX 56 98 62 99 55 100 57 101 58 102 59 103 60 104
REMARK H PARENT 19 5 10 17 23 38 82 57 50 68
REMARK Flexibility Score: inf
ROOT
ATOM      1  C   UNL A   1      36.649  20.850  24.902  1.00  0.00     0.117 C 
ENDROOT
BRANCH   1   2
ATOM      2  N   UNL A   1      35.709  21.407  25.852  1.00  0.00    -0.353 N 
ATOM      3  C   UNL A   1      35.299  22.710  25.946  1.00  0.00     0.257 C 
ATOM      4  O   UNL A   1      34.719  23.043  26.977  1.00  0.00    -0.271 OA
ATOM      5  H   UNL A   1      35.323  20.780  26.504  1.00  0.00     0.163 HD
BRANCH   3   6
ATOM      6  C   UNL A   1      35.547  23.658  24.733  1.00  0.00     0.329 C 
BRANCH   6   7
ATOM      7  O   UNL A   1      35.020  23.477  23.421  1.00  0.00    -0.483 OA
BRANCH   7   8
ATOM      8  C   UNL A   1      33.898  24.212  23.157  1.00  0.00     0.130 A 
ATOM      9  C   UNL A   1      31.684  25.843  22.681  1.00  0.00     0.042 A 
ATOM     10  C   UNL A   1      32.970  26.364  22.537  1.00  0.00     0.030 A 
ATOM     11  C   UNL A   1      31.516  24.476  22.919  1.00  0.00     0.041 A 
ATOM     12  C   UNL A   1      34.074  25.560  22.816  1.00  0.00     0.049 A 
ATOM     13  C   UNL A   1      32.621  23.617  23.118  1.00  0.00     0.055 A 
BRANCH   9  14
ATOM     14  N   UNL A   1      30.614  26.741  22.619  1.00  0.00    -0.322 N 
ATOM     15  C   UNL A   1      30.089  27.586  23.575  1.00  0.00     0.255 C 
ATOM     16  O   UNL A   1      28.978  28.073  23.352  1.00  0.00    -0.269 OA
ATOM     17  H   UNL A   1      30.160  26.776  21.747  1.00  0.00     0.170 HD
BRANCH  15  18
ATOM     18  C   UNL A   1      30.827  27.993  24.813  1.00  0.00     0.043 A 
ATOM     19  C   UNL A   1      30.542  25.789  26.140  1.00  0.00     0.045 C 
ATOM     20  C   UNL A   1      30.992  27.212  25.978  1.00  0.00    -0.038 A 
ATOM     21  C   UNL A   1      31.685  27.763  27.077  1.00  0.00     0.004 A 
ATOM     22  C   UNL A   1      32.322  28.996  26.983  1.00  0.00     0.000 A 
ATOM     23  C   UNL A   1      31.513  29.221  24.725  1.00  0.00     0.014 A 
ATOM     24  C   UNL A   1      32.268  29.710  25.794  1.00  0.00     0.001 A 
ENDBRANCH  15  18
ENDBRANCH   9  14
BRANCH  13  25
ATOM     25  C   UNL A   1      32.328  22.181  23.344  1.00  0.00     0.128 A 
ATOM     26  N   UNL A   1      32.437  21.591  24.523  1.00  0.00    -0.236 NA
ATOM     27  S   UNL A   1      31.818  21.096  22.102  1.00  0.00    -0.114 S 
ATOM     28  C   UNL A   1      32.509  20.220  24.356  1.00  0.00     0.082 A 
ATOM     29  C   UNL A   1      32.323  19.771  23.051  1.00  0.00     0.055 A 
ATOM     30  C   UNL A   1      32.794  19.275  25.357  1.00  0.00     0.030 A 
ATOM     31  C   UNL A   1      32.521  18.435  22.677  1.00  0.00     0.021 A 
ATOM     32  C   UNL A   1      32.978  17.933  25.004  1.00  0.00     0.002 A 
ATOM     33  C   UNL A   1      32.873  17.527  23.675  1.00  0.00     0.002 A 
ENDBRANCH  13  25
ENDBRANCH   7   8
ENDBRANCH   6   7
ENDBRANCH   3   6
ENDBRANCH   1   2
BRANCH   1  34
ATOM     34  C   UNL A   1      38.049  20.815  25.504  1.00  0.00     0.042 C 
BRANCH  34  35
ATOM     35  C   UNL A   1      38.588  22.210  25.771  1.00  0.00     0.118 C 
BRANCH  35  36
ATOM     36  N   UNL A   1      39.989  22.190  26.144  1.00  0.00    -0.352 N 
ATOM     37  C   UNL A   1      40.859  23.235  26.370  1.00  0.00     0.251 C 
ATOM     38  H   UNL A   1      40.379  21.291  26.251  1.00  0.00     0.163 HD
ATOM     39  O   UNL A   1      42.068  23.001  26.339  1.00  0.00    -0.269 OA
BRANCH  37  40
ATOM     40  C   UNL A   1      40.340  24.547  26.818  1.00  0.00     0.039 A 
ATOM     41  C   UNL A   1      40.835  25.681  26.158  1.00  0.00     0.014 A 
ATOM     42  C   UNL A   1      39.623  24.686  28.002  1.00  0.00     0.014 A 
ATOM     43  C   UNL A   1      40.836  26.913  26.805  1.00  0.00     0.010 A 
ATOM     44  C   UNL A   1      39.698  25.877  28.683  1.00  0.00     0.010 A 
ATOM     45  C   UNL A   1      40.365  26.965  28.110  1.00  0.00    -0.014 A 
BRANCH  45  46
ATOM     46  C   UNL A   1      40.512  28.099  28.999  1.00  0.00     0.031 A 
ATOM     47  C   UNL A   1      39.557  29.214  28.909  1.00  0.00     0.074 A 
ATOM     48  C   UNL A   1      41.353  27.970  30.047  1.00  0.00     0.049 A 
ATOM     49  N   UNL A   1      39.720  30.354  29.481  1.00  0.00    -0.248 NA
ATOM     50  C   UNL A   1      38.334  29.120  28.125  1.00  0.00     0.031 C 
ATOM     51  C   UNL A   1      41.328  28.715  31.297  1.00  0.00     0.029 A 
ATOM     52  N   UNL A   1      42.549  27.246  30.097  1.00  0.00    -0.354 N 
ATOM     53  C   UNL A   1      38.525  31.036  29.383  1.00  0.00     0.074 A 
ATOM     54  C   UNL A   1      37.729  30.262  28.461  1.00  0.00     0.031 C 
ATOM     55  C   UNL A   1      42.541  28.640  31.864  1.00  0.00     0.029 A 
ATOM     56  C   UNL A   1      43.422  28.001  30.901  1.00  0.00     0.049 A 
ATOM     57  H   UNL A   1      42.741  26.385  29.661  1.00  0.00     0.167 HD
ATOM     58  C   UNL A   1      38.302  32.091  30.217  1.00  0.00     0.034 A 
ATOM     59  C   UNL A   1      44.605  28.514  30.452  1.00  0.00     0.034 A 
ATOM     60  C   UNL A   1      39.494  32.356  31.038  1.00  0.00     0.049 A 
ATOM     61  C   UNL A   1      44.672  30.026  30.568  1.00  0.00     0.074 A 
ATOM     62  C   UNL A   1      39.853  31.976  32.321  1.00  0.00     0.029 A 
ATOM     63  N   UNL A   1      40.645  32.850  30.437  1.00  0.00    -0.354 N 
ATOM     64  N   UNL A   1      43.653  30.785  30.864  1.00  0.00    -0.248 NA
ATOM     65  C   UNL A   1      45.887  30.804  30.347  1.00  0.00     0.031 C 
ATOM     66  C   UNL A   1      41.253  32.169  32.460  1.00  0.00     0.029 A 
ATOM     67  C   UNL A   1      41.741  32.694  31.274  1.00  0.00     0.049 A 
ATOM     68  H   UNL A   1      40.680  33.254  29.541  1.00  0.00     0.167 HD
ATOM     69  C   UNL A   1      44.003  32.106  30.762  1.00  0.00     0.074 A 
ATOM     70  C   UNL A   1      45.434  32.061  30.513  1.00  0.00     0.031 C 
ATOM     71  C   UNL A   1      43.071  33.109  30.836  1.00  0.00     0.034 A 
BRANCH  58  72
ATOM     72  C   UNL A   1      36.941  32.692  30.537  1.00  0.00     0.023 A 
ATOM     73  C   UNL A   1      36.398  32.406  31.812  1.00  0.00     0.012 A 
ATOM     74  C   UNL A   1      36.118  33.459  29.681  1.00  0.00     0.148 A 
ATOM     75  C   UNL A   1      35.093  32.756  32.176  1.00  0.00     0.002 A 
ATOM     76  C   UNL A   1      34.791  33.756  30.017  1.00  0.00     0.091 A 
ATOM     77  F   UNL A   1      36.626  33.991  28.569  1.00  0.00    -0.205 F 
ATOM     78  C   UNL A   1      34.274  33.400  31.263  1.00  0.00     0.022 A 
BRANCH  76  79
ATOM     79  S   UNL A   1      33.651  34.545  28.863  1.00  0.00     0.127 S 
ATOM     80  O   UNL A   1      32.549  34.943  29.742  1.00  0.00    -0.237 OA
ATOM     81  O   UNL A   1      34.446  35.657  28.346  1.00  0.00    -0.237 OA
ATOM     82  O   UNL A   1      33.291  33.524  27.886  1.00  0.00    -0.744 OA
ENDBRANCH  76  79
ENDBRANCH  58  72
BRANCH  59  83
ATOM     83  C   UNL A   1      45.253  27.686  29.393  1.00  0.00     0.023 A 
ATOM     84  C   UNL A   1      45.596  26.359  29.751  1.00  0.00     0.012 A 
ATOM     85  C   UNL A   1      45.144  28.015  28.031  1.00  0.00     0.148 A 
ATOM     86  C   UNL A   1      45.687  25.355  28.787  1.00  0.00     0.002 A 
ATOM     87  C   UNL A   1      45.233  27.004  27.073  1.00  0.00     0.091 A 
ATOM     88  F   UNL A   1      44.866  29.281  27.698  1.00  0.00    -0.205 F 
ATOM     89  C   UNL A   1      45.467  25.671  27.452  1.00  0.00     0.022 A 
BRANCH  87  90
ATOM     90  S   UNL A   1      44.900  27.312  25.332  1.00  0.00     0.127 S 
ATOM     91  O   UNL A   1      45.995  28.210  24.981  1.00  0.00    -0.237 OA
ATOM     92  O   UNL A   1      44.995  25.972  24.755  1.00  0.00    -0.237 OA
ATOM     93  O   UNL A   1      43.561  27.881  25.301  1.00  0.00    -0.744 OA
ENDBRANCH  87  90
ENDBRANCH  59  83
BRANCH  71  94
ATOM     94  C   UNL A   1      43.305  34.574  30.493  1.00  0.00     0.023 A 
ATOM     95  C   UNL A   1      43.689  35.526  31.456  1.00  0.00     0.012 A 
ATOM     96  C   UNL A   1      43.292  35.016  29.141  1.00  0.00     0.148 A 
ATOM     97  C   UNL A   1      43.990  36.851  31.115  1.00  0.00     0.002 A 
ATOM     98  C   UNL A   1      43.710  36.299  28.796  1.00  0.00     0.091 A 
ATOM     99  F   UNL A   1      42.854  34.201  28.172  1.00  0.00    -0.205 F 
ATOM    100  C   UNL A   1      44.028  37.232  29.783  1.00  0.00     0.022 A 
BRANCH  98 101
ATOM    101  S   UNL A   1      44.017  36.737  27.078  1.00  0.00     0.127 S 
ATOM    102  O   UNL A   1      44.582  38.079  27.200  1.00  0.00    -0.237 OA
ATOM    103  O   UNL A   1      44.974  35.711  26.655  1.00  0.00    -0.237 OA
ATOM    104  O   UNL A   1      42.716  36.638  26.431  1.00  0.00    -0.744 OA
ENDBRANCH  98 101
ENDBRANCH  71  94
ENDBRANCH  45  46
ENDBRANCH  37  40
ENDBRANCH  35  36
ENDBRANCH  34  35
ENDBRANCH   1  34
TORSDOF 18
ENDMDL
MODEL 2
REMARK VINA RESULT:     -13.3      2.582      3.467
REMARK SMILES Cc1ccccc1C(=O)Nc1ccc(OCC(=O)NCCCNC(=O)c2ccc(-c3c4nc(c(-c5cccc(S(=O)(=O)[O-])c5F)c5ccc([nH]5)c(-c5cccc(S(=O)(=O)[O-])c5F)c5nc(c(-c6cccc(S(=O)(=O)[O-])c6F)c6ccc3[nH]6)C=C5)C=C4)cc2)c(-c2nc3ccccc3s2)c1
REMARK SMILES IDX 20 1 19 2 17 3 18 4 16 6 15 7 14 8 11 9 12 10 99 11 13 12
REMARK SMILES IDX 89 13 10 14 8 15 9 16 7 18 1 19 2 20 3 21 4 22 6 23 5 24
REMARK SMILES IDX 90 25 91 26 98 27 92 28 97 29 93 30 96 31 94 32 95 33 21 34
REMARK SMILES IDX 22 35 23 36 24 37 25 39 26 40 27 41 88 42 28 43 87 44 29 45
REMARK SMILES IDX 30 46 31 47 81 48 32 49 86 50 80 51 82 52 33 53 85 54 79 55
REMARK SMILES IDX 78 56 34 58 66 59 46 60 65 61 47 62 50 63 64 64 83 65 48 66
REMARK SMILES IDX 49 67 63 69 84 70 51 71 35 72 36 73 44 74 37 75 39 76 45 77
REMARK SMILES IDX 38 78 40 79 41 80 42 81 43 82 67 83 68 84 76 85 69 86 71 87
REMARK SMILES IDX 77 88 70 89 72 90 73 91 74 92 75 93 52 94 53 95 61 96 54 97
REMARK SMILES IDX 56 98 62 99 55 100 57 101 58 102 59 103 60 104
REMARK H PARENT 19 5 10 17 23 38 82 57 50 68
REMARK Flexibility Score: inf
ROOT
ATOM      1  C   UNL A   1      37.720  23.133  25.613  1.00  0.00     0.117 C 
ENDROOT
BRANCH   1   2
ATOM      2  N   UNL A   1      36.570  23.159  26.493  1.00  0.00    -0.353 N 
ATOM      3  C   UNL A   1      35.289  22.782  26.195  1.00  0.00     0.257 C 
ATOM      4  O   UNL A   1      34.404  23.133  26.972  1.00  0.00    -0.271 OA
ATOM      5  H   UNL A   1      36.728  23.486  27.408  1.00  0.00     0.163 HD
BRANCH   3   6
ATOM      6  C   UNL A   1      35.047  21.900  24.931  1.00  0.00     0.329 C 
BRANCH   6   7
ATOM      7  O   UNL A   1      34.760  22.391  23.624  1.00  0.00    -0.483 OA
BRANCH   7   8
ATOM      8  C   UNL A   1      33.529  22.974  23.498  1.00  0.00     0.130 A 
ATOM      9  C   UNL A   1      31.083  24.301  23.303  1.00  0.00     0.042 A 
ATOM     10  C   UNL A   1      32.267  25.000  23.076  1.00  0.00     0.030 A 
ATOM     11  C   UNL A   1      31.122  22.916  23.483  1.00  0.00     0.041 A 
ATOM     12  C   UNL A   1      33.491  24.346  23.214  1.00  0.00     0.049 A 
ATOM     13  C   UNL A   1      32.346  22.211  23.539  1.00  0.00     0.055 A 
BRANCH   9  14
ATOM     14  N   UNL A   1      29.901  25.045  23.382  1.00  0.00    -0.322 N 
ATOM     15  C   UNL A   1      29.569  26.132  24.165  1.00  0.00     0.255 C 
ATOM     16  O   UNL A   1      28.376  26.432  24.242  1.00  0.00    -0.269 OA
ATOM     17  H   UNL A   1      29.186  24.743  22.777  1.00  0.00     0.170 HD
BRANCH  15  18
ATOM     18  C   UNL A   1      30.582  26.995  24.853  1.00  0.00     0.043 A 
ATOM     19  C   UNL A   1      30.713  28.875  23.079  1.00  0.00     0.045 C 
ATOM     20  C   UNL A   1      31.131  28.196  24.351  1.00  0.00    -0.038 A 
ATOM     21  C   UNL A   1      32.110  28.868  25.111  1.00  0.00     0.004 A 
ATOM     22  C   UNL A   1      32.440  28.449  26.397  1.00  0.00     0.000 A 
ATOM     23  C   UNL A   1      30.901  26.610  26.171  1.00  0.00     0.014 A 
ATOM     24  C   UNL A   1      31.808  27.340  26.942  1.00  0.00     0.001 A 
ENDBRANCH  15  18
ENDBRANCH   9  14
BRANCH  13  25
ATOM     25  C   UNL A   1      32.270  20.740  23.715  1.00  0.00     0.128 A 
ATOM     26  N   UNL A   1      32.139  20.152  24.892  1.00  0.00    -0.236 NA
ATOM     27  S   UNL A   1      32.352  19.611  22.412  1.00  0.00    -0.114 S 
ATOM     28  C   UNL A   1      32.508  18.822  24.795  1.00  0.00     0.082 A 
ATOM     29  C   UNL A   1      32.795  18.379  23.507  1.00  0.00     0.055 A 
ATOM     30  C   UNL A   1      32.659  17.922  25.864  1.00  0.00     0.030 A 
ATOM     31  C   UNL A   1      33.336  17.112  23.247  1.00  0.00     0.021 A 
ATOM     32  C   UNL A   1      33.182  16.646  25.620  1.00  0.00     0.002 A 
ATOM     33  C   UNL A   1      33.544  16.260  24.332  1.00  0.00     0.002 A 
ENDBRANCH  13  25
ENDBRANCH   7   8
ENDBRANCH   6   7
ENDBRANCH   3   6
ENDBRANCH   1   2
BRANCH   1  34
ATOM     34  C   UNL A   1      38.511  21.846  25.818  1.00  0.00     0.042 C 
BRANCH  34  35
ATOM     35  C   UNL A   1      39.833  22.098  26.522  1.00  0.00     0.118 C 
BRANCH  35  36
ATOM     36  N   UNL A   1      40.791  21.038  26.274  1.00  0.00    -0.352 N 
ATOM     37  C   UNL A   1      42.158  21.104  26.107  1.00  0.00     0.251 C 
ATOM     38  H   UNL A   1      40.406  20.133  26.215  1.00  0.00     0.163 HD
ATOM     39  O   UNL A   1      42.724  20.149  25.574  1.00  0.00    -0.269 OA
BRANCH  37  40
ATOM     40  C   UNL A   1      42.927  22.210  26.721  1.00  0.00     0.039 A 
ATOM     41  C   UNL A   1      42.915  22.287  28.121  1.00  0.00     0.014 A 
ATOM     42  C   UNL A   1      43.405  23.277  25.968  1.00  0.00     0.014 A 
ATOM     43  C   UNL A   1      43.133  23.509  28.749  1.00  0.00     0.010 A 
ATOM     44  C   UNL A   1      43.537  24.504  26.571  1.00  0.00     0.010 A 
ATOM     45  C   UNL A   1      43.332  24.627  27.950  1.00  0.00    -0.014 A 
BRANCH  45  46
ATOM     46  C   UNL A   1      43.339  25.995  28.425  1.00  0.00     0.031 A 
ATOM     47  C   UNL A   1      42.090  26.771  28.408  1.00  0.00     0.074 A 
ATOM     48  C   UNL A   1      44.425  26.416  29.107  1.00  0.00     0.049 A 
ATOM     49  N   UNL A   1      42.026  28.042  28.589  1.00  0.00    -0.248 NA
ATOM     50  C   UNL A   1      40.799  26.148  28.153  1.00  0.00     0.031 C 
ATOM     51  C   UNL A   1      44.498  27.510  30.065  1.00  0.00     0.029 A 
ATOM     52  N   UNL A   1      45.758  26.038  28.909  1.00  0.00    -0.354 N 
ATOM     53  C   UNL A   1      40.695  28.365  28.755  1.00  0.00     0.074 A 
ATOM     54  C   UNL A   1      39.973  27.170  28.390  1.00  0.00     0.031 C 
ATOM     55  C   UNL A   1      45.776  27.903  30.169  1.00  0.00     0.029 A 
ATOM     56  C   UNL A   1      46.524  27.194  29.144  1.00  0.00     0.049 A 
ATOM     57  H   UNL A   1      46.091  25.147  28.657  1.00  0.00     0.167 HD
ATOM     58  C   UNL A   1      40.377  29.560  29.330  1.00  0.00     0.034 A 
ATOM     59  C   UNL A   1      47.314  27.780  28.197  1.00  0.00     0.034 A 
ATOM     60  C   UNL A   1      41.595  30.344  29.588  1.00  0.00     0.049 A 
ATOM     61  C   UNL A   1      46.922  29.217  27.910  1.00  0.00     0.074 A 
ATOM     62  C   UNL A   1      42.385  30.507  30.714  1.00  0.00     0.029 A 
ATOM     63  N   UNL A   1      42.322  30.855  28.519  1.00  0.00    -0.354 N 
ATOM     64  N   UNL A   1      45.832  29.782  28.351  1.00  0.00    -0.248 NA
ATOM     65  C   UNL A   1      47.717  30.129  27.092  1.00  0.00     0.031 C 
ATOM     66  C   UNL A   1      43.633  31.043  30.300  1.00  0.00     0.029 A 
ATOM     67  C   UNL A   1      43.591  31.238  28.929  1.00  0.00     0.049 A 
ATOM     68  H   UNL A   1      41.985  30.932  27.598  1.00  0.00     0.167 HD
ATOM     69  C   UNL A   1      45.699  31.036  27.813  1.00  0.00     0.074 A 
ATOM     70  C   UNL A   1      46.947  31.232  27.095  1.00  0.00     0.031 C 
ATOM     71  C   UNL A   1      44.551  31.770  27.964  1.00  0.00     0.034 A 
BRANCH  58  72
ATOM     72  C   UNL A   1      39.033  29.911  29.951  1.00  0.00     0.023 A 
ATOM     73  C   UNL A   1      38.415  28.915  30.745  1.00  0.00     0.012 A 
ATOM     74  C   UNL A   1      38.291  31.102  29.778  1.00  0.00     0.148 A 
ATOM     75  C   UNL A   1      37.112  29.042  31.240  1.00  0.00     0.002 A 
ATOM     76  C   UNL A   1      36.966  31.208  30.219  1.00  0.00     0.091 A 
ATOM     77  F   UNL A   1      38.879  32.185  29.268  1.00  0.00    -0.205 F 
ATOM     78  C   UNL A   1      36.371  30.175  30.945  1.00  0.00     0.022 A 
BRANCH  76  79
ATOM     79  S   UNL A   1      35.924  32.628  29.829  1.00  0.00     0.127 S 
ATOM     80  O   UNL A   1      36.592  33.709  30.558  1.00  0.00    -0.237 OA
ATOM     81  O   UNL A   1      36.042  32.715  28.376  1.00  0.00    -0.237 OA
ATOM     82  O   UNL A   1      34.594  32.306  30.333  1.00  0.00    -0.744 OA
ENDBRANCH  76  79
ENDBRANCH  58  72
BRANCH  59  83
ATOM     83  C   UNL A   1      47.886  26.813  27.214  1.00  0.00     0.023 A 
ATOM     84  C   UNL A   1      47.080  26.505  26.090  1.00  0.00     0.012 A 
ATOM     85  C   UNL A   1      49.266  26.556  27.149  1.00  0.00     0.148 A 
ATOM     86  C   UNL A   1      47.652  26.089  24.888  1.00  0.00     0.002 A 
ATOM     87  C   UNL A   1      49.831  26.142  25.942  1.00  0.00     0.091 A 
ATOM     88  F   UNL A   1      50.015  26.805  28.231  1.00  0.00    -0.205 F 
ATOM     89  C   UNL A   1      49.031  25.945  24.804  1.00  0.00     0.022 A 
BRANCH  87  90
ATOM     90  S   UNL A   1      51.610  25.993  25.727  1.00  0.00     0.127 S 
ATOM     91  O   UNL A   1      52.086  27.205  26.386  1.00  0.00    -0.237 OA
ATOM     92  O   UNL A   1      51.906  24.750  26.438  1.00  0.00    -0.237 OA
ATOM     93  O   UNL A   1      51.809  25.919  24.287  1.00  0.00    -0.744 OA
ENDBRANCH  87  90
ENDBRANCH  59  83
BRANCH  71  94
ATOM     94  C   UNL A   1      44.202  33.048  27.214  1.00  0.00     0.023 A 
ATOM     95  C   UNL A   1      44.134  33.108  25.809  1.00  0.00     0.012 A 
ATOM     96  C   UNL A   1      43.776  34.210  27.914  1.00  0.00     0.148 A 
ATOM     97  C   UNL A   1      43.724  34.263  25.131  1.00  0.00     0.002 A 
ATOM     98  C   UNL A   1      43.254  35.311  27.238  1.00  0.00     0.091 A 
ATOM     99  F   UNL A   1      43.890  34.271  29.248  1.00  0.00    -0.205 F 
ATOM    100  C   UNL A   1      43.257  35.356  25.845  1.00  0.00     0.022 A 
BRANCH  98 101
ATOM    101  S   UNL A   1      42.407  36.624  28.132  1.00  0.00     0.127 S 
ATOM    102  O   UNL A   1      43.491  37.205  28.922  1.00  0.00    -0.237 OA
ATOM    103  O   UNL A   1      41.918  37.480  27.049  1.00  0.00    -0.237 OA
ATOM    104  O   UNL A   1      41.354  35.947  28.876  1.00  0.00    -0.744 OA
ENDBRANCH  98 101
ENDBRANCH  71  94
ENDBRANCH  45  46
ENDBRANCH  37  40
ENDBRANCH  35  36
ENDBRANCH  34  35
ENDBRANCH   1  34
TORSDOF 18
ENDMDL
MODEL 3
REMARK VINA RESULT:     -13.2      3.438      4.592
REMARK SMILES Cc1ccccc1C(=O)Nc1ccc(OCC(=O)NCCCNC(=O)c2ccc(-c3c4nc(c(-c5cccc(S(=O)(=O)[O-])c5F)c5ccc([nH]5)c(-c5cccc(S(=O)(=O)[O-])c5F)c5nc(c(-c6cccc(S(=O)(=O)[O-])c6F)c6ccc3[nH]6)C=C5)C=C4)cc2)c(-c2nc3ccccc3s2)c1
REMARK SMILES IDX 20 1 19 2 17 3 18 4 16 6 15 7 14 8 11 9 12 10 99 11 13 12
REMARK SMILES IDX 89 13 10 14 8 15 9 16 7 18 1 19 2 20 3 21 4 22 6 23 5 24
REMARK SMILES IDX 90 25 91 26 98 27 92 28 97 29 93 30 96 31 94 32 95 33 21 34
REMARK SMILES IDX 22 35 23 36 24 37 25 39 26 40 27 41 88 42 28 43 87 44 29 45
REMARK SMILES IDX 30 46 31 47 81 48 32 49 86 50 80 51 82 52 33 53 85 54 79 55
REMARK SMILES IDX 78 56 34 58 66 59 46 60 65 61 47 62 50 63 64 64 83 65 48 66
REMARK SMILES IDX 49 67 63 69 84 70 51 71 35 72 36 73 44 74 37 75 39 76 45 77
REMARK SMILES IDX 38 78 40 79 41 80 42 81 43 82 67 83 68 84 76 85 69 86 71 87
REMARK SMILES IDX 77 88 70 89 72 90 73 91 74 92 75 93 52 94 53 95 61 96 54 97
REMARK SMILES IDX 56 98 62 99 55 100 57 101 58 102 59 103 60 104
REMARK H PARENT 19 5 10 17 23 38 82 57 50 68
REMARK Flexibility Score: inf
ROOT
ATOM      1  C   UNL A   1      39.640  22.034  26.395  1.00  0.00     0.117 C 
ENDROOT
BRANCH   1   2
ATOM      2  N   UNL A   1      38.951  20.966  25.702  1.00  0.00    -0.353 N 
ATOM      3  C   UNL A   1      37.668  20.978  25.225  1.00  0.00     0.257 C 
ATOM      4  O   UNL A   1      37.172  19.897  24.919  1.00  0.00    -0.271 OA
ATOM      5  H   UNL A   1      39.462  20.137  25.559  1.00  0.00     0.163 HD
BRANCH   3   6
ATOM      6  C   UNL A   1      36.949  22.352  25.059  1.00  0.00     0.329 C 
BRANCH   6   7
ATOM      7  O   UNL A   1      35.845  22.608  24.194  1.00  0.00    -0.483 OA
BRANCH   7   8
ATOM      8  C   UNL A   1      34.830  23.321  24.771  1.00  0.00     0.130 A 
ATOM      9  C   UNL A   1      32.874  24.868  26.021  1.00  0.00     0.042 A 
ATOM     10  C   UNL A   1      34.052  25.470  25.579  1.00  0.00     0.030 A 
ATOM     11  C   UNL A   1      32.621  23.531  25.706  1.00  0.00     0.041 A 
ATOM     12  C   UNL A   1      35.046  24.688  24.993  1.00  0.00     0.049 A 
ATOM     13  C   UNL A   1      33.576  22.735  25.032  1.00  0.00     0.055 A 
BRANCH   9  14
ATOM     14  N   UNL A   1      32.011  25.641  26.806  1.00  0.00    -0.322 N 
ATOM     15  C   UNL A   1      31.420  26.863  26.562  1.00  0.00     0.255 C 
ATOM     16  O   UNL A   1      30.923  27.454  27.522  1.00  0.00    -0.269 OA
ATOM     17  H   UNL A   1      31.789  25.245  27.679  1.00  0.00     0.170 HD
BRANCH  15  18
ATOM     18  C   UNL A   1      31.290  27.459  25.193  1.00  0.00     0.043 A 
ATOM     19  C   UNL A   1      29.328  25.994  24.352  1.00  0.00     0.045 C 
ATOM     20  C   UNL A   1      30.389  27.044  24.187  1.00  0.00    -0.038 A 
ATOM     21  C   UNL A   1      30.423  27.687  22.933  1.00  0.00     0.004 A 
ATOM     22  C   UNL A   1      31.224  28.805  22.717  1.00  0.00     0.000 A 
ATOM     23  C   UNL A   1      32.062  28.616  24.967  1.00  0.00     0.014 A 
ATOM     24  C   UNL A   1      32.016  29.292  23.747  1.00  0.00     0.001 A 
ENDBRANCH  15  18
ENDBRANCH   9  14
BRANCH  13  25
ATOM     25  C   UNL A   1      33.195  21.333  24.732  1.00  0.00     0.128 A 
ATOM     26  N   UNL A   1      33.600  20.298  25.448  1.00  0.00    -0.236 NA
ATOM     27  S   UNL A   1      32.188  20.873  23.408  1.00  0.00    -0.114 S 
ATOM     28  C   UNL A   1      33.447  19.134  24.718  1.00  0.00     0.082 A 
ATOM     29  C   UNL A   1      32.802  19.283  23.494  1.00  0.00     0.055 A 
ATOM     30  C   UNL A   1      33.916  17.859  25.079  1.00  0.00     0.030 A 
ATOM     31  C   UNL A   1      32.704  18.242  22.559  1.00  0.00     0.021 A 
ATOM     32  C   UNL A   1      33.811  16.803  24.165  1.00  0.00     0.002 A 
ATOM     33  C   UNL A   1      33.240  17.003  22.910  1.00  0.00     0.002 A 
ENDBRANCH  13  25
ENDBRANCH   7   8
ENDBRANCH   6   7
ENDBRANCH   3   6
ENDBRANCH   1   2
BRANCH   1  34
ATOM     34  C   UNL A   1      41.126  22.010  26.055  1.00  0.00     0.042 C 
BRANCH  34  35
ATOM     35  C   UNL A   1      41.818  20.782  26.621  1.00  0.00     0.118 C 
BRANCH  35  36
ATOM     36  N   UNL A   1      42.757  20.205  25.678  1.00  0.00    -0.352 N 
ATOM     37  C   UNL A   1      43.740  20.812  24.926  1.00  0.00     0.251 C 
ATOM     38  H   UNL A   1      42.680  19.230  25.556  1.00  0.00     0.163 HD
ATOM     39  O   UNL A   1      44.186  20.202  23.953  1.00  0.00    -0.269 OA
BRANCH  37  40
ATOM     40  C   UNL A   1      44.360  22.072  25.395  1.00  0.00     0.039 A 
ATOM     41  C   UNL A   1      44.817  22.096  26.721  1.00  0.00     0.014 A 
ATOM     42  C   UNL A   1      44.251  23.255  24.674  1.00  0.00     0.014 A 
ATOM     43  C   UNL A   1      44.915  23.308  27.397  1.00  0.00     0.010 A 
ATOM     44  C   UNL A   1      44.262  24.449  25.355  1.00  0.00     0.010 A 
ATOM     45  C   UNL A   1      44.525  24.461  26.729  1.00  0.00    -0.014 A 
BRANCH  45  46
ATOM     46  C   UNL A   1      44.342  25.757  27.350  1.00  0.00     0.031 A 
ATOM     47  C   UNL A   1      43.010  26.380  27.341  1.00  0.00     0.074 A 
ATOM     48  C   UNL A   1      45.335  26.220  28.139  1.00  0.00     0.049 A 
ATOM     49  N   UNL A   1      42.782  27.605  27.655  1.00  0.00    -0.248 NA
ATOM     50  C   UNL A   1      41.819  25.645  26.940  1.00  0.00     0.031 C 
ATOM     51  C   UNL A   1      45.227  27.198  29.213  1.00  0.00     0.029 A 
ATOM     52  N   UNL A   1      46.712  26.025  27.983  1.00  0.00    -0.354 N 
ATOM     53  C   UNL A   1      41.415  27.750  27.773  1.00  0.00     0.074 A 
ATOM     54  C   UNL A   1      40.863  26.529  27.236  1.00  0.00     0.031 C 
ATOM     55  C   UNL A   1      46.441  27.722  29.437  1.00  0.00     0.029 A 
ATOM     56  C   UNL A   1      47.318  27.227  28.389  1.00  0.00     0.049 A 
ATOM     57  H   UNL A   1      47.163  25.214  27.657  1.00  0.00     0.167 HD
ATOM     58  C   UNL A   1      40.926  28.826  28.453  1.00  0.00     0.034 A 
ATOM     59  C   UNL A   1      48.076  28.006  27.562  1.00  0.00     0.034 A 
ATOM     60  C   UNL A   1      42.025  29.711  28.869  1.00  0.00     0.049 A 
ATOM     61  C   UNL A   1      47.525  29.412  27.409  1.00  0.00     0.074 A 
ATOM     62  C   UNL A   1      42.735  29.833  30.053  1.00  0.00     0.029 A 
ATOM     63  N   UNL A   1      42.735  30.422  27.909  1.00  0.00    -0.354 N 
ATOM     64  N   UNL A   1      46.353  29.791  27.841  1.00  0.00    -0.248 NA
ATOM     65  C   UNL A   1      48.240  30.497  26.746  1.00  0.00     0.031 C 
ATOM     66  C   UNL A   1      43.926  30.555  29.777  1.00  0.00     0.029 A 
ATOM     67  C   UNL A   1      43.927  30.900  28.435  1.00  0.00     0.049 A 
ATOM     68  H   UNL A   1      42.435  30.566  26.983  1.00  0.00     0.167 HD
ATOM     69  C   UNL A   1      46.094  31.075  27.436  1.00  0.00     0.074 A 
ATOM     70  C   UNL A   1      47.342  31.496  26.822  1.00  0.00     0.031 C 
ATOM     71  C   UNL A   1      44.859  31.648  27.595  1.00  0.00     0.034 A 
BRANCH  58  72
ATOM     72  C   UNL A   1      39.521  28.945  29.026  1.00  0.00     0.023 A 
ATOM     73  C   UNL A   1      38.464  29.106  28.098  1.00  0.00     0.012 A 
ATOM     74  C   UNL A   1      39.148  28.974  30.389  1.00  0.00     0.148 A 
ATOM     75  C   UNL A   1      37.150  29.388  28.489  1.00  0.00     0.002 A 
ATOM     76  C   UNL A   1      37.849  29.317  30.783  1.00  0.00     0.091 A 
ATOM     77  F   UNL A   1      40.014  28.584  31.325  1.00  0.00    -0.205 F 
ATOM     78  C   UNL A   1      36.848  29.532  29.833  1.00  0.00     0.022 A 
BRANCH  76  79
ATOM     79  S   UNL A   1      37.394  29.572  32.510  1.00  0.00     0.127 S 
ATOM     80  O   UNL A   1      38.460  30.458  32.982  1.00  0.00    -0.237 OA
ATOM     81  O   UNL A   1      36.083  30.207  32.399  1.00  0.00    -0.237 OA
ATOM     82  O   UNL A   1      37.402  28.253  33.131  1.00  0.00    -0.744 OA
ENDBRANCH  76  79
ENDBRANCH  58  72
BRANCH  59  83
ATOM     83  C   UNL A   1      48.807  27.232  26.517  1.00  0.00     0.023 A 
ATOM     84  C   UNL A   1      48.379  27.417  25.179  1.00  0.00     0.012 A 
ATOM     85  C   UNL A   1      50.089  26.704  26.752  1.00  0.00     0.148 A 
ATOM     86  C   UNL A   1      49.253  27.217  24.111  1.00  0.00     0.002 A 
ATOM     87  C   UNL A   1      50.957  26.509  25.678  1.00  0.00     0.091 A 
ATOM     88  F   UNL A   1      50.469  26.486  28.017  1.00  0.00    -0.205 F 
ATOM     89  C   UNL A   1      50.554  26.800  24.364  1.00  0.00     0.022 A 
BRANCH  87  90
ATOM     90  S   UNL A   1      52.675  26.034  25.919  1.00  0.00     0.127 S 
ATOM     91  O   UNL A   1      52.557  24.589  26.082  1.00  0.00    -0.237 OA
ATOM     92  O   UNL A   1      53.295  26.461  24.666  1.00  0.00    -0.237 OA
ATOM     93  O   UNL A   1      53.112  26.784  27.086  1.00  0.00    -0.744 OA
ENDBRANCH  87  90
ENDBRANCH  59  83
BRANCH  71  94
ATOM     94  C   UNL A   1      44.392  32.954  26.968  1.00  0.00     0.023 A 
ATOM     95  C   UNL A   1      44.215  33.109  25.580  1.00  0.00     0.012 A 
ATOM     96  C   UNL A   1      43.966  34.041  27.781  1.00  0.00     0.148 A 
ATOM     97  C   UNL A   1      43.699  34.285  25.021  1.00  0.00     0.002 A 
ATOM     98  C   UNL A   1      43.342  35.157  27.228  1.00  0.00     0.091 A 
ATOM     99  F   UNL A   1      44.180  34.015  29.104  1.00  0.00    -0.205 F 
ATOM    100  C   UNL A   1      43.236  35.299  25.845  1.00  0.00     0.022 A 
BRANCH  98 101
ATOM    101  S   UNL A   1      42.505  36.357  28.275  1.00  0.00     0.127 S 
ATOM    102  O   UNL A   1      43.617  36.938  29.025  1.00  0.00    -0.237 OA
ATOM    103  O   UNL A   1      41.894  37.260  27.297  1.00  0.00    -0.237 OA
ATOM    104  O   UNL A   1      41.544  35.575  29.042  1.00  0.00    -0.744 OA
ENDBRANCH  98 101
ENDBRANCH  71  94
ENDBRANCH  45  46
ENDBRANCH  37  40
ENDBRANCH  35  36
ENDBRANCH  34  35
ENDBRANCH   1  34
TORSDOF 18
ENDMDL
