MODEL 1
REMARK VINA RESULT:     -13.5      0.000      0.000
REMARK SMILES O=C(CCN1C(=O)S/C(=C\c2ccc(F)cc2)C1=O)Nc1ccc(O)cc1C(=O)NCCCNC(=O)c1ccc(-c2c3nc(c(-c4cccc(S(=O)(=O)[O-])c4F)c4ccc([nH]4)c(-c4cccc(S(=O)(=O)[O-])c4F)c4nc(c(-c5cccc(S(=O)(=O)[O-])c5F)c5ccc2[nH]5)C=C4)C=C3)cc1
REMARK SMILES IDX 31 1 30 2 28 3 29 4 27 6 21 7 22 8 23 9 26 10 24 11 20 12
REMARK SMILES IDX 1 13 2 14 3 16 4 17 5 18 6 19 18 20 7 21 8 22 9 23 19 24
REMARK SMILES IDX 10 25 11 26 12 27 17 28 13 29 16 30 14 31 15 32 25 33 32 35
REMARK SMILES IDX 33 36 34 37 35 38 36 40 37 41 38 42 99 43 39 44 98 45 40 46
REMARK SMILES IDX 41 47 42 48 92 49 43 50 97 51 91 52 93 53 44 54 96 55 90 56
REMARK SMILES IDX 89 57 45 59 77 60 57 61 76 62 58 63 61 64 75 65 94 66 59 67
REMARK SMILES IDX 60 68 74 70 95 71 62 72 46 73 47 74 55 75 48 76 50 77 56 78
REMARK SMILES IDX 49 79 51 80 52 81 53 82 54 83 78 84 79 85 87 86 80 87 82 88
REMARK SMILES IDX 88 89 81 90 83 91 84 92 85 93 86 94 63 95 64 96 72 97 65 98
REMARK SMILES IDX 67 99 73 100 66 101 68 102 69 103 70 104 71 105
REMARK H PARENT 30 5 20 15 25 34 34 39 93 58 61 69
REMARK Flexibility Score: inf
ROOT
ATOM      1  C   UNL A   1      35.556  23.377  24.744  1.00  0.00     0.118 C 
ENDROOT
BRANCH   1   2
ATOM      2  N   UNL A   1      34.580  23.272  25.813  1.00  0.00    -0.352 N 
ATOM      3  C   UNL A   1      33.521  22.400  25.968  1.00  0.00     0.253 C 
ATOM      4  O   UNL A   1      32.836  22.479  26.988  1.00  0.00    -0.269 OA
ATOM      5  H   UNL A   1      34.690  23.923  26.543  1.00  0.00     0.163 HD
BRANCH   3   6
ATOM      6  C   UNL A   1      33.141  21.377  24.948  1.00  0.00     0.067 A 
ATOM      7  C   UNL A   1      32.497  21.641  23.723  1.00  0.00     0.054 A 
ATOM      8  C   UNL A   1      32.150  20.560  22.891  1.00  0.00     0.031 A 
ATOM      9  C   UNL A   1      32.494  19.249  23.219  1.00  0.00     0.048 A 
ATOM     10  C   UNL A   1      33.513  20.051  25.253  1.00  0.00     0.062 A 
ATOM     11  C   UNL A   1      33.198  19.008  24.387  1.00  0.00     0.116 A 
BRANCH   7  12
ATOM     12  N   UNL A   1      32.301  22.966  23.267  1.00  0.00    -0.325 N 
ATOM     13  O   UNL A   1      34.017  23.068  21.730  1.00  0.00    -0.275 OA
ATOM     14  C   UNL A   1      33.105  23.613  22.352  1.00  0.00     0.226 C 
ATOM     15  H   UNL A   1      31.534  23.464  23.631  1.00  0.00     0.169 HD
BRANCH  14  16
ATOM     16  C   UNL A   1      32.856  25.092  22.134  1.00  0.00     0.122 C 
BRANCH  16  17
ATOM     17  C   UNL A   1      32.896  26.037  23.324  1.00  0.00     0.140 C 
BRANCH  17  18
ATOM     18  N   UNL A   1      31.869  27.070  23.436  1.00  0.00    -0.268 N 
ATOM     19  C   UNL A   1      32.184  28.398  23.275  1.00  0.00     0.293 C 
ATOM     20  C   UNL A   1      30.525  26.849  23.641  1.00  0.00     0.268 C 
ATOM     21  O   UNL A   1      32.959  28.878  22.468  1.00  0.00    -0.261 OA
ATOM     22  S   UNL A   1      30.984  29.376  24.070  1.00  0.00    -0.022 SA
ATOM     23  C   UNL A   1      29.839  28.171  23.626  1.00  0.00     0.083 C 
ATOM     24  O   UNL A   1      29.943  25.779  23.712  1.00  0.00    -0.268 OA
ATOM     25  C   UNL A   1      28.698  28.386  22.956  1.00  0.00     0.029 C 
BRANCH  25  26
ATOM     26  C   UNL A   1      28.309  29.748  22.569  1.00  0.00    -0.024 A 
ATOM     27  C   UNL A   1      28.596  30.205  21.271  1.00  0.00     0.011 A 
ATOM     28  C   UNL A   1      27.831  30.645  23.529  1.00  0.00     0.011 A 
ATOM     29  C   UNL A   1      28.410  31.548  20.942  1.00  0.00     0.040 A 
ATOM     30  C   UNL A   1      27.643  31.987  23.194  1.00  0.00     0.040 A 
ATOM     31  C   UNL A   1      27.936  32.427  21.907  1.00  0.00     0.123 A 
ATOM     32  F   UNL A   1      27.774  33.721  21.601  1.00  0.00    -0.207 F 
ENDBRANCH  25  26
ENDBRANCH  17  18
ENDBRANCH  16  17
ENDBRANCH  14  16
ENDBRANCH   7  12
BRANCH  11  33
ATOM     33  O   UNL A   1      33.608  17.750  24.713  1.00  0.00    -0.508 OA
ATOM     34  H   UNL A   1      33.441  17.036  24.128  1.00  0.00     0.293 HD
ENDBRANCH  11  33
ENDBRANCH   3   6
ENDBRANCH   1   2
BRANCH   1  35
ATOM     35  C   UNL A   1      36.492  22.196  24.532  1.00  0.00     0.042 C 
BRANCH  35  36
ATOM     36  C   UNL A   1      36.902  21.317  25.725  1.00  0.00     0.118 C 
BRANCH  36  37
ATOM     37  N   UNL A   1      38.230  20.713  25.688  1.00  0.00    -0.352 N 
ATOM     38  C   UNL A   1      39.488  21.111  26.084  1.00  0.00     0.251 C 
ATOM     39  H   UNL A   1      38.225  19.814  25.289  1.00  0.00     0.163 HD
ATOM     40  O   UNL A   1      40.464  20.388  25.879  1.00  0.00    -0.269 OA
BRANCH  38  41
ATOM     41  C   UNL A   1      39.713  22.436  26.674  1.00  0.00     0.039 A 
ATOM     42  C   UNL A   1      40.732  22.590  27.623  1.00  0.00     0.014 A 
ATOM     43  C   UNL A   1      38.973  23.528  26.246  1.00  0.00     0.014 A 
ATOM     44  C   UNL A   1      41.127  23.869  28.004  1.00  0.00     0.010 A 
ATOM     45  C   UNL A   1      39.437  24.796  26.532  1.00  0.00     0.010 A 
ATOM     46  C   UNL A   1      40.544  24.977  27.377  1.00  0.00    -0.014 A 
BRANCH  46  47
ATOM     47  C   UNL A   1      41.101  26.344  27.474  1.00  0.00     0.031 A 
ATOM     48  C   UNL A   1      42.483  26.598  26.951  1.00  0.00     0.074 A 
ATOM     49  C   UNL A   1      40.463  27.250  28.243  1.00  0.00     0.049 A 
ATOM     50  N   UNL A   1      43.304  27.570  27.232  1.00  0.00    -0.248 NA
ATOM     51  C   UNL A   1      43.041  25.576  26.047  1.00  0.00     0.031 C 
ATOM     52  C   UNL A   1      39.150  27.060  28.871  1.00  0.00     0.029 A 
ATOM     53  N   UNL A   1      40.857  28.488  28.680  1.00  0.00    -0.354 N 
ATOM     54  C   UNL A   1      44.499  27.240  26.607  1.00  0.00     0.074 A 
ATOM     55  C   UNL A   1      44.302  25.968  25.948  1.00  0.00     0.031 C 
ATOM     56  C   UNL A   1      38.853  28.137  29.613  1.00  0.00     0.029 A 
ATOM     57  C   UNL A   1      39.970  29.070  29.557  1.00  0.00     0.049 A 
ATOM     58  H   UNL A   1      41.696  28.918  28.394  1.00  0.00     0.167 HD
ATOM     59  C   UNL A   1      45.651  27.951  26.575  1.00  0.00     0.034 A 
ATOM     60  C   UNL A   1      40.057  30.221  30.252  1.00  0.00     0.034 A 
ATOM     61  C   UNL A   1      45.789  29.248  27.176  1.00  0.00     0.049 A 
ATOM     62  C   UNL A   1      41.297  31.054  30.089  1.00  0.00     0.074 A 
ATOM     63  C   UNL A   1      46.875  30.103  27.143  1.00  0.00     0.029 A 
ATOM     64  N   UNL A   1      44.792  29.889  27.900  1.00  0.00    -0.354 N 
ATOM     65  N   UNL A   1      42.387  30.776  29.414  1.00  0.00    -0.248 NA
ATOM     66  C   UNL A   1      41.311  32.368  30.742  1.00  0.00     0.031 C 
ATOM     67  C   UNL A   1      46.529  31.267  27.837  1.00  0.00     0.029 A 
ATOM     68  C   UNL A   1      45.225  31.141  28.292  1.00  0.00     0.049 A 
ATOM     69  H   UNL A   1      43.908  29.507  28.105  1.00  0.00     0.167 HD
ATOM     70  C   UNL A   1      43.200  31.896  29.526  1.00  0.00     0.074 A 
ATOM     71  C   UNL A   1      42.471  32.861  30.325  1.00  0.00     0.031 C 
ATOM     72  C   UNL A   1      44.442  32.104  29.024  1.00  0.00     0.034 A 
BRANCH  59  73
ATOM     73  C   UNL A   1      46.812  27.377  25.807  1.00  0.00     0.023 A 
ATOM     74  C   UNL A   1      47.603  26.370  26.399  1.00  0.00     0.012 A 
ATOM     75  C   UNL A   1      47.095  27.788  24.489  1.00  0.00     0.148 A 
ATOM     76  C   UNL A   1      48.675  25.808  25.711  1.00  0.00     0.002 A 
ATOM     77  C   UNL A   1      48.138  27.189  23.790  1.00  0.00     0.091 A 
ATOM     78  F   UNL A   1      46.348  28.761  23.948  1.00  0.00    -0.205 F 
ATOM     79  C   UNL A   1      48.935  26.210  24.403  1.00  0.00     0.022 A 
BRANCH  77  80
ATOM     80  S   UNL A   1      48.507  27.572  22.074  1.00  0.00     0.127 S 
ATOM     81  O   UNL A   1      49.575  28.562  22.216  1.00  0.00    -0.237 OA
ATOM     82  O   UNL A   1      48.943  26.275  21.557  1.00  0.00    -0.237 OA
ATOM     83  O   UNL A   1      47.268  28.073  21.497  1.00  0.00    -0.744 OA
ENDBRANCH  77  80
ENDBRANCH  59  73
BRANCH  60  84
ATOM     84  C   UNL A   1      38.892  30.687  31.055  1.00  0.00     0.023 A 
ATOM     85  C   UNL A   1      38.982  30.645  32.461  1.00  0.00     0.012 A 
ATOM     86  C   UNL A   1      37.748  31.254  30.460  1.00  0.00     0.148 A 
ATOM     87  C   UNL A   1      37.951  31.139  33.259  1.00  0.00     0.002 A 
ATOM     88  C   UNL A   1      36.744  31.791  31.261  1.00  0.00     0.091 A 
ATOM     89  F   UNL A   1      37.677  31.284  29.121  1.00  0.00    -0.205 F 
ATOM     90  C   UNL A   1      36.837  31.722  32.660  1.00  0.00     0.022 A 
BRANCH  88  91
ATOM     91  S   UNL A   1      35.342  32.690  30.584  1.00  0.00     0.127 S 
ATOM     92  O   UNL A   1      35.957  33.958  30.202  1.00  0.00    -0.237 OA
ATOM     93  O   UNL A   1      34.946  31.834  29.463  1.00  0.00    -0.237 OA
ATOM     94  O   UNL A   1      34.365  32.756  31.661  1.00  0.00    -0.744 OA
ENDBRANCH  88  91
ENDBRANCH  60  84
BRANCH  72  95
ATOM     95  C   UNL A   1      45.081  33.441  29.271  1.00  0.00     0.023 A 
ATOM     96  C   UNL A   1      45.779  33.672  30.471  1.00  0.00     0.012 A 
ATOM     97  C   UNL A   1      45.094  34.418  28.256  1.00  0.00     0.148 A 
ATOM     98  C   UNL A   1      46.473  34.864  30.663  1.00  0.00     0.002 A 
ATOM     99  C   UNL A   1      45.825  35.583  28.436  1.00  0.00     0.091 A 
ATOM    100  F   UNL A   1      44.400  34.183  27.133  1.00  0.00    -0.205 F 
ATOM    101  C   UNL A   1      46.510  35.812  29.641  1.00  0.00     0.022 A 
BRANCH  99 102
ATOM    102  S   UNL A   1      46.009  36.804  27.131  1.00  0.00     0.127 S 
ATOM    103  O   UNL A   1      47.161  37.571  27.602  1.00  0.00    -0.237 OA
ATOM    104  O   UNL A   1      46.270  35.971  25.957  1.00  0.00    -0.237 OA
ATOM    105  O   UNL A   1      44.747  37.529  27.084  1.00  0.00    -0.744 OA
ENDBRANCH  99 102
ENDBRANCH  72  95
ENDBRANCH  46  47
ENDBRANCH  38  41
ENDBRANCH  36  37
ENDBRANCH  35  36
ENDBRANCH   1  35
TORSDOF 19
ENDMDL
MODEL 2
REMARK VINA RESULT:     -13.0      5.578      9.434
REMARK SMILES O=C(CCN1C(=O)S/C(=C\c2ccc(F)cc2)C1=O)Nc1ccc(O)cc1C(=O)NCCCNC(=O)c1ccc(-c2c3nc(c(-c4cccc(S(=O)(=O)[O-])c4F)c4ccc([nH]4)c(-c4cccc(S(=O)(=O)[O-])c4F)c4nc(c(-c5cccc(S(=O)(=O)[O-])c5F)c5ccc2[nH]5)C=C4)C=C3)cc1
REMARK SMILES IDX 31 1 30 2 28 3 29 4 27 6 21 7 22 8 23 9 26 10 24 11 20 12
REMARK SMILES IDX 1 13 2 14 3 16 4 17 5 18 6 19 18 20 7 21 8 22 9 23 19 24
REMARK SMILES IDX 10 25 11 26 12 27 17 28 13 29 16 30 14 31 15 32 25 33 32 35
REMARK SMILES IDX 33 36 34 37 35 38 36 40 37 41 38 42 99 43 39 44 98 45 40 46
REMARK SMILES IDX 41 47 42 48 92 49 43 50 97 51 91 52 93 53 44 54 96 55 90 56
REMARK SMILES IDX 89 57 45 59 77 60 57 61 76 62 58 63 61 64 75 65 94 66 59 67
REMARK SMILES IDX 60 68 74 70 95 71 62 72 46 73 47 74 55 75 48 76 50 77 56 78
REMARK SMILES IDX 49 79 51 80 52 81 53 82 54 83 78 84 79 85 87 86 80 87 82 88
REMARK SMILES IDX 88 89 81 90 83 91 84 92 85 93 86 94 63 95 64 96 72 97 65 98
REMARK SMILES IDX 67 99 73 100 66 101 68 102 69 103 70 104 71 105
REMARK H PARENT 30 5 20 15 25 34 34 39 93 58 61 69
REMARK Flexibility Score: inf
ROOT
ATOM      1  C   UNL A   1      32.133  29.558  25.926  1.00  0.00     0.118 C 
ENDROOT
BRANCH   1   2
ATOM      2  N   UNL A   1      31.406  28.303  25.870  1.00  0.00    -0.352 N 
ATOM      3  C   UNL A   1      30.540  27.819  24.911  1.00  0.00     0.253 C 
ATOM      4  O   UNL A   1      30.058  26.695  25.064  1.00  0.00    -0.269 OA
ATOM      5  H   UNL A   1      31.554  27.702  26.635  1.00  0.00     0.163 HD
BRANCH   3   6
ATOM      6  C   UNL A   1      30.131  28.597  23.703  1.00  0.00     0.067 A 
ATOM      7  C   UNL A   1      30.928  28.822  22.564  1.00  0.00     0.054 A 
ATOM      8  C   UNL A   1      30.422  29.629  21.529  1.00  0.00     0.031 A 
ATOM      9  C   UNL A   1      29.127  30.146  21.575  1.00  0.00     0.048 A 
ATOM     10  C   UNL A   1      28.812  29.097  23.724  1.00  0.00     0.062 A 
ATOM     11  C   UNL A   1      28.323  29.852  22.663  1.00  0.00     0.116 A 
BRANCH   7  12
ATOM     12  N   UNL A   1      32.168  28.161  22.394  1.00  0.00    -0.325 N 
ATOM     13  O   UNL A   1      31.381  26.036  21.967  1.00  0.00    -0.275 OA
ATOM     14  C   UNL A   1      32.318  26.808  22.170  1.00  0.00     0.226 C 
ATOM     15  H   UNL A   1      32.985  28.709  22.440  1.00  0.00     0.169 HD
BRANCH  14  16
ATOM     16  C   UNL A   1      33.728  26.252  22.209  1.00  0.00     0.122 C 
BRANCH  16  17
ATOM     17  C   UNL A   1      34.218  25.556  23.469  1.00  0.00     0.140 C 
BRANCH  17  18
ATOM     18  N   UNL A   1      33.763  24.195  23.742  1.00  0.00    -0.268 N 
ATOM     19  C   UNL A   1      33.506  23.319  22.716  1.00  0.00     0.293 C 
ATOM     20  C   UNL A   1      33.604  23.635  24.991  1.00  0.00     0.268 C 
ATOM     21  O   UNL A   1      34.140  23.186  21.685  1.00  0.00    -0.261 OA
ATOM     22  S   UNL A   1      32.413  22.083  23.271  1.00  0.00    -0.022 SA
ATOM     23  C   UNL A   1      33.185  22.218  24.804  1.00  0.00     0.083 C 
ATOM     24  O   UNL A   1      33.857  24.135  26.075  1.00  0.00    -0.268 OA
ATOM     25  C   UNL A   1      33.725  21.207  25.499  1.00  0.00     0.029 C 
BRANCH  25  26
ATOM     26  C   UNL A   1      33.654  19.833  24.988  1.00  0.00    -0.024 A 
ATOM     27  C   UNL A   1      32.432  19.140  25.035  1.00  0.00     0.011 A 
ATOM     28  C   UNL A   1      34.822  19.152  24.630  1.00  0.00     0.011 A 
ATOM     29  C   UNL A   1      32.383  17.779  24.734  1.00  0.00     0.040 A 
ATOM     30  C   UNL A   1      34.768  17.791  24.325  1.00  0.00     0.040 A 
ATOM     31  C   UNL A   1      33.552  17.117  24.382  1.00  0.00     0.123 A 
ATOM     32  F   UNL A   1      33.514  15.806  24.109  1.00  0.00    -0.207 F 
ENDBRANCH  25  26
ENDBRANCH  17  18
ENDBRANCH  16  17
ENDBRANCH  14  16
ENDBRANCH   7  12
BRANCH  11  33
ATOM     33  O   UNL A   1      27.031  30.287  22.718  1.00  0.00    -0.508 OA
ATOM     34  H   UNL A   1      26.444  29.929  23.356  1.00  0.00     0.293 HD
ENDBRANCH  11  33
ENDBRANCH   3   6
ENDBRANCH   1   2
BRANCH   1  35
ATOM     35  C   UNL A   1      32.671  29.995  27.281  1.00  0.00     0.042 C 
BRANCH  35  36
ATOM     36  C   UNL A   1      33.625  31.197  27.377  1.00  0.00     0.118 C 
BRANCH  36  37
ATOM     37  N   UNL A   1      33.025  32.517  27.542  1.00  0.00    -0.352 N 
ATOM     38  C   UNL A   1      33.300  33.617  28.324  1.00  0.00     0.251 C 
ATOM     39  H   UNL A   1      32.244  32.653  26.959  1.00  0.00     0.163 HD
ATOM     40  O   UNL A   1      32.571  34.609  28.284  1.00  0.00    -0.269 OA
BRANCH  38  41
ATOM     41  C   UNL A   1      34.407  33.603  29.288  1.00  0.00     0.039 A 
ATOM     42  C   UNL A   1      34.267  32.861  30.468  1.00  0.00     0.014 A 
ATOM     43  C   UNL A   1      35.595  34.259  29.001  1.00  0.00     0.014 A 
ATOM     44  C   UNL A   1      35.383  32.629  31.268  1.00  0.00     0.010 A 
ATOM     45  C   UNL A   1      36.723  33.936  29.727  1.00  0.00     0.010 A 
ATOM     46  C   UNL A   1      36.635  33.084  30.840  1.00  0.00    -0.014 A 
BRANCH  46  47
ATOM     47  C   UNL A   1      37.908  32.628  31.441  1.00  0.00     0.031 A 
ATOM     48  C   UNL A   1      38.652  31.503  30.784  1.00  0.00     0.074 A 
ATOM     49  C   UNL A   1      38.229  33.057  32.678  1.00  0.00     0.049 A 
ATOM     50  N   UNL A   1      39.555  30.710  31.288  1.00  0.00    -0.248 NA
ATOM     51  C   UNL A   1      38.270  31.184  29.398  1.00  0.00     0.031 C 
ATOM     52  C   UNL A   1      37.511  34.087  33.437  1.00  0.00     0.029 A 
ATOM     53  N   UNL A   1      39.207  32.638  33.543  1.00  0.00    -0.354 N 
ATOM     54  C   UNL A   1      39.794  29.751  30.312  1.00  0.00     0.074 A 
ATOM     55  C   UNL A   1      38.925  30.051  29.195  1.00  0.00     0.031 C 
ATOM     56  C   UNL A   1      38.067  34.214  34.650  1.00  0.00     0.029 A 
ATOM     57  C   UNL A   1      39.145  33.245  34.778  1.00  0.00     0.049 A 
ATOM     58  H   UNL A   1      39.886  31.966  33.305  1.00  0.00     0.167 HD
ATOM     59  C   UNL A   1      40.675  28.724  30.345  1.00  0.00     0.034 A 
ATOM     60  C   UNL A   1      39.869  33.028  35.894  1.00  0.00     0.034 A 
ATOM     61  C   UNL A   1      41.578  28.501  31.440  1.00  0.00     0.049 A 
ATOM     62  C   UNL A   1      40.933  31.968  35.854  1.00  0.00     0.074 A 
ATOM     63  C   UNL A   1      42.571  27.547  31.557  1.00  0.00     0.029 A 
ATOM     64  N   UNL A   1      41.611  29.263  32.600  1.00  0.00    -0.354 N 
ATOM     65  N   UNL A   1      41.216  31.128  34.886  1.00  0.00    -0.248 NA
ATOM     66  C   UNL A   1      41.801  31.847  37.031  1.00  0.00     0.031 C 
ATOM     67  C   UNL A   1      43.214  27.742  32.784  1.00  0.00     0.029 A 
ATOM     68  C   UNL A   1      42.628  28.823  33.425  1.00  0.00     0.049 A 
ATOM     69  H   UNL A   1      40.999  30.007  32.805  1.00  0.00     0.167 HD
ATOM     70  C   UNL A   1      42.320  30.407  35.319  1.00  0.00     0.074 A 
ATOM     71  C   UNL A   1      42.661  30.917  36.633  1.00  0.00     0.031 C 
ATOM     72  C   UNL A   1      42.985  29.405  34.693  1.00  0.00     0.034 A 
BRANCH  59  73
ATOM     73  C   UNL A   1      40.755  27.825  29.140  1.00  0.00     0.023 A 
ATOM     74  C   UNL A   1      39.877  26.725  29.040  1.00  0.00     0.012 A 
ATOM     75  C   UNL A   1      41.652  28.088  28.087  1.00  0.00     0.148 A 
ATOM     76  C   UNL A   1      39.915  25.881  27.932  1.00  0.00     0.002 A 
ATOM     77  C   UNL A   1      41.651  27.269  26.962  1.00  0.00     0.091 A 
ATOM     78  F   UNL A   1      42.494  29.124  28.206  1.00  0.00    -0.205 F 
ATOM     79  C   UNL A   1      40.794  26.160  26.889  1.00  0.00     0.022 A 
BRANCH  77  80
ATOM     80  S   UNL A   1      42.684  27.586  25.526  1.00  0.00     0.127 S 
ATOM     81  O   UNL A   1      42.120  28.841  25.029  1.00  0.00    -0.237 OA
ATOM     82  O   UNL A   1      44.013  27.711  26.125  1.00  0.00    -0.237 OA
ATOM     83  O   UNL A   1      42.517  26.438  24.648  1.00  0.00    -0.744 OA
ENDBRANCH  77  80
ENDBRANCH  59  73
BRANCH  60  84
ATOM     84  C   UNL A   1      39.679  33.913  37.078  1.00  0.00     0.023 A 
ATOM     85  C   UNL A   1      40.048  35.268  36.974  1.00  0.00     0.012 A 
ATOM     86  C   UNL A   1      39.058  33.462  38.260  1.00  0.00     0.148 A 
ATOM     87  C   UNL A   1      39.823  36.154  38.027  1.00  0.00     0.002 A 
ATOM     88  C   UNL A   1      38.790  34.361  39.288  1.00  0.00     0.091 A 
ATOM     89  F   UNL A   1      38.715  32.169  38.344  1.00  0.00    -0.205 F 
ATOM     90  C   UNL A   1      39.184  35.704  39.179  1.00  0.00     0.022 A 
BRANCH  88  91
ATOM     91  S   UNL A   1      37.844  33.908  40.748  1.00  0.00     0.127 S 
ATOM     92  O   UNL A   1      36.668  33.275  40.157  1.00  0.00    -0.237 OA
ATOM     93  O   UNL A   1      38.760  32.993  41.431  1.00  0.00    -0.237 OA
ATOM     94  O   UNL A   1      37.604  35.157  41.459  1.00  0.00    -0.744 OA
ENDBRANCH  88  91
ENDBRANCH  60  84
BRANCH  72  95
ATOM     95  C   UNL A   1      44.183  28.823  35.386  1.00  0.00     0.023 A 
ATOM     96  C   UNL A   1      45.444  29.428  35.231  1.00  0.00     0.012 A 
ATOM     97  C   UNL A   1      44.029  27.754  36.291  1.00  0.00     0.148 A 
ATOM     98  C   UNL A   1      46.540  28.969  35.958  1.00  0.00     0.002 A 
ATOM     99  C   UNL A   1      45.115  27.333  37.046  1.00  0.00     0.091 A 
ATOM    100  F   UNL A   1      42.823  27.179  36.402  1.00  0.00    -0.205 F 
ATOM    101  C   UNL A   1      46.372  27.933  36.876  1.00  0.00     0.022 A 
BRANCH  99 102
ATOM    102  S   UNL A   1      44.958  26.079  38.323  1.00  0.00     0.127 S 
ATOM    103  O   UNL A   1      43.848  26.601  39.117  1.00  0.00    -0.237 OA
ATOM    104  O   UNL A   1      44.643  24.879  37.547  1.00  0.00    -0.237 OA
ATOM    105  O   UNL A   1      46.249  26.036  38.997  1.00  0.00    -0.744 OA
ENDBRANCH  99 102
ENDBRANCH  72  95
ENDBRANCH  46  47
ENDBRANCH  38  41
ENDBRANCH  36  37
ENDBRANCH  35  36
ENDBRANCH   1  35
TORSDOF 19
ENDMDL
MODEL 3
REMARK VINA RESULT:     -12.6      5.972      9.866
REMARK SMILES O=C(CCN1C(=O)S/C(=C\c2ccc(F)cc2)C1=O)Nc1ccc(O)cc1C(=O)NCCCNC(=O)c1ccc(-c2c3nc(c(-c4cccc(S(=O)(=O)[O-])c4F)c4ccc([nH]4)c(-c4cccc(S(=O)(=O)[O-])c4F)c4nc(c(-c5cccc(S(=O)(=O)[O-])c5F)c5ccc2[nH]5)C=C4)C=C3)cc1
REMARK SMILES IDX 31 1 30 2 28 3 29 4 27 6 21 7 22 8 23 9 26 10 24 11 20 12
REMARK SMILES IDX 1 13 2 14 3 16 4 17 5 18 6 19 18 20 7 21 8 22 9 23 19 24
REMARK SMILES IDX 10 25 11 26 12 27 17 28 13 29 16 30 14 31 15 32 25 33 32 35
REMARK SMILES IDX 33 36 34 37 35 38 36 40 37 41 38 42 99 43 39 44 98 45 40 46
REMARK SMILES IDX 41 47 42 48 92 49 43 50 97 51 91 52 93 53 44 54 96 55 90 56
REMARK SMILES IDX 89 57 45 59 77 60 57 61 76 62 58 63 61 64 75 65 94 66 59 67
REMARK SMILES IDX 60 68 74 70 95 71 62 72 46 73 47 74 55 75 48 76 50 77 56 78
REMARK SMILES IDX 49 79 51 80 52 81 53 82 54 83 78 84 79 85 87 86 80 87 82 88
REMARK SMILES IDX 88 89 81 90 83 91 84 92 85 93 86 94 63 95 64 96 72 97 65 98
REMARK SMILES IDX 67 99 73 100 66 101 68 102 69 103 70 104 71 105
REMARK H PARENT 30 5 20 15 25 34 34 39 93 58 61 69
REMARK Flexibility Score: inf
ROOT
ATOM      1  C   UNL A   1      33.950  30.400  26.994  1.00  0.00     0.118 C 
ENDROOT
BRANCH   1   2
ATOM      2  N   UNL A   1      33.051  29.520  27.718  1.00  0.00    -0.352 N 
ATOM      3  C   UNL A   1      31.970  28.787  27.270  1.00  0.00     0.253 C 
ATOM      4  O   UNL A   1      31.366  28.076  28.073  1.00  0.00    -0.269 OA
ATOM      5  H   UNL A   1      33.242  29.430  28.679  1.00  0.00     0.163 HD
BRANCH   3   6
ATOM      6  C   UNL A   1      31.473  28.831  25.862  1.00  0.00     0.067 A 
ATOM      7  C   UNL A   1      31.487  27.754  24.955  1.00  0.00     0.054 A 
ATOM      8  C   UNL A   1      31.037  27.968  23.639  1.00  0.00     0.031 A 
ATOM      9  C   UNL A   1      30.513  29.197  23.239  1.00  0.00     0.048 A 
ATOM     10  C   UNL A   1      30.910  30.059  25.457  1.00  0.00     0.062 A 
ATOM     11  C   UNL A   1      30.429  30.226  24.162  1.00  0.00     0.116 A 
BRANCH   7  12
ATOM     12  N   UNL A   1      31.832  26.446  25.372  1.00  0.00    -0.325 N 
ATOM     13  O   UNL A   1      29.797  25.808  26.251  1.00  0.00    -0.275 OA
ATOM     14  C   UNL A   1      30.990  25.584  26.045  1.00  0.00     0.226 C 
ATOM     15  H   UNL A   1      32.741  26.128  25.167  1.00  0.00     0.169 HD
BRANCH  14  16
ATOM     16  C   UNL A   1      31.596  24.303  26.582  1.00  0.00     0.122 C 
BRANCH  16  17
ATOM     17  C   UNL A   1      33.051  23.982  26.276  1.00  0.00     0.140 C 
BRANCH  17  18
ATOM     18  N   UNL A   1      33.383  22.656  25.761  1.00  0.00    -0.268 N 
ATOM     19  C   UNL A   1      34.161  21.791  26.492  1.00  0.00     0.293 C 
ATOM     20  C   UNL A   1      32.931  22.116  24.577  1.00  0.00     0.268 C 
ATOM     21  O   UNL A   1      34.130  21.609  27.695  1.00  0.00    -0.261 OA
ATOM     22  S   UNL A   1      34.898  20.633  25.421  1.00  0.00    -0.022 SA
ATOM     23  C   UNL A   1      33.462  20.728  24.477  1.00  0.00     0.083 C 
ATOM     24  O   UNL A   1      32.147  22.606  23.780  1.00  0.00    -0.268 OA
ATOM     25  C   UNL A   1      32.703  19.689  24.101  1.00  0.00     0.029 C 
BRANCH  25  26
ATOM     26  C   UNL A   1      33.091  18.319  24.457  1.00  0.00    -0.024 A 
ATOM     27  C   UNL A   1      33.780  17.530  23.519  1.00  0.00     0.011 A 
ATOM     28  C   UNL A   1      32.622  17.737  25.639  1.00  0.00     0.011 A 
ATOM     29  C   UNL A   1      33.990  16.172  23.761  1.00  0.00     0.040 A 
ATOM     30  C   UNL A   1      32.838  16.379  25.879  1.00  0.00     0.040 A 
ATOM     31  C   UNL A   1      33.516  15.609  24.940  1.00  0.00     0.123 A 
ATOM     32  F   UNL A   1      33.699  14.303  25.169  1.00  0.00    -0.207 F 
ENDBRANCH  25  26
ENDBRANCH  17  18
ENDBRANCH  16  17
ENDBRANCH  14  16
ENDBRANCH   7  12
BRANCH  11  33
ATOM     33  O   UNL A   1      29.867  31.423  23.829  1.00  0.00    -0.508 OA
ATOM     34  H   UNL A   1      28.937  31.531  23.870  1.00  0.00     0.293 HD
ENDBRANCH  11  33
ENDBRANCH   3   6
ENDBRANCH   1   2
BRANCH   1  35
ATOM     35  C   UNL A   1      34.759  31.398  27.809  1.00  0.00     0.042 C 
BRANCH  35  36
ATOM     36  C   UNL A   1      34.659  32.901  27.501  1.00  0.00     0.118 C 
BRANCH  36  37
ATOM     37  N   UNL A   1      33.714  33.685  28.289  1.00  0.00    -0.352 N 
ATOM     38  C   UNL A   1      33.704  34.193  29.569  1.00  0.00     0.251 C 
ATOM     39  H   UNL A   1      32.894  33.902  27.789  1.00  0.00     0.163 HD
ATOM     40  O   UNL A   1      32.718  34.798  29.993  1.00  0.00    -0.269 OA
BRANCH  38  41
ATOM     41  C   UNL A   1      34.823  33.952  30.488  1.00  0.00     0.039 A 
ATOM     42  C   UNL A   1      34.744  32.875  31.382  1.00  0.00     0.014 A 
ATOM     43  C   UNL A   1      35.964  34.736  30.424  1.00  0.00     0.014 A 
ATOM     44  C   UNL A   1      35.881  32.477  32.078  1.00  0.00     0.010 A 
ATOM     45  C   UNL A   1      37.120  34.275  31.022  1.00  0.00     0.010 A 
ATOM     46  C   UNL A   1      37.098  33.117  31.818  1.00  0.00    -0.014 A 
BRANCH  46  47
ATOM     47  C   UNL A   1      38.404  32.578  32.256  1.00  0.00     0.031 A 
ATOM     48  C   UNL A   1      39.043  31.490  31.446  1.00  0.00     0.074 A 
ATOM     49  C   UNL A   1      38.855  32.895  33.487  1.00  0.00     0.049 A 
ATOM     50  N   UNL A   1      39.959  30.633  31.797  1.00  0.00    -0.248 NA
ATOM     51  C   UNL A   1      38.522  31.296  30.081  1.00  0.00     0.031 C 
ATOM     52  C   UNL A   1      38.247  33.880  34.389  1.00  0.00     0.029 A 
ATOM     53  N   UNL A   1      39.892  32.379  34.219  1.00  0.00    -0.354 N 
ATOM     54  C   UNL A   1      40.071  29.750  30.730  1.00  0.00     0.074 A 
ATOM     55  C   UNL A   1      39.114  30.164  29.729  1.00  0.00     0.031 C 
ATOM     56  C   UNL A   1      38.919  33.893  35.550  1.00  0.00     0.029 A 
ATOM     57  C   UNL A   1      39.969  32.886  35.498  1.00  0.00     0.049 A 
ATOM     58  H   UNL A   1      40.522  31.710  33.865  1.00  0.00     0.167 HD
ATOM     59  C   UNL A   1      40.914  28.699  30.599  1.00  0.00     0.034 A 
ATOM     60  C   UNL A   1      40.784  32.558  36.519  1.00  0.00     0.034 A 
ATOM     61  C   UNL A   1      41.906  28.361  31.581  1.00  0.00     0.049 A 
ATOM     62  C   UNL A   1      41.801  31.475  36.294  1.00  0.00     0.074 A 
ATOM     63  C   UNL A   1      42.871  27.373  31.528  1.00  0.00     0.029 A 
ATOM     64  N   UNL A   1      42.075  29.026  32.789  1.00  0.00    -0.354 N 
ATOM     65  N   UNL A   1      41.962  30.709  35.242  1.00  0.00    -0.248 NA
ATOM     66  C   UNL A   1      42.770  31.234  37.370  1.00  0.00     0.031 C 
ATOM     67  C   UNL A   1      43.632  27.449  32.699  1.00  0.00     0.029 A 
ATOM     68  C   UNL A   1      43.148  28.491  33.476  1.00  0.00     0.049 A 
ATOM     69  H   UNL A   1      41.512  29.767  33.109  1.00  0.00     0.167 HD
ATOM     70  C   UNL A   1      43.075  29.924  35.509  1.00  0.00     0.074 A 
ATOM     71  C   UNL A   1      43.555  30.315  36.820  1.00  0.00     0.031 C 
ATOM     72  C   UNL A   1      43.642  28.957  34.746  1.00  0.00     0.034 A 
BRANCH  59  73
ATOM     73  C   UNL A   1      40.849  27.898  29.325  1.00  0.00     0.023 A 
ATOM     74  C   UNL A   1      39.828  26.938  29.164  1.00  0.00     0.012 A 
ATOM     75  C   UNL A   1      41.754  28.125  28.269  1.00  0.00     0.148 A 
ATOM     76  C   UNL A   1      39.731  26.190  27.993  1.00  0.00     0.002 A 
ATOM     77  C   UNL A   1      41.621  27.409  27.084  1.00  0.00     0.091 A 
ATOM     78  F   UNL A   1      42.730  29.026  28.445  1.00  0.00    -0.205 F 
ATOM     79  C   UNL A   1      40.620  26.433  26.950  1.00  0.00     0.022 A 
BRANCH  77  80
ATOM     80  S   UNL A   1      42.661  27.701  25.648  1.00  0.00     0.127 S 
ATOM     81  O   UNL A   1      42.013  28.868  25.049  1.00  0.00    -0.237 OA
ATOM     82  O   UNL A   1      43.961  27.974  26.260  1.00  0.00    -0.237 OA
ATOM     83  O   UNL A   1      42.604  26.482  24.855  1.00  0.00    -0.744 OA
ENDBRANCH  77  80
ENDBRANCH  59  73
BRANCH  60  84
ATOM     84  C   UNL A   1      40.738  33.348  37.782  1.00  0.00     0.023 A 
ATOM     85  C   UNL A   1      41.660  34.399  37.954  1.00  0.00     0.012 A 
ATOM     86  C   UNL A   1      39.747  33.140  38.762  1.00  0.00     0.148 A 
ATOM     87  C   UNL A   1      41.611  35.216  39.083  1.00  0.00     0.002 A 
ATOM     88  C   UNL A   1      39.671  33.990  39.861  1.00  0.00     0.091 A 
ATOM     89  F   UNL A   1      38.878  32.134  38.584  1.00  0.00    -0.205 F 
ATOM     90  C   UNL A   1      40.610  35.019  40.031  1.00  0.00     0.022 A 
BRANCH  88  91
ATOM     91  S   UNL A   1      38.333  33.907  41.059  1.00  0.00     0.127 S 
ATOM     92  O   UNL A   1      37.238  33.381  40.248  1.00  0.00    -0.237 OA
ATOM     93  O   UNL A   1      38.871  32.972  42.049  1.00  0.00    -0.237 OA
ATOM     94  O   UNL A   1      38.164  35.267  41.550  1.00  0.00    -0.744 OA
ENDBRANCH  88  91
ENDBRANCH  60  84
BRANCH  72  95
ATOM     95  C   UNL A   1      44.878  28.286  35.273  1.00  0.00     0.023 A 
ATOM     96  C   UNL A   1      46.143  28.846  35.014  1.00  0.00     0.012 A 
ATOM     97  C   UNL A   1      44.769  27.174  36.132  1.00  0.00     0.148 A 
ATOM     98  C   UNL A   1      47.286  28.301  35.593  1.00  0.00     0.002 A 
ATOM     99  C   UNL A   1      45.907  26.666  36.741  1.00  0.00     0.091 A 
ATOM    100  F   UNL A   1      43.555  26.645  36.343  1.00  0.00    -0.205 F 
ATOM    101  C   UNL A   1      47.167  27.222  36.468  1.00  0.00     0.022 A 
BRANCH  99 102
ATOM    102  S   UNL A   1      45.827  25.348  37.960  1.00  0.00     0.127 S 
ATOM    103  O   UNL A   1      45.512  24.190  37.126  1.00  0.00    -0.237 OA
ATOM    104  O   UNL A   1      47.182  25.351  38.514  1.00  0.00    -0.237 OA
ATOM    105  O   UNL A   1      44.792  25.744  38.905  1.00  0.00    -0.744 OA
ENDBRANCH  99 102
ENDBRANCH  72  95
ENDBRANCH  46  47
ENDBRANCH  38  41
ENDBRANCH  36  37
ENDBRANCH  35  36
ENDBRANCH   1  35
TORSDOF 19
ENDMDL
