MODEL 1
REMARK VINA RESULT:     -11.4      0.000      0.000
REMARK SMILES O=C(NCCCNC(=O)c1[nH]nc2c1CCC2)c1ccc(-c2c3nc(c(-c4cccc(S(=O)(=O)[O-])c4F)c4ccc([nH]4)c(-c4cccc(S(=O)(=O)[O-])c4F)c4nc(c(-c5cccc(S(=O)(=O)[O-])c5F)c5ccc2[nH]5)C=C4)C=C3)cc1
REMARK SMILES IDX 1 1 2 2 3 3 18 5 19 6 80 7 20 8 79 9 21 10 22 11 23 12 73 13
REMARK SMILES IDX 24 14 78 15 72 16 74 17 25 18 77 19 71 20 70 21 26 23 58 24
REMARK SMILES IDX 38 25 57 26 39 27 42 28 56 29 75 30 40 31 41 32 55 34 76 35
REMARK SMILES IDX 43 36 27 37 28 38 36 39 29 40 31 41 37 42 30 43 32 44 33 45
REMARK SMILES IDX 34 46 35 47 59 48 60 49 68 50 61 51 63 52 69 53 62 54 64 55
REMARK SMILES IDX 65 56 66 57 67 58 44 59 45 60 53 61 46 62 48 63 54 64 47 65
REMARK SMILES IDX 49 66 50 67 51 68 52 69 4 70 5 71 6 72 7 73 8 74 9 76 10 77
REMARK SMILES IDX 11 78 14 79 12 80 13 82 15 83 17 84 16 85
REMARK H PARENT 3 4 74 22 42 33 7 75 11 81
REMARK Flexibility Score: inf
ROOT
ATOM      1  O   UNL A   1      39.141  22.039  26.162  1.00  0.00    -0.269 OA
ATOM      2  C   UNL A   1      40.244  22.057  26.715  1.00  0.00     0.251 C 
ATOM      3  N   UNL A   1      40.892  20.854  26.771  1.00  0.00    -0.352 N 
ATOM      4  H   UNL A   1      40.305  20.096  26.545  1.00  0.00     0.163 HD
ENDROOT
BRANCH   2   5
ATOM      5  C   UNL A   1      40.721  23.319  27.341  1.00  0.00     0.039 A 
ATOM      6  C   UNL A   1      41.764  23.436  28.262  1.00  0.00     0.014 A 
ATOM      7  C   UNL A   1      40.012  24.479  26.975  1.00  0.00     0.014 A 
ATOM      8  C   UNL A   1      42.026  24.661  28.875  1.00  0.00     0.010 A 
ATOM      9  C   UNL A   1      40.273  25.704  27.576  1.00  0.00     0.010 A 
ATOM     10  C   UNL A   1      41.263  25.787  28.552  1.00  0.00    -0.014 A 
BRANCH  10  11
ATOM     11  C   UNL A   1      41.693  27.095  29.046  1.00  0.00     0.031 A 
ATOM     12  C   UNL A   1      42.976  27.543  28.432  1.00  0.00     0.074 A 
ATOM     13  C   UNL A   1      40.941  27.896  29.830  1.00  0.00     0.049 A 
ATOM     14  N   UNL A   1      44.114  27.735  29.019  1.00  0.00    -0.248 NA
ATOM     15  C   UNL A   1      43.047  27.613  26.962  1.00  0.00     0.031 C 
ATOM     16  C   UNL A   1      39.555  27.666  30.244  1.00  0.00     0.029 A 
ATOM     17  N   UNL A   1      41.198  29.154  30.309  1.00  0.00    -0.354 N 
ATOM     18  C   UNL A   1      44.962  28.215  28.020  1.00  0.00     0.074 A 
ATOM     19  C   UNL A   1      44.338  27.885  26.769  1.00  0.00     0.031 C 
ATOM     20  C   UNL A   1      39.022  28.828  30.686  1.00  0.00     0.029 A 
ATOM     21  C   UNL A   1      40.051  29.853  30.696  1.00  0.00     0.049 A 
ATOM     22  H   UNL A   1      42.105  29.529  30.375  1.00  0.00     0.167 HD
ATOM     23  C   UNL A   1      45.931  29.127  28.309  1.00  0.00     0.034 A 
ATOM     24  C   UNL A   1      39.936  31.187  30.929  1.00  0.00     0.034 A 
ATOM     25  C   UNL A   1      46.227  29.135  29.721  1.00  0.00     0.049 A 
ATOM     26  C   UNL A   1      41.293  31.716  31.171  1.00  0.00     0.074 A 
ATOM     27  C   UNL A   1      46.625  28.199  30.655  1.00  0.00     0.029 A 
ATOM     28  N   UNL A   1      45.747  30.204  30.435  1.00  0.00    -0.354 N 
ATOM     29  N   UNL A   1      42.000  31.433  32.225  1.00  0.00    -0.248 NA
ATOM     30  C   UNL A   1      42.030  32.251  30.040  1.00  0.00     0.031 C 
ATOM     31  C   UNL A   1      45.950  28.567  31.857  1.00  0.00     0.029 A 
ATOM     32  C   UNL A   1      45.239  29.742  31.614  1.00  0.00     0.049 A 
ATOM     33  H   UNL A   1      45.767  31.144  30.146  1.00  0.00     0.167 HD
ATOM     34  C   UNL A   1      43.286  31.278  31.729  1.00  0.00     0.074 A 
ATOM     35  C   UNL A   1      43.267  31.920  30.416  1.00  0.00     0.031 C 
ATOM     36  C   UNL A   1      44.143  30.384  32.301  1.00  0.00     0.034 A 
BRANCH  23  37
ATOM     37  C   UNL A   1      46.267  30.332  27.435  1.00  0.00     0.023 A 
ATOM     38  C   UNL A   1      47.635  30.687  27.345  1.00  0.00     0.012 A 
ATOM     39  C   UNL A   1      45.336  31.295  26.978  1.00  0.00     0.148 A 
ATOM     40  C   UNL A   1      48.042  31.963  26.938  1.00  0.00     0.002 A 
ATOM     41  C   UNL A   1      45.749  32.535  26.503  1.00  0.00     0.091 A 
ATOM     42  F   UNL A   1      44.026  31.084  27.098  1.00  0.00    -0.205 F 
ATOM     43  C   UNL A   1      47.098  32.891  26.520  1.00  0.00     0.022 A 
BRANCH  41  44
ATOM     44  S   UNL A   1      44.573  33.761  25.908  1.00  0.00     0.127 S 
ATOM     45  O   UNL A   1      43.894  33.020  24.849  1.00  0.00    -0.237 OA
ATOM     46  O   UNL A   1      43.774  34.005  27.109  1.00  0.00    -0.237 OA
ATOM     47  O   UNL A   1      45.370  34.902  25.479  1.00  0.00    -0.744 OA
ENDBRANCH  41  44
ENDBRANCH  23  37
BRANCH  24  48
ATOM     48  C   UNL A   1      38.791  32.116  30.731  1.00  0.00     0.023 A 
ATOM     49  C   UNL A   1      38.175  32.210  29.463  1.00  0.00     0.012 A 
ATOM     50  C   UNL A   1      38.113  32.674  31.835  1.00  0.00     0.148 A 
ATOM     51  C   UNL A   1      36.912  32.799  29.309  1.00  0.00     0.002 A 
ATOM     52  C   UNL A   1      36.862  33.266  31.677  1.00  0.00     0.091 A 
ATOM     53  F   UNL A   1      38.648  32.539  33.055  1.00  0.00    -0.205 F 
ATOM     54  C   UNL A   1      36.252  33.318  30.418  1.00  0.00     0.022 A 
BRANCH  52  55
ATOM     55  S   UNL A   1      35.939  33.934  33.069  1.00  0.00     0.127 S 
ATOM     56  O   UNL A   1      34.757  34.488  32.408  1.00  0.00    -0.237 OA
ATOM     57  O   UNL A   1      35.689  32.738  33.868  1.00  0.00    -0.237 OA
ATOM     58  O   UNL A   1      36.808  34.933  33.679  1.00  0.00    -0.744 OA
ENDBRANCH  52  55
ENDBRANCH  24  48
BRANCH  36  59
ATOM     59  C   UNL A   1      43.804  29.848  33.667  1.00  0.00     0.023 A 
ATOM     60  C   UNL A   1      44.047  30.561  34.859  1.00  0.00     0.012 A 
ATOM     61  C   UNL A   1      43.084  28.645  33.726  1.00  0.00     0.148 A 
ATOM     62  C   UNL A   1      43.601  30.065  36.087  1.00  0.00     0.002 A 
ATOM     63  C   UNL A   1      42.598  28.183  34.940  1.00  0.00     0.091 A 
ATOM     64  F   UNL A   1      42.867  27.978  32.581  1.00  0.00    -0.205 F 
ATOM     65  C   UNL A   1      42.863  28.883  36.126  1.00  0.00     0.022 A 
BRANCH  63  66
ATOM     66  S   UNL A   1      41.539  26.739  35.025  1.00  0.00     0.127 S 
ATOM     67  O   UNL A   1      41.139  26.736  36.430  1.00  0.00    -0.237 OA
ATOM     68  O   UNL A   1      40.470  27.076  34.083  1.00  0.00    -0.237 OA
ATOM     69  O   UNL A   1      42.364  25.612  34.603  1.00  0.00    -0.744 OA
ENDBRANCH  63  66
ENDBRANCH  36  59
ENDBRANCH  10  11
ENDBRANCH   2   5
BRANCH   3  70
ATOM     70  C   UNL A   1      42.241  20.437  27.087  1.00  0.00     0.118 C 
BRANCH  70  71
ATOM     71  C   UNL A   1      42.566  18.978  26.784  1.00  0.00     0.042 C 
BRANCH  71  72
ATOM     72  C   UNL A   1      43.329  18.742  25.484  1.00  0.00     0.118 C 
BRANCH  72  73
ATOM     73  N   UNL A   1      44.772  18.720  25.658  1.00  0.00    -0.351 N 
ATOM     74  C   UNL A   1      45.712  19.648  25.287  1.00  0.00     0.269 C 
ATOM     75  H   UNL A   1      45.128  17.920  26.109  1.00  0.00     0.163 HD
ATOM     76  O   UNL A   1      46.895  19.323  25.319  1.00  0.00    -0.268 OA
BRANCH  74  77
ATOM     77  C   UNL A   1      45.289  20.937  24.823  1.00  0.00     0.126 A 
ATOM     78  N   UNL A   1      44.829  21.136  23.534  1.00  0.00    -0.272 N 
ATOM     79  C   UNL A   1      45.257  22.193  25.376  1.00  0.00     0.006 A 
ATOM     80  N   UNL A   1      44.370  22.390  23.286  1.00  0.00    -0.180 NA
ATOM     81  H   UNL A   1      44.832  20.425  22.853  1.00  0.00     0.190 HD
ATOM     82  C   UNL A   1      44.637  23.006  24.428  1.00  0.00     0.066 A 
ATOM     83  C   UNL A   1      45.588  22.951  26.599  1.00  0.00     0.040 C 
ATOM     84  C   UNL A   1      44.389  24.376  24.915  1.00  0.00     0.059 C 
ATOM     85  C   UNL A   1      44.661  24.202  26.448  1.00  0.00     0.011 C 
ENDBRANCH  74  77
ENDBRANCH  72  73
ENDBRANCH  71  72
ENDBRANCH  70  71
ENDBRANCH   3  70
TORSDOF 13
ENDMDL
MODEL 2
REMARK VINA RESULT:     -11.4      1.326      1.756
REMARK SMILES O=C(NCCCNC(=O)c1[nH]nc2c1CCC2)c1ccc(-c2c3nc(c(-c4cccc(S(=O)(=O)[O-])c4F)c4ccc([nH]4)c(-c4cccc(S(=O)(=O)[O-])c4F)c4nc(c(-c5cccc(S(=O)(=O)[O-])c5F)c5ccc2[nH]5)C=C4)C=C3)cc1
REMARK SMILES IDX 1 1 2 2 3 3 18 5 19 6 80 7 20 8 79 9 21 10 22 11 23 12 73 13
REMARK SMILES IDX 24 14 78 15 72 16 74 17 25 18 77 19 71 20 70 21 26 23 58 24
REMARK SMILES IDX 38 25 57 26 39 27 42 28 56 29 75 30 40 31 41 32 55 34 76 35
REMARK SMILES IDX 43 36 27 37 28 38 36 39 29 40 31 41 37 42 30 43 32 44 33 45
REMARK SMILES IDX 34 46 35 47 59 48 60 49 68 50 61 51 63 52 69 53 62 54 64 55
REMARK SMILES IDX 65 56 66 57 67 58 44 59 45 60 53 61 46 62 48 63 54 64 47 65
REMARK SMILES IDX 49 66 50 67 51 68 52 69 4 70 5 71 6 72 7 73 8 74 9 76 10 77
REMARK SMILES IDX 11 78 14 79 12 80 13 82 15 83 17 84 16 85
REMARK H PARENT 3 4 74 22 42 33 7 75 11 81
REMARK Flexibility Score: inf
ROOT
ATOM      1  O   UNL A   1      38.812  21.259  25.979  1.00  0.00    -0.269 OA
ATOM      2  C   UNL A   1      39.944  21.495  26.408  1.00  0.00     0.251 C 
ATOM      3  N   UNL A   1      40.784  20.418  26.475  1.00  0.00    -0.352 N 
ATOM      4  H   UNL A   1      40.312  19.561  26.362  1.00  0.00     0.163 HD
ENDROOT
BRANCH   2   5
ATOM      5  C   UNL A   1      40.263  22.864  26.895  1.00  0.00     0.039 A 
ATOM      6  C   UNL A   1      39.680  24.051  26.451  1.00  0.00     0.014 A 
ATOM      7  C   UNL A   1      41.277  22.935  27.870  1.00  0.00     0.014 A 
ATOM      8  C   UNL A   1      40.163  25.282  26.896  1.00  0.00     0.010 A 
ATOM      9  C   UNL A   1      41.758  24.157  28.323  1.00  0.00     0.010 A 
ATOM     10  C   UNL A   1      41.220  25.333  27.810  1.00  0.00    -0.014 A 
BRANCH  10  11
ATOM     11  C   UNL A   1      41.563  26.620  28.417  1.00  0.00     0.031 A 
ATOM     12  C   UNL A   1      42.884  27.135  27.954  1.00  0.00     0.074 A 
ATOM     13  C   UNL A   1      40.717  27.354  29.171  1.00  0.00     0.049 A 
ATOM     14  N   UNL A   1      43.955  27.320  28.656  1.00  0.00    -0.248 NA
ATOM     15  C   UNL A   1      43.089  27.294  26.503  1.00  0.00     0.031 C 
ATOM     16  C   UNL A   1      39.307  27.066  29.438  1.00  0.00     0.029 A 
ATOM     17  N   UNL A   1      40.890  28.587  29.743  1.00  0.00    -0.354 N 
ATOM     18  C   UNL A   1      44.878  27.879  27.771  1.00  0.00     0.074 A 
ATOM     19  C   UNL A   1      44.383  27.609  26.450  1.00  0.00     0.031 C 
ATOM     20  C   UNL A   1      38.700  28.185  29.894  1.00  0.00     0.029 A 
ATOM     21  C   UNL A   1      39.692  29.233  30.060  1.00  0.00     0.049 A 
ATOM     22  H   UNL A   1      41.776  28.979  29.916  1.00  0.00     0.167 HD
ATOM     23  C   UNL A   1      45.788  28.796  28.202  1.00  0.00     0.034 A 
ATOM     24  C   UNL A   1      39.516  30.548  30.357  1.00  0.00     0.034 A 
ATOM     25  C   UNL A   1      45.951  28.726  29.634  1.00  0.00     0.049 A 
ATOM     26  C   UNL A   1      40.828  31.095  30.755  1.00  0.00     0.074 A 
ATOM     27  C   UNL A   1      46.289  27.747  30.546  1.00  0.00     0.029 A 
ATOM     28  N   UNL A   1      45.375  29.739  30.359  1.00  0.00    -0.354 N 
ATOM     29  N   UNL A   1      41.443  30.767  31.854  1.00  0.00    -0.248 NA
ATOM     30  C   UNL A   1      41.651  31.714  29.731  1.00  0.00     0.031 C 
ATOM     31  C   UNL A   1      45.494  28.025  31.698  1.00  0.00     0.029 A 
ATOM     32  C   UNL A   1      44.773  29.195  31.456  1.00  0.00     0.049 A 
ATOM     33  H   UNL A   1      45.393  30.695  30.127  1.00  0.00     0.167 HD
ATOM     34  C   UNL A   1      42.773  30.673  31.474  1.00  0.00     0.074 A 
ATOM     35  C   UNL A   1      42.857  31.392  30.204  1.00  0.00     0.031 C 
ATOM     36  C   UNL A   1      43.600  29.767  32.072  1.00  0.00     0.034 A 
BRANCH  23  37
ATOM     37  C   UNL A   1      46.168  30.058  27.434  1.00  0.00     0.023 A 
ATOM     38  C   UNL A   1      47.535  30.426  27.456  1.00  0.00     0.012 A 
ATOM     39  C   UNL A   1      45.259  31.045  26.984  1.00  0.00     0.148 A 
ATOM     40  C   UNL A   1      47.955  31.729  27.162  1.00  0.00     0.002 A 
ATOM     41  C   UNL A   1      45.689  32.317  26.620  1.00  0.00     0.091 A 
ATOM     42  F   UNL A   1      43.946  30.820  27.005  1.00  0.00    -0.205 F 
ATOM     43  C   UNL A   1      47.031  32.677  26.748  1.00  0.00     0.022 A 
BRANCH  41  44
ATOM     44  S   UNL A   1      44.542  33.574  26.035  1.00  0.00     0.127 S 
ATOM     45  O   UNL A   1      43.795  33.873  27.254  1.00  0.00    -0.237 OA
ATOM     46  O   UNL A   1      45.459  34.624  25.593  1.00  0.00    -0.237 OA
ATOM     47  O   UNL A   1      43.783  32.950  24.958  1.00  0.00    -0.744 OA
ENDBRANCH  41  44
ENDBRANCH  23  37
BRANCH  24  48
ATOM     48  C   UNL A   1      38.367  31.458  30.104  1.00  0.00     0.023 A 
ATOM     49  C   UNL A   1      37.774  31.501  28.823  1.00  0.00     0.012 A 
ATOM     50  C   UNL A   1      37.665  32.050  31.176  1.00  0.00     0.148 A 
ATOM     51  C   UNL A   1      36.509  32.073  28.626  1.00  0.00     0.002 A 
ATOM     52  C   UNL A   1      36.412  32.625  30.973  1.00  0.00     0.091 A 
ATOM     53  F   UNL A   1      38.178  31.964  32.408  1.00  0.00    -0.205 F 
ATOM     54  C   UNL A   1      35.824  32.626  29.703  1.00  0.00     0.022 A 
BRANCH  52  55
ATOM     55  S   UNL A   1      35.458  33.334  32.323  1.00  0.00     0.127 S 
ATOM     56  O   UNL A   1      35.627  32.327  33.372  1.00  0.00    -0.237 OA
ATOM     57  O   UNL A   1      36.161  34.591  32.563  1.00  0.00    -0.237 OA
ATOM     58  O   UNL A   1      34.094  33.455  31.825  1.00  0.00    -0.744 OA
ENDBRANCH  52  55
ENDBRANCH  24  48
BRANCH  36  59
ATOM     59  C   UNL A   1      43.151  29.143  33.367  1.00  0.00     0.023 A 
ATOM     60  C   UNL A   1      42.271  28.043  33.431  1.00  0.00     0.012 A 
ATOM     61  C   UNL A   1      43.758  29.602  34.547  1.00  0.00     0.148 A 
ATOM     62  C   UNL A   1      41.986  27.432  34.655  1.00  0.00     0.002 A 
ATOM     63  C   UNL A   1      43.513  28.959  35.751  1.00  0.00     0.091 A 
ATOM     64  F   UNL A   1      44.588  30.653  34.466  1.00  0.00    -0.205 F 
ATOM     65  C   UNL A   1      42.618  27.880  35.814  1.00  0.00     0.022 A 
BRANCH  63  66
ATOM     66  S   UNL A   1      44.396  29.418  37.242  1.00  0.00     0.127 S 
ATOM     67  O   UNL A   1      43.611  30.552  37.725  1.00  0.00    -0.237 OA
ATOM     68  O   UNL A   1      44.288  28.206  38.057  1.00  0.00    -0.237 OA
ATOM     69  O   UNL A   1      45.757  29.728  36.822  1.00  0.00    -0.744 OA
ENDBRANCH  63  66
ENDBRANCH  36  59
ENDBRANCH  10  11
ENDBRANCH   2   5
BRANCH   3  70
ATOM     70  C   UNL A   1      42.207  20.246  26.673  1.00  0.00     0.118 C 
BRANCH  70  71
ATOM     71  C   UNL A   1      42.713  18.810  26.588  1.00  0.00     0.042 C 
BRANCH  71  72
ATOM     72  C   UNL A   1      43.510  18.477  25.330  1.00  0.00     0.118 C 
BRANCH  72  73
ATOM     73  N   UNL A   1      44.949  18.531  25.528  1.00  0.00    -0.351 N 
ATOM     74  C   UNL A   1      45.842  19.517  25.191  1.00  0.00     0.269 C 
ATOM     75  H   UNL A   1      45.342  17.743  25.970  1.00  0.00     0.163 HD
ATOM     76  O   UNL A   1      47.040  19.257  25.236  1.00  0.00    -0.268 OA
BRANCH  74  77
ATOM     77  C   UNL A   1      45.355  20.790  24.744  1.00  0.00     0.126 A 
ATOM     78  N   UNL A   1      44.876  20.980  23.460  1.00  0.00    -0.272 N 
ATOM     79  C   UNL A   1      45.268  22.036  25.311  1.00  0.00     0.006 A 
ATOM     80  N   UNL A   1      44.358  22.214  23.229  1.00  0.00    -0.180 NA
ATOM     81  H   UNL A   1      44.908  20.278  22.771  1.00  0.00     0.190 HD
ATOM     82  C   UNL A   1      44.603  22.829  24.376  1.00  0.00     0.066 A 
ATOM     83  C   UNL A   1      45.572  22.796  26.540  1.00  0.00     0.040 C 
ATOM     84  C   UNL A   1      44.295  24.181  24.879  1.00  0.00     0.059 C 
ATOM     85  C   UNL A   1      44.586  24.004  26.409  1.00  0.00     0.011 C 
ENDBRANCH  74  77
ENDBRANCH  72  73
ENDBRANCH  71  72
ENDBRANCH  70  71
ENDBRANCH   3  70
TORSDOF 13
ENDMDL
MODEL 3
REMARK VINA RESULT:     -11.3      3.417     11.523
REMARK SMILES O=C(NCCCNC(=O)c1[nH]nc2c1CCC2)c1ccc(-c2c3nc(c(-c4cccc(S(=O)(=O)[O-])c4F)c4ccc([nH]4)c(-c4cccc(S(=O)(=O)[O-])c4F)c4nc(c(-c5cccc(S(=O)(=O)[O-])c5F)c5ccc2[nH]5)C=C4)C=C3)cc1
REMARK SMILES IDX 1 1 2 2 3 3 18 5 19 6 80 7 20 8 79 9 21 10 22 11 23 12 73 13
REMARK SMILES IDX 24 14 78 15 72 16 74 17 25 18 77 19 71 20 70 21 26 23 58 24
REMARK SMILES IDX 38 25 57 26 39 27 42 28 56 29 75 30 40 31 41 32 55 34 76 35
REMARK SMILES IDX 43 36 27 37 28 38 36 39 29 40 31 41 37 42 30 43 32 44 33 45
REMARK SMILES IDX 34 46 35 47 59 48 60 49 68 50 61 51 63 52 69 53 62 54 64 55
REMARK SMILES IDX 65 56 66 57 67 58 44 59 45 60 53 61 46 62 48 63 54 64 47 65
REMARK SMILES IDX 49 66 50 67 51 68 52 69 4 70 5 71 6 72 7 73 8 74 9 76 10 77
REMARK SMILES IDX 11 78 14 79 12 80 13 82 15 83 17 84 16 85
REMARK H PARENT 3 4 74 22 42 33 7 75 11 81
REMARK Flexibility Score: inf
ROOT
ATOM      1  O   UNL A   1      33.446  31.201  27.264  1.00  0.00    -0.269 OA
ATOM      2  C   UNL A   1      34.236  31.837  27.966  1.00  0.00     0.251 C 
ATOM      3  N   UNL A   1      33.863  33.120  28.259  1.00  0.00    -0.352 N 
ATOM      4  H   UNL A   1      33.111  33.432  27.704  1.00  0.00     0.163 HD
ENDROOT
BRANCH   2   5
ATOM      5  C   UNL A   1      35.533  31.214  28.343  1.00  0.00     0.039 A 
ATOM      6  C   UNL A   1      35.762  29.852  28.548  1.00  0.00     0.014 A 
ATOM      7  C   UNL A   1      36.600  32.113  28.537  1.00  0.00     0.014 A 
ATOM      8  C   UNL A   1      36.996  29.411  29.029  1.00  0.00     0.010 A 
ATOM      9  C   UNL A   1      37.833  31.679  29.008  1.00  0.00     0.010 A 
ATOM     10  C   UNL A   1      38.019  30.328  29.284  1.00  0.00    -0.014 A 
BRANCH  10  11
ATOM     11  C   UNL A   1      39.360  29.821  29.581  1.00  0.00     0.031 A 
ATOM     12  C   UNL A   1      39.759  30.062  30.998  1.00  0.00     0.074 A 
ATOM     13  C   UNL A   1      40.091  29.063  28.736  1.00  0.00     0.049 A 
ATOM     14  N   UNL A   1      40.716  30.815  31.437  1.00  0.00    -0.248 NA
ATOM     15  C   UNL A   1      38.877  29.545  32.058  1.00  0.00     0.031 C 
ATOM     16  C   UNL A   1      39.662  28.535  27.440  1.00  0.00     0.029 A 
ATOM     17  N   UNL A   1      41.319  28.482  28.911  1.00  0.00    -0.354 N 
ATOM     18  C   UNL A   1      40.714  30.636  32.821  1.00  0.00     0.074 A 
ATOM     19  C   UNL A   1      39.439  30.063  33.150  1.00  0.00     0.031 C 
ATOM     20  C   UNL A   1      40.490  27.533  27.069  1.00  0.00     0.029 A 
ATOM     21  C   UNL A   1      41.569  27.422  28.035  1.00  0.00     0.049 A 
ATOM     22  H   UNL A   1      41.964  28.784  29.590  1.00  0.00     0.167 HD
ATOM     23  C   UNL A   1      41.877  30.668  33.528  1.00  0.00     0.034 A 
ATOM     24  C   UNL A   1      42.540  26.476  28.139  1.00  0.00     0.034 A 
ATOM     25  C   UNL A   1      42.918  31.331  32.780  1.00  0.00     0.049 A 
ATOM     26  C   UNL A   1      43.578  27.000  29.049  1.00  0.00     0.074 A 
ATOM     27  C   UNL A   1      43.076  32.566  32.185  1.00  0.00     0.029 A 
ATOM     28  N   UNL A   1      43.885  30.522  32.239  1.00  0.00    -0.354 N 
ATOM     29  N   UNL A   1      44.361  27.997  28.753  1.00  0.00    -0.248 NA
ATOM     30  C   UNL A   1      43.481  26.670  30.460  1.00  0.00     0.031 C 
ATOM     31  C   UNL A   1      43.828  32.312  31.000  1.00  0.00     0.029 A 
ATOM     32  C   UNL A   1      44.150  30.955  30.973  1.00  0.00     0.049 A 
ATOM     33  H   UNL A   1      44.314  29.759  32.688  1.00  0.00     0.167 HD
ATOM     34  C   UNL A   1      44.447  28.712  29.937  1.00  0.00     0.074 A 
ATOM     35  C   UNL A   1      44.002  27.785  30.976  1.00  0.00     0.031 C 
ATOM     36  C   UNL A   1      44.579  30.071  29.915  1.00  0.00     0.034 A 
BRANCH  23  37
ATOM     37  C   UNL A   1      42.222  29.704  34.659  1.00  0.00     0.023 A 
ATOM     38  C   UNL A   1      42.878  30.257  35.786  1.00  0.00     0.012 A 
ATOM     39  C   UNL A   1      42.239  28.292  34.553  1.00  0.00     0.148 A 
ATOM     40  C   UNL A   1      43.604  29.465  36.683  1.00  0.00     0.002 A 
ATOM     41  C   UNL A   1      42.898  27.502  35.489  1.00  0.00     0.091 A 
ATOM     42  F   UNL A   1      41.720  27.685  33.487  1.00  0.00    -0.205 F 
ATOM     43  C   UNL A   1      43.618  28.085  36.532  1.00  0.00     0.022 A 
BRANCH  41  44
ATOM     44  S   UNL A   1      42.914  25.707  35.369  1.00  0.00     0.127 S 
ATOM     45  O   UNL A   1      43.643  25.507  34.120  1.00  0.00    -0.237 OA
ATOM     46  O   UNL A   1      43.644  25.339  36.582  1.00  0.00    -0.237 OA
ATOM     47  O   UNL A   1      41.516  25.296  35.365  1.00  0.00    -0.744 OA
ENDBRANCH  41  44
ENDBRANCH  23  37
BRANCH  24  48
ATOM     48  C   UNL A   1      42.559  25.050  27.719  1.00  0.00     0.023 A 
ATOM     49  C   UNL A   1      41.396  24.261  27.860  1.00  0.00     0.012 A 
ATOM     50  C   UNL A   1      43.601  24.548  26.910  1.00  0.00     0.148 A 
ATOM     51  C   UNL A   1      41.259  23.039  27.186  1.00  0.00     0.002 A 
ATOM     52  C   UNL A   1      43.464  23.330  26.248  1.00  0.00     0.091 A 
ATOM     53  F   UNL A   1      44.684  25.308  26.710  1.00  0.00    -0.205 F 
ATOM     54  C   UNL A   1      42.289  22.579  26.372  1.00  0.00     0.022 A 
BRANCH  52  55
ATOM     55  S   UNL A   1      44.743  22.686  25.160  1.00  0.00     0.127 S 
ATOM     56  O   UNL A   1      44.925  23.794  24.222  1.00  0.00    -0.237 OA
ATOM     57  O   UNL A   1      45.852  22.479  26.086  1.00  0.00    -0.237 OA
ATOM     58  O   UNL A   1      44.184  21.480  24.561  1.00  0.00    -0.744 OA
ENDBRANCH  52  55
ENDBRANCH  24  48
BRANCH  36  59
ATOM     59  C   UNL A   1      44.986  30.723  28.620  1.00  0.00     0.023 A 
ATOM     60  C   UNL A   1      44.060  31.241  27.691  1.00  0.00     0.012 A 
ATOM     61  C   UNL A   1      46.357  30.943  28.413  1.00  0.00     0.148 A 
ATOM     62  C   UNL A   1      44.500  31.941  26.565  1.00  0.00     0.002 A 
ATOM     63  C   UNL A   1      46.786  31.684  27.322  1.00  0.00     0.091 A 
ATOM     64  F   UNL A   1      47.222  30.438  29.306  1.00  0.00    -0.205 F 
ATOM     65  C   UNL A   1      45.863  32.177  26.388  1.00  0.00     0.022 A 
BRANCH  63  66
ATOM     66  S   UNL A   1      48.513  32.119  27.120  1.00  0.00     0.127 S 
ATOM     67  O   UNL A   1      49.116  30.830  26.790  1.00  0.00    -0.237 OA
ATOM     68  O   UNL A   1      48.470  33.077  26.014  1.00  0.00    -0.237 OA
ATOM     69  O   UNL A   1      48.931  32.702  28.390  1.00  0.00    -0.744 OA
ENDBRANCH  63  66
ENDBRANCH  36  59
ENDBRANCH  10  11
ENDBRANCH   2   5
BRANCH   3  70
ATOM     70  C   UNL A   1      34.317  34.125  29.195  1.00  0.00     0.118 C 
BRANCH  70  71
ATOM     71  C   UNL A   1      33.742  35.522  28.988  1.00  0.00     0.042 C 
BRANCH  71  72
ATOM     72  C   UNL A   1      32.789  35.998  30.080  1.00  0.00     0.118 C 
BRANCH  72  73
ATOM     73  N   UNL A   1      33.419  36.870  31.057  1.00  0.00    -0.351 N 
ATOM     74  C   UNL A   1      34.009  36.559  32.256  1.00  0.00     0.269 C 
ATOM     75  H   UNL A   1      33.424  37.827  30.824  1.00  0.00     0.163 HD
ATOM     76  O   UNL A   1      34.269  37.473  33.032  1.00  0.00    -0.268 OA
BRANCH  74  77
ATOM     77  C   UNL A   1      34.249  35.185  32.591  1.00  0.00     0.126 A 
ATOM     78  N   UNL A   1      33.230  34.342  32.995  1.00  0.00    -0.272 N 
ATOM     79  C   UNL A   1      35.371  34.399  32.668  1.00  0.00     0.006 A 
ATOM     80  N   UNL A   1      33.607  33.049  33.174  1.00  0.00    -0.180 NA
ATOM     81  H   UNL A   1      32.308  34.653  33.139  1.00  0.00     0.190 HD
ATOM     82  C   UNL A   1      34.911  33.115  32.959  1.00  0.00     0.066 A 
ATOM     83  C   UNL A   1      36.839  34.419  32.506  1.00  0.00     0.040 C 
ATOM     84  C   UNL A   1      35.981  32.099  32.941  1.00  0.00     0.059 C 
ATOM     85  C   UNL A   1      37.145  32.904  32.266  1.00  0.00     0.011 C 
ENDBRANCH  74  77
ENDBRANCH  72  73
ENDBRANCH  71  72
ENDBRANCH  70  71
ENDBRANCH   3  70
TORSDOF 13
ENDMDL
