MODEL 1
REMARK VINA RESULT:     -11.6      0.000      0.000
REMARK SMILES CSc1nc2nnc(C(=O)NCCCNC(=O)c3ccc(-c4c5nc(c(-c6cccc(S(=O)(=O)[O-])c6F)c6ccc([nH]6)c(-c6cccc(S(=O)(=O)[O-])c6F)c6nc(c(-c7cccc(S(=O)(=O)[O-])c7F)c7ccc4[nH]7)C=C6)C=C5)cc3)c(O)n2n1
REMARK SMILES IDX 14 1 13 2 12 3 11 4 9 5 10 6 8 8 3 9 4 10 84 11 5 12 83 13
REMARK SMILES IDX 6 14 81 15 7 16 2 17 1 18 82 19 15 21 16 22 17 24 18 25
REMARK SMILES IDX 19 26 80 27 20 28 79 29 21 30 22 31 23 32 73 33 24 34 78 35
REMARK SMILES IDX 72 36 74 37 25 38 77 39 71 40 70 41 26 43 58 44 38 45 57 46
REMARK SMILES IDX 39 47 42 48 56 49 75 50 40 51 41 52 55 54 76 55 43 56 27 57
REMARK SMILES IDX 28 58 36 59 29 60 31 61 37 62 30 63 32 64 33 65 34 66 35 67
REMARK SMILES IDX 59 68 60 69 68 70 61 71 63 72 69 73 62 74 64 75 65 76 66 77
REMARK SMILES IDX 67 78 44 79 45 80 53 81 46 82 48 83 54 84 47 85 49 86 50 87
REMARK SMILES IDX 51 88 52 89
REMARK H PARENT 11 7 82 20 15 23 74 42 42 53
REMARK Flexibility Score: inf
ROOT
ATOM      1  C   UNL A   1      39.093  20.135  25.716  1.00  0.00     0.118 C 
ENDROOT
BRANCH   1   2
ATOM      2  C   UNL A   1      37.839  19.609  25.029  1.00  0.00     0.042 C 
BRANCH   2   3
ATOM      3  C   UNL A   1      36.840  20.729  24.726  1.00  0.00     0.118 C 
BRANCH   3   4
ATOM      4  N   UNL A   1      35.498  20.426  25.203  1.00  0.00    -0.350 N 
ATOM      5  C   UNL A   1      34.328  21.121  25.184  1.00  0.00     0.277 C 
ATOM      6  O   UNL A   1      33.318  20.541  25.593  1.00  0.00    -0.267 OA
ATOM      7  H   UNL A   1      35.422  19.541  25.625  1.00  0.00     0.163 HD
BRANCH   5   8
ATOM      8  C   UNL A   1      34.212  22.522  24.658  1.00  0.00     0.212 A 
ATOM      9  C   UNL A   1      33.646  26.841  24.590  1.00  0.00     0.210 A 
ATOM     10  N   UNL A   1      33.704  26.262  23.359  1.00  0.00    -0.182 NA
ATOM     11  N   UNL A   1      33.759  26.010  25.624  1.00  0.00    -0.134 NA
ATOM     12  C   UNL A   1      33.894  24.989  23.635  1.00  0.00     0.275 A 
ATOM     13  N   UNL A   1      33.930  24.811  25.012  1.00  0.00    -0.159 N 
ATOM     14  N   UNL A   1      34.042  23.913  22.812  1.00  0.00    -0.108 NA
ATOM     15  C   UNL A   1      34.096  23.534  25.553  1.00  0.00     0.249 A 
ATOM     16  N   UNL A   1      34.209  22.761  23.296  1.00  0.00    -0.136 NA
BRANCH   9  17
ATOM     17  S   UNL A   1      33.429  28.562  24.781  1.00  0.00    -0.088 SA
ATOM     18  C   UNL A   1      33.366  29.101  23.060  1.00  0.00     0.094 C 
ENDBRANCH   9  17
BRANCH  15  19
ATOM     19  O   UNL A   1      34.108  23.400  26.934  1.00  0.00    -0.491 OA
ATOM     20  H   UNL A   1      33.788  24.096  27.475  1.00  0.00     0.295 HD
ENDBRANCH  15  19
ENDBRANCH   5   8
ENDBRANCH   3   4
ENDBRANCH   2   3
ENDBRANCH   1   2
BRANCH   1  21
ATOM     21  N   UNL A   1      40.175  19.148  25.745  1.00  0.00    -0.352 N 
ATOM     22  C   UNL A   1      41.520  19.352  26.003  1.00  0.00     0.251 C 
ATOM     23  H   UNL A   1      39.913  18.217  25.557  1.00  0.00     0.163 HD
ATOM     24  O   UNL A   1      42.344  18.501  25.720  1.00  0.00    -0.269 OA
BRANCH  22  25
ATOM     25  C   UNL A   1      41.934  20.627  26.619  1.00  0.00     0.039 A 
ATOM     26  C   UNL A   1      42.510  21.641  25.847  1.00  0.00     0.014 A 
ATOM     27  C   UNL A   1      41.702  20.810  27.978  1.00  0.00     0.014 A 
ATOM     28  C   UNL A   1      42.769  22.875  26.441  1.00  0.00     0.010 A 
ATOM     29  C   UNL A   1      41.821  22.064  28.523  1.00  0.00     0.010 A 
ATOM     30  C   UNL A   1      42.399  23.087  27.775  1.00  0.00    -0.014 A 
BRANCH  30  31
ATOM     31  C   UNL A   1      42.495  24.415  28.377  1.00  0.00     0.031 A 
ATOM     32  C   UNL A   1      41.316  25.301  28.148  1.00  0.00     0.074 A 
ATOM     33  C   UNL A   1      43.453  24.727  29.279  1.00  0.00     0.049 A 
ATOM     34  N   UNL A   1      41.296  26.455  27.565  1.00  0.00    -0.248 NA
ATOM     35  C   UNL A   1      39.981  24.797  28.507  1.00  0.00     0.031 C 
ATOM     36  C   UNL A   1      44.489  23.843  29.832  1.00  0.00     0.029 A 
ATOM     37  N   UNL A   1      43.591  25.852  30.032  1.00  0.00    -0.354 N 
ATOM     38  C   UNL A   1      39.986  26.920  27.679  1.00  0.00     0.074 A 
ATOM     39  C   UNL A   1      39.194  25.794  28.098  1.00  0.00     0.031 C 
ATOM     40  C   UNL A   1      44.935  24.352  31.000  1.00  0.00     0.029 A 
ATOM     41  C   UNL A   1      44.358  25.669  31.180  1.00  0.00     0.049 A 
ATOM     42  H   UNL A   1      43.186  26.717  29.787  1.00  0.00     0.167 HD
ATOM     43  C   UNL A   1      39.694  28.251  27.639  1.00  0.00     0.034 A 
ATOM     44  C   UNL A   1      44.468  26.514  32.232  1.00  0.00     0.034 A 
ATOM     45  C   UNL A   1      40.804  29.018  27.139  1.00  0.00     0.049 A 
ATOM     46  C   UNL A   1      44.041  27.851  31.763  1.00  0.00     0.074 A 
ATOM     47  C   UNL A   1      41.532  29.029  25.967  1.00  0.00     0.029 A 
ATOM     48  N   UNL A   1      41.561  29.696  28.064  1.00  0.00    -0.354 N 
ATOM     49  N   UNL A   1      44.700  28.544  30.876  1.00  0.00    -0.248 NA
ATOM     50  C   UNL A   1      42.651  28.230  31.951  1.00  0.00     0.031 C 
ATOM     51  C   UNL A   1      42.875  29.271  26.378  1.00  0.00     0.029 A 
ATOM     52  C   UNL A   1      42.876  29.461  27.763  1.00  0.00     0.049 A 
ATOM     53  H   UNL A   1      41.222  30.248  28.805  1.00  0.00     0.167 HD
ATOM     54  C   UNL A   1      43.711  29.109  30.081  1.00  0.00     0.074 A 
ATOM     55  C   UNL A   1      42.480  28.980  30.859  1.00  0.00     0.031 C 
ATOM     56  C   UNL A   1      43.925  29.353  28.754  1.00  0.00     0.034 A 
BRANCH  43  57
ATOM     57  C   UNL A   1      38.546  28.922  28.358  1.00  0.00     0.023 A 
ATOM     58  C   UNL A   1      37.668  29.715  27.582  1.00  0.00     0.012 A 
ATOM     59  C   UNL A   1      38.441  29.042  29.761  1.00  0.00     0.148 A 
ATOM     60  C   UNL A   1      36.773  30.616  28.170  1.00  0.00     0.002 A 
ATOM     61  C   UNL A   1      37.493  29.876  30.343  1.00  0.00     0.091 A 
ATOM     62  F   UNL A   1      39.344  28.455  30.551  1.00  0.00    -0.205 F 
ATOM     63  C   UNL A   1      36.679  30.691  29.553  1.00  0.00     0.022 A 
BRANCH  61  64
ATOM     64  S   UNL A   1      37.286  29.965  32.126  1.00  0.00     0.127 S 
ATOM     65  O   UNL A   1      38.516  30.638  32.532  1.00  0.00    -0.237 OA
ATOM     66  O   UNL A   1      36.069  30.770  32.246  1.00  0.00    -0.237 OA
ATOM     67  O   UNL A   1      37.131  28.586  32.569  1.00  0.00    -0.744 OA
ENDBRANCH  61  64
ENDBRANCH  43  57
BRANCH  44  68
ATOM     68  C   UNL A   1      44.710  26.219  33.662  1.00  0.00     0.023 A 
ATOM     69  C   UNL A   1      46.026  26.223  34.165  1.00  0.00     0.012 A 
ATOM     70  C   UNL A   1      43.641  26.196  34.588  1.00  0.00     0.148 A 
ATOM     71  C   UNL A   1      46.270  26.233  35.545  1.00  0.00     0.002 A 
ATOM     72  C   UNL A   1      43.890  26.202  35.958  1.00  0.00     0.091 A 
ATOM     73  F   UNL A   1      42.386  26.255  34.124  1.00  0.00    -0.205 F 
ATOM     74  C   UNL A   1      45.205  26.232  36.440  1.00  0.00     0.022 A 
BRANCH  72  75
ATOM     75  S   UNL A   1      42.567  26.238  37.177  1.00  0.00     0.127 S 
ATOM     76  O   UNL A   1      43.316  26.282  38.433  1.00  0.00    -0.237 OA
ATOM     77  O   UNL A   1      41.873  27.476  36.833  1.00  0.00    -0.237 OA
ATOM     78  O   UNL A   1      41.805  25.012  36.974  1.00  0.00    -0.744 OA
ENDBRANCH  72  75
ENDBRANCH  44  68
BRANCH  56  79
ATOM     79  C   UNL A   1      45.328  29.215  28.207  1.00  0.00     0.023 A 
ATOM     80  C   UNL A   1      46.289  30.240  28.340  1.00  0.00     0.012 A 
ATOM     81  C   UNL A   1      45.746  27.951  27.758  1.00  0.00     0.148 A 
ATOM     82  C   UNL A   1      47.632  30.011  28.022  1.00  0.00     0.002 A 
ATOM     83  C   UNL A   1      47.089  27.711  27.497  1.00  0.00     0.091 A 
ATOM     84  F   UNL A   1      44.822  26.985  27.639  1.00  0.00    -0.205 F 
ATOM     85  C   UNL A   1      48.035  28.741  27.619  1.00  0.00     0.022 A 
BRANCH  83  86
ATOM     86  S   UNL A   1      47.694  26.063  27.125  1.00  0.00     0.127 S 
ATOM     87  O   UNL A   1      47.306  25.318  28.321  1.00  0.00    -0.237 OA
ATOM     88  O   UNL A   1      46.943  25.717  25.917  1.00  0.00    -0.237 OA
ATOM     89  O   UNL A   1      49.130  26.202  26.910  1.00  0.00    -0.744 OA
ENDBRANCH  83  86
ENDBRANCH  56  79
ENDBRANCH  30  31
ENDBRANCH  22  25
ENDBRANCH   1  21
TORSDOF 15
ENDMDL
MODEL 2
REMARK VINA RESULT:     -11.4      4.247      9.659
REMARK SMILES CSc1nc2nnc(C(=O)NCCCNC(=O)c3ccc(-c4c5nc(c(-c6cccc(S(=O)(=O)[O-])c6F)c6ccc([nH]6)c(-c6cccc(S(=O)(=O)[O-])c6F)c6nc(c(-c7cccc(S(=O)(=O)[O-])c7F)c7ccc4[nH]7)C=C6)C=C5)cc3)c(O)n2n1
REMARK SMILES IDX 14 1 13 2 12 3 11 4 9 5 10 6 8 8 3 9 4 10 84 11 5 12 83 13
REMARK SMILES IDX 6 14 81 15 7 16 2 17 1 18 82 19 15 21 16 22 17 24 18 25
REMARK SMILES IDX 19 26 80 27 20 28 79 29 21 30 22 31 23 32 73 33 24 34 78 35
REMARK SMILES IDX 72 36 74 37 25 38 77 39 71 40 70 41 26 43 58 44 38 45 57 46
REMARK SMILES IDX 39 47 42 48 56 49 75 50 40 51 41 52 55 54 76 55 43 56 27 57
REMARK SMILES IDX 28 58 36 59 29 60 31 61 37 62 30 63 32 64 33 65 34 66 35 67
REMARK SMILES IDX 59 68 60 69 68 70 61 71 63 72 69 73 62 74 64 75 65 76 66 77
REMARK SMILES IDX 67 78 44 79 45 80 53 81 46 82 48 83 54 84 47 85 49 86 50 87
REMARK SMILES IDX 51 88 52 89
REMARK H PARENT 11 7 82 20 15 23 74 42 42 53
REMARK Flexibility Score: inf
ROOT
ATOM      1  C   UNL A   1      32.624  32.543  27.158  1.00  0.00     0.118 C 
ENDROOT
BRANCH   1   2
ATOM      2  C   UNL A   1      31.401  31.901  26.515  1.00  0.00     0.042 C 
BRANCH   2   3
ATOM      3  C   UNL A   1      31.646  30.432  26.160  1.00  0.00     0.118 C 
BRANCH   3   4
ATOM      4  N   UNL A   1      31.221  30.104  24.806  1.00  0.00    -0.350 N 
ATOM      5  C   UNL A   1      31.076  28.928  24.139  1.00  0.00     0.277 C 
ATOM      6  O   UNL A   1      30.596  28.976  23.003  1.00  0.00    -0.267 OA
ATOM      7  H   UNL A   1      30.993  30.893  24.265  1.00  0.00     0.163 HD
BRANCH   5   8
ATOM      8  C   UNL A   1      31.433  27.596  24.733  1.00  0.00     0.212 A 
ATOM      9  C   UNL A   1      33.824  24.196  26.034  1.00  0.00     0.210 A 
ATOM     10  N   UNL A   1      32.479  24.002  26.119  1.00  0.00    -0.182 NA
ATOM     11  N   UNL A   1      34.208  25.379  25.561  1.00  0.00    -0.134 NA
ATOM     12  C   UNL A   1      31.984  25.147  25.699  1.00  0.00     0.275 A 
ATOM     13  N   UNL A   1      33.022  26.004  25.352  1.00  0.00    -0.159 N 
ATOM     14  N   UNL A   1      30.694  25.564  25.568  1.00  0.00    -0.108 NA
ATOM     15  C   UNL A   1      32.745  27.277  24.850  1.00  0.00     0.249 A 
ATOM     16  N   UNL A   1      30.440  26.719  25.131  1.00  0.00    -0.136 NA
BRANCH   9  17
ATOM     17  S   UNL A   1      34.958  22.958  26.512  1.00  0.00    -0.088 SA
ATOM     18  C   UNL A   1      33.868  21.790  27.352  1.00  0.00     0.094 C 
ENDBRANCH   9  17
BRANCH  15  19
ATOM     19  O   UNL A   1      33.811  28.093  24.498  1.00  0.00    -0.491 OA
ATOM     20  H   UNL A   1      33.678  29.012  24.375  1.00  0.00     0.295 HD
ENDBRANCH  15  19
ENDBRANCH   5   8
ENDBRANCH   3   4
ENDBRANCH   2   3
ENDBRANCH   1   2
BRANCH   1  21
ATOM     21  N   UNL A   1      32.355  33.895  27.655  1.00  0.00    -0.352 N 
ATOM     22  C   UNL A   1      33.031  34.603  28.633  1.00  0.00     0.251 C 
ATOM     23  H   UNL A   1      31.593  34.361  27.240  1.00  0.00     0.163 HD
ATOM     24  O   UNL A   1      32.534  35.593  29.141  1.00  0.00    -0.269 OA
BRANCH  22  25
ATOM     25  C   UNL A   1      34.363  34.127  29.056  1.00  0.00     0.039 A 
ATOM     26  C   UNL A   1      34.521  33.401  30.240  1.00  0.00     0.014 A 
ATOM     27  C   UNL A   1      35.449  34.384  28.226  1.00  0.00     0.014 A 
ATOM     28  C   UNL A   1      35.770  32.861  30.538  1.00  0.00     0.010 A 
ATOM     29  C   UNL A   1      36.637  33.733  28.445  1.00  0.00     0.010 A 
ATOM     30  C   UNL A   1      36.820  33.011  29.622  1.00  0.00    -0.014 A 
BRANCH  30  31
ATOM     31  C   UNL A   1      38.089  32.314  29.817  1.00  0.00     0.031 A 
ATOM     32  C   UNL A   1      38.140  30.927  29.269  1.00  0.00     0.074 A 
ATOM     33  C   UNL A   1      39.206  32.958  30.227  1.00  0.00     0.049 A 
ATOM     34  N   UNL A   1      38.370  29.831  29.916  1.00  0.00    -0.248 NA
ATOM     35  C   UNL A   1      37.784  30.718  27.857  1.00  0.00     0.031 C 
ATOM     36  C   UNL A   1      39.368  34.394  30.496  1.00  0.00     0.029 A 
ATOM     37  N   UNL A   1      40.482  32.493  30.314  1.00  0.00    -0.354 N 
ATOM     38  C   UNL A   1      38.403  28.819  28.956  1.00  0.00     0.074 A 
ATOM     39  C   UNL A   1      37.861  29.389  27.751  1.00  0.00     0.031 C 
ATOM     40  C   UNL A   1      40.677  34.718  30.424  1.00  0.00     0.029 A 
ATOM     41  C   UNL A   1      41.447  33.497  30.289  1.00  0.00     0.049 A 
ATOM     42  H   UNL A   1      40.703  31.536  30.389  1.00  0.00     0.167 HD
ATOM     43  C   UNL A   1      39.083  27.657  29.165  1.00  0.00     0.034 A 
ATOM     44  C   UNL A   1      42.781  33.343  30.114  1.00  0.00     0.034 A 
ATOM     45  C   UNL A   1      39.431  27.494  30.553  1.00  0.00     0.049 A 
ATOM     46  C   UNL A   1      43.103  31.935  30.435  1.00  0.00     0.074 A 
ATOM     47  C   UNL A   1      38.720  27.420  31.733  1.00  0.00     0.029 A 
ATOM     48  N   UNL A   1      40.730  27.765  30.907  1.00  0.00    -0.354 N 
ATOM     49  N   UNL A   1      42.997  31.430  31.632  1.00  0.00    -0.248 NA
ATOM     50  C   UNL A   1      43.123  30.973  29.346  1.00  0.00     0.031 C 
ATOM     51  C   UNL A   1      39.515  28.131  32.677  1.00  0.00     0.029 A 
ATOM     52  C   UNL A   1      40.690  28.535  32.038  1.00  0.00     0.049 A 
ATOM     53  H   UNL A   1      41.540  27.463  30.435  1.00  0.00     0.167 HD
ATOM     54  C   UNL A   1      42.471  30.161  31.422  1.00  0.00     0.074 A 
ATOM     55  C   UNL A   1      42.683  29.895  30.000  1.00  0.00     0.031 C 
ATOM     56  C   UNL A   1      41.650  29.575  32.343  1.00  0.00     0.034 A 
BRANCH  43  57
ATOM     57  C   UNL A   1      39.744  26.819  28.095  1.00  0.00     0.023 A 
ATOM     58  C   UNL A   1      39.392  25.450  28.032  1.00  0.00     0.012 A 
ATOM     59  C   UNL A   1      40.868  27.223  27.342  1.00  0.00     0.148 A 
ATOM     60  C   UNL A   1      40.150  24.526  27.304  1.00  0.00     0.002 A 
ATOM     61  C   UNL A   1      41.568  26.317  26.552  1.00  0.00     0.091 A 
ATOM     62  F   UNL A   1      41.358  28.457  27.482  1.00  0.00    -0.205 F 
ATOM     63  C   UNL A   1      41.235  24.961  26.556  1.00  0.00     0.022 A 
BRANCH  61  64
ATOM     64  S   UNL A   1      42.942  26.837  25.516  1.00  0.00     0.127 S 
ATOM     65  O   UNL A   1      43.325  25.578  24.882  1.00  0.00    -0.237 OA
ATOM     66  O   UNL A   1      42.297  27.807  24.630  1.00  0.00    -0.237 OA
ATOM     67  O   UNL A   1      43.916  27.421  26.427  1.00  0.00    -0.744 OA
ENDBRANCH  61  64
ENDBRANCH  43  57
BRANCH  44  68
ATOM     68  C   UNL A   1      43.766  34.256  29.490  1.00  0.00     0.023 A 
ATOM     69  C   UNL A   1      44.536  35.114  30.299  1.00  0.00     0.012 A 
ATOM     70  C   UNL A   1      44.140  34.101  28.135  1.00  0.00     0.148 A 
ATOM     71  C   UNL A   1      45.660  35.774  29.784  1.00  0.00     0.002 A 
ATOM     72  C   UNL A   1      45.255  34.761  27.628  1.00  0.00     0.091 A 
ATOM     73  F   UNL A   1      43.453  33.241  27.372  1.00  0.00    -0.205 F 
ATOM     74  C   UNL A   1      46.025  35.591  28.454  1.00  0.00     0.022 A 
BRANCH  72  75
ATOM     75  S   UNL A   1      45.812  34.549  25.930  1.00  0.00     0.127 S 
ATOM     76  O   UNL A   1      46.691  35.705  25.754  1.00  0.00    -0.237 OA
ATOM     77  O   UNL A   1      46.498  33.261  25.997  1.00  0.00    -0.237 OA
ATOM     78  O   UNL A   1      44.608  34.578  25.110  1.00  0.00    -0.744 OA
ENDBRANCH  72  75
ENDBRANCH  44  68
BRANCH  56  79
ATOM     79  C   UNL A   1      41.501  30.224  33.700  1.00  0.00     0.023 A 
ATOM     80  C   UNL A   1      42.451  30.042  34.728  1.00  0.00     0.012 A 
ATOM     81  C   UNL A   1      40.511  31.208  33.861  1.00  0.00     0.148 A 
ATOM     82  C   UNL A   1      42.408  30.816  35.891  1.00  0.00     0.002 A 
ATOM     83  C   UNL A   1      40.505  32.013  34.994  1.00  0.00     0.091 A 
ATOM     84  F   UNL A   1      39.615  31.372  32.876  1.00  0.00    -0.205 F 
ATOM     85  C   UNL A   1      41.446  31.815  36.017  1.00  0.00     0.022 A 
BRANCH  83  86
ATOM     86  S   UNL A   1      39.393  33.413  35.145  1.00  0.00     0.127 S 
ATOM     87  O   UNL A   1      39.733  33.932  36.468  1.00  0.00    -0.237 OA
ATOM     88  O   UNL A   1      39.805  34.265  34.028  1.00  0.00    -0.237 OA
ATOM     89  O   UNL A   1      38.045  32.871  35.012  1.00  0.00    -0.744 OA
ENDBRANCH  83  86
ENDBRANCH  56  79
ENDBRANCH  30  31
ENDBRANCH  22  25
ENDBRANCH   1  21
TORSDOF 15
ENDMDL
MODEL 3
REMARK VINA RESULT:     -11.3      1.889      2.239
REMARK SMILES CSc1nc2nnc(C(=O)NCCCNC(=O)c3ccc(-c4c5nc(c(-c6cccc(S(=O)(=O)[O-])c6F)c6ccc([nH]6)c(-c6cccc(S(=O)(=O)[O-])c6F)c6nc(c(-c7cccc(S(=O)(=O)[O-])c7F)c7ccc4[nH]7)C=C6)C=C5)cc3)c(O)n2n1
REMARK SMILES IDX 14 1 13 2 12 3 11 4 9 5 10 6 8 8 3 9 4 10 84 11 5 12 83 13
REMARK SMILES IDX 6 14 81 15 7 16 2 17 1 18 82 19 15 21 16 22 17 24 18 25
REMARK SMILES IDX 19 26 80 27 20 28 79 29 21 30 22 31 23 32 73 33 24 34 78 35
REMARK SMILES IDX 72 36 74 37 25 38 77 39 71 40 70 41 26 43 58 44 38 45 57 46
REMARK SMILES IDX 39 47 42 48 56 49 75 50 40 51 41 52 55 54 76 55 43 56 27 57
REMARK SMILES IDX 28 58 36 59 29 60 31 61 37 62 30 63 32 64 33 65 34 66 35 67
REMARK SMILES IDX 59 68 60 69 68 70 61 71 63 72 69 73 62 74 64 75 65 76 66 77
REMARK SMILES IDX 67 78 44 79 45 80 53 81 46 82 48 83 54 84 47 85 49 86 50 87
REMARK SMILES IDX 51 88 52 89
REMARK H PARENT 11 7 82 20 15 23 74 42 42 53
REMARK Flexibility Score: inf
ROOT
ATOM      1  C   UNL A   1      39.191  20.054  25.704  1.00  0.00     0.118 C 
ENDROOT
BRANCH   1   2
ATOM      2  C   UNL A   1      37.951  19.504  25.011  1.00  0.00     0.042 C 
BRANCH   2   3
ATOM      3  C   UNL A   1      36.819  20.533  24.961  1.00  0.00     0.118 C 
BRANCH   3   4
ATOM      4  N   UNL A   1      37.034  21.552  23.942  1.00  0.00    -0.350 N 
ATOM      5  C   UNL A   1      36.434  22.745  23.683  1.00  0.00     0.277 C 
ATOM      6  O   UNL A   1      36.916  23.439  22.783  1.00  0.00    -0.267 OA
ATOM      7  H   UNL A   1      37.759  21.333  23.315  1.00  0.00     0.163 HD
BRANCH   5   8
ATOM      8  C   UNL A   1      35.256  23.259  24.459  1.00  0.00     0.212 A 
ATOM      9  C   UNL A   1      31.409  25.110  25.324  1.00  0.00     0.210 A 
ATOM     10  N   UNL A   1      32.155  24.825  26.426  1.00  0.00    -0.182 NA
ATOM     11  N   UNL A   1      31.962  24.794  24.155  1.00  0.00    -0.134 NA
ATOM     12  C   UNL A   1      33.236  24.268  25.920  1.00  0.00     0.275 A 
ATOM     13  N   UNL A   1      33.140  24.240  24.535  1.00  0.00    -0.159 N 
ATOM     14  N   UNL A   1      34.345  23.763  26.529  1.00  0.00    -0.108 NA
ATOM     15  C   UNL A   1      34.184  23.717  23.768  1.00  0.00     0.249 A 
ATOM     16  N   UNL A   1      35.282  23.275  25.842  1.00  0.00    -0.136 NA
BRANCH   9  17
ATOM     17  S   UNL A   1      29.833  25.848  25.453  1.00  0.00    -0.088 SA
ATOM     18  C   UNL A   1      29.645  26.565  23.807  1.00  0.00     0.094 C 
ENDBRANCH   9  17
BRANCH  15  19
ATOM     19  O   UNL A   1      34.054  23.726  22.386  1.00  0.00    -0.491 OA
ATOM     20  H   UNL A   1      34.125  22.925  21.903  1.00  0.00     0.295 HD
ENDBRANCH  15  19
ENDBRANCH   5   8
ENDBRANCH   3   4
ENDBRANCH   2   3
ENDBRANCH   1   2
BRANCH   1  21
ATOM     21  N   UNL A   1      40.290  19.086  25.745  1.00  0.00    -0.352 N 
ATOM     22  C   UNL A   1      41.629  19.315  26.009  1.00  0.00     0.251 C 
ATOM     23  H   UNL A   1      40.045  18.150  25.560  1.00  0.00     0.163 HD
ATOM     24  O   UNL A   1      42.470  18.477  25.735  1.00  0.00    -0.269 OA
BRANCH  22  25
ATOM     25  C   UNL A   1      42.018  20.600  26.621  1.00  0.00     0.039 A 
ATOM     26  C   UNL A   1      42.568  21.625  25.845  1.00  0.00     0.014 A 
ATOM     27  C   UNL A   1      41.787  20.781  27.981  1.00  0.00     0.014 A 
ATOM     28  C   UNL A   1      42.802  22.865  26.435  1.00  0.00     0.010 A 
ATOM     29  C   UNL A   1      41.881  22.038  28.523  1.00  0.00     0.010 A 
ATOM     30  C   UNL A   1      42.433  23.072  27.772  1.00  0.00    -0.014 A 
BRANCH  30  31
ATOM     31  C   UNL A   1      42.502  24.403  28.370  1.00  0.00     0.031 A 
ATOM     32  C   UNL A   1      41.324  25.279  28.104  1.00  0.00     0.074 A 
ATOM     33  C   UNL A   1      43.431  24.725  29.298  1.00  0.00     0.049 A 
ATOM     34  N   UNL A   1      41.312  26.431  27.517  1.00  0.00    -0.248 NA
ATOM     35  C   UNL A   1      39.982  24.766  28.427  1.00  0.00     0.031 C 
ATOM     36  C   UNL A   1      44.457  23.851  29.884  1.00  0.00     0.029 A 
ATOM     37  N   UNL A   1      43.539  25.854  30.050  1.00  0.00    -0.354 N 
ATOM     38  C   UNL A   1      39.996  26.886  27.591  1.00  0.00     0.074 A 
ATOM     39  C   UNL A   1      39.200  25.756  27.992  1.00  0.00     0.031 C 
ATOM     40  C   UNL A   1      44.867  24.367  31.062  1.00  0.00     0.029 A 
ATOM     41  C   UNL A   1      44.275  25.681  31.220  1.00  0.00     0.049 A 
ATOM     42  H   UNL A   1      43.136  26.715  29.791  1.00  0.00     0.167 HD
ATOM     43  C   UNL A   1      39.695  28.215  27.538  1.00  0.00     0.034 A 
ATOM     44  C   UNL A   1      44.349  26.531  32.272  1.00  0.00     0.034 A 
ATOM     45  C   UNL A   1      40.814  28.988  27.066  1.00  0.00     0.049 A 
ATOM     46  C   UNL A   1      43.926  27.863  31.785  1.00  0.00     0.074 A 
ATOM     47  C   UNL A   1      41.574  29.001  25.916  1.00  0.00     0.029 A 
ATOM     48  N   UNL A   1      41.539  29.676  28.010  1.00  0.00    -0.354 N 
ATOM     49  N   UNL A   1      44.605  28.558  30.915  1.00  0.00    -0.248 NA
ATOM     50  C   UNL A   1      42.528  28.232  31.932  1.00  0.00     0.031 C 
ATOM     51  C   UNL A   1      42.903  29.254  26.364  1.00  0.00     0.029 A 
ATOM     52  C   UNL A   1      42.863  29.449  27.747  1.00  0.00     0.049 A 
ATOM     53  H   UNL A   1      41.174  30.228  28.739  1.00  0.00     0.167 HD
ATOM     54  C   UNL A   1      43.635  29.112  30.090  1.00  0.00     0.074 A 
ATOM     55  C   UNL A   1      42.383  28.976  30.833  1.00  0.00     0.031 C 
ATOM     56  C   UNL A   1      43.884  29.352  28.768  1.00  0.00     0.034 A 
BRANCH  43  57
ATOM     57  C   UNL A   1      38.522  28.880  28.221  1.00  0.00     0.023 A 
ATOM     58  C   UNL A   1      37.647  29.644  27.413  1.00  0.00     0.012 A 
ATOM     59  C   UNL A   1      38.387  29.023  29.620  1.00  0.00     0.148 A 
ATOM     60  C   UNL A   1      36.727  30.541  27.967  1.00  0.00     0.002 A 
ATOM     61  C   UNL A   1      37.413  29.852  30.167  1.00  0.00     0.091 A 
ATOM     62  F   UNL A   1      39.283  28.466  30.438  1.00  0.00    -0.205 F 
ATOM     63  C   UNL A   1      36.604  30.639  29.346  1.00  0.00     0.022 A 
BRANCH  61  64
ATOM     64  S   UNL A   1      37.169  29.970  31.943  1.00  0.00     0.127 S 
ATOM     65  O   UNL A   1      37.274  28.571  32.348  1.00  0.00    -0.237 OA
ATOM     66  O   UNL A   1      38.291  30.819  32.344  1.00  0.00    -0.237 OA
ATOM     67  O   UNL A   1      35.863  30.592  32.115  1.00  0.00    -0.744 OA
ENDBRANCH  61  64
ENDBRANCH  43  57
BRANCH  44  68
ATOM     68  C   UNL A   1      44.552  26.243  33.710  1.00  0.00     0.023 A 
ATOM     69  C   UNL A   1      45.849  26.293  34.257  1.00  0.00     0.012 A 
ATOM     70  C   UNL A   1      43.454  26.181  34.598  1.00  0.00     0.148 A 
ATOM     71  C   UNL A   1      46.046  26.309  35.644  1.00  0.00     0.002 A 
ATOM     72  C   UNL A   1      43.655  26.195  35.975  1.00  0.00     0.091 A 
ATOM     73  F   UNL A   1      42.214  26.196  34.092  1.00  0.00    -0.205 F 
ATOM     74  C   UNL A   1      44.951  26.270  36.503  1.00  0.00     0.022 A 
BRANCH  72  75
ATOM     75  S   UNL A   1      42.291  26.182  37.149  1.00  0.00     0.127 S 
ATOM     76  O   UNL A   1      41.718  24.853  36.932  1.00  0.00    -0.237 OA
ATOM     77  O   UNL A   1      42.988  26.348  38.422  1.00  0.00    -0.237 OA
ATOM     78  O   UNL A   1      41.420  27.283  36.760  1.00  0.00    -0.744 OA
ENDBRANCH  72  75
ENDBRANCH  44  68
BRANCH  56  79
ATOM     79  C   UNL A   1      45.303  29.223  28.263  1.00  0.00     0.023 A 
ATOM     80  C   UNL A   1      45.797  28.022  27.708  1.00  0.00     0.012 A 
ATOM     81  C   UNL A   1      46.074  30.392  28.138  1.00  0.00     0.148 A 
ATOM     82  C   UNL A   1      47.032  27.987  27.055  1.00  0.00     0.002 A 
ATOM     83  C   UNL A   1      47.275  30.365  27.440  1.00  0.00     0.091 A 
ATOM     84  F   UNL A   1      45.592  31.526  28.668  1.00  0.00    -0.205 F 
ATOM     85  C   UNL A   1      47.763  29.163  26.904  1.00  0.00     0.022 A 
BRANCH  83  86
ATOM     86  S   UNL A   1      48.184  31.869  27.078  1.00  0.00     0.127 S 
ATOM     87  O   UNL A   1      48.324  32.467  28.405  1.00  0.00    -0.237 OA
ATOM     88  O   UNL A   1      49.428  31.355  26.503  1.00  0.00    -0.237 OA
ATOM     89  O   UNL A   1      47.361  32.619  26.136  1.00  0.00    -0.744 OA
ENDBRANCH  83  86
ENDBRANCH  56  79
ENDBRANCH  30  31
ENDBRANCH  22  25
ENDBRANCH   1  21
TORSDOF 15
ENDMDL
