MODEL 1
REMARK VINA RESULT:     -10.8      0.000      0.000
REMARK SMILES C[NH+](C)CC[NH2+][C@@H](C(=O)NCCCNC(=O)c1ccc(-c2c3nc(c(-c4cccc(S(=O)(=O)[O-])c4F)c4ccc([nH]4)c(-c4cccc(S(=O)(=O)[O-])c4F)c4nc(c(-c5cccc(S(=O)(=O)[O-])c5F)c5ccc2[nH]5)C=C4)C=C3)cc1)c1cccc(C2CC2)c1
REMARK SMILES IDX 11 1 10 2 8 3 9 4 7 6 6 7 5 10 4 11 2 12 1 13 3 14 80 16
REMARK SMILES IDX 81 17 88 18 82 19 84 20 83 21 85 22 86 23 87 24 12 25 13 26
REMARK SMILES IDX 14 27 15 28 16 30 17 31 18 32 79 33 19 34 78 35 20 36 21 37
REMARK SMILES IDX 22 38 72 39 23 40 77 41 71 42 73 43 24 44 76 45 70 46 69 47
REMARK SMILES IDX 25 49 57 50 37 51 56 52 38 53 41 54 55 55 74 56 39 57 40 58
REMARK SMILES IDX 54 60 75 61 42 62 26 63 27 64 35 65 28 66 30 67 36 68 29 69
REMARK SMILES IDX 31 70 32 71 33 72 34 73 58 74 59 75 67 76 60 77 62 78 68 79
REMARK SMILES IDX 61 80 63 81 64 82 65 83 66 84 43 85 44 86 52 87 45 88 47 89
REMARK SMILES IDX 53 90 46 91 48 92 49 93 50 94 51 95
REMARK H PARENT 10 5 6 8 6 9 2 15 14 29 73 48 41 59
REMARK Flexibility Score: inf
ROOT
ATOM      1  C   UNL A   1      32.143  27.553  26.894  1.00  0.00     0.118 C 
ENDROOT
BRANCH   1   2
ATOM      2  N   UNL A   1      31.051  26.595  27.001  1.00  0.00    -0.351 N 
ATOM      3  C   UNL A   1      30.506  25.690  26.133  1.00  0.00     0.283 C 
ATOM      4  O   UNL A   1      29.535  25.063  26.577  1.00  0.00    -0.268 OA
ATOM      5  H   UNL A   1      30.614  26.600  27.883  1.00  0.00     0.163 HD
BRANCH   3   6
ATOM      6  C   UNL A   1      31.035  25.473  24.671  1.00  0.00     0.304 C 
BRANCH   6   7
ATOM      7  N   UNL A   1      32.468  25.121  24.718  1.00  0.00    -0.328 N 
ATOM      8  H   UNL A   1      32.743  24.831  23.779  1.00  0.00     0.347 HD
ATOM      9  H   UNL A   1      32.930  25.960  25.068  1.00  0.00     0.347 HD
BRANCH   7  10
ATOM     10  C   UNL A   1      32.868  24.074  25.627  1.00  0.00     0.323 C 
BRANCH  10  11
ATOM     11  C   UNL A   1      33.209  22.740  24.925  1.00  0.00     0.323 C 
BRANCH  11  12
ATOM     12  N   UNL A   1      34.121  21.801  25.594  1.00  0.00    -0.335 N 
ATOM     13  C   UNL A   1      33.846  21.555  27.001  1.00  0.00     0.332 C 
ATOM     14  C   UNL A   1      34.413  20.583  24.854  1.00  0.00     0.332 C 
ATOM     15  H   UNL A   1      34.994  22.328  25.589  1.00  0.00     0.347 HD
ENDBRANCH  11  12
ENDBRANCH  10  11
ENDBRANCH   7  10
ENDBRANCH   6   7
BRANCH   6  16
ATOM     16  C   UNL A   1      30.898  26.776  23.846  1.00  0.00     0.019 A 
ATOM     17  C   UNL A   1      31.992  27.349  23.190  1.00  0.00     0.010 A 
ATOM     18  C   UNL A   1      29.642  27.411  23.689  1.00  0.00     0.014 A 
ATOM     19  C   UNL A   1      31.815  28.491  22.401  1.00  0.00     0.001 A 
ATOM     20  C   UNL A   1      29.421  28.545  22.891  1.00  0.00    -0.044 A 
ATOM     21  C   UNL A   1      30.549  29.073  22.251  1.00  0.00     0.004 A 
BRANCH  20  22
ATOM     22  C   UNL A   1      28.044  29.168  22.718  1.00  0.00     0.019 C 
ATOM     23  C   UNL A   1      27.698  30.543  23.252  1.00  0.00     0.009 C 
ATOM     24  C   UNL A   1      27.870  30.339  21.776  1.00  0.00     0.009 C 
ENDBRANCH  20  22
ENDBRANCH   6  16
ENDBRANCH   3   6
ENDBRANCH   1   2
BRANCH   1  25
ATOM     25  C   UNL A   1      31.675  28.982  26.562  1.00  0.00     0.042 C 
BRANCH  25  26
ATOM     26  C   UNL A   1      32.704  29.870  25.872  1.00  0.00     0.118 C 
BRANCH  26  27
ATOM     27  N   UNL A   1      32.522  31.266  26.215  1.00  0.00    -0.352 N 
ATOM     28  C   UNL A   1      33.160  32.024  27.170  1.00  0.00     0.251 C 
ATOM     29  H   UNL A   1      31.842  31.744  25.687  1.00  0.00     0.163 HD
ATOM     30  O   UNL A   1      32.663  33.100  27.496  1.00  0.00    -0.269 OA
BRANCH  28  31
ATOM     31  C   UNL A   1      34.420  31.570  27.814  1.00  0.00     0.039 A 
ATOM     32  C   UNL A   1      34.491  30.260  28.301  1.00  0.00     0.014 A 
ATOM     33  C   UNL A   1      35.498  32.436  28.024  1.00  0.00     0.014 A 
ATOM     34  C   UNL A   1      35.640  29.815  28.967  1.00  0.00     0.010 A 
ATOM     35  C   UNL A   1      36.673  31.968  28.620  1.00  0.00     0.010 A 
ATOM     36  C   UNL A   1      36.749  30.662  29.122  1.00  0.00    -0.014 A 
BRANCH  36  37
ATOM     37  C   UNL A   1      37.978  30.204  29.831  1.00  0.00     0.031 A 
ATOM     38  C   UNL A   1      38.279  30.688  31.228  1.00  0.00     0.074 A 
ATOM     39  C   UNL A   1      38.860  29.402  29.201  1.00  0.00     0.049 A 
ATOM     40  N   UNL A   1      39.314  30.431  31.986  1.00  0.00    -0.248 NA
ATOM     41  C   UNL A   1      37.302  31.602  31.844  1.00  0.00     0.031 C 
ATOM     42  C   UNL A   1      38.730  28.918  27.825  1.00  0.00     0.029 A 
ATOM     43  N   UNL A   1      40.055  28.873  29.626  1.00  0.00    -0.354 N 
ATOM     44  C   UNL A   1      39.134  31.175  33.147  1.00  0.00     0.074 A 
ATOM     45  C   UNL A   1      37.905  31.920  32.981  1.00  0.00     0.031 C 
ATOM     46  C   UNL A   1      39.798  28.163  27.521  1.00  0.00     0.029 A 
ATOM     47  C   UNL A   1      40.703  28.129  28.667  1.00  0.00     0.049 A 
ATOM     48  H   UNL A   1      40.415  29.014  30.532  1.00  0.00     0.167 HD
ATOM     49  C   UNL A   1      39.901  31.216  34.264  1.00  0.00     0.034 A 
ATOM     50  C   UNL A   1      41.891  27.493  28.702  1.00  0.00     0.034 A 
ATOM     51  C   UNL A   1      41.093  30.434  34.453  1.00  0.00     0.049 A 
ATOM     52  C   UNL A   1      42.701  27.514  29.971  1.00  0.00     0.074 A 
ATOM     53  C   UNL A   1      41.885  30.335  35.584  1.00  0.00     0.029 A 
ATOM     54  N   UNL A   1      41.668  29.620  33.490  1.00  0.00    -0.354 N 
ATOM     55  N   UNL A   1      42.429  28.095  31.114  1.00  0.00    -0.248 NA
ATOM     56  C   UNL A   1      43.965  26.762  29.968  1.00  0.00     0.031 C 
ATOM     57  C   UNL A   1      42.951  29.474  35.297  1.00  0.00     0.029 A 
ATOM     58  C   UNL A   1      42.809  29.021  33.997  1.00  0.00     0.049 A 
ATOM     59  H   UNL A   1      41.318  29.489  32.579  1.00  0.00     0.167 HD
ATOM     60  C   UNL A   1      43.464  27.750  31.975  1.00  0.00     0.074 A 
ATOM     61  C   UNL A   1      44.360  26.892  31.227  1.00  0.00     0.031 C 
ATOM     62  C   UNL A   1      43.662  28.121  33.264  1.00  0.00     0.034 A 
BRANCH  49  63
ATOM     63  C   UNL A   1      39.442  32.093  35.401  1.00  0.00     0.023 A 
ATOM     64  C   UNL A   1      38.598  31.555  36.394  1.00  0.00     0.012 A 
ATOM     65  C   UNL A   1      39.895  33.421  35.526  1.00  0.00     0.148 A 
ATOM     66  C   UNL A   1      38.182  32.335  37.474  1.00  0.00     0.002 A 
ATOM     67  C   UNL A   1      39.512  34.178  36.628  1.00  0.00     0.091 A 
ATOM     68  F   UNL A   1      40.683  33.923  34.564  1.00  0.00    -0.205 F 
ATOM     69  C   UNL A   1      38.647  33.640  37.596  1.00  0.00     0.022 A 
BRANCH  67  70
ATOM     70  S   UNL A   1      40.119  35.844  36.918  1.00  0.00     0.127 S 
ATOM     71  O   UNL A   1      39.693  36.530  35.700  1.00  0.00    -0.237 OA
ATOM     72  O   UNL A   1      39.387  36.234  38.125  1.00  0.00    -0.237 OA
ATOM     73  O   UNL A   1      41.559  35.720  37.097  1.00  0.00    -0.744 OA
ENDBRANCH  67  70
ENDBRANCH  49  63
BRANCH  50  74
ATOM     74  C   UNL A   1      42.354  26.718  27.516  1.00  0.00     0.023 A 
ATOM     75  C   UNL A   1      43.104  27.366  26.516  1.00  0.00     0.012 A 
ATOM     76  C   UNL A   1      42.082  25.341  27.386  1.00  0.00     0.148 A 
ATOM     77  C   UNL A   1      43.551  26.668  25.394  1.00  0.00     0.002 A 
ATOM     78  C   UNL A   1      42.578  24.639  26.293  1.00  0.00     0.091 A 
ATOM     79  F   UNL A   1      41.354  24.745  28.340  1.00  0.00    -0.205 F 
ATOM     80  C   UNL A   1      43.298  25.303  25.287  1.00  0.00     0.022 A 
BRANCH  78  81
ATOM     81  S   UNL A   1      42.414  22.857  26.138  1.00  0.00     0.127 S 
ATOM     82  O   UNL A   1      42.922  22.625  24.789  1.00  0.00    -0.237 OA
ATOM     83  O   UNL A   1      43.279  22.378  27.215  1.00  0.00    -0.237 OA
ATOM     84  O   UNL A   1      40.997  22.577  26.340  1.00  0.00    -0.744 OA
ENDBRANCH  78  81
ENDBRANCH  50  74
BRANCH  62  85
ATOM     85  C   UNL A   1      44.876  27.579  33.974  1.00  0.00     0.023 A 
ATOM     86  C   UNL A   1      46.077  28.315  33.968  1.00  0.00     0.012 A 
ATOM     87  C   UNL A   1      44.799  26.384  34.716  1.00  0.00     0.148 A 
ATOM     88  C   UNL A   1      47.192  27.854  34.667  1.00  0.00     0.002 A 
ATOM     89  C   UNL A   1      45.900  25.955  35.448  1.00  0.00     0.091 A 
ATOM     90  F   UNL A   1      43.652  25.688  34.693  1.00  0.00    -0.205 F 
ATOM     91  C   UNL A   1      47.100  26.682  35.416  1.00  0.00     0.022 A 
BRANCH  89  92
ATOM     92  S   UNL A   1      45.843  24.511  36.516  1.00  0.00     0.127 S 
ATOM     93  O   UNL A   1      44.755  24.858  37.427  1.00  0.00    -0.237 OA
ATOM     94  O   UNL A   1      45.531  23.438  35.572  1.00  0.00    -0.237 OA
ATOM     95  O   UNL A   1      47.163  24.412  37.126  1.00  0.00    -0.744 OA
ENDBRANCH  89  92
ENDBRANCH  62  85
ENDBRANCH  36  37
ENDBRANCH  28  31
ENDBRANCH  26  27
ENDBRANCH  25  26
ENDBRANCH   1  25
TORSDOF 19
ENDMDL
MODEL 2
REMARK VINA RESULT:     -10.5      1.231      3.448
REMARK SMILES C[NH+](C)CC[NH2+][C@@H](C(=O)NCCCNC(=O)c1ccc(-c2c3nc(c(-c4cccc(S(=O)(=O)[O-])c4F)c4ccc([nH]4)c(-c4cccc(S(=O)(=O)[O-])c4F)c4nc(c(-c5cccc(S(=O)(=O)[O-])c5F)c5ccc2[nH]5)C=C4)C=C3)cc1)c1cccc(C2CC2)c1
REMARK SMILES IDX 11 1 10 2 8 3 9 4 7 6 6 7 5 10 4 11 2 12 1 13 3 14 80 16
REMARK SMILES IDX 81 17 88 18 82 19 84 20 83 21 85 22 86 23 87 24 12 25 13 26
REMARK SMILES IDX 14 27 15 28 16 30 17 31 18 32 79 33 19 34 78 35 20 36 21 37
REMARK SMILES IDX 22 38 72 39 23 40 77 41 71 42 73 43 24 44 76 45 70 46 69 47
REMARK SMILES IDX 25 49 57 50 37 51 56 52 38 53 41 54 55 55 74 56 39 57 40 58
REMARK SMILES IDX 54 60 75 61 42 62 26 63 27 64 35 65 28 66 30 67 36 68 29 69
REMARK SMILES IDX 31 70 32 71 33 72 34 73 58 74 59 75 67 76 60 77 62 78 68 79
REMARK SMILES IDX 61 80 63 81 64 82 65 83 66 84 43 85 44 86 52 87 45 88 47 89
REMARK SMILES IDX 53 90 46 91 48 92 49 93 50 94 51 95
REMARK H PARENT 10 5 6 8 6 9 2 15 14 29 73 48 41 59
REMARK Flexibility Score: inf
ROOT
ATOM      1  C   UNL A   1      31.558  27.130  25.950  1.00  0.00     0.118 C 
ENDROOT
BRANCH   1   2
ATOM      2  N   UNL A   1      31.577  25.918  26.757  1.00  0.00    -0.351 N 
ATOM      3  C   UNL A   1      31.803  24.601  26.469  1.00  0.00     0.283 C 
ATOM      4  O   UNL A   1      31.690  23.831  27.433  1.00  0.00    -0.268 OA
ATOM      5  H   UNL A   1      31.386  26.081  27.708  1.00  0.00     0.163 HD
BRANCH   3   6
ATOM      6  C   UNL A   1      32.149  24.081  25.029  1.00  0.00     0.304 C 
BRANCH   6   7
ATOM      7  N   UNL A   1      30.898  23.758  24.313  1.00  0.00    -0.328 N 
ATOM      8  H   UNL A   1      30.948  22.777  24.038  1.00  0.00     0.347 HD
ATOM      9  H   UNL A   1      30.155  23.989  24.972  1.00  0.00     0.347 HD
BRANCH   7  10
ATOM     10  C   UNL A   1      30.590  24.524  23.129  1.00  0.00     0.323 C 
BRANCH  10  11
ATOM     11  C   UNL A   1      31.826  24.843  22.258  1.00  0.00     0.323 C 
BRANCH  11  12
ATOM     12  N   UNL A   1      32.308  26.230  22.193  1.00  0.00    -0.335 N 
ATOM     13  C   UNL A   1      31.286  27.255  22.342  1.00  0.00     0.332 C 
ATOM     14  C   UNL A   1      33.507  26.510  22.967  1.00  0.00     0.332 C 
ATOM     15  H   UNL A   1      32.602  26.297  21.219  1.00  0.00     0.347 HD
ENDBRANCH  11  12
ENDBRANCH  10  11
ENDBRANCH   7  10
ENDBRANCH   6   7
BRANCH   6  16
ATOM     16  C   UNL A   1      32.993  22.786  25.107  1.00  0.00     0.019 A 
ATOM     17  C   UNL A   1      34.272  22.775  25.671  1.00  0.00     0.010 A 
ATOM     18  C   UNL A   1      32.475  21.549  24.649  1.00  0.00     0.014 A 
ATOM     19  C   UNL A   1      34.977  21.572  25.784  1.00  0.00     0.001 A 
ATOM     20  C   UNL A   1      33.143  20.320  24.761  1.00  0.00    -0.044 A 
ATOM     21  C   UNL A   1      34.417  20.366  25.341  1.00  0.00     0.004 A 
BRANCH  20  22
ATOM     22  C   UNL A   1      32.530  19.009  24.293  1.00  0.00     0.019 C 
ATOM     23  C   UNL A   1      32.519  18.587  22.839  1.00  0.00     0.009 C 
ATOM     24  C   UNL A   1      33.431  17.896  23.808  1.00  0.00     0.009 C 
ENDBRANCH  20  22
ENDBRANCH   6  16
ENDBRANCH   3   6
ENDBRANCH   1   2
BRANCH   1  25
ATOM     25  C   UNL A   1      32.214  28.339  26.642  1.00  0.00     0.042 C 
BRANCH  25  26
ATOM     26  C   UNL A   1      32.982  29.287  25.728  1.00  0.00     0.118 C 
BRANCH  26  27
ATOM     27  N   UNL A   1      32.740  30.674  26.072  1.00  0.00    -0.352 N 
ATOM     28  C   UNL A   1      33.317  31.447  27.052  1.00  0.00     0.251 C 
ATOM     29  H   UNL A   1      32.063  31.131  25.522  1.00  0.00     0.163 HD
ATOM     30  O   UNL A   1      32.772  32.504  27.365  1.00  0.00    -0.269 OA
BRANCH  28  31
ATOM     31  C   UNL A   1      34.569  31.033  27.739  1.00  0.00     0.039 A 
ATOM     32  C   UNL A   1      34.630  29.758  28.311  1.00  0.00     0.014 A 
ATOM     33  C   UNL A   1      35.648  31.908  27.903  1.00  0.00     0.014 A 
ATOM     34  C   UNL A   1      35.770  29.354  29.017  1.00  0.00     0.010 A 
ATOM     35  C   UNL A   1      36.815  31.477  28.542  1.00  0.00     0.010 A 
ATOM     36  C   UNL A   1      36.881  30.206  29.129  1.00  0.00    -0.014 A 
BRANCH  36  37
ATOM     37  C   UNL A   1      38.100  29.792  29.879  1.00  0.00     0.031 A 
ATOM     38  C   UNL A   1      38.376  30.348  31.255  1.00  0.00     0.074 A 
ATOM     39  C   UNL A   1      38.996  28.965  29.305  1.00  0.00     0.049 A 
ATOM     40  N   UNL A   1      39.399  30.136  32.042  1.00  0.00    -0.248 NA
ATOM     41  C   UNL A   1      37.384  31.286  31.808  1.00  0.00     0.031 C 
ATOM     42  C   UNL A   1      38.891  28.411  27.954  1.00  0.00     0.029 A 
ATOM     43  N   UNL A   1      40.187  28.465  29.776  1.00  0.00    -0.354 N 
ATOM     44  C   UNL A   1      39.197  30.937  33.160  1.00  0.00     0.074 A 
ATOM     45  C   UNL A   1      37.966  31.665  32.937  1.00  0.00     0.031 C 
ATOM     46  C   UNL A   1      39.968  27.648  27.706  1.00  0.00     0.029 A 
ATOM     47  C   UNL A   1      40.855  27.677  28.867  1.00  0.00     0.049 A 
ATOM     48  H   UNL A   1      40.531  28.654  30.679  1.00  0.00     0.167 HD
ATOM     49  C   UNL A   1      39.944  31.038  34.286  1.00  0.00     0.034 A 
ATOM     50  C   UNL A   1      42.045  27.051  28.952  1.00  0.00     0.034 A 
ATOM     51  C   UNL A   1      41.137  30.274  34.534  1.00  0.00     0.049 A 
ATOM     52  C   UNL A   1      42.834  27.142  30.232  1.00  0.00     0.074 A 
ATOM     53  C   UNL A   1      41.912  30.237  35.680  1.00  0.00     0.029 A 
ATOM     54  N   UNL A   1      41.733  29.417  33.622  1.00  0.00    -0.354 N 
ATOM     55  N   UNL A   1      42.540  27.778  31.339  1.00  0.00    -0.248 NA
ATOM     56  C   UNL A   1      44.101  26.398  30.288  1.00  0.00     0.031 C 
ATOM     57  C   UNL A   1      42.986  29.370  35.455  1.00  0.00     0.029 A 
ATOM     58  C   UNL A   1      42.868  28.851  34.177  1.00  0.00     0.049 A 
ATOM     59  H   UNL A   1      41.398  29.237  32.714  1.00  0.00     0.167 HD
ATOM     60  C   UNL A   1      43.563  27.483  32.234  1.00  0.00     0.074 A 
ATOM     61  C   UNL A   1      44.475  26.594  31.544  1.00  0.00     0.031 C 
ATOM     62  C   UNL A   1      43.738  27.920  33.505  1.00  0.00     0.034 A 
BRANCH  49  63
ATOM     63  C   UNL A   1      39.462  31.969  35.370  1.00  0.00     0.023 A 
ATOM     64  C   UNL A   1      38.592  31.482  36.366  1.00  0.00     0.012 A 
ATOM     65  C   UNL A   1      39.919  33.300  35.443  1.00  0.00     0.148 A 
ATOM     66  C   UNL A   1      38.154  32.312  37.398  1.00  0.00     0.002 A 
ATOM     67  C   UNL A   1      39.512  34.109  36.500  1.00  0.00     0.091 A 
ATOM     68  F   UNL A   1      40.731  33.754  34.478  1.00  0.00    -0.205 F 
ATOM     69  C   UNL A   1      38.623  33.620  37.470  1.00  0.00     0.022 A 
BRANCH  67  70
ATOM     70  S   UNL A   1      40.120  35.785  36.726  1.00  0.00     0.127 S 
ATOM     71  O   UNL A   1      41.564  35.568  36.793  1.00  0.00    -0.237 OA
ATOM     72  O   UNL A   1      39.659  36.449  35.505  1.00  0.00    -0.237 OA
ATOM     73  O   UNL A   1      39.502  36.273  37.951  1.00  0.00    -0.744 OA
ENDBRANCH  67  70
ENDBRANCH  49  63
BRANCH  50  74
ATOM     74  C   UNL A   1      42.531  26.219  27.815  1.00  0.00     0.023 A 
ATOM     75  C   UNL A   1      43.491  26.750  26.931  1.00  0.00     0.012 A 
ATOM     76  C   UNL A   1      42.073  24.902  27.619  1.00  0.00     0.148 A 
ATOM     77  C   UNL A   1      43.965  25.997  25.858  1.00  0.00     0.002 A 
ATOM     78  C   UNL A   1      42.591  24.136  26.580  1.00  0.00     0.091 A 
ATOM     79  F   UNL A   1      41.149  24.419  28.461  1.00  0.00    -0.205 F 
ATOM     80  C   UNL A   1      43.524  24.687  25.688  1.00  0.00     0.022 A 
BRANCH  78  81
ATOM     81  S   UNL A   1      42.180  22.401  26.363  1.00  0.00     0.127 S 
ATOM     82  O   UNL A   1      42.951  22.057  25.172  1.00  0.00    -0.237 OA
ATOM     83  O   UNL A   1      42.673  21.815  27.609  1.00  0.00    -0.237 OA
ATOM     84  O   UNL A   1      40.730  22.360  26.215  1.00  0.00    -0.744 OA
ENDBRANCH  78  81
ENDBRANCH  50  74
BRANCH  62  85
ATOM     85  C   UNL A   1      44.942  27.422  34.261  1.00  0.00     0.023 A 
ATOM     86  C   UNL A   1      46.133  28.175  34.255  1.00  0.00     0.012 A 
ATOM     87  C   UNL A   1      44.866  26.253  35.043  1.00  0.00     0.148 A 
ATOM     88  C   UNL A   1      47.238  27.756  34.994  1.00  0.00     0.002 A 
ATOM     89  C   UNL A   1      45.956  25.867  35.815  1.00  0.00     0.091 A 
ATOM     90  F   UNL A   1      43.730  25.540  35.020  1.00  0.00    -0.205 F 
ATOM     91  C   UNL A   1      47.146  26.611  35.783  1.00  0.00     0.022 A 
BRANCH  89  92
ATOM     92  S   UNL A   1      45.895  24.462  36.933  1.00  0.00     0.127 S 
ATOM     93  O   UNL A   1      44.741  24.794  37.765  1.00  0.00    -0.237 OA
ATOM     94  O   UNL A   1      45.685  23.342  36.015  1.00  0.00    -0.237 OA
ATOM     95  O   UNL A   1      47.179  24.443  37.622  1.00  0.00    -0.744 OA
ENDBRANCH  89  92
ENDBRANCH  62  85
ENDBRANCH  36  37
ENDBRANCH  28  31
ENDBRANCH  26  27
ENDBRANCH  25  26
ENDBRANCH   1  25
TORSDOF 19
ENDMDL
MODEL 3
REMARK VINA RESULT:     -10.5      4.789      9.647
REMARK SMILES C[NH+](C)CC[NH2+][C@@H](C(=O)NCCCNC(=O)c1ccc(-c2c3nc(c(-c4cccc(S(=O)(=O)[O-])c4F)c4ccc([nH]4)c(-c4cccc(S(=O)(=O)[O-])c4F)c4nc(c(-c5cccc(S(=O)(=O)[O-])c5F)c5ccc2[nH]5)C=C4)C=C3)cc1)c1cccc(C2CC2)c1
REMARK SMILES IDX 11 1 10 2 8 3 9 4 7 6 6 7 5 10 4 11 2 12 1 13 3 14 80 16
REMARK SMILES IDX 81 17 88 18 82 19 84 20 83 21 85 22 86 23 87 24 12 25 13 26
REMARK SMILES IDX 14 27 15 28 16 30 17 31 18 32 79 33 19 34 78 35 20 36 21 37
REMARK SMILES IDX 22 38 72 39 23 40 77 41 71 42 73 43 24 44 76 45 70 46 69 47
REMARK SMILES IDX 25 49 57 50 37 51 56 52 38 53 41 54 55 55 74 56 39 57 40 58
REMARK SMILES IDX 54 60 75 61 42 62 26 63 27 64 35 65 28 66 30 67 36 68 29 69
REMARK SMILES IDX 31 70 32 71 33 72 34 73 58 74 59 75 67 76 60 77 62 78 68 79
REMARK SMILES IDX 61 80 63 81 64 82 65 83 66 84 43 85 44 86 52 87 45 88 47 89
REMARK SMILES IDX 53 90 46 91 48 92 49 93 50 94 51 95
REMARK H PARENT 10 5 6 8 6 9 2 15 14 29 73 48 41 59
REMARK Flexibility Score: inf
ROOT
ATOM      1  C   UNL A   1      36.009  20.977  24.998  1.00  0.00     0.118 C 
ENDROOT
BRANCH   1   2
ATOM      2  N   UNL A   1      35.263  21.148  26.236  1.00  0.00    -0.351 N 
ATOM      3  C   UNL A   1      33.932  21.277  26.522  1.00  0.00     0.283 C 
ATOM      4  O   UNL A   1      33.671  21.451  27.720  1.00  0.00    -0.268 OA
ATOM      5  H   UNL A   1      35.836  21.178  27.036  1.00  0.00     0.163 HD
BRANCH   3   6
ATOM      6  C   UNL A   1      32.809  21.241  25.425  1.00  0.00     0.304 C 
BRANCH   6   7
ATOM      7  N   UNL A   1      32.871  19.954  24.705  1.00  0.00    -0.328 N 
ATOM      8  H   UNL A   1      32.140  19.967  23.992  1.00  0.00     0.347 HD
ATOM      9  H   UNL A   1      33.826  19.901  24.350  1.00  0.00     0.347 HD
BRANCH   7  10
ATOM     10  C   UNL A   1      32.698  18.748  25.478  1.00  0.00     0.323 C 
BRANCH  10  11
ATOM     11  C   UNL A   1      32.292  17.521  24.630  1.00  0.00     0.323 C 
BRANCH  11  12
ATOM     12  N   UNL A   1      33.322  16.536  24.271  1.00  0.00    -0.335 N 
ATOM     13  C   UNL A   1      34.134  16.871  23.112  1.00  0.00     0.332 C 
ATOM     14  C   UNL A   1      34.108  16.024  25.383  1.00  0.00     0.332 C 
ATOM     15  H   UNL A   1      32.751  15.746  23.968  1.00  0.00     0.347 HD
ENDBRANCH  11  12
ENDBRANCH  10  11
ENDBRANCH   7  10
ENDBRANCH   6   7
BRANCH   6  16
ATOM     16  C   UNL A   1      33.028  22.371  24.389  1.00  0.00     0.019 A 
ATOM     17  C   UNL A   1      32.854  22.155  23.019  1.00  0.00     0.010 A 
ATOM     18  C   UNL A   1      33.370  23.682  24.801  1.00  0.00     0.014 A 
ATOM     19  C   UNL A   1      32.996  23.217  22.119  1.00  0.00     0.001 A 
ATOM     20  C   UNL A   1      33.504  24.777  23.933  1.00  0.00    -0.044 A 
ATOM     21  C   UNL A   1      33.311  24.506  22.572  1.00  0.00     0.004 A 
BRANCH  20  22
ATOM     22  C   UNL A   1      33.832  26.178  24.426  1.00  0.00     0.019 C 
ATOM     23  C   UNL A   1      32.769  27.235  24.642  1.00  0.00     0.009 C 
ATOM     24  C   UNL A   1      33.428  26.588  25.824  1.00  0.00     0.009 C 
ENDBRANCH  20  22
ENDBRANCH   6  16
ENDBRANCH   3   6
ENDBRANCH   1   2
BRANCH   1  25
ATOM     25  C   UNL A   1      36.673  22.272  24.497  1.00  0.00     0.042 C 
BRANCH  25  26
ATOM     26  C   UNL A   1      37.594  22.969  25.492  1.00  0.00     0.118 C 
BRANCH  26  27
ATOM     27  N   UNL A   1      38.558  22.051  26.064  1.00  0.00    -0.352 N 
ATOM     28  C   UNL A   1      39.795  22.307  26.611  1.00  0.00     0.251 C 
ATOM     29  H   UNL A   1      38.290  21.103  26.061  1.00  0.00     0.163 HD
ATOM     30  O   UNL A   1      40.571  21.368  26.775  1.00  0.00    -0.269 OA
BRANCH  28  31
ATOM     31  C   UNL A   1      40.209  23.681  26.998  1.00  0.00     0.039 A 
ATOM     32  C   UNL A   1      40.701  23.893  28.291  1.00  0.00     0.014 A 
ATOM     33  C   UNL A   1      40.040  24.774  26.143  1.00  0.00     0.014 A 
ATOM     34  C   UNL A   1      41.045  25.184  28.712  1.00  0.00     0.010 A 
ATOM     35  C   UNL A   1      40.455  26.050  26.538  1.00  0.00     0.010 A 
ATOM     36  C   UNL A   1      40.938  26.275  27.835  1.00  0.00    -0.014 A 
BRANCH  36  37
ATOM     37  C   UNL A   1      41.297  27.655  28.269  1.00  0.00     0.031 A 
ATOM     38  C   UNL A   1      42.739  28.102  28.275  1.00  0.00     0.074 A 
ATOM     39  C   UNL A   1      40.340  28.490  28.721  1.00  0.00     0.049 A 
ATOM     40  N   UNL A   1      43.246  29.247  28.655  1.00  0.00    -0.248 NA
ATOM     41  C   UNL A   1      43.743  27.127  27.818  1.00  0.00     0.031 C 
ATOM     42  C   UNL A   1      38.918  28.162  28.837  1.00  0.00     0.029 A 
ATOM     43  N   UNL A   1      40.422  29.779  29.190  1.00  0.00    -0.354 N 
ATOM     44  C   UNL A   1      44.624  29.119  28.520  1.00  0.00     0.074 A 
ATOM     45  C   UNL A   1      44.877  27.773  28.053  1.00  0.00     0.031 C 
ATOM     46  C   UNL A   1      38.263  29.220  29.341  1.00  0.00     0.029 A 
ATOM     47  C   UNL A   1      39.217  30.293  29.610  1.00  0.00     0.049 A 
ATOM     48  H   UNL A   1      41.265  30.288  29.223  1.00  0.00     0.167 HD
ATOM     49  C   UNL A   1      45.594  30.042  28.734  1.00  0.00     0.034 A 
ATOM     50  C   UNL A   1      38.911  31.489  30.151  1.00  0.00     0.034 A 
ATOM     51  C   UNL A   1      45.341  31.396  29.145  1.00  0.00     0.049 A 
ATOM     52  C   UNL A   1      39.999  32.514  30.334  1.00  0.00     0.074 A 
ATOM     53  C   UNL A   1      46.247  32.432  29.297  1.00  0.00     0.029 A 
ATOM     54  N   UNL A   1      44.095  31.906  29.473  1.00  0.00    -0.354 N 
ATOM     55  N   UNL A   1      41.275  32.424  30.046  1.00  0.00    -0.248 NA
ATOM     56  C   UNL A   1      39.600  33.818  30.883  1.00  0.00     0.031 C 
ATOM     57  C   UNL A   1      45.550  33.563  29.735  1.00  0.00     0.029 A 
ATOM     58  C   UNL A   1      44.208  33.238  29.834  1.00  0.00     0.049 A 
ATOM     59  H   UNL A   1      43.253  31.396  29.453  1.00  0.00     0.167 HD
ATOM     60  C   UNL A   1      41.823  33.667  30.342  1.00  0.00     0.074 A 
ATOM     61  C   UNL A   1      40.736  34.500  30.814  1.00  0.00     0.031 C 
ATOM     62  C   UNL A   1      43.111  34.077  30.245  1.00  0.00     0.034 A 
BRANCH  49  63
ATOM     63  C   UNL A   1      47.021  29.637  28.468  1.00  0.00     0.023 A 
ATOM     64  C   UNL A   1      47.561  29.807  27.177  1.00  0.00     0.012 A 
ATOM     65  C   UNL A   1      47.847  29.155  29.503  1.00  0.00     0.148 A 
ATOM     66  C   UNL A   1      48.888  29.470  26.910  1.00  0.00     0.002 A 
ATOM     67  C   UNL A   1      49.181  28.863  29.239  1.00  0.00     0.091 A 
ATOM     68  F   UNL A   1      47.313  28.982  30.721  1.00  0.00    -0.205 F 
ATOM     69  C   UNL A   1      49.699  29.009  27.942  1.00  0.00     0.022 A 
BRANCH  67  70
ATOM     70  S   UNL A   1      50.329  28.338  30.518  1.00  0.00     0.127 S 
ATOM     71  O   UNL A   1      50.189  26.884  30.460  1.00  0.00    -0.237 OA
ATOM     72  O   UNL A   1      51.607  28.847  30.014  1.00  0.00    -0.237 OA
ATOM     73  O   UNL A   1      49.872  28.964  31.749  1.00  0.00    -0.744 OA
ENDBRANCH  67  70
ENDBRANCH  49  63
BRANCH  50  74
ATOM     74  C   UNL A   1      37.496  31.810  30.492  1.00  0.00     0.023 A 
ATOM     75  C   UNL A   1      37.002  31.481  31.770  1.00  0.00     0.012 A 
ATOM     76  C   UNL A   1      36.649  32.463  29.576  1.00  0.00     0.148 A 
ATOM     77  C   UNL A   1      35.682  31.769  32.119  1.00  0.00     0.002 A 
ATOM     78  C   UNL A   1      35.352  32.797  29.949  1.00  0.00     0.091 A 
ATOM     79  F   UNL A   1      37.133  32.755  28.361  1.00  0.00    -0.205 F 
ATOM     80  C   UNL A   1      34.861  32.436  31.214  1.00  0.00     0.022 A 
BRANCH  78  81
ATOM     81  S   UNL A   1      34.267  33.770  28.900  1.00  0.00     0.127 S 
ATOM     82  O   UNL A   1      33.786  32.768  27.954  1.00  0.00    -0.237 OA
ATOM     83  O   UNL A   1      33.268  34.247  29.856  1.00  0.00    -0.237 OA
ATOM     84  O   UNL A   1      35.108  34.822  28.339  1.00  0.00    -0.744 OA
ENDBRANCH  78  81
ENDBRANCH  50  74
BRANCH  62  85
ATOM     85  C   UNL A   1      43.427  35.501  30.621  1.00  0.00     0.023 A 
ATOM     86  C   UNL A   1      43.838  35.803  31.934  1.00  0.00     0.012 A 
ATOM     87  C   UNL A   1      43.397  36.523  29.652  1.00  0.00     0.148 A 
ATOM     88  C   UNL A   1      44.188  37.107  32.283  1.00  0.00     0.002 A 
ATOM     89  C   UNL A   1      43.791  37.811  29.996  1.00  0.00     0.091 A 
ATOM     90  F   UNL A   1      42.984  36.218  28.413  1.00  0.00    -0.205 F 
ATOM     91  C   UNL A   1      44.176  38.107  31.313  1.00  0.00     0.022 A 
BRANCH  89  92
ATOM     92  S   UNL A   1      43.900  39.139  28.790  1.00  0.00     0.127 S 
ATOM     93  O   UNL A   1      42.512  39.249  28.343  1.00  0.00    -0.237 OA
ATOM     94  O   UNL A   1      44.370  40.260  29.604  1.00  0.00    -0.237 OA
ATOM     95  O   UNL A   1      44.849  38.688  27.781  1.00  0.00    -0.744 OA
ENDBRANCH  89  92
ENDBRANCH  62  85
ENDBRANCH  36  37
ENDBRANCH  28  31
ENDBRANCH  26  27
ENDBRANCH  25  26
ENDBRANCH   1  25
TORSDOF 19
ENDMDL
