MODEL 1
REMARK VINA RESULT:     -13.5      0.000      0.000
REMARK SMILES O=C(NCCCNC(=O)[C@@H]1CC2(CC[NH2+]CC2)C[N@@H+]1Cc1cccc2nonc12)c1ccc(-c2c3nc(c(-c4cccc(S(=O)(=O)[O-])c4F)c4ccc([nH]4)c(-c4cccc(S(=O)(=O)[O-])c4F)c4nc(c(-c5cccc(S(=O)(=O)[O-])c5F)c5ccc2[nH]5)C=C4)C=C3)cc1
REMARK SMILES IDX 4 1 3 2 1 3 2 4 30 6 31 7 92 8 32 9 91 10 33 11 34 12 35 13
REMARK SMILES IDX 85 14 36 15 90 16 84 17 86 18 37 19 89 20 83 21 82 22 38 24
REMARK SMILES IDX 70 25 50 26 69 27 51 28 54 29 68 30 87 31 52 32 53 33 67 35
REMARK SMILES IDX 88 36 55 37 39 38 40 39 48 40 41 41 43 42 49 43 42 44 44 45
REMARK SMILES IDX 45 46 46 47 47 48 71 49 72 50 80 51 73 52 75 53 81 54 74 55
REMARK SMILES IDX 76 56 77 57 78 58 79 59 56 60 57 61 65 62 58 63 60 64 66 65
REMARK SMILES IDX 59 66 61 67 62 68 63 69 64 70 5 71 6 72 7 73 8 74 9 76 10 77
REMARK SMILES IDX 11 78 19 79 12 80 18 81 13 83 17 84 14 85 16 86 15 87 20 90
REMARK SMILES IDX 21 91 22 92 29 93 23 94 25 95 28 96 24 97 26 98 27 99
REMARK H PARENT 3 5 86 23 54 34 7 75 19 82 15 88 15 89
REMARK Flexibility Score: inf
ROOT
ATOM      1  C   UNL A   1      38.817  22.789  26.246  1.00  0.00     0.118 C 
ENDROOT
BRANCH   1   2
ATOM      2  N   UNL A   1      39.852  21.869  26.619  1.00  0.00    -0.352 N 
ATOM      3  O   UNL A   1      41.911  21.066  26.484  1.00  0.00    -0.269 OA
ATOM      4  C   UNL A   1      41.204  22.057  26.671  1.00  0.00     0.251 C 
ATOM      5  H   UNL A   1      39.543  20.969  26.873  1.00  0.00     0.163 HD
BRANCH   4   6
ATOM      6  C   UNL A   1      41.860  23.359  26.939  1.00  0.00     0.039 A 
ATOM      7  C   UNL A   1      41.450  24.022  28.106  1.00  0.00     0.014 A 
ATOM      8  C   UNL A   1      42.574  24.062  25.963  1.00  0.00     0.014 A 
ATOM      9  C   UNL A   1      41.679  25.387  28.268  1.00  0.00     0.010 A 
ATOM     10  C   UNL A   1      42.802  25.441  26.130  1.00  0.00     0.010 A 
ATOM     11  C   UNL A   1      42.328  26.116  27.269  1.00  0.00    -0.014 A 
BRANCH  11  12
ATOM     12  C   UNL A   1      42.490  27.573  27.504  1.00  0.00     0.031 A 
ATOM     13  C   UNL A   1      41.210  28.333  27.562  1.00  0.00     0.074 A 
ATOM     14  C   UNL A   1      43.564  28.074  28.163  1.00  0.00     0.049 A 
ATOM     15  N   UNL A   1      40.504  28.325  28.647  1.00  0.00    -0.248 NA
ATOM     16  C   UNL A   1      40.501  28.905  26.423  1.00  0.00     0.031 C 
ATOM     17  C   UNL A   1      44.347  27.304  29.145  1.00  0.00     0.029 A 
ATOM     18  N   UNL A   1      44.058  29.360  28.283  1.00  0.00    -0.354 N 
ATOM     19  C   UNL A   1      39.253  28.842  28.363  1.00  0.00     0.074 A 
ATOM     20  C   UNL A   1      39.303  29.201  26.964  1.00  0.00     0.031 C 
ATOM     21  C   UNL A   1      45.095  28.156  29.876  1.00  0.00     0.029 A 
ATOM     22  C   UNL A   1      44.964  29.503  29.334  1.00  0.00     0.049 A 
ATOM     23  H   UNL A   1      43.796  30.100  27.688  1.00  0.00     0.167 HD
ATOM     24  C   UNL A   1      38.306  28.955  29.340  1.00  0.00     0.034 A 
ATOM     25  C   UNL A   1      45.210  30.648  30.029  1.00  0.00     0.034 A 
ATOM     26  C   UNL A   1      38.717  28.558  30.676  1.00  0.00     0.049 A 
ATOM     27  C   UNL A   1      43.995  30.710  30.928  1.00  0.00     0.074 A 
ATOM     28  C   UNL A   1      38.209  27.915  31.787  1.00  0.00     0.029 A 
ATOM     29  N   UNL A   1      40.008  28.858  31.005  1.00  0.00    -0.354 N 
ATOM     30  N   UNL A   1      43.774  29.971  31.987  1.00  0.00    -0.248 NA
ATOM     31  C   UNL A   1      42.819  31.447  30.442  1.00  0.00     0.031 C 
ATOM     32  C   UNL A   1      39.242  27.910  32.792  1.00  0.00     0.029 A 
ATOM     33  C   UNL A   1      40.333  28.609  32.301  1.00  0.00     0.049 A 
ATOM     34  H   UNL A   1      40.651  29.225  30.356  1.00  0.00     0.167 HD
ATOM     35  C   UNL A   1      42.388  29.920  32.098  1.00  0.00     0.074 A 
ATOM     36  C   UNL A   1      41.869  30.958  31.229  1.00  0.00     0.031 C 
ATOM     37  C   UNL A   1      41.689  28.911  32.695  1.00  0.00     0.034 A 
BRANCH  24  38
ATOM     38  C   UNL A   1      37.051  29.742  29.184  1.00  0.00     0.023 A 
ATOM     39  C   UNL A   1      36.298  29.467  28.022  1.00  0.00     0.012 A 
ATOM     40  C   UNL A   1      36.693  30.840  29.987  1.00  0.00     0.148 A 
ATOM     41  C   UNL A   1      35.225  30.271  27.647  1.00  0.00     0.002 A 
ATOM     42  C   UNL A   1      35.615  31.644  29.606  1.00  0.00     0.091 A 
ATOM     43  F   UNL A   1      37.426  31.101  31.078  1.00  0.00    -0.205 F 
ATOM     44  C   UNL A   1      34.887  31.364  28.436  1.00  0.00     0.022 A 
BRANCH  42  45
ATOM     45  S   UNL A   1      35.093  33.105  30.518  1.00  0.00     0.127 S 
ATOM     46  O   UNL A   1      34.129  33.712  29.600  1.00  0.00    -0.237 OA
ATOM     47  O   UNL A   1      34.500  32.515  31.719  1.00  0.00    -0.237 OA
ATOM     48  O   UNL A   1      36.301  33.883  30.756  1.00  0.00    -0.744 OA
ENDBRANCH  42  45
ENDBRANCH  24  38
BRANCH  25  49
ATOM     49  C   UNL A   1      45.718  31.835  29.250  1.00  0.00     0.023 A 
ATOM     50  C   UNL A   1      46.885  32.482  29.727  1.00  0.00     0.012 A 
ATOM     51  C   UNL A   1      45.105  32.379  28.104  1.00  0.00     0.148 A 
ATOM     52  C   UNL A   1      47.497  33.520  29.018  1.00  0.00     0.002 A 
ATOM     53  C   UNL A   1      45.747  33.375  27.366  1.00  0.00     0.091 A 
ATOM     54  F   UNL A   1      43.903  31.924  27.734  1.00  0.00    -0.205 F 
ATOM     55  C   UNL A   1      46.949  33.940  27.815  1.00  0.00     0.022 A 
BRANCH  53  56
ATOM     56  S   UNL A   1      45.146  33.946  25.770  1.00  0.00     0.127 S 
ATOM     57  O   UNL A   1      44.794  32.697  25.107  1.00  0.00    -0.237 OA
ATOM     58  O   UNL A   1      44.017  34.778  26.169  1.00  0.00    -0.237 OA
ATOM     59  O   UNL A   1      46.267  34.669  25.166  1.00  0.00    -0.744 OA
ENDBRANCH  53  56
ENDBRANCH  25  49
BRANCH  37  60
ATOM     60  C   UNL A   1      42.382  28.100  33.728  1.00  0.00     0.023 A 
ATOM     61  C   UNL A   1      42.124  28.440  35.070  1.00  0.00     0.012 A 
ATOM     62  C   UNL A   1      43.148  26.960  33.432  1.00  0.00     0.148 A 
ATOM     63  C   UNL A   1      42.594  27.646  36.109  1.00  0.00     0.002 A 
ATOM     64  C   UNL A   1      43.610  26.165  34.476  1.00  0.00     0.091 A 
ATOM     65  F   UNL A   1      43.391  26.656  32.148  1.00  0.00    -0.205 F 
ATOM     66  C   UNL A   1      43.328  26.504  35.813  1.00  0.00     0.022 A 
BRANCH  64  67
ATOM     67  S   UNL A   1      44.553  24.657  34.221  1.00  0.00     0.127 S 
ATOM     68  O   UNL A   1      45.757  25.156  33.555  1.00  0.00    -0.237 OA
ATOM     69  O   UNL A   1      44.767  24.199  35.594  1.00  0.00    -0.237 OA
ATOM     70  O   UNL A   1      43.723  23.786  33.399  1.00  0.00    -0.744 OA
ENDBRANCH  64  67
ENDBRANCH  37  60
ENDBRANCH  11  12
ENDBRANCH   4   6
ENDBRANCH   1   2
BRANCH   1  71
ATOM     71  C   UNL A   1      37.868  22.175  25.192  1.00  0.00     0.042 C 
BRANCH  71  72
ATOM     72  C   UNL A   1      36.262  22.084  25.200  1.00  0.00     0.118 C 
BRANCH  72  73
ATOM     73  N   UNL A   1      35.255  21.570  26.290  1.00  0.00    -0.351 N 
ATOM     74  C   UNL A   1      33.923  21.627  26.791  1.00  0.00     0.278 C 
ATOM     75  H   UNL A   1      35.752  20.948  26.869  1.00  0.00     0.163 HD
ATOM     76  O   UNL A   1      33.749  21.167  27.932  1.00  0.00    -0.268 OA
BRANCH  74  77
ATOM     77  C   UNL A   1      32.631  22.131  26.024  1.00  0.00     0.275 C 
ATOM     78  C   UNL A   1      31.863  21.140  25.112  1.00  0.00     0.089 C 
ATOM     79  N   UNL A   1      33.138  23.032  25.045  1.00  0.00    -0.320 N 
ATOM     80  C   UNL A   1      32.982  20.604  24.239  1.00  0.00     0.036 C 
ATOM     81  C   UNL A   1      33.643  22.078  23.973  1.00  0.00     0.270 C 
ATOM     82  H   UNL A   1      32.722  23.674  24.371  1.00  0.00     0.349 HD
ATOM     83  C   UNL A   1      32.643  19.842  22.933  1.00  0.00     0.074 C 
ATOM     84  C   UNL A   1      33.742  19.464  25.031  1.00  0.00     0.074 C 
ATOM     85  C   UNL A   1      31.882  18.511  23.155  1.00  0.00     0.261 C 
ATOM     86  C   UNL A   1      32.804  18.288  25.368  1.00  0.00     0.261 C 
ATOM     87  N   UNL A   1      32.462  17.591  24.139  1.00  0.00    -0.346 N 
ATOM     88  H   UNL A   1      33.305  17.173  23.747  1.00  0.00     0.346 HD
ATOM     89  H   UNL A   1      31.772  16.872  24.356  1.00  0.00     0.346 HD
BRANCH  79  90
ATOM     90  C   UNL A   1      33.600  24.297  25.756  1.00  0.00     0.302 C 
BRANCH  90  91
ATOM     91  C   UNL A   1      33.724  25.738  25.024  1.00  0.00     0.038 A 
ATOM     92  C   UNL A   1      33.883  27.041  25.625  1.00  0.00     0.012 A 
ATOM     93  C   UNL A   1      33.714  26.013  23.633  1.00  0.00     0.144 A 
ATOM     94  C   UNL A   1      33.740  28.362  25.103  1.00  0.00     0.003 A 
ATOM     95  C   UNL A   1      33.641  27.384  23.032  1.00  0.00     0.135 A 
ATOM     96  N   UNL A   1      33.775  25.148  22.614  1.00  0.00    -0.049 NA
ATOM     97  C   UNL A   1      33.565  28.579  23.761  1.00  0.00     0.034 A 
ATOM     98  N   UNL A   1      33.665  27.257  21.705  1.00  0.00    -0.050 NA
ATOM     99  O   UNL A   1      33.822  25.911  21.458  1.00  0.00    -0.243 OA
ENDBRANCH  90  91
ENDBRANCH  79  90
ENDBRANCH  74  77
ENDBRANCH  72  73
ENDBRANCH  71  72
ENDBRANCH   1  71
TORSDOF 15
ENDMDL
MODEL 2
REMARK VINA RESULT:     -13.3      1.182      1.671
REMARK SMILES O=C(NCCCNC(=O)[C@@H]1CC2(CC[NH2+]CC2)C[N@@H+]1Cc1cccc2nonc12)c1ccc(-c2c3nc(c(-c4cccc(S(=O)(=O)[O-])c4F)c4ccc([nH]4)c(-c4cccc(S(=O)(=O)[O-])c4F)c4nc(c(-c5cccc(S(=O)(=O)[O-])c5F)c5ccc2[nH]5)C=C4)C=C3)cc1
REMARK SMILES IDX 4 1 3 2 1 3 2 4 30 6 31 7 92 8 32 9 91 10 33 11 34 12 35 13
REMARK SMILES IDX 85 14 36 15 90 16 84 17 86 18 37 19 89 20 83 21 82 22 38 24
REMARK SMILES IDX 70 25 50 26 69 27 51 28 54 29 68 30 87 31 52 32 53 33 67 35
REMARK SMILES IDX 88 36 55 37 39 38 40 39 48 40 41 41 43 42 49 43 42 44 44 45
REMARK SMILES IDX 45 46 46 47 47 48 71 49 72 50 80 51 73 52 75 53 81 54 74 55
REMARK SMILES IDX 76 56 77 57 78 58 79 59 56 60 57 61 65 62 58 63 60 64 66 65
REMARK SMILES IDX 59 66 61 67 62 68 63 69 64 70 5 71 6 72 7 73 8 74 9 76 10 77
REMARK SMILES IDX 11 78 19 79 12 80 18 81 13 83 17 84 14 85 16 86 15 87 20 90
REMARK SMILES IDX 21 91 22 92 29 93 23 94 25 95 28 96 24 97 26 98 27 99
REMARK H PARENT 3 5 86 23 54 34 7 75 19 82 15 88 15 89
REMARK Flexibility Score: inf
ROOT
ATOM      1  C   UNL A   1      40.313  20.776  26.849  1.00  0.00     0.118 C 
ENDROOT
BRANCH   1   2
ATOM      2  N   UNL A   1      41.683  20.855  26.429  1.00  0.00    -0.352 N 
ATOM      3  O   UNL A   1      43.315  21.704  25.198  1.00  0.00    -0.269 OA
ATOM      4  C   UNL A   1      42.392  21.933  25.980  1.00  0.00     0.251 C 
ATOM      5  H   UNL A   1      42.185  20.010  26.470  1.00  0.00     0.163 HD
BRANCH   4   6
ATOM      6  C   UNL A   1      42.125  23.337  26.375  1.00  0.00     0.039 A 
ATOM      7  C   UNL A   1      42.320  24.301  25.375  1.00  0.00     0.014 A 
ATOM      8  C   UNL A   1      42.022  23.740  27.711  1.00  0.00     0.014 A 
ATOM      9  C   UNL A   1      42.489  25.645  25.705  1.00  0.00     0.010 A 
ATOM     10  C   UNL A   1      42.194  25.098  28.039  1.00  0.00     0.010 A 
ATOM     11  C   UNL A   1      42.460  26.052  27.040  1.00  0.00    -0.014 A 
BRANCH  11  12
ATOM     12  C   UNL A   1      42.694  27.494  27.304  1.00  0.00     0.031 A 
ATOM     13  C   UNL A   1      41.452  28.311  27.406  1.00  0.00     0.074 A 
ATOM     14  C   UNL A   1      43.803  27.930  27.952  1.00  0.00     0.049 A 
ATOM     15  N   UNL A   1      40.768  28.309  28.506  1.00  0.00    -0.248 NA
ATOM     16  C   UNL A   1      40.747  28.941  26.295  1.00  0.00     0.031 C 
ATOM     17  C   UNL A   1      44.568  27.102  28.900  1.00  0.00     0.029 A 
ATOM     18  N   UNL A   1      44.358  29.189  28.091  1.00  0.00    -0.354 N 
ATOM     19  C   UNL A   1      39.536  28.889  28.260  1.00  0.00     0.074 A 
ATOM     20  C   UNL A   1      39.576  29.278  26.868  1.00  0.00     0.031 C 
ATOM     21  C   UNL A   1      45.370  27.901  29.634  1.00  0.00     0.029 A 
ATOM     22  C   UNL A   1      45.290  29.266  29.126  1.00  0.00     0.049 A 
ATOM     23  H   UNL A   1      44.118  29.954  27.519  1.00  0.00     0.167 HD
ATOM     24  C   UNL A   1      38.615  29.022  29.258  1.00  0.00     0.034 A 
ATOM     25  C   UNL A   1      45.602  30.381  29.842  1.00  0.00     0.034 A 
ATOM     26  C   UNL A   1      39.033  28.575  30.576  1.00  0.00     0.049 A 
ATOM     27  C   UNL A   1      44.410  30.477  30.767  1.00  0.00     0.074 A 
ATOM     28  C   UNL A   1      38.518  27.929  31.682  1.00  0.00     0.029 A 
ATOM     29  N   UNL A   1      40.344  28.808  30.885  1.00  0.00    -0.354 N 
ATOM     30  N   UNL A   1      44.176  29.724  31.813  1.00  0.00    -0.248 NA
ATOM     31  C   UNL A   1      43.259  31.279  30.323  1.00  0.00     0.031 C 
ATOM     32  C   UNL A   1      39.570  27.853  32.665  1.00  0.00     0.029 A 
ATOM     33  C   UNL A   1      40.683  28.513  32.168  1.00  0.00     0.049 A 
ATOM     34  H   UNL A   1      40.990  29.160  30.231  1.00  0.00     0.167 HD
ATOM     35  C   UNL A   1      42.791  29.734  31.952  1.00  0.00     0.074 A 
ATOM     36  C   UNL A   1      42.304  30.815  31.117  1.00  0.00     0.031 C 
ATOM     37  C   UNL A   1      42.058  28.744  32.540  1.00  0.00     0.034 A 
BRANCH  24  38
ATOM     38  C   UNL A   1      37.395  29.869  29.147  1.00  0.00     0.023 A 
ATOM     39  C   UNL A   1      36.361  29.346  28.340  1.00  0.00     0.012 A 
ATOM     40  C   UNL A   1      37.298  31.193  29.610  1.00  0.00     0.148 A 
ATOM     41  C   UNL A   1      35.261  30.121  27.981  1.00  0.00     0.002 A 
ATOM     42  C   UNL A   1      36.192  31.966  29.245  1.00  0.00     0.091 A 
ATOM     43  F   UNL A   1      38.294  31.684  30.360  1.00  0.00    -0.205 F 
ATOM     44  C   UNL A   1      35.180  31.433  28.427  1.00  0.00     0.022 A 
BRANCH  42  45
ATOM     45  S   UNL A   1      35.979  33.687  29.728  1.00  0.00     0.127 S 
ATOM     46  O   UNL A   1      37.248  34.283  29.313  1.00  0.00    -0.237 OA
ATOM     47  O   UNL A   1      34.827  34.087  28.919  1.00  0.00    -0.237 OA
ATOM     48  O   UNL A   1      35.737  33.674  31.164  1.00  0.00    -0.744 OA
ENDBRANCH  42  45
ENDBRANCH  24  38
BRANCH  25  49
ATOM     49  C   UNL A   1      46.149  31.561  29.080  1.00  0.00     0.023 A 
ATOM     50  C   UNL A   1      47.416  32.064  29.467  1.00  0.00     0.012 A 
ATOM     51  C   UNL A   1      45.486  32.233  28.034  1.00  0.00     0.148 A 
ATOM     52  C   UNL A   1      48.057  33.082  28.757  1.00  0.00     0.002 A 
ATOM     53  C   UNL A   1      46.149  33.209  27.289  1.00  0.00     0.091 A 
ATOM     54  F   UNL A   1      44.213  31.919  27.766  1.00  0.00    -0.205 F 
ATOM     55  C   UNL A   1      47.440  33.628  27.641  1.00  0.00     0.022 A 
BRANCH  53  56
ATOM     56  S   UNL A   1      45.457  33.936  25.796  1.00  0.00     0.127 S 
ATOM     57  O   UNL A   1      44.467  34.861  26.334  1.00  0.00    -0.237 OA
ATOM     58  O   UNL A   1      46.636  34.559  25.207  1.00  0.00    -0.237 OA
ATOM     59  O   UNL A   1      44.902  32.814  25.036  1.00  0.00    -0.744 OA
ENDBRANCH  53  56
ENDBRANCH  25  49
BRANCH  37  60
ATOM     60  C   UNL A   1      42.733  27.878  33.539  1.00  0.00     0.023 A 
ATOM     61  C   UNL A   1      42.530  28.206  34.894  1.00  0.00     0.012 A 
ATOM     62  C   UNL A   1      43.428  26.703  33.203  1.00  0.00     0.148 A 
ATOM     63  C   UNL A   1      42.984  27.369  35.906  1.00  0.00     0.002 A 
ATOM     64  C   UNL A   1      43.874  25.866  34.221  1.00  0.00     0.091 A 
ATOM     65  F   UNL A   1      43.620  26.411  31.908  1.00  0.00    -0.205 F 
ATOM     66  C   UNL A   1      43.646  26.195  35.570  1.00  0.00     0.022 A 
BRANCH  64  67
ATOM     67  S   UNL A   1      44.726  24.314  33.914  1.00  0.00     0.127 S 
ATOM     68  O   UNL A   1      45.927  24.758  33.204  1.00  0.00    -0.237 OA
ATOM     69  O   UNL A   1      44.971  23.831  35.273  1.00  0.00    -0.237 OA
ATOM     70  O   UNL A   1      43.820  23.496  33.119  1.00  0.00    -0.744 OA
ENDBRANCH  64  67
ENDBRANCH  37  60
ENDBRANCH  11  12
ENDBRANCH   4   6
ENDBRANCH   1   2
BRANCH   1  71
ATOM     71  C   UNL A   1      39.376  21.502  25.857  1.00  0.00     0.042 C 
BRANCH  71  72
ATOM     72  C   UNL A   1      38.444  22.791  26.098  1.00  0.00     0.118 C 
BRANCH  72  73
ATOM     73  N   UNL A   1      37.360  23.475  25.191  1.00  0.00    -0.351 N 
ATOM     74  C   UNL A   1      35.975  23.756  25.008  1.00  0.00     0.278 C 
ATOM     75  H   UNL A   1      37.836  23.881  24.431  1.00  0.00     0.163 HD
ATOM     76  O   UNL A   1      35.643  24.148  23.877  1.00  0.00    -0.268 OA
BRANCH  74  77
ATOM     77  C   UNL A   1      34.833  23.702  26.106  1.00  0.00     0.275 C 
ATOM     78  C   UNL A   1      34.141  22.348  26.406  1.00  0.00     0.089 C 
ATOM     79  N   UNL A   1      33.750  24.413  25.516  1.00  0.00    -0.320 N 
ATOM     80  C   UNL A   1      33.740  21.899  25.014  1.00  0.00     0.036 C 
ATOM     81  C   UNL A   1      33.166  23.369  24.575  1.00  0.00     0.270 C 
ATOM     82  H   UNL A   1      32.837  24.732  25.837  1.00  0.00     0.349 HD
ATOM     83  C   UNL A   1      32.700  20.763  24.841  1.00  0.00     0.074 C 
ATOM     84  C   UNL A   1      34.993  21.234  24.313  1.00  0.00     0.074 C 
ATOM     85  C   UNL A   1      33.166  19.390  25.387  1.00  0.00     0.261 C 
ATOM     86  C   UNL A   1      35.478  19.992  25.086  1.00  0.00     0.261 C 
ATOM     87  N   UNL A   1      34.490  18.935  24.948  1.00  0.00    -0.346 N 
ATOM     88  H   UNL A   1      34.437  18.653  23.970  1.00  0.00     0.346 HD
ATOM     89  H   UNL A   1      34.772  18.148  25.533  1.00  0.00     0.346 HD
BRANCH  79  90
ATOM     90  C   UNL A   1      34.106  25.894  25.497  1.00  0.00     0.302 C 
BRANCH  90  91
ATOM     91  C   UNL A   1      33.127  27.040  24.899  1.00  0.00     0.038 A 
ATOM     92  C   UNL A   1      32.861  28.358  25.424  1.00  0.00     0.012 A 
ATOM     93  C   UNL A   1      32.337  26.983  23.724  1.00  0.00     0.144 A 
ATOM     94  C   UNL A   1      31.846  29.319  25.133  1.00  0.00     0.003 A 
ATOM     95  C   UNL A   1      31.311  28.005  23.333  1.00  0.00     0.135 A 
ATOM     96  N   UNL A   1      32.347  26.058  22.757  1.00  0.00    -0.049 NA
ATOM     97  C   UNL A   1      30.988  29.146  24.079  1.00  0.00     0.034 A 
ATOM     98  N   UNL A   1      30.778  27.632  22.169  1.00  0.00    -0.050 NA
ATOM     99  O   UNL A   1      31.460  26.497  21.787  1.00  0.00    -0.243 OA
ENDBRANCH  90  91
ENDBRANCH  79  90
ENDBRANCH  74  77
ENDBRANCH  72  73
ENDBRANCH  71  72
ENDBRANCH   1  71
TORSDOF 15
ENDMDL
MODEL 3
REMARK VINA RESULT:     -13.2      5.164     12.265
REMARK SMILES O=C(NCCCNC(=O)[C@@H]1CC2(CC[NH2+]CC2)C[N@@H+]1Cc1cccc2nonc12)c1ccc(-c2c3nc(c(-c4cccc(S(=O)(=O)[O-])c4F)c4ccc([nH]4)c(-c4cccc(S(=O)(=O)[O-])c4F)c4nc(c(-c5cccc(S(=O)(=O)[O-])c5F)c5ccc2[nH]5)C=C4)C=C3)cc1
REMARK SMILES IDX 4 1 3 2 1 3 2 4 30 6 31 7 92 8 32 9 91 10 33 11 34 12 35 13
REMARK SMILES IDX 85 14 36 15 90 16 84 17 86 18 37 19 89 20 83 21 82 22 38 24
REMARK SMILES IDX 70 25 50 26 69 27 51 28 54 29 68 30 87 31 52 32 53 33 67 35
REMARK SMILES IDX 88 36 55 37 39 38 40 39 48 40 41 41 43 42 49 43 42 44 44 45
REMARK SMILES IDX 45 46 46 47 47 48 71 49 72 50 80 51 73 52 75 53 81 54 74 55
REMARK SMILES IDX 76 56 77 57 78 58 79 59 56 60 57 61 65 62 58 63 60 64 66 65
REMARK SMILES IDX 59 66 61 67 62 68 63 69 64 70 5 71 6 72 7 73 8 74 9 76 10 77
REMARK SMILES IDX 11 78 19 79 12 80 18 81 13 83 17 84 14 85 16 86 15 87 20 90
REMARK SMILES IDX 21 91 22 92 29 93 23 94 25 95 28 96 24 97 26 98 27 99
REMARK H PARENT 3 5 86 23 54 34 7 75 19 82 15 88 15 89
REMARK Flexibility Score: inf
ROOT
ATOM      1  C   UNL A   1      43.750  25.961  38.331  1.00  0.00     0.118 C 
ENDROOT
BRANCH   1   2
ATOM      2  N   UNL A   1      42.889  25.038  37.649  1.00  0.00    -0.352 N 
ATOM      3  O   UNL A   1      41.433  24.510  36.067  1.00  0.00    -0.269 OA
ATOM      4  C   UNL A   1      42.535  24.994  36.330  1.00  0.00     0.251 C 
ATOM      5  H   UNL A   1      42.495  24.335  38.214  1.00  0.00     0.163 HD
BRANCH   4   6
ATOM      6  C   UNL A   1      43.384  25.479  35.216  1.00  0.00     0.039 A 
ATOM      7  C   UNL A   1      43.313  26.854  34.947  1.00  0.00     0.014 A 
ATOM      8  C   UNL A   1      43.954  24.620  34.271  1.00  0.00     0.014 A 
ATOM      9  C   UNL A   1      43.733  27.362  33.719  1.00  0.00     0.010 A 
ATOM     10  C   UNL A   1      44.376  25.138  33.031  1.00  0.00     0.010 A 
ATOM     11  C   UNL A   1      44.238  26.507  32.738  1.00  0.00    -0.014 A 
BRANCH  11  12
ATOM     12  C   UNL A   1      44.619  27.125  31.444  1.00  0.00     0.031 A 
ATOM     13  C   UNL A   1      44.714  26.167  30.307  1.00  0.00     0.074 A 
ATOM     14  C   UNL A   1      44.345  28.425  31.166  1.00  0.00     0.049 A 
ATOM     15  N   UNL A   1      43.639  25.774  29.704  1.00  0.00    -0.248 NA
ATOM     16  C   UNL A   1      45.894  25.393  29.937  1.00  0.00     0.031 C 
ATOM     17  C   UNL A   1      43.239  29.173  31.789  1.00  0.00     0.029 A 
ATOM     18  N   UNL A   1      44.802  29.275  30.176  1.00  0.00    -0.354 N 
ATOM     19  C   UNL A   1      43.953  24.690  28.904  1.00  0.00     0.074 A 
ATOM     20  C   UNL A   1      45.375  24.497  29.074  1.00  0.00     0.031 C 
ATOM     21  C   UNL A   1      42.999  30.286  31.065  1.00  0.00     0.029 A 
ATOM     22  C   UNL A   1      44.009  30.412  30.021  1.00  0.00     0.049 A 
ATOM     23  H   UNL A   1      45.605  29.096  29.635  1.00  0.00     0.167 HD
ATOM     24  C   UNL A   1      42.995  24.082  28.145  1.00  0.00     0.034 A 
ATOM     25  C   UNL A   1      43.858  31.133  28.876  1.00  0.00     0.034 A 
ATOM     26  C   UNL A   1      41.670  24.676  28.192  1.00  0.00     0.049 A 
ATOM     27  C   UNL A   1      42.919  30.243  28.094  1.00  0.00     0.074 A 
ATOM     28  C   UNL A   1      40.344  24.294  28.205  1.00  0.00     0.029 A 
ATOM     29  N   UNL A   1      41.643  26.039  28.277  1.00  0.00    -0.354 N 
ATOM     30  N   UNL A   1      41.636  30.087  28.308  1.00  0.00    -0.248 NA
ATOM     31  C   UNL A   1      43.513  29.241  27.195  1.00  0.00     0.031 C 
ATOM     32  C   UNL A   1      39.549  25.496  28.240  1.00  0.00     0.029 A 
ATOM     33  C   UNL A   1      40.402  26.586  28.178  1.00  0.00     0.049 A 
ATOM     34  H   UNL A   1      42.455  26.581  28.400  1.00  0.00     0.167 HD
ATOM     35  C   UNL A   1      41.350  28.814  27.826  1.00  0.00     0.074 A 
ATOM     36  C   UNL A   1      42.490  28.413  27.025  1.00  0.00     0.031 C 
ATOM     37  C   UNL A   1      40.324  28.025  28.262  1.00  0.00     0.034 A 
BRANCH  24  38
ATOM     38  C   UNL A   1      43.299  23.101  27.065  1.00  0.00     0.023 A 
ATOM     39  C   UNL A   1      43.835  23.647  25.878  1.00  0.00     0.012 A 
ATOM     40  C   UNL A   1      42.909  21.750  27.082  1.00  0.00     0.148 A 
ATOM     41  C   UNL A   1      43.965  22.880  24.724  1.00  0.00     0.002 A 
ATOM     42  C   UNL A   1      43.040  20.986  25.919  1.00  0.00     0.091 A 
ATOM     43  F   UNL A   1      42.384  21.249  28.209  1.00  0.00    -0.205 F 
ATOM     44  C   UNL A   1      43.562  21.551  24.742  1.00  0.00     0.022 A 
BRANCH  42  45
ATOM     45  S   UNL A   1      42.529  19.264  25.798  1.00  0.00     0.127 S 
ATOM     46  O   UNL A   1      43.199  18.830  24.572  1.00  0.00    -0.237 OA
ATOM     47  O   UNL A   1      43.083  18.697  27.027  1.00  0.00    -0.237 OA
ATOM     48  O   UNL A   1      41.073  19.282  25.739  1.00  0.00    -0.744 OA
ENDBRANCH  42  45
ENDBRANCH  24  38
BRANCH  25  49
ATOM     49  C   UNL A   1      45.096  31.750  28.278  1.00  0.00     0.023 A 
ATOM     50  C   UNL A   1      46.339  31.127  28.554  1.00  0.00     0.012 A 
ATOM     51  C   UNL A   1      45.126  32.920  27.494  1.00  0.00     0.148 A 
ATOM     52  C   UNL A   1      47.530  31.556  27.960  1.00  0.00     0.002 A 
ATOM     53  C   UNL A   1      46.303  33.313  26.855  1.00  0.00     0.091 A 
ATOM     54  F   UNL A   1      44.008  33.646  27.371  1.00  0.00    -0.205 F 
ATOM     55  C   UNL A   1      47.504  32.626  27.077  1.00  0.00     0.022 A 
BRANCH  53  56
ATOM     56  S   UNL A   1      46.361  34.650  25.653  1.00  0.00     0.127 S 
ATOM     57  O   UNL A   1      47.741  34.589  25.190  1.00  0.00    -0.237 OA
ATOM     58  O   UNL A   1      45.360  34.210  24.687  1.00  0.00    -0.237 OA
ATOM     59  O   UNL A   1      46.013  35.861  26.398  1.00  0.00    -0.744 OA
ENDBRANCH  53  56
ENDBRANCH  25  49
BRANCH  37  60
ATOM     60  C   UNL A   1      39.145  28.691  28.872  1.00  0.00     0.023 A 
ATOM     61  C   UNL A   1      38.069  28.976  28.009  1.00  0.00     0.012 A 
ATOM     62  C   UNL A   1      39.010  28.912  30.253  1.00  0.00     0.148 A 
ATOM     63  C   UNL A   1      36.862  29.450  28.508  1.00  0.00     0.002 A 
ATOM     64  C   UNL A   1      37.796  29.381  30.747  1.00  0.00     0.091 A 
ATOM     65  F   UNL A   1      40.047  28.643  31.059  1.00  0.00    -0.205 F 
ATOM     66  C   UNL A   1      36.722  29.642  29.877  1.00  0.00     0.022 A 
BRANCH  64  67
ATOM     67  S   UNL A   1      37.486  29.652  32.496  1.00  0.00     0.127 S 
ATOM     68  O   UNL A   1      36.177  30.308  32.477  1.00  0.00    -0.237 OA
ATOM     69  O   UNL A   1      37.470  28.285  33.015  1.00  0.00    -0.237 OA
ATOM     70  O   UNL A   1      38.575  30.488  32.983  1.00  0.00    -0.744 OA
ENDBRANCH  64  67
ENDBRANCH  37  60
ENDBRANCH  11  12
ENDBRANCH   4   6
ENDBRANCH   1   2
BRANCH   1  71
ATOM     71  C   UNL A   1      45.086  25.294  38.734  1.00  0.00     0.042 C 
BRANCH  71  72
ATOM     72  C   UNL A   1      45.922  24.150  37.971  1.00  0.00     0.118 C 
BRANCH  72  73
ATOM     73  N   UNL A   1      45.460  22.934  37.092  1.00  0.00    -0.351 N 
ATOM     74  C   UNL A   1      45.825  21.686  36.513  1.00  0.00     0.278 C 
ATOM     75  H   UNL A   1      44.526  23.107  36.833  1.00  0.00     0.163 HD
ATOM     76  O   UNL A   1      45.071  21.254  35.626  1.00  0.00    -0.268 OA
BRANCH  74  77
ATOM     77  C   UNL A   1      47.036  20.752  36.933  1.00  0.00     0.275 C 
ATOM     78  C   UNL A   1      48.459  21.091  36.421  1.00  0.00     0.089 C 
ATOM     79  N   UNL A   1      46.798  19.537  36.231  1.00  0.00    -0.320 N 
ATOM     80  C   UNL A   1      48.219  21.228  34.930  1.00  0.00     0.036 C 
ATOM     81  C   UNL A   1      47.292  19.882  34.833  1.00  0.00     0.270 C 
ATOM     82  H   UNL A   1      47.225  18.612  36.226  1.00  0.00     0.349 HD
ATOM     83  C   UNL A   1      49.420  21.213  33.951  1.00  0.00     0.074 C 
ATOM     84  C   UNL A   1      47.646  22.674  34.639  1.00  0.00     0.074 C 
ATOM     85  C   UNL A   1      50.395  22.405  34.125  1.00  0.00     0.261 C 
ATOM     86  C   UNL A   1      48.645  23.772  35.057  1.00  0.00     0.261 C 
ATOM     87  N   UNL A   1      49.786  23.739  34.157  1.00  0.00    -0.346 N 
ATOM     88  H   UNL A   1      49.476  23.986  33.217  1.00  0.00     0.346 HD
ATOM     89  H   UNL A   1      50.482  24.405  34.492  1.00  0.00     0.346 HD
BRANCH  79  90
ATOM     90  C   UNL A   1      45.613  18.835  36.881  1.00  0.00     0.302 C 
BRANCH  90  91
ATOM     91  C   UNL A   1      45.692  18.105  38.326  1.00  0.00     0.038 A 
ATOM     92  C   UNL A   1      46.758  18.148  39.299  1.00  0.00     0.012 A 
ATOM     93  C   UNL A   1      44.717  17.278  38.939  1.00  0.00     0.144 A 
ATOM     94  C   UNL A   1      47.037  17.354  40.452  1.00  0.00     0.003 A 
ATOM     95  C   UNL A   1      44.933  16.482  40.191  1.00  0.00     0.135 A 
ATOM     96  N   UNL A   1      43.455  17.053  38.553  1.00  0.00    -0.049 NA
ATOM     97  C   UNL A   1      46.129  16.440  40.920  1.00  0.00     0.034 A 
ATOM     98  N   UNL A   1      43.800  15.839  40.475  1.00  0.00    -0.050 NA
ATOM     99  O   UNL A   1      42.887  16.246  39.526  1.00  0.00    -0.243 OA
ENDBRANCH  90  91
ENDBRANCH  79  90
ENDBRANCH  74  77
ENDBRANCH  72  73
ENDBRANCH  71  72
ENDBRANCH   1  71
TORSDOF 15
ENDMDL
