MODEL 1
REMARK VINA RESULT:     -13.1      0.000      0.000
REMARK SMILES O=C(NCCCNC(=O)c1ccc(-c2c3nc(c(-c4cccc(S(=O)(=O)[O-])c4F)c4ccc([nH]4)c(-c4cccc(S(=O)(=O)[O-])c4F)c4nc(c(-c5cccc(S(=O)(=O)[O-])c5F)c5ccc2[nH]5)C=C4)C=C3)cc1)C1=Cc2c(Cl)cc(Cl)cc2O[C@@H]1C(F)(F)F
REMARK SMILES IDX 6 1 5 2 4 3 3 4 1 5 2 6 73 8 74 9 84 10 75 11 83 12 76 13
REMARK SMILES IDX 82 14 77 15 78 16 81 17 79 18 80 19 85 20 86 21 87 22 88 23
REMARK SMILES IDX 7 24 8 25 9 27 10 28 11 29 72 30 12 31 71 32 13 33 14 34
REMARK SMILES IDX 15 35 65 36 16 37 70 38 64 39 66 40 17 41 69 42 63 43 62 44
REMARK SMILES IDX 18 46 50 47 30 48 49 49 31 50 34 51 48 52 67 53 32 54 33 55
REMARK SMILES IDX 47 57 68 58 35 59 19 60 20 61 28 62 21 63 23 64 29 65 22 66
REMARK SMILES IDX 24 67 25 68 26 69 27 70 51 71 52 72 60 73 53 74 55 75 61 76
REMARK SMILES IDX 54 77 56 78 57 79 58 80 59 81 36 82 37 83 45 84 38 85 40 86
REMARK SMILES IDX 46 87 39 88 41 89 42 90 43 91 44 92
REMARK H PARENT 3 7 7 26 66 45 34 56
REMARK Flexibility Score: inf
ROOT
ATOM      1  C   UNL A   1      32.035  30.455  26.932  1.00  0.00     0.118 C 
ENDROOT
BRANCH   1   2
ATOM      2  C   UNL A   1      31.899  29.915  25.512  1.00  0.00     0.042 C 
BRANCH   2   3
ATOM      3  C   UNL A   1      32.575  28.559  25.339  1.00  0.00     0.118 C 
BRANCH   3   4
ATOM      4  N   UNL A   1      31.900  27.471  26.049  1.00  0.00    -0.352 N 
ATOM      5  O   UNL A   1      30.792  25.493  26.230  1.00  0.00    -0.270 OA
ATOM      6  C   UNL A   1      31.083  26.477  25.565  1.00  0.00     0.251 C 
ATOM      7  H   UNL A   1      32.056  27.446  27.022  1.00  0.00     0.163 HD
BRANCH   6   8
ATOM      8  C   UNL A   1      30.625  26.620  24.170  1.00  0.00     0.067 C 
ATOM      9  C   UNL A   1      29.326  26.895  24.006  1.00  0.00     0.027 C 
ATOM     10  C   UNL A   1      31.666  26.878  23.132  1.00  0.00     0.314 C 
ATOM     11  C   UNL A   1      29.049  27.984  23.054  1.00  0.00     0.036 A 
ATOM     12  O   UNL A   1      31.424  28.106  22.403  1.00  0.00    -0.475 OA
ATOM     13  C   UNL A   1      27.814  28.657  23.089  1.00  0.00     0.053 A 
ATOM     14  C   UNL A   1      30.147  28.614  22.429  1.00  0.00     0.130 A 
ATOM     15  Cl  UNL A   1      26.402  27.955  23.800  1.00  0.00    -0.083 Cl
ATOM     16  C   UNL A   1      27.719  29.977  22.646  1.00  0.00     0.042 A 
ATOM     17  C   UNL A   1      30.037  29.923  21.960  1.00  0.00     0.067 A 
ATOM     18  C   UNL A   1      28.839  30.612  22.119  1.00  0.00     0.046 A 
ATOM     19  Cl  UNL A   1      28.767  32.285  21.731  1.00  0.00    -0.084 Cl
BRANCH  10  20
ATOM     20  C   UNL A   1      31.818  25.693  22.167  1.00  0.00     0.429 C 
ATOM     21  F   UNL A   1      31.103  24.624  22.601  1.00  0.00    -0.167 F 
ATOM     22  F   UNL A   1      31.363  25.982  20.926  1.00  0.00    -0.167 F 
ATOM     23  F   UNL A   1      33.102  25.288  22.043  1.00  0.00    -0.167 F 
ENDBRANCH  10  20
ENDBRANCH   6   8
ENDBRANCH   3   4
ENDBRANCH   2   3
ENDBRANCH   1   2
BRANCH   1  24
ATOM     24  N   UNL A   1      32.172  31.909  27.002  1.00  0.00    -0.352 N 
ATOM     25  C   UNL A   1      33.215  32.681  27.467  1.00  0.00     0.251 C 
ATOM     26  H   UNL A   1      31.398  32.415  26.665  1.00  0.00     0.163 HD
ATOM     27  O   UNL A   1      33.094  33.905  27.496  1.00  0.00    -0.269 OA
BRANCH  25  28
ATOM     28  C   UNL A   1      34.458  32.048  27.962  1.00  0.00     0.039 A 
ATOM     29  C   UNL A   1      35.604  32.831  28.144  1.00  0.00     0.014 A 
ATOM     30  C   UNL A   1      34.490  30.691  28.280  1.00  0.00     0.014 A 
ATOM     31  C   UNL A   1      36.742  32.271  28.735  1.00  0.00     0.010 A 
ATOM     32  C   UNL A   1      35.573  30.173  28.977  1.00  0.00     0.010 A 
ATOM     33  C   UNL A   1      36.718  30.950  29.206  1.00  0.00    -0.014 A 
BRANCH  33  34
ATOM     34  C   UNL A   1      37.864  30.337  29.933  1.00  0.00     0.031 A 
ATOM     35  C   UNL A   1      38.154  30.753  31.353  1.00  0.00     0.074 A 
ATOM     36  C   UNL A   1      38.720  29.524  29.282  1.00  0.00     0.049 A 
ATOM     37  N   UNL A   1      39.191  30.479  32.101  1.00  0.00    -0.248 NA
ATOM     38  C   UNL A   1      37.174  31.642  32.001  1.00  0.00     0.031 C 
ATOM     39  C   UNL A   1      38.612  29.121  27.877  1.00  0.00     0.029 A 
ATOM     40  N   UNL A   1      39.876  28.915  29.708  1.00  0.00    -0.354 N 
ATOM     41  C   UNL A   1      39.022  31.215  33.269  1.00  0.00     0.074 A 
ATOM     42  C   UNL A   1      37.806  31.979  33.115  1.00  0.00     0.031 C 
ATOM     43  C   UNL A   1      39.649  28.330  27.562  1.00  0.00     0.029 A 
ATOM     44  C   UNL A   1      40.516  28.193  28.728  1.00  0.00     0.049 A 
ATOM     45  H   UNL A   1      40.216  28.991  30.630  1.00  0.00     0.167 HD
ATOM     46  C   UNL A   1      39.787  31.226  34.386  1.00  0.00     0.034 A 
ATOM     47  C   UNL A   1      41.673  27.503  28.761  1.00  0.00     0.034 A 
ATOM     48  C   UNL A   1      40.938  30.388  34.573  1.00  0.00     0.049 A 
ATOM     49  C   UNL A   1      42.449  27.444  30.050  1.00  0.00     0.074 A 
ATOM     50  C   UNL A   1      41.710  30.227  35.709  1.00  0.00     0.029 A 
ATOM     51  N   UNL A   1      41.476  29.559  33.600  1.00  0.00    -0.354 N 
ATOM     52  N   UNL A   1      42.185  28.023  31.198  1.00  0.00    -0.248 NA
ATOM     53  C   UNL A   1      43.658  26.608  30.064  1.00  0.00     0.031 C 
ATOM     54  C   UNL A   1      42.719  29.301  35.421  1.00  0.00     0.029 A 
ATOM     55  C   UNL A   1      42.567  28.878  34.110  1.00  0.00     0.049 A 
ATOM     56  H   UNL A   1      41.132  29.469  32.682  1.00  0.00     0.167 HD
ATOM     57  C   UNL A   1      43.174  27.595  32.077  1.00  0.00     0.074 A 
ATOM     58  C   UNL A   1      44.028  26.691  31.335  1.00  0.00     0.031 C 
ATOM     59  C   UNL A   1      43.367  27.934  33.375  1.00  0.00     0.034 A 
BRANCH  46  60
ATOM     60  C   UNL A   1      39.355  32.117  35.522  1.00  0.00     0.023 A 
ATOM     61  C   UNL A   1      38.492  31.608  36.515  1.00  0.00     0.012 A 
ATOM     62  C   UNL A   1      39.831  33.438  35.633  1.00  0.00     0.148 A 
ATOM     63  C   UNL A   1      38.073  32.411  37.575  1.00  0.00     0.002 A 
ATOM     64  C   UNL A   1      39.447  34.218  36.720  1.00  0.00     0.091 A 
ATOM     65  F   UNL A   1      40.633  33.915  34.671  1.00  0.00    -0.205 F 
ATOM     66  C   UNL A   1      38.558  33.711  37.682  1.00  0.00     0.022 A 
BRANCH  64  67
ATOM     67  S   UNL A   1      40.080  35.877  36.994  1.00  0.00     0.127 S 
ATOM     68  O   UNL A   1      41.516  35.628  37.115  1.00  0.00    -0.237 OA
ATOM     69  O   UNL A   1      39.684  36.565  35.764  1.00  0.00    -0.237 OA
ATOM     70  O   UNL A   1      39.422  36.363  38.198  1.00  0.00    -0.744 OA
ENDBRANCH  64  67
ENDBRANCH  46  60
BRANCH  47  71
ATOM     71  C   UNL A   1      42.123  26.740  27.561  1.00  0.00     0.023 A 
ATOM     72  C   UNL A   1      42.827  27.416  26.544  1.00  0.00     0.012 A 
ATOM     73  C   UNL A   1      41.894  25.356  27.434  1.00  0.00     0.148 A 
ATOM     74  C   UNL A   1      43.268  26.734  25.409  1.00  0.00     0.002 A 
ATOM     75  C   UNL A   1      42.383  24.673  26.325  1.00  0.00     0.091 A 
ATOM     76  F   UNL A   1      41.213  24.733  28.405  1.00  0.00    -0.205 F 
ATOM     77  C   UNL A   1      43.056  25.363  25.304  1.00  0.00     0.022 A 
BRANCH  75  78
ATOM     78  S   UNL A   1      42.272  22.887  26.169  1.00  0.00     0.127 S 
ATOM     79  O   UNL A   1      40.828  22.672  26.208  1.00  0.00    -0.237 OA
ATOM     80  O   UNL A   1      42.894  22.657  24.864  1.00  0.00    -0.237 OA
ATOM     81  O   UNL A   1      43.025  22.350  27.293  1.00  0.00    -0.744 OA
ENDBRANCH  75  78
ENDBRANCH  47  71
BRANCH  59  82
ATOM     82  C   UNL A   1      44.525  27.300  34.098  1.00  0.00     0.023 A 
ATOM     83  C   UNL A   1      45.794  27.906  34.050  1.00  0.00     0.012 A 
ATOM     84  C   UNL A   1      44.332  26.155  34.897  1.00  0.00     0.148 A 
ATOM     85  C   UNL A   1      46.863  27.368  34.764  1.00  0.00     0.002 A 
ATOM     86  C   UNL A   1      45.390  25.651  35.644  1.00  0.00     0.091 A 
ATOM     87  F   UNL A   1      43.119  25.582  34.913  1.00  0.00    -0.205 F 
ATOM     88  C   UNL A   1      46.659  26.251  35.571  1.00  0.00     0.022 A 
BRANCH  86  89
ATOM     89  S   UNL A   1      45.190  24.277  36.782  1.00  0.00     0.127 S 
ATOM     90  O   UNL A   1      44.184  24.800  37.706  1.00  0.00    -0.237 OA
ATOM     91  O   UNL A   1      44.714  23.209  35.902  1.00  0.00    -0.237 OA
ATOM     92  O   UNL A   1      46.507  24.040  37.357  1.00  0.00    -0.744 OA
ENDBRANCH  86  89
ENDBRANCH  59  82
ENDBRANCH  33  34
ENDBRANCH  25  28
ENDBRANCH   1  24
TORSDOF 14
ENDMDL
MODEL 2
REMARK VINA RESULT:     -13.1      2.372      3.377
REMARK SMILES O=C(NCCCNC(=O)c1ccc(-c2c3nc(c(-c4cccc(S(=O)(=O)[O-])c4F)c4ccc([nH]4)c(-c4cccc(S(=O)(=O)[O-])c4F)c4nc(c(-c5cccc(S(=O)(=O)[O-])c5F)c5ccc2[nH]5)C=C4)C=C3)cc1)C1=Cc2c(Cl)cc(Cl)cc2O[C@@H]1C(F)(F)F
REMARK SMILES IDX 6 1 5 2 4 3 3 4 1 5 2 6 73 8 74 9 84 10 75 11 83 12 76 13
REMARK SMILES IDX 82 14 77 15 78 16 81 17 79 18 80 19 85 20 86 21 87 22 88 23
REMARK SMILES IDX 7 24 8 25 9 27 10 28 11 29 72 30 12 31 71 32 13 33 14 34
REMARK SMILES IDX 15 35 65 36 16 37 70 38 64 39 66 40 17 41 69 42 63 43 62 44
REMARK SMILES IDX 18 46 50 47 30 48 49 49 31 50 34 51 48 52 67 53 32 54 33 55
REMARK SMILES IDX 47 57 68 58 35 59 19 60 20 61 28 62 21 63 23 64 29 65 22 66
REMARK SMILES IDX 24 67 25 68 26 69 27 70 51 71 52 72 60 73 53 74 55 75 61 76
REMARK SMILES IDX 54 77 56 78 57 79 58 80 59 81 36 82 37 83 45 84 38 85 40 86
REMARK SMILES IDX 46 87 39 88 41 89 42 90 43 91 44 92
REMARK H PARENT 3 7 7 26 66 45 34 56
REMARK Flexibility Score: inf
ROOT
ATOM      1  C   UNL A   1      32.848  29.773  25.698  1.00  0.00     0.118 C 
ENDROOT
BRANCH   1   2
ATOM      2  C   UNL A   1      31.657  28.822  25.758  1.00  0.00     0.042 C 
BRANCH   2   3
ATOM      3  C   UNL A   1      31.933  27.599  26.626  1.00  0.00     0.118 C 
BRANCH   3   4
ATOM      4  N   UNL A   1      30.830  26.637  26.653  1.00  0.00    -0.352 N 
ATOM      5  O   UNL A   1      29.887  24.569  26.573  1.00  0.00    -0.270 OA
ATOM      6  C   UNL A   1      30.801  25.319  26.263  1.00  0.00     0.251 C 
ATOM      7  H   UNL A   1      29.978  26.986  27.004  1.00  0.00     0.163 HD
BRANCH   6   8
ATOM      8  C   UNL A   1      31.969  24.829  25.506  1.00  0.00     0.067 C 
ATOM      9  C   UNL A   1      32.751  23.950  26.143  1.00  0.00     0.027 C 
ATOM     10  C   UNL A   1      31.941  24.995  24.024  1.00  0.00     0.314 C 
ATOM     11  C   UNL A   1      33.117  22.769  25.343  1.00  0.00     0.036 A 
ATOM     12  O   UNL A   1      32.077  23.732  23.326  1.00  0.00    -0.475 OA
ATOM     13  C   UNL A   1      33.560  21.595  25.978  1.00  0.00     0.053 A 
ATOM     14  C   UNL A   1      32.620  22.681  24.025  1.00  0.00     0.130 A 
ATOM     15  Cl  UNL A   1      34.219  21.604  27.578  1.00  0.00    -0.083 Cl
ATOM     16  C   UNL A   1      33.373  20.352  25.371  1.00  0.00     0.042 A 
ATOM     17  C   UNL A   1      32.464  21.438  23.411  1.00  0.00     0.067 A 
ATOM     18  C   UNL A   1      32.794  20.280  24.107  1.00  0.00     0.046 A 
ATOM     19  Cl  UNL A   1      32.410  18.747  23.432  1.00  0.00    -0.084 Cl
BRANCH  10  20
ATOM     20  C   UNL A   1      32.998  25.999  23.540  1.00  0.00     0.429 C 
ATOM     21  F   UNL A   1      33.723  25.479  22.516  1.00  0.00    -0.167 F 
ATOM     22  F   UNL A   1      32.444  27.143  23.077  1.00  0.00    -0.167 F 
ATOM     23  F   UNL A   1      33.874  26.338  24.514  1.00  0.00    -0.167 F 
ENDBRANCH  10  20
ENDBRANCH   6   8
ENDBRANCH   3   4
ENDBRANCH   2   3
ENDBRANCH   1   2
BRANCH   1  24
ATOM     24  N   UNL A   1      32.585  31.090  26.276  1.00  0.00    -0.352 N 
ATOM     25  C   UNL A   1      33.306  31.813  27.202  1.00  0.00     0.251 C 
ATOM     26  H   UNL A   1      31.765  31.528  25.953  1.00  0.00     0.163 HD
ATOM     27  O   UNL A   1      32.864  32.888  27.605  1.00  0.00    -0.269 OA
BRANCH  25  28
ATOM     28  C   UNL A   1      34.582  31.290  27.739  1.00  0.00     0.039 A 
ATOM     29  C   UNL A   1      35.623  32.179  28.028  1.00  0.00     0.014 A 
ATOM     30  C   UNL A   1      34.746  29.928  27.988  1.00  0.00     0.014 A 
ATOM     31  C   UNL A   1      36.782  31.712  28.657  1.00  0.00     0.010 A 
ATOM     32  C   UNL A   1      35.841  29.490  28.721  1.00  0.00     0.010 A 
ATOM     33  C   UNL A   1      36.879  30.371  29.058  1.00  0.00    -0.014 A 
BRANCH  33  34
ATOM     34  C   UNL A   1      38.044  29.844  29.820  1.00  0.00     0.031 A 
ATOM     35  C   UNL A   1      38.292  30.323  31.229  1.00  0.00     0.074 A 
ATOM     36  C   UNL A   1      38.951  29.055  29.209  1.00  0.00     0.049 A 
ATOM     37  N   UNL A   1      39.330  30.128  31.999  1.00  0.00    -0.248 NA
ATOM     38  C   UNL A   1      37.257  31.180  31.833  1.00  0.00     0.031 C 
ATOM     39  C   UNL A   1      38.884  28.600  27.817  1.00  0.00     0.029 A 
ATOM     40  N   UNL A   1      40.131  28.523  29.670  1.00  0.00    -0.354 N 
ATOM     41  C   UNL A   1      39.106  30.893  33.138  1.00  0.00     0.074 A 
ATOM     42  C   UNL A   1      37.854  31.587  32.942  1.00  0.00     0.031 C 
ATOM     43  C   UNL A   1      39.966  27.854  27.543  1.00  0.00     0.029 A 
ATOM     44  C   UNL A   1      40.822  27.802  28.723  1.00  0.00     0.049 A 
ATOM     45  H   UNL A   1      40.452  28.647  30.593  1.00  0.00     0.167 HD
ATOM     46  C   UNL A   1      39.853  30.982  34.264  1.00  0.00     0.034 A 
ATOM     47  C   UNL A   1      42.013  27.175  28.796  1.00  0.00     0.034 A 
ATOM     48  C   UNL A   1      41.044  30.213  34.494  1.00  0.00     0.049 A 
ATOM     49  C   UNL A   1      42.771  27.201  30.096  1.00  0.00     0.074 A 
ATOM     50  C   UNL A   1      41.806  30.130  35.645  1.00  0.00     0.029 A 
ATOM     51  N   UNL A   1      41.638  29.381  33.558  1.00  0.00    -0.354 N 
ATOM     52  N   UNL A   1      42.460  27.803  31.219  1.00  0.00    -0.248 NA
ATOM     53  C   UNL A   1      44.022  26.431  30.154  1.00  0.00     0.031 C 
ATOM     54  C   UNL A   1      42.866  29.249  35.403  1.00  0.00     0.029 A 
ATOM     55  C   UNL A   1      42.755  28.776  34.104  1.00  0.00     0.049 A 
ATOM     56  H   UNL A   1      41.313  29.242  32.639  1.00  0.00     0.167 HD
ATOM     57  C   UNL A   1      43.457  27.458  32.125  1.00  0.00     0.074 A 
ATOM     58  C   UNL A   1      44.369  26.576  31.426  1.00  0.00     0.031 C 
ATOM     59  C   UNL A   1      43.614  27.850  33.414  1.00  0.00     0.034 A 
BRANCH  46  60
ATOM     60  C   UNL A   1      39.359  31.887  35.364  1.00  0.00     0.023 A 
ATOM     61  C   UNL A   1      38.426  31.396  36.301  1.00  0.00     0.012 A 
ATOM     62  C   UNL A   1      39.843  33.203  35.497  1.00  0.00     0.148 A 
ATOM     63  C   UNL A   1      37.948  32.212  37.325  1.00  0.00     0.002 A 
ATOM     64  C   UNL A   1      39.399  33.996  36.551  1.00  0.00     0.091 A 
ATOM     65  F   UNL A   1      40.714  33.662  34.587  1.00  0.00    -0.205 F 
ATOM     66  C   UNL A   1      38.442  33.507  37.455  1.00  0.00     0.022 A 
BRANCH  64  67
ATOM     67  S   UNL A   1      40.035  35.648  36.855  1.00  0.00     0.127 S 
ATOM     68  O   UNL A   1      39.389  35.984  38.122  1.00  0.00    -0.237 OA
ATOM     69  O   UNL A   1      41.476  35.411  36.950  1.00  0.00    -0.237 OA
ATOM     70  O   UNL A   1      39.627  36.450  35.710  1.00  0.00    -0.744 OA
ENDBRANCH  64  67
ENDBRANCH  46  60
BRANCH  47  71
ATOM     71  C   UNL A   1      42.519  26.397  27.628  1.00  0.00     0.023 A 
ATOM     72  C   UNL A   1      43.418  27.011  26.734  1.00  0.00     0.012 A 
ATOM     73  C   UNL A   1      42.150  25.055  27.416  1.00  0.00     0.148 A 
ATOM     74  C   UNL A   1      43.916  26.313  25.633  1.00  0.00     0.002 A 
ATOM     75  C   UNL A   1      42.692  24.348  26.348  1.00  0.00     0.091 A 
ATOM     76  F   UNL A   1      41.285  24.491  28.270  1.00  0.00    -0.205 F 
ATOM     77  C   UNL A   1      43.563  24.980  25.446  1.00  0.00     0.022 A 
BRANCH  75  78
ATOM     78  S   UNL A   1      42.397  22.593  26.105  1.00  0.00     0.127 S 
ATOM     79  O   UNL A   1      43.121  22.336  24.864  1.00  0.00    -0.237 OA
ATOM     80  O   UNL A   1      43.004  22.015  27.305  1.00  0.00    -0.237 OA
ATOM     81  O   UNL A   1      40.949  22.448  26.038  1.00  0.00    -0.744 OA
ENDBRANCH  75  78
ENDBRANCH  47  71
BRANCH  59  82
ATOM     82  C   UNL A   1      44.792  27.302  34.173  1.00  0.00     0.023 A 
ATOM     83  C   UNL A   1      46.014  28.003  34.166  1.00  0.00     0.012 A 
ATOM     84  C   UNL A   1      44.661  26.144  34.963  1.00  0.00     0.148 A 
ATOM     85  C   UNL A   1      47.096  27.544  34.914  1.00  0.00     0.002 A 
ATOM     86  C   UNL A   1      45.729  25.718  35.743  1.00  0.00     0.091 A 
ATOM     87  F   UNL A   1      43.495  25.480  34.939  1.00  0.00    -0.205 F 
ATOM     88  C   UNL A   1      46.951  26.411  35.712  1.00  0.00     0.022 A 
BRANCH  86  89
ATOM     89  S   UNL A   1      45.597  24.329  36.872  1.00  0.00     0.127 S 
ATOM     90  O   UNL A   1      45.199  23.249  35.971  1.00  0.00    -0.237 OA
ATOM     91  O   UNL A   1      46.961  24.218  37.393  1.00  0.00    -0.237 OA
ATOM     92  O   UNL A   1      44.605  24.714  37.866  1.00  0.00    -0.744 OA
ENDBRANCH  86  89
ENDBRANCH  59  82
ENDBRANCH  33  34
ENDBRANCH  25  28
ENDBRANCH   1  24
TORSDOF 14
ENDMDL
MODEL 3
REMARK VINA RESULT:     -13.1      2.726      3.624
REMARK SMILES O=C(NCCCNC(=O)c1ccc(-c2c3nc(c(-c4cccc(S(=O)(=O)[O-])c4F)c4ccc([nH]4)c(-c4cccc(S(=O)(=O)[O-])c4F)c4nc(c(-c5cccc(S(=O)(=O)[O-])c5F)c5ccc2[nH]5)C=C4)C=C3)cc1)C1=Cc2c(Cl)cc(Cl)cc2O[C@@H]1C(F)(F)F
REMARK SMILES IDX 6 1 5 2 4 3 3 4 1 5 2 6 73 8 74 9 84 10 75 11 83 12 76 13
REMARK SMILES IDX 82 14 77 15 78 16 81 17 79 18 80 19 85 20 86 21 87 22 88 23
REMARK SMILES IDX 7 24 8 25 9 27 10 28 11 29 72 30 12 31 71 32 13 33 14 34
REMARK SMILES IDX 15 35 65 36 16 37 70 38 64 39 66 40 17 41 69 42 63 43 62 44
REMARK SMILES IDX 18 46 50 47 30 48 49 49 31 50 34 51 48 52 67 53 32 54 33 55
REMARK SMILES IDX 47 57 68 58 35 59 19 60 20 61 28 62 21 63 23 64 29 65 22 66
REMARK SMILES IDX 24 67 25 68 26 69 27 70 51 71 52 72 60 73 53 74 55 75 61 76
REMARK SMILES IDX 54 77 56 78 57 79 58 80 59 81 36 82 37 83 45 84 38 85 40 86
REMARK SMILES IDX 46 87 39 88 41 89 42 90 43 91 44 92
REMARK H PARENT 3 7 7 26 66 45 34 56
REMARK Flexibility Score: inf
ROOT
ATOM      1  C   UNL A   1      33.047  29.901  26.034  1.00  0.00     0.118 C 
ENDROOT
BRANCH   1   2
ATOM      2  C   UNL A   1      31.796  29.033  26.112  1.00  0.00     0.042 C 
BRANCH   2   3
ATOM      3  C   UNL A   1      32.055  27.701  26.807  1.00  0.00     0.118 C 
BRANCH   3   4
ATOM      4  N   UNL A   1      30.922  26.775  26.743  1.00  0.00    -0.352 N 
ATOM      5  O   UNL A   1      29.921  24.745  26.526  1.00  0.00    -0.270 OA
ATOM      6  C   UNL A   1      30.871  25.478  26.290  1.00  0.00     0.251 C 
ATOM      7  H   UNL A   1      30.067  27.135  27.074  1.00  0.00     0.163 HD
BRANCH   6   8
ATOM      8  C   UNL A   1      32.054  24.985  25.561  1.00  0.00     0.067 C 
ATOM      9  C   UNL A   1      32.794  24.069  26.197  1.00  0.00     0.027 C 
ATOM     10  C   UNL A   1      32.085  25.198  24.085  1.00  0.00     0.314 C 
ATOM     11  C   UNL A   1      33.163  22.906  25.373  1.00  0.00     0.036 A 
ATOM     12  O   UNL A   1      32.219  23.955  23.352  1.00  0.00    -0.475 OA
ATOM     13  C   UNL A   1      33.557  21.702  25.986  1.00  0.00     0.053 A 
ATOM     14  C   UNL A   1      32.713  22.870  24.036  1.00  0.00     0.130 A 
ATOM     15  Cl  UNL A   1      34.155  21.646  27.608  1.00  0.00    -0.083 Cl
ATOM     16  C   UNL A   1      33.365  20.484  25.332  1.00  0.00     0.042 A 
ATOM     17  C   UNL A   1      32.553  21.651  23.377  1.00  0.00     0.067 A 
ATOM     18  C   UNL A   1      32.832  20.465  24.047  1.00  0.00     0.046 A 
ATOM     19  Cl  UNL A   1      32.440  18.963  23.309  1.00  0.00    -0.084 Cl
BRANCH  10  20
ATOM     20  C   UNL A   1      33.181  26.193  23.672  1.00  0.00     0.429 C 
ATOM     21  F   UNL A   1      33.818  25.770  22.550  1.00  0.00    -0.167 F 
ATOM     22  F   UNL A   1      32.682  27.418  23.392  1.00  0.00    -0.167 F 
ATOM     23  F   UNL A   1      34.125  26.348  24.629  1.00  0.00    -0.167 F 
ENDBRANCH  10  20
ENDBRANCH   6   8
ENDBRANCH   3   4
ENDBRANCH   2   3
ENDBRANCH   1   2
BRANCH   1  24
ATOM     24  N   UNL A   1      32.884  31.232  26.617  1.00  0.00    -0.352 N 
ATOM     25  C   UNL A   1      33.688  31.920  27.500  1.00  0.00     0.251 C 
ATOM     26  H   UNL A   1      32.072  31.711  26.334  1.00  0.00     0.163 HD
ATOM     27  O   UNL A   1      33.324  33.018  27.919  1.00  0.00    -0.269 OA
BRANCH  25  28
ATOM     28  C   UNL A   1      34.962  31.332  27.972  1.00  0.00     0.039 A 
ATOM     29  C   UNL A   1      36.097  32.144  28.077  1.00  0.00     0.014 A 
ATOM     30  C   UNL A   1      35.035  29.991  28.343  1.00  0.00     0.014 A 
ATOM     31  C   UNL A   1      37.268  31.632  28.646  1.00  0.00     0.010 A 
ATOM     32  C   UNL A   1      36.155  29.523  29.018  1.00  0.00     0.010 A 
ATOM     33  C   UNL A   1      37.290  30.331  29.171  1.00  0.00    -0.014 A 
BRANCH  33  34
ATOM     34  C   UNL A   1      38.476  29.772  29.877  1.00  0.00     0.031 A 
ATOM     35  C   UNL A   1      38.827  30.273  31.255  1.00  0.00     0.074 A 
ATOM     36  C   UNL A   1      39.310  28.928  29.235  1.00  0.00     0.049 A 
ATOM     37  N   UNL A   1      39.901  30.051  31.968  1.00  0.00    -0.248 NA
ATOM     38  C   UNL A   1      37.868  31.190  31.896  1.00  0.00     0.031 C 
ATOM     39  C   UNL A   1      39.140  28.443  27.862  1.00  0.00     0.029 A 
ATOM     40  N   UNL A   1      40.491  28.356  29.640  1.00  0.00    -0.354 N 
ATOM     41  C   UNL A   1      39.779  30.853  33.097  1.00  0.00     0.074 A 
ATOM     42  C   UNL A   1      38.548  31.597  32.957  1.00  0.00     0.031 C 
ATOM     43  C   UNL A   1      40.170  27.643  27.545  1.00  0.00     0.029 A 
ATOM     44  C   UNL A   1      41.092  27.582  28.674  1.00  0.00     0.049 A 
ATOM     45  H   UNL A   1      40.872  28.488  30.539  1.00  0.00     0.167 HD
ATOM     46  C   UNL A   1      40.595  30.936  34.174  1.00  0.00     0.034 A 
ATOM     47  C   UNL A   1      42.257  26.905  28.693  1.00  0.00     0.034 A 
ATOM     48  C   UNL A   1      41.763  30.120  34.355  1.00  0.00     0.049 A 
ATOM     49  C   UNL A   1      43.092  26.928  29.945  1.00  0.00     0.074 A 
ATOM     50  C   UNL A   1      42.589  30.032  35.461  1.00  0.00     0.029 A 
ATOM     51  N   UNL A   1      42.264  29.240  33.408  1.00  0.00    -0.354 N 
ATOM     52  N   UNL A   1      42.876  27.571  31.068  1.00  0.00    -0.248 NA
ATOM     53  C   UNL A   1      44.311  26.105  29.950  1.00  0.00     0.031 C 
ATOM     54  C   UNL A   1      43.593  29.099  35.180  1.00  0.00     0.029 A 
ATOM     55  C   UNL A   1      43.384  28.599  33.904  1.00  0.00     0.049 A 
ATOM     56  H   UNL A   1      41.878  29.093  32.514  1.00  0.00     0.167 HD
ATOM     57  C   UNL A   1      43.910  27.204  31.922  1.00  0.00     0.074 A 
ATOM     58  C   UNL A   1      44.739  26.265  31.195  1.00  0.00     0.031 C 
ATOM     59  C   UNL A   1      44.160  27.620  33.189  1.00  0.00     0.034 A 
BRANCH  46  60
ATOM     60  C   UNL A   1      40.207  31.889  35.276  1.00  0.00     0.023 A 
ATOM     61  C   UNL A   1      40.833  33.150  35.357  1.00  0.00     0.012 A 
ATOM     62  C   UNL A   1      39.199  31.558  36.203  1.00  0.00     0.148 A 
ATOM     63  C   UNL A   1      40.497  34.049  36.368  1.00  0.00     0.002 A 
ATOM     64  C   UNL A   1      38.834  32.480  37.180  1.00  0.00     0.091 A 
ATOM     65  F   UNL A   1      38.627  30.348  36.126  1.00  0.00    -0.205 F 
ATOM     66  C   UNL A   1      39.491  33.718  37.272  1.00  0.00     0.022 A 
BRANCH  64  67
ATOM     67  S   UNL A   1      37.495  32.183  38.340  1.00  0.00     0.127 S 
ATOM     68  O   UNL A   1      38.061  32.703  39.583  1.00  0.00    -0.237 OA
ATOM     69  O   UNL A   1      36.414  32.993  37.777  1.00  0.00    -0.237 OA
ATOM     70  O   UNL A   1      37.253  30.747  38.312  1.00  0.00    -0.744 OA
ENDBRANCH  64  67
ENDBRANCH  46  60
BRANCH  47  71
ATOM     71  C   UNL A   1      42.658  26.077  27.519  1.00  0.00     0.023 A 
ATOM     72  C   UNL A   1      43.520  26.631  26.552  1.00  0.00     0.012 A 
ATOM     73  C   UNL A   1      42.227  24.744  27.370  1.00  0.00     0.148 A 
ATOM     74  C   UNL A   1      43.921  25.886  25.443  1.00  0.00     0.002 A 
ATOM     75  C   UNL A   1      42.674  23.989  26.290  1.00  0.00     0.091 A 
ATOM     76  F   UNL A   1      41.399  24.237  28.293  1.00  0.00    -0.205 F 
ATOM     77  C   UNL A   1      43.508  24.563  25.318  1.00  0.00     0.022 A 
BRANCH  75  78
ATOM     78  S   UNL A   1      42.299  22.240  26.118  1.00  0.00     0.127 S 
ATOM     79  O   UNL A   1      43.019  21.899  24.895  1.00  0.00    -0.237 OA
ATOM     80  O   UNL A   1      42.872  21.686  27.346  1.00  0.00    -0.237 OA
ATOM     81  O   UNL A   1      40.847  22.159  26.046  1.00  0.00    -0.744 OA
ENDBRANCH  75  78
ENDBRANCH  47  71
BRANCH  59  82
ATOM     82  C   UNL A   1      45.357  27.039  33.892  1.00  0.00     0.023 A 
ATOM     83  C   UNL A   1      46.592  27.713  33.840  1.00  0.00     0.012 A 
ATOM     84  C   UNL A   1      45.234  25.875  34.676  1.00  0.00     0.148 A 
ATOM     85  C   UNL A   1      47.695  27.223  34.536  1.00  0.00     0.002 A 
ATOM     86  C   UNL A   1      46.324  25.418  35.406  1.00  0.00     0.091 A 
ATOM     87  F   UNL A   1      44.053  25.237  34.695  1.00  0.00    -0.205 F 
ATOM     88  C   UNL A   1      47.559  26.085  35.329  1.00  0.00     0.022 A 
BRANCH  86  89
ATOM     89  S   UNL A   1      46.210  24.020  36.526  1.00  0.00     0.127 S 
ATOM     90  O   UNL A   1      45.934  22.921  35.603  1.00  0.00    -0.237 OA
ATOM     91  O   UNL A   1      47.544  23.991  37.128  1.00  0.00    -0.237 OA
ATOM     92  O   UNL A   1      45.138  24.341  37.458  1.00  0.00    -0.744 OA
ENDBRANCH  86  89
ENDBRANCH  59  82
ENDBRANCH  33  34
ENDBRANCH  25  28
ENDBRANCH   1  24
TORSDOF 14
ENDMDL
