MODEL 1
REMARK VINA RESULT:     -13.2      0.000      0.000
REMARK SMILES Cc1ccnc(C(=O)c2[nH]c3cc(F)ccc3c2CC(=O)NCCCNC(=O)c2ccc(-c3c4nc(c(-c5cccc(S(=O)(=O)[O-])c5F)c5ccc([nH]5)c(-c5cccc(S(=O)(=O)[O-])c5F)c5nc(c(-c6cccc(S(=O)(=O)[O-])c6F)c6ccc3[nH]6)C=C5)C=C4)cc2)c1
REMARK SMILES IDX 24 1 23 2 22 3 20 4 21 5 19 7 18 8 9 9 10 10 11 11 17 13
REMARK SMILES IDX 12 14 16 15 13 16 15 17 14 18 7 19 8 20 6 21 1 22 2 23 3 24
REMARK SMILES IDX 92 25 4 26 5 27 25 28 26 29 27 30 28 32 29 33 30 34 91 35
REMARK SMILES IDX 31 36 90 37 32 38 33 39 34 40 84 41 35 42 89 43 83 44 85 45
REMARK SMILES IDX 36 46 88 47 82 48 81 49 37 51 69 52 49 53 68 54 50 55 53 56
REMARK SMILES IDX 67 57 86 58 51 59 52 60 66 62 87 63 54 64 38 65 39 66 47 67
REMARK SMILES IDX 40 68 42 69 48 70 41 71 43 72 44 73 45 74 46 75 70 76 71 77
REMARK SMILES IDX 79 78 72 79 74 80 80 81 73 82 75 83 76 84 77 85 78 86 55 87
REMARK SMILES IDX 56 88 64 89 57 90 59 91 65 92 58 93 60 94 61 95 62 96 63 97
REMARK H PARENT 22 6 10 12 26 31 85 50 53 61
REMARK Flexibility Score: inf
ROOT
ATOM      1  C   UNL A   1      35.630  22.559  24.507  1.00  0.00     0.042 C 
ENDROOT
BRANCH   1   2
ATOM      2  C   UNL A   1      34.989  23.939  24.624  1.00  0.00     0.117 C 
BRANCH   2   3
ATOM      3  N   UNL A   1      34.541  24.482  23.356  1.00  0.00    -0.356 N 
ATOM      4  C   UNL A   1      33.752  25.567  23.103  1.00  0.00     0.224 C 
ATOM      5  O   UNL A   1      33.679  25.967  21.938  1.00  0.00    -0.275 OA
ATOM      6  H   UNL A   1      34.853  23.996  22.559  1.00  0.00     0.163 HD
BRANCH   4   7
ATOM      7  C   UNL A   1      33.099  26.347  24.234  1.00  0.00     0.138 C 
BRANCH   7   8
ATOM      8  C   UNL A   1      31.597  26.379  24.217  1.00  0.00    -0.002 A 
ATOM      9  C   UNL A   1      30.722  25.462  24.793  1.00  0.00     0.093 A 
ATOM     10  N   UNL A   1      29.442  25.933  24.602  1.00  0.00    -0.351 N 
ATOM     11  C   UNL A   1      29.454  27.047  23.797  1.00  0.00     0.049 A 
ATOM     12  H   UNL A   1      28.632  25.529  24.988  1.00  0.00     0.167 HD
ATOM     13  C   UNL A   1      30.790  27.346  23.528  1.00  0.00     0.004 A 
ATOM     14  C   UNL A   1      28.390  27.815  23.307  1.00  0.00     0.066 A 
ATOM     15  C   UNL A   1      31.078  28.466  22.715  1.00  0.00     0.013 A 
ATOM     16  C   UNL A   1      28.713  28.910  22.508  1.00  0.00     0.125 A 
ATOM     17  C   UNL A   1      30.028  29.239  22.211  1.00  0.00     0.040 A 
ATOM     18  F   UNL A   1      27.730  29.668  22.007  1.00  0.00    -0.207 F 
BRANCH   9  19
ATOM     19  C   UNL A   1      31.028  24.260  25.551  1.00  0.00     0.227 C 
ATOM     20  O   UNL A   1      30.908  24.239  26.774  1.00  0.00    -0.285 OA
BRANCH  19  21
ATOM     21  C   UNL A   1      31.510  23.034  24.808  1.00  0.00     0.113 A 
ATOM     22  C   UNL A   1      32.859  19.529  25.375  1.00  0.00     0.044 C 
ATOM     23  C   UNL A   1      32.371  20.783  24.713  1.00  0.00    -0.047 A 
ATOM     24  C   UNL A   1      32.358  20.881  23.322  1.00  0.00     0.023 A 
ATOM     25  C   UNL A   1      31.927  21.876  25.467  1.00  0.00     0.036 A 
ATOM     26  C   UNL A   1      31.915  22.059  22.745  1.00  0.00     0.112 A 
ATOM     27  N   UNL A   1      31.496  23.128  23.452  1.00  0.00    -0.253 NA
ENDBRANCH  19  21
ENDBRANCH   9  19
ENDBRANCH   7   8
ENDBRANCH   4   7
ENDBRANCH   2   3
ENDBRANCH   1   2
BRANCH   1  28
ATOM     28  C   UNL A   1      36.027  21.922  25.836  1.00  0.00     0.118 C 
BRANCH  28  29
ATOM     29  N   UNL A   1      37.048  20.891  25.688  1.00  0.00    -0.352 N 
ATOM     30  C   UNL A   1      38.414  20.966  25.788  1.00  0.00     0.251 C 
ATOM     31  H   UNL A   1      36.698  19.994  25.480  1.00  0.00     0.163 HD
ATOM     32  O   UNL A   1      39.089  19.992  25.455  1.00  0.00    -0.269 OA
BRANCH  30  33
ATOM     33  C   UNL A   1      39.093  22.193  26.272  1.00  0.00     0.039 A 
ATOM     34  C   UNL A   1      40.196  22.055  27.123  1.00  0.00     0.014 A 
ATOM     35  C   UNL A   1      38.625  23.469  25.948  1.00  0.00     0.014 A 
ATOM     36  C   UNL A   1      40.866  23.188  27.595  1.00  0.00     0.010 A 
ATOM     37  C   UNL A   1      39.324  24.599  26.378  1.00  0.00     0.010 A 
ATOM     38  C   UNL A   1      40.451  24.470  27.203  1.00  0.00    -0.014 A 
BRANCH  38  39
ATOM     39  C   UNL A   1      41.195  25.686  27.621  1.00  0.00     0.031 A 
ATOM     40  C   UNL A   1      40.514  26.760  28.422  1.00  0.00     0.074 A 
ATOM     41  C   UNL A   1      42.460  25.866  27.195  1.00  0.00     0.049 A 
ATOM     42  N   UNL A   1      40.979  27.925  28.798  1.00  0.00    -0.248 NA
ATOM     43  C   UNL A   1      39.127  26.502  28.840  1.00  0.00     0.031 C 
ATOM     44  C   UNL A   1      43.211  24.930  26.358  1.00  0.00     0.029 A 
ATOM     45  N   UNL A   1      43.327  26.916  27.381  1.00  0.00    -0.354 N 
ATOM     46  C   UNL A   1      39.932  28.554  29.460  1.00  0.00     0.074 A 
ATOM     47  C   UNL A   1      38.805  27.647  29.429  1.00  0.00     0.031 C 
ATOM     48  C   UNL A   1      44.421  25.448  26.095  1.00  0.00     0.029 A 
ATOM     49  C   UNL A   1      44.526  26.762  26.725  1.00  0.00     0.049 A 
ATOM     50  H   UNL A   1      43.110  27.703  27.930  1.00  0.00     0.167 HD
ATOM     51  C   UNL A   1      39.918  29.766  30.064  1.00  0.00     0.034 A 
ATOM     52  C   UNL A   1      45.589  27.585  26.635  1.00  0.00     0.034 A 
ATOM     53  C   UNL A   1      41.055  30.641  30.158  1.00  0.00     0.049 A 
ATOM     54  C   UNL A   1      45.566  28.902  27.359  1.00  0.00     0.074 A 
ATOM     55  C   UNL A   1      41.163  31.843  30.836  1.00  0.00     0.029 A 
ATOM     56  N   UNL A   1      42.282  30.409  29.559  1.00  0.00    -0.354 N 
ATOM     57  N   UNL A   1      44.619  29.411  28.110  1.00  0.00    -0.248 NA
ATOM     58  C   UNL A   1      46.764  29.748  27.246  1.00  0.00     0.031 C 
ATOM     59  C   UNL A   1      42.460  32.334  30.653  1.00  0.00     0.029 A 
ATOM     60  C   UNL A   1      43.154  31.445  29.850  1.00  0.00     0.049 A 
ATOM     61  H   UNL A   1      42.503  29.623  29.008  1.00  0.00     0.167 HD
ATOM     62  C   UNL A   1      45.114  30.624  28.575  1.00  0.00     0.074 A 
ATOM     63  C   UNL A   1      46.451  30.766  28.038  1.00  0.00     0.031 C 
ATOM     64  C   UNL A   1      44.504  31.547  29.358  1.00  0.00     0.034 A 
BRANCH  51  65
ATOM     65  C   UNL A   1      38.648  30.183  30.749  1.00  0.00     0.023 A 
ATOM     66  C   UNL A   1      38.446  29.812  32.093  1.00  0.00     0.012 A 
ATOM     67  C   UNL A   1      37.687  30.978  30.097  1.00  0.00     0.148 A 
ATOM     68  C   UNL A   1      37.299  30.214  32.775  1.00  0.00     0.002 A 
ATOM     69  C   UNL A   1      36.556  31.395  30.792  1.00  0.00     0.091 A 
ATOM     70  F   UNL A   1      37.879  31.293  28.808  1.00  0.00    -0.205 F 
ATOM     71  C   UNL A   1      36.358  31.012  32.128  1.00  0.00     0.022 A 
BRANCH  69  72
ATOM     72  S   UNL A   1      35.333  32.468  30.029  1.00  0.00     0.127 S 
ATOM     73  O   UNL A   1      36.139  33.634  29.672  1.00  0.00    -0.237 OA
ATOM     74  O   UNL A   1      34.874  31.676  28.886  1.00  0.00    -0.237 OA
ATOM     75  O   UNL A   1      34.319  32.678  31.054  1.00  0.00    -0.744 OA
ENDBRANCH  69  72
ENDBRANCH  51  65
BRANCH  52  76
ATOM     76  C   UNL A   1      46.797  27.139  25.891  1.00  0.00     0.023 A 
ATOM     77  C   UNL A   1      47.631  26.163  26.466  1.00  0.00     0.012 A 
ATOM     78  C   UNL A   1      47.088  27.617  24.600  1.00  0.00     0.148 A 
ATOM     79  C   UNL A   1      48.742  25.679  25.772  1.00  0.00     0.002 A 
ATOM     80  C   UNL A   1      48.171  27.099  23.896  1.00  0.00     0.091 A 
ATOM     81  F   UNL A   1      46.298  28.564  24.071  1.00  0.00    -0.205 F 
ATOM     82  C   UNL A   1      49.004  26.136  24.482  1.00  0.00     0.022 A 
BRANCH  80  83
ATOM     83  S   UNL A   1      48.457  27.569  22.185  1.00  0.00     0.127 S 
ATOM     84  O   UNL A   1      49.609  28.457  22.299  1.00  0.00    -0.237 OA
ATOM     85  O   UNL A   1      48.734  26.286  21.538  1.00  0.00    -0.237 OA
ATOM     86  O   UNL A   1      47.203  28.182  21.765  1.00  0.00    -0.744 OA
ENDBRANCH  80  83
ENDBRANCH  52  76
BRANCH  64  87
ATOM     87  C   UNL A   1      45.268  32.798  29.685  1.00  0.00     0.023 A 
ATOM     88  C   UNL A   1      46.120  32.802  30.807  1.00  0.00     0.012 A 
ATOM     89  C   UNL A   1      45.217  33.928  28.849  1.00  0.00     0.148 A 
ATOM     90  C   UNL A   1      46.901  33.919  31.098  1.00  0.00     0.002 A 
ATOM     91  C   UNL A   1      46.021  35.029  29.129  1.00  0.00     0.091 A 
ATOM     92  F   UNL A   1      44.380  33.916  27.800  1.00  0.00    -0.205 F 
ATOM     93  C   UNL A   1      46.861  35.028  30.254  1.00  0.00     0.022 A 
BRANCH  91  94
ATOM     94  S   UNL A   1      46.063  36.455  28.037  1.00  0.00     0.127 S 
ATOM     95  O   UNL A   1      47.064  37.302  28.683  1.00  0.00    -0.237 OA
ATOM     96  O   UNL A   1      46.489  35.875  26.762  1.00  0.00    -0.237 OA
ATOM     97  O   UNL A   1      44.700  36.970  28.029  1.00  0.00    -0.744 OA
ENDBRANCH  91  94
ENDBRANCH  64  87
ENDBRANCH  38  39
ENDBRANCH  30  33
ENDBRANCH  28  29
ENDBRANCH   1  28
TORSDOF 16
ENDMDL
MODEL 2
REMARK VINA RESULT:     -13.1      5.836     10.858
REMARK SMILES Cc1ccnc(C(=O)c2[nH]c3cc(F)ccc3c2CC(=O)NCCCNC(=O)c2ccc(-c3c4nc(c(-c5cccc(S(=O)(=O)[O-])c5F)c5ccc([nH]5)c(-c5cccc(S(=O)(=O)[O-])c5F)c5nc(c(-c6cccc(S(=O)(=O)[O-])c6F)c6ccc3[nH]6)C=C5)C=C4)cc2)c1
REMARK SMILES IDX 24 1 23 2 22 3 20 4 21 5 19 7 18 8 9 9 10 10 11 11 17 13
REMARK SMILES IDX 12 14 16 15 13 16 15 17 14 18 7 19 8 20 6 21 1 22 2 23 3 24
REMARK SMILES IDX 92 25 4 26 5 27 25 28 26 29 27 30 28 32 29 33 30 34 91 35
REMARK SMILES IDX 31 36 90 37 32 38 33 39 34 40 84 41 35 42 89 43 83 44 85 45
REMARK SMILES IDX 36 46 88 47 82 48 81 49 37 51 69 52 49 53 68 54 50 55 53 56
REMARK SMILES IDX 67 57 86 58 51 59 52 60 66 62 87 63 54 64 38 65 39 66 47 67
REMARK SMILES IDX 40 68 42 69 48 70 41 71 43 72 44 73 45 74 46 75 70 76 71 77
REMARK SMILES IDX 79 78 72 79 74 80 80 81 73 82 75 83 76 84 77 85 78 86 55 87
REMARK SMILES IDX 56 88 64 89 57 90 59 91 65 92 58 93 60 94 61 95 62 96 63 97
REMARK H PARENT 22 6 10 12 26 31 85 50 53 61
REMARK Flexibility Score: inf
ROOT
ATOM      1  C   UNL A   1      31.408  31.964  26.785  1.00  0.00     0.042 C 
ENDROOT
BRANCH   1   2
ATOM      2  C   UNL A   1      31.593  30.681  25.979  1.00  0.00     0.117 C 
BRANCH   2   3
ATOM      3  N   UNL A   1      32.746  29.900  26.383  1.00  0.00    -0.356 N 
ATOM      4  C   UNL A   1      32.844  28.564  26.644  1.00  0.00     0.224 C 
ATOM      5  O   UNL A   1      33.975  28.082  26.762  1.00  0.00    -0.275 OA
ATOM      6  H   UNL A   1      33.582  30.410  26.483  1.00  0.00     0.163 HD
BRANCH   4   7
ATOM      7  C   UNL A   1      31.616  27.669  26.644  1.00  0.00     0.138 C 
BRANCH   7   8
ATOM      8  C   UNL A   1      31.552  26.653  25.539  1.00  0.00    -0.002 A 
ATOM      9  C   UNL A   1      31.385  26.892  24.177  1.00  0.00     0.093 A 
ATOM     10  N   UNL A   1      31.470  25.679  23.531  1.00  0.00    -0.351 N 
ATOM     11  C   UNL A   1      31.541  24.651  24.441  1.00  0.00     0.049 A 
ATOM     12  H   UNL A   1      31.480  25.563  22.553  1.00  0.00     0.167 HD
ATOM     13  C   UNL A   1      31.582  25.228  25.710  1.00  0.00     0.004 A 
ATOM     14  C   UNL A   1      31.589  23.267  24.234  1.00  0.00     0.066 A 
ATOM     15  C   UNL A   1      31.663  24.376  26.834  1.00  0.00     0.013 A 
ATOM     16  C   UNL A   1      31.667  22.458  25.366  1.00  0.00     0.125 A 
ATOM     17  C   UNL A   1      31.704  22.991  26.646  1.00  0.00     0.040 A 
ATOM     18  F   UNL A   1      31.705  21.128  25.219  1.00  0.00    -0.207 F 
BRANCH   9  19
ATOM     19  C   UNL A   1      31.238  28.161  23.483  1.00  0.00     0.227 C 
ATOM     20  O   UNL A   1      32.219  28.751  23.036  1.00  0.00    -0.285 OA
BRANCH  19  21
ATOM     21  C   UNL A   1      29.853  28.749  23.329  1.00  0.00     0.113 A 
ATOM     22  C   UNL A   1      28.021  32.070  23.119  1.00  0.00     0.044 C 
ATOM     23  C   UNL A   1      28.318  30.600  23.147  1.00  0.00    -0.047 A 
ATOM     24  C   UNL A   1      27.280  29.674  23.045  1.00  0.00     0.023 A 
ATOM     25  C   UNL A   1      29.628  30.126  23.278  1.00  0.00     0.036 A 
ATOM     26  C   UNL A   1      27.588  28.326  23.089  1.00  0.00     0.112 A 
ATOM     27  N   UNL A   1      28.841  27.848  23.230  1.00  0.00    -0.253 NA
ENDBRANCH  19  21
ENDBRANCH   9  19
ENDBRANCH   7   8
ENDBRANCH   4   7
ENDBRANCH   2   3
ENDBRANCH   1   2
BRANCH   1  28
ATOM     28  C   UNL A   1      32.705  32.616  27.258  1.00  0.00     0.118 C 
BRANCH  28  29
ATOM     29  N   UNL A   1      32.525  34.005  27.664  1.00  0.00    -0.352 N 
ATOM     30  C   UNL A   1      33.166  34.745  28.626  1.00  0.00     0.251 C 
ATOM     31  H   UNL A   1      31.829  34.491  27.166  1.00  0.00     0.163 HD
ATOM     32  O   UNL A   1      32.728  35.860  28.908  1.00  0.00    -0.269 OA
BRANCH  30  33
ATOM     33  C   UNL A   1      34.358  34.227  29.340  1.00  0.00     0.039 A 
ATOM     34  C   UNL A   1      34.171  33.558  30.556  1.00  0.00     0.014 A 
ATOM     35  C   UNL A   1      35.653  34.440  28.862  1.00  0.00     0.014 A 
ATOM     36  C   UNL A   1      35.269  33.049  31.256  1.00  0.00     0.010 A 
ATOM     37  C   UNL A   1      36.746  33.889  29.534  1.00  0.00     0.010 A 
ATOM     38  C   UNL A   1      36.565  33.187  30.735  1.00  0.00    -0.014 A 
BRANCH  38  39
ATOM     39  C   UNL A   1      37.740  32.584  31.415  1.00  0.00     0.031 A 
ATOM     40  C   UNL A   1      38.465  31.420  30.797  1.00  0.00     0.074 A 
ATOM     41  C   UNL A   1      38.095  33.024  32.637  1.00  0.00     0.049 A 
ATOM     42  N   UNL A   1      39.451  30.713  31.287  1.00  0.00    -0.248 NA
ATOM     43  C   UNL A   1      38.013  30.983  29.467  1.00  0.00     0.031 C 
ATOM     44  C   UNL A   1      37.433  34.101  33.372  1.00  0.00     0.029 A 
ATOM     45  N   UNL A   1      39.083  32.596  33.491  1.00  0.00    -0.354 N 
ATOM     46  C   UNL A   1      39.712  29.724  30.347  1.00  0.00     0.074 A 
ATOM     47  C   UNL A   1      38.775  29.917  29.260  1.00  0.00     0.031 C 
ATOM     48  C   UNL A   1      38.024  34.246  34.569  1.00  0.00     0.029 A 
ATOM     49  C   UNL A   1      39.093  33.259  34.696  1.00  0.00     0.049 A 
ATOM     50  H   UNL A   1      39.721  31.883  33.263  1.00  0.00     0.167 HD
ATOM     51  C   UNL A   1      40.662  28.760  30.371  1.00  0.00     0.034 A 
ATOM     52  C   UNL A   1      39.870  33.090  35.783  1.00  0.00     0.034 A 
ATOM     53  C   UNL A   1      41.638  28.607  31.415  1.00  0.00     0.049 A 
ATOM     54  C   UNL A   1      40.951  32.046  35.764  1.00  0.00     0.074 A 
ATOM     55  C   UNL A   1      42.701  27.722  31.478  1.00  0.00     0.029 A 
ATOM     56  N   UNL A   1      41.675  29.357  32.579  1.00  0.00    -0.354 N 
ATOM     57  N   UNL A   1      41.281  31.222  34.799  1.00  0.00    -0.248 NA
ATOM     58  C   UNL A   1      41.786  31.924  36.969  1.00  0.00     0.031 C 
ATOM     59  C   UNL A   1      43.386  27.944  32.677  1.00  0.00     0.029 A 
ATOM     60  C   UNL A   1      42.740  28.957  33.367  1.00  0.00     0.049 A 
ATOM     61  H   UNL A   1      41.037  30.071  32.812  1.00  0.00     0.167 HD
ATOM     62  C   UNL A   1      42.371  30.500  35.271  1.00  0.00     0.074 A 
ATOM     63  C   UNL A   1      42.659  30.996  36.600  1.00  0.00     0.031 C 
ATOM     64  C   UNL A   1      43.054  29.499  34.664  1.00  0.00     0.034 A 
BRANCH  51  65
ATOM     65  C   UNL A   1      40.746  27.841  29.186  1.00  0.00     0.023 A 
ATOM     66  C   UNL A   1      39.910  26.708  29.143  1.00  0.00     0.012 A 
ATOM     67  C   UNL A   1      41.599  28.116  28.100  1.00  0.00     0.148 A 
ATOM     68  C   UNL A   1      39.931  25.853  28.043  1.00  0.00     0.002 A 
ATOM     69  C   UNL A   1      41.596  27.271  26.995  1.00  0.00     0.091 A 
ATOM     70  F   UNL A   1      42.412  29.180  28.172  1.00  0.00    -0.205 F 
ATOM     71  C   UNL A   1      40.766  26.139  26.965  1.00  0.00     0.022 A 
BRANCH  69  72
ATOM     72  S   UNL A   1      42.611  27.614  25.553  1.00  0.00     0.127 S 
ATOM     73  O   UNL A   1      42.341  26.449  24.712  1.00  0.00    -0.237 OA
ATOM     74  O   UNL A   1      42.046  28.868  25.050  1.00  0.00    -0.237 OA
ATOM     75  O   UNL A   1      43.970  27.736  26.064  1.00  0.00    -0.744 OA
ENDBRANCH  69  72
ENDBRANCH  51  65
BRANCH  52  76
ATOM     76  C   UNL A   1      39.698  33.995  36.952  1.00  0.00     0.023 A 
ATOM     77  C   UNL A   1      40.080  35.344  36.832  1.00  0.00     0.012 A 
ATOM     78  C   UNL A   1      39.103  33.553  38.147  1.00  0.00     0.148 A 
ATOM     79  C   UNL A   1      39.879  36.235  37.887  1.00  0.00     0.002 A 
ATOM     80  C   UNL A   1      38.866  34.456  39.179  1.00  0.00     0.091 A 
ATOM     81  F   UNL A   1      38.764  32.259  38.258  1.00  0.00    -0.205 F 
ATOM     82  C   UNL A   1      39.261  35.796  39.055  1.00  0.00     0.022 A 
BRANCH  80  83
ATOM     83  S   UNL A   1      37.952  33.952  40.642  1.00  0.00     0.127 S 
ATOM     84  O   UNL A   1      36.779  33.303  40.064  1.00  0.00    -0.237 OA
ATOM     85  O   UNL A   1      38.886  33.045  41.312  1.00  0.00    -0.237 OA
ATOM     86  O   UNL A   1      37.715  35.195  41.366  1.00  0.00    -0.744 OA
ENDBRANCH  80  83
ENDBRANCH  52  76
BRANCH  64  87
ATOM     87  C   UNL A   1      44.183  28.865  35.426  1.00  0.00     0.023 A 
ATOM     88  C   UNL A   1      45.481  29.395  35.289  1.00  0.00     0.012 A 
ATOM     89  C   UNL A   1      43.955  27.814  36.334  1.00  0.00     0.148 A 
ATOM     90  C   UNL A   1      46.538  28.881  36.037  1.00  0.00     0.002 A 
ATOM     91  C   UNL A   1      45.011  27.325  37.099  1.00  0.00     0.091 A 
ATOM     92  F   UNL A   1      42.719  27.304  36.433  1.00  0.00    -0.205 F 
ATOM     93  C   UNL A   1      46.302  27.854  36.950  1.00  0.00     0.022 A 
BRANCH  91  94
ATOM     94  S   UNL A   1      44.750  26.053  38.341  1.00  0.00     0.127 S 
ATOM     95  O   UNL A   1      44.444  24.885  37.518  1.00  0.00    -0.237 OA
ATOM     96  O   UNL A   1      46.046  25.994  39.022  1.00  0.00    -0.237 OA
ATOM     97  O   UNL A   1      43.664  26.551  39.175  1.00  0.00    -0.744 OA
ENDBRANCH  91  94
ENDBRANCH  64  87
ENDBRANCH  38  39
ENDBRANCH  30  33
ENDBRANCH  28  29
ENDBRANCH   1  28
TORSDOF 16
ENDMDL
MODEL 3
REMARK VINA RESULT:     -13.0      5.054      7.681
REMARK SMILES Cc1ccnc(C(=O)c2[nH]c3cc(F)ccc3c2CC(=O)NCCCNC(=O)c2ccc(-c3c4nc(c(-c5cccc(S(=O)(=O)[O-])c5F)c5ccc([nH]5)c(-c5cccc(S(=O)(=O)[O-])c5F)c5nc(c(-c6cccc(S(=O)(=O)[O-])c6F)c6ccc3[nH]6)C=C5)C=C4)cc2)c1
REMARK SMILES IDX 24 1 23 2 22 3 20 4 21 5 19 7 18 8 9 9 10 10 11 11 17 13
REMARK SMILES IDX 12 14 16 15 13 16 15 17 14 18 7 19 8 20 6 21 1 22 2 23 3 24
REMARK SMILES IDX 92 25 4 26 5 27 25 28 26 29 27 30 28 32 29 33 30 34 91 35
REMARK SMILES IDX 31 36 90 37 32 38 33 39 34 40 84 41 35 42 89 43 83 44 85 45
REMARK SMILES IDX 36 46 88 47 82 48 81 49 37 51 69 52 49 53 68 54 50 55 53 56
REMARK SMILES IDX 67 57 86 58 51 59 52 60 66 62 87 63 54 64 38 65 39 66 47 67
REMARK SMILES IDX 40 68 42 69 48 70 41 71 43 72 44 73 45 74 46 75 70 76 71 77
REMARK SMILES IDX 79 78 72 79 74 80 80 81 73 82 75 83 76 84 77 85 78 86 55 87
REMARK SMILES IDX 56 88 64 89 57 90 59 91 65 92 58 93 60 94 61 95 62 96 63 97
REMARK H PARENT 22 6 10 12 26 31 85 50 53 61
REMARK Flexibility Score: inf
ROOT
ATOM      1  C   UNL A   1      32.783  27.616  26.929  1.00  0.00     0.042 C 
ENDROOT
BRANCH   1   2
ATOM      2  C   UNL A   1      32.389  26.413  26.077  1.00  0.00     0.117 C 
BRANCH   2   3
ATOM      3  N   UNL A   1      31.976  25.260  26.853  1.00  0.00    -0.356 N 
ATOM      4  C   UNL A   1      32.120  23.930  26.581  1.00  0.00     0.224 C 
ATOM      5  O   UNL A   1      31.883  23.128  27.489  1.00  0.00    -0.275 OA
ATOM      6  H   UNL A   1      31.525  25.468  27.703  1.00  0.00     0.163 HD
BRANCH   4   7
ATOM      7  C   UNL A   1      32.691  23.455  25.255  1.00  0.00     0.138 C 
BRANCH   7   8
ATOM      8  C   UNL A   1      33.851  22.504  25.351  1.00  0.00    -0.002 A 
ATOM      9  C   UNL A   1      33.812  21.112  25.311  1.00  0.00     0.093 A 
ATOM     10  N   UNL A   1      35.113  20.661  25.349  1.00  0.00    -0.351 N 
ATOM     11  C   UNL A   1      35.980  21.706  25.558  1.00  0.00     0.049 A 
ATOM     12  H   UNL A   1      35.384  19.721  25.241  1.00  0.00     0.167 HD
ATOM     13  C   UNL A   1      35.219  22.875  25.576  1.00  0.00     0.004 A 
ATOM     14  C   UNL A   1      37.372  21.703  25.714  1.00  0.00     0.066 A 
ATOM     15  C   UNL A   1      35.883  24.107  25.772  1.00  0.00     0.013 A 
ATOM     16  C   UNL A   1      37.992  22.937  25.906  1.00  0.00     0.125 A 
ATOM     17  C   UNL A   1      37.271  24.122  25.937  1.00  0.00     0.040 A 
ATOM     18  F   UNL A   1      39.320  22.984  26.070  1.00  0.00    -0.207 F 
BRANCH   9  19
ATOM     19  C   UNL A   1      32.664  20.234  25.163  1.00  0.00     0.227 C 
ATOM     20  O   UNL A   1      31.525  20.647  25.368  1.00  0.00    -0.285 OA
BRANCH  19  21
ATOM     21  C   UNL A   1      32.896  18.794  24.761  1.00  0.00     0.113 A 
ATOM     22  C   UNL A   1      32.484  15.234  26.019  1.00  0.00     0.044 C 
ATOM     23  C   UNL A   1      32.807  16.417  25.155  1.00  0.00    -0.047 A 
ATOM     24  C   UNL A   1      33.377  16.229  23.896  1.00  0.00     0.023 A 
ATOM     25  C   UNL A   1      32.551  17.723  25.588  1.00  0.00     0.036 A 
ATOM     26  C   UNL A   1      33.675  17.344  23.131  1.00  0.00     0.112 A 
ATOM     27  N   UNL A   1      33.451  18.610  23.534  1.00  0.00    -0.253 NA
ENDBRANCH  19  21
ENDBRANCH   9  19
ENDBRANCH   7   8
ENDBRANCH   4   7
ENDBRANCH   2   3
ENDBRANCH   1   2
BRANCH   1  28
ATOM     28  C   UNL A   1      33.820  28.540  26.294  1.00  0.00     0.118 C 
BRANCH  28  29
ATOM     29  N   UNL A   1      33.737  29.908  26.790  1.00  0.00    -0.352 N 
ATOM     30  C   UNL A   1      34.558  30.600  27.645  1.00  0.00     0.251 C 
ATOM     31  H   UNL A   1      32.965  30.420  26.455  1.00  0.00     0.163 HD
ATOM     32  O   UNL A   1      34.196  31.703  28.055  1.00  0.00    -0.269 OA
BRANCH  30  33
ATOM     33  C   UNL A   1      35.857  30.045  28.095  1.00  0.00     0.039 A 
ATOM     34  C   UNL A   1      36.960  30.145  27.238  1.00  0.00     0.014 A 
ATOM     35  C   UNL A   1      35.991  29.381  29.317  1.00  0.00     0.014 A 
ATOM     36  C   UNL A   1      38.203  29.640  27.629  1.00  0.00     0.010 A 
ATOM     37  C   UNL A   1      37.243  28.921  29.730  1.00  0.00     0.010 A 
ATOM     38  C   UNL A   1      38.361  29.048  28.892  1.00  0.00    -0.014 A 
BRANCH  38  39
ATOM     39  C   UNL A   1      39.688  28.579  29.367  1.00  0.00     0.031 A 
ATOM     40  C   UNL A   1      40.416  29.320  30.452  1.00  0.00     0.074 A 
ATOM     41  C   UNL A   1      40.281  27.538  28.750  1.00  0.00     0.049 A 
ATOM     42  N   UNL A   1      41.617  29.109  30.929  1.00  0.00    -0.248 NA
ATOM     43  C   UNL A   1      39.715  30.457  31.071  1.00  0.00     0.031 C 
ATOM     44  C   UNL A   1      39.708  26.776  27.641  1.00  0.00     0.029 A 
ATOM     45  N   UNL A   1      41.513  26.963  28.949  1.00  0.00    -0.354 N 
ATOM     46  C   UNL A   1      41.831  30.107  31.872  1.00  0.00     0.074 A 
ATOM     47  C   UNL A   1      40.639  30.929  31.896  1.00  0.00     0.031 C 
ATOM     48  C   UNL A   1      40.587  25.839  27.250  1.00  0.00     0.029 A 
ATOM     49  C   UNL A   1      41.794  25.947  28.065  1.00  0.00     0.049 A 
ATOM     50  H   UNL A   1      42.134  27.251  29.655  1.00  0.00     0.167 HD
ATOM     51  C   UNL A   1      42.909  30.304  32.667  1.00  0.00     0.034 A 
ATOM     52  C   UNL A   1      42.900  25.190  27.922  1.00  0.00     0.034 A 
ATOM     53  C   UNL A   1      44.065  29.451  32.697  1.00  0.00     0.049 A 
ATOM     54  C   UNL A   1      44.062  25.398  28.852  1.00  0.00     0.074 A 
ATOM     55  C   UNL A   1      45.162  29.516  33.539  1.00  0.00     0.029 A 
ATOM     56  N   UNL A   1      44.275  28.375  31.849  1.00  0.00    -0.354 N 
ATOM     57  N   UNL A   1      44.182  26.250  29.842  1.00  0.00    -0.248 NA
ATOM     58  C   UNL A   1      45.232  24.525  28.666  1.00  0.00     0.031 C 
ATOM     59  C   UNL A   1      46.032  28.472  33.205  1.00  0.00     0.029 A 
ATOM     60  C   UNL A   1      45.483  27.768  32.146  1.00  0.00     0.049 A 
ATOM     61  H   UNL A   1      43.656  28.085  31.140  1.00  0.00     0.167 HD
ATOM     62  C   UNL A   1      45.427  26.002  30.408  1.00  0.00     0.074 A 
ATOM     63  C   UNL A   1      46.017  24.909  29.665  1.00  0.00     0.031 C 
ATOM     64  C   UNL A   1      46.034  26.642  31.437  1.00  0.00     0.034 A 
BRANCH  51  65
ATOM     65  C   UNL A   1      42.852  31.450  33.638  1.00  0.00     0.023 A 
ATOM     66  C   UNL A   1      43.301  32.719  33.220  1.00  0.00     0.012 A 
ATOM     67  C   UNL A   1      42.314  31.295  34.929  1.00  0.00     0.148 A 
ATOM     68  C   UNL A   1      43.227  33.814  34.078  1.00  0.00     0.002 A 
ATOM     69  C   UNL A   1      42.222  32.399  35.770  1.00  0.00     0.091 A 
ATOM     70  F   UNL A   1      41.923  30.074  35.322  1.00  0.00    -0.205 F 
ATOM     71  C   UNL A   1      42.680  33.657  35.349  1.00  0.00     0.022 A 
BRANCH  69  72
ATOM     72  S   UNL A   1      41.478  32.272  37.402  1.00  0.00     0.127 S 
ATOM     73  O   UNL A   1      42.316  31.255  38.034  1.00  0.00    -0.237 OA
ATOM     74  O   UNL A   1      41.651  33.621  37.943  1.00  0.00    -0.237 OA
ATOM     75  O   UNL A   1      40.091  31.900  37.159  1.00  0.00    -0.744 OA
ENDBRANCH  69  72
ENDBRANCH  51  65
BRANCH  52  76
ATOM     76  C   UNL A   1      42.917  24.109  26.901  1.00  0.00     0.023 A 
ATOM     77  C   UNL A   1      43.596  24.328  25.688  1.00  0.00     0.012 A 
ATOM     78  C   UNL A   1      42.331  22.853  27.144  1.00  0.00     0.148 A 
ATOM     79  C   UNL A   1      43.682  23.316  24.730  1.00  0.00     0.002 A 
ATOM     80  C   UNL A   1      42.458  21.835  26.204  1.00  0.00     0.091 A 
ATOM     81  F   UNL A   1      41.667  22.665  28.295  1.00  0.00    -0.205 F 
ATOM     82  C   UNL A   1      43.126  22.066  24.993  1.00  0.00     0.022 A 
BRANCH  80  83
ATOM     83  S   UNL A   1      41.869  20.177  26.568  1.00  0.00     0.127 S 
ATOM     84  O   UNL A   1      42.340  19.422  25.411  1.00  0.00    -0.237 OA
ATOM     85  O   UNL A   1      42.549  19.859  27.825  1.00  0.00    -0.237 OA
ATOM     86  O   UNL A   1      40.425  20.329  26.701  1.00  0.00    -0.744 OA
ENDBRANCH  80  83
ENDBRANCH  52  76
BRANCH  64  87
ATOM     87  C   UNL A   1      47.411  26.184  31.826  1.00  0.00     0.023 A 
ATOM     88  C   UNL A   1      48.523  26.694  31.127  1.00  0.00     0.012 A 
ATOM     89  C   UNL A   1      47.615  25.327  32.924  1.00  0.00     0.148 A 
ATOM     90  C   UNL A   1      49.818  26.348  31.509  1.00  0.00     0.002 A 
ATOM     91  C   UNL A   1      48.912  25.010  33.317  1.00  0.00     0.091 A 
ATOM     92  F   UNL A   1      46.545  24.830  33.562  1.00  0.00    -0.205 F 
ATOM     93  C   UNL A   1      50.014  25.516  32.610  1.00  0.00     0.022 A 
BRANCH  91  94
ATOM     94  S   UNL A   1      49.225  24.001  34.771  1.00  0.00     0.127 S 
ATOM     95  O   UNL A   1      48.670  22.710  34.369  1.00  0.00    -0.237 OA
ATOM     96  O   UNL A   1      50.686  24.028  34.877  1.00  0.00    -0.237 OA
ATOM     97  O   UNL A   1      48.539  24.681  35.862  1.00  0.00    -0.744 OA
ENDBRANCH  91  94
ENDBRANCH  64  87
ENDBRANCH  38  39
ENDBRANCH  30  33
ENDBRANCH  28  29
ENDBRANCH   1  28
TORSDOF 16
ENDMDL
