MODEL 1
REMARK VINA RESULT:     -12.9      0.000      0.000
REMARK SMILES Cc1ccc(Nc2c(C)cccc2Cl)c(CC(=O)NCCCNC(=O)c2ccc(-c3c4nc(c(-c5cccc(S(=O)(=O)[O-])c5F)c5ccc([nH]5)c(-c5cccc(S(=O)(=O)[O-])c5F)c5nc(c(-c6cccc(S(=O)(=O)[O-])c6F)c6ccc3[nH]6)C=C5)C=C4)cc2)c1
REMARK SMILES IDX 21 1 20 2 19 3 17 4 18 5 16 7 15 8 1 9 2 10 3 11 89 12 4 13
REMARK SMILES IDX 5 14 6 15 7 17 8 18 13 19 9 20 10 21 12 22 14 23 11 24 22 25
REMARK SMILES IDX 23 26 24 27 25 29 26 30 27 31 88 32 28 33 87 34 29 35 30 36
REMARK SMILES IDX 31 37 81 38 32 39 86 40 80 41 82 42 33 43 85 44 79 45 78 46
REMARK SMILES IDX 34 48 66 49 46 50 65 51 47 52 50 53 64 54 83 55 48 56 49 57
REMARK SMILES IDX 63 59 84 60 51 61 35 62 36 63 44 64 37 65 39 66 45 67 38 68
REMARK SMILES IDX 40 69 41 70 42 71 43 72 67 73 68 74 76 75 69 76 71 77 77 78
REMARK SMILES IDX 70 79 72 80 73 81 74 82 75 83 52 84 53 85 61 86 54 87 56 88
REMARK SMILES IDX 62 89 55 90 57 91 58 92 59 93 60 94
REMARK H PARENT 19 6 6 16 23 28 82 47 50 58
REMARK Flexibility Score: inf
ROOT
ATOM      1  C   UNL A   1      37.774  21.164  24.999  1.00  0.00     0.042 C 
ENDROOT
BRANCH   1   2
ATOM      2  C   UNL A   1      36.294  20.880  25.219  1.00  0.00     0.117 C 
BRANCH   2   3
ATOM      3  N   UNL A   1      35.791  21.437  26.464  1.00  0.00    -0.356 N 
ATOM      4  C   UNL A   1      34.640  22.134  26.700  1.00  0.00     0.224 C 
ATOM      5  O   UNL A   1      34.425  22.562  27.837  1.00  0.00    -0.275 OA
ATOM      6  H   UNL A   1      36.363  21.290  27.252  1.00  0.00     0.163 HD
BRANCH   4   7
ATOM      7  C   UNL A   1      33.638  22.406  25.586  1.00  0.00     0.137 C 
BRANCH   7   8
ATOM      8  C   UNL A   1      32.464  23.256  26.026  1.00  0.00    -0.015 A 
ATOM      9  C   UNL A   1      28.896  22.544  27.209  1.00  0.00     0.044 C 
ATOM     10  C   UNL A   1      30.139  23.276  26.798  1.00  0.00    -0.051 A 
ATOM     11  C   UNL A   1      30.097  24.651  26.587  1.00  0.00     0.005 A 
ATOM     12  C   UNL A   1      31.335  22.593  26.559  1.00  0.00     0.009 A 
ATOM     13  C   UNL A   1      31.229  25.329  26.131  1.00  0.00     0.026 A 
ATOM     14  C   UNL A   1      32.426  24.655  25.832  1.00  0.00     0.042 A 
BRANCH  14  15
ATOM     15  N   UNL A   1      33.564  25.367  25.390  1.00  0.00    -0.354 N 
ATOM     16  H   UNL A   1      34.420  25.099  25.795  1.00  0.00     0.167 HD
BRANCH  15  17
ATOM     17  C   UNL A   1      33.638  26.418  24.439  1.00  0.00     0.060 A 
ATOM     18  C   UNL A   1      33.727  27.775  24.829  1.00  0.00    -0.026 A 
ATOM     19  C   UNL A   1      33.526  26.121  23.062  1.00  0.00     0.064 A 
ATOM     20  C   UNL A   1      33.899  28.201  26.262  1.00  0.00     0.046 C 
ATOM     21  C   UNL A   1      33.652  28.784  23.849  1.00  0.00     0.005 A 
ATOM     22  C   UNL A   1      33.472  27.134  22.102  1.00  0.00     0.023 A 
ATOM     23  Cl  UNL A   1      33.409  24.483  22.514  1.00  0.00    -0.082 Cl
ATOM     24  C   UNL A   1      33.525  28.466  22.498  1.00  0.00     0.002 A 
ENDBRANCH  15  17
ENDBRANCH  14  15
ENDBRANCH   7   8
ENDBRANCH   4   7
ENDBRANCH   2   3
ENDBRANCH   1   2
BRANCH   1  25
ATOM     25  C   UNL A   1      38.317  22.373  25.736  1.00  0.00     0.118 C 
BRANCH  25  26
ATOM     26  N   UNL A   1      39.693  22.205  26.182  1.00  0.00    -0.352 N 
ATOM     27  C   UNL A   1      40.594  23.165  26.604  1.00  0.00     0.251 C 
ATOM     28  H   UNL A   1      40.027  21.279  26.184  1.00  0.00     0.163 HD
ATOM     29  O   UNL A   1      41.758  22.837  26.817  1.00  0.00    -0.269 OA
BRANCH  27  30
ATOM     30  C   UNL A   1      40.106  24.528  26.920  1.00  0.00     0.039 A 
ATOM     31  C   UNL A   1      40.730  25.606  26.278  1.00  0.00     0.014 A 
ATOM     32  C   UNL A   1      39.249  24.754  27.993  1.00  0.00     0.014 A 
ATOM     33  C   UNL A   1      40.718  26.860  26.880  1.00  0.00     0.010 A 
ATOM     34  C   UNL A   1      39.307  25.968  28.639  1.00  0.00     0.010 A 
ATOM     35  C   UNL A   1      40.110  26.990  28.124  1.00  0.00    -0.014 A 
BRANCH  35  36
ATOM     36  C   UNL A   1      40.296  28.116  29.021  1.00  0.00     0.031 A 
ATOM     37  C   UNL A   1      39.449  29.310  28.898  1.00  0.00     0.074 A 
ATOM     38  C   UNL A   1      41.102  27.954  30.094  1.00  0.00     0.049 A 
ATOM     39  N   UNL A   1      39.662  30.406  29.539  1.00  0.00    -0.248 NA
ATOM     40  C   UNL A   1      38.305  29.371  28.001  1.00  0.00     0.031 C 
ATOM     41  C   UNL A   1      41.127  28.746  31.318  1.00  0.00     0.029 A 
ATOM     42  N   UNL A   1      42.243  27.150  30.190  1.00  0.00    -0.354 N 
ATOM     43  C   UNL A   1      38.535  31.183  29.404  1.00  0.00     0.074 A 
ATOM     44  C   UNL A   1      37.800  30.564  28.329  1.00  0.00     0.031 C 
ATOM     45  C   UNL A   1      42.336  28.619  31.885  1.00  0.00     0.029 A 
ATOM     46  C   UNL A   1      43.169  27.907  30.933  1.00  0.00     0.049 A 
ATOM     47  H   UNL A   1      42.370  26.248  29.818  1.00  0.00     0.167 HD
ATOM     48  C   UNL A   1      38.309  32.154  30.337  1.00  0.00     0.034 A 
ATOM     49  C   UNL A   1      44.344  28.369  30.407  1.00  0.00     0.034 A 
ATOM     50  C   UNL A   1      39.503  32.353  31.187  1.00  0.00     0.049 A 
ATOM     51  C   UNL A   1      44.489  29.888  30.468  1.00  0.00     0.074 A 
ATOM     52  C   UNL A   1      39.850  32.061  32.496  1.00  0.00     0.029 A 
ATOM     53  N   UNL A   1      40.681  32.740  30.568  1.00  0.00    -0.354 N 
ATOM     54  N   UNL A   1      43.635  30.703  31.028  1.00  0.00    -0.248 NA
ATOM     55  C   UNL A   1      45.572  30.611  29.800  1.00  0.00     0.031 C 
ATOM     56  C   UNL A   1      41.260  32.259  32.642  1.00  0.00     0.029 A 
ATOM     57  C   UNL A   1      41.762  32.699  31.430  1.00  0.00     0.049 A 
ATOM     58  H   UNL A   1      40.741  33.012  29.625  1.00  0.00     0.167 HD
ATOM     59  C   UNL A   1      43.920  31.996  30.656  1.00  0.00     0.074 A 
ATOM     60  C   UNL A   1      45.172  31.887  29.927  1.00  0.00     0.031 C 
ATOM     61  C   UNL A   1      43.072  33.049  30.892  1.00  0.00     0.034 A 
BRANCH  48  62
ATOM     62  C   UNL A   1      36.963  32.801  30.648  1.00  0.00     0.023 A 
ATOM     63  C   UNL A   1      36.457  32.638  31.959  1.00  0.00     0.012 A 
ATOM     64  C   UNL A   1      36.103  33.477  29.749  1.00  0.00     0.148 A 
ATOM     65  C   UNL A   1      35.168  33.046  32.332  1.00  0.00     0.002 A 
ATOM     66  C   UNL A   1      34.811  33.871  30.110  1.00  0.00     0.091 A 
ATOM     67  F   UNL A   1      36.513  33.778  28.521  1.00  0.00    -0.205 F 
ATOM     68  C   UNL A   1      34.335  33.647  31.401  1.00  0.00     0.022 A 
BRANCH  66  69
ATOM     69  S   UNL A   1      33.668  34.633  28.939  1.00  0.00     0.127 S 
ATOM     70  O   UNL A   1      33.401  33.530  28.014  1.00  0.00    -0.237 OA
ATOM     71  O   UNL A   1      32.537  34.994  29.794  1.00  0.00    -0.237 OA
ATOM     72  O   UNL A   1      34.371  35.762  28.340  1.00  0.00    -0.744 OA
ENDBRANCH  66  69
ENDBRANCH  48  62
BRANCH  49  73
ATOM     73  C   UNL A   1      44.878  27.494  29.315  1.00  0.00     0.023 A 
ATOM     74  C   UNL A   1      45.262  26.178  29.673  1.00  0.00     0.012 A 
ATOM     75  C   UNL A   1      44.647  27.780  27.958  1.00  0.00     0.148 A 
ATOM     76  C   UNL A   1      45.260  25.147  28.731  1.00  0.00     0.002 A 
ATOM     77  C   UNL A   1      44.675  26.750  27.020  1.00  0.00     0.091 A 
ATOM     78  F   UNL A   1      44.332  29.032  27.604  1.00  0.00    -0.205 F 
ATOM     79  C   UNL A   1      44.931  25.427  27.410  1.00  0.00     0.022 A 
BRANCH  77  80
ATOM     80  S   UNL A   1      44.272  27.060  25.295  1.00  0.00     0.127 S 
ATOM     81  O   UNL A   1      45.543  27.569  24.788  1.00  0.00    -0.237 OA
ATOM     82  O   UNL A   1      43.904  25.731  24.810  1.00  0.00    -0.237 OA
ATOM     83  O   UNL A   1      43.166  28.005  25.341  1.00  0.00    -0.744 OA
ENDBRANCH  77  80
ENDBRANCH  49  73
BRANCH  61  84
ATOM     84  C   UNL A   1      43.389  34.501  30.550  1.00  0.00     0.023 A 
ATOM     85  C   UNL A   1      43.590  35.458  31.564  1.00  0.00     0.012 A 
ATOM     86  C   UNL A   1      43.382  34.993  29.215  1.00  0.00     0.148 A 
ATOM     87  C   UNL A   1      43.877  36.799  31.276  1.00  0.00     0.002 A 
ATOM     88  C   UNL A   1      43.610  36.337  28.932  1.00  0.00     0.091 A 
ATOM     89  F   UNL A   1      43.146  34.162  28.196  1.00  0.00    -0.205 F 
ATOM     90  C   UNL A   1      43.889  37.238  29.960  1.00  0.00     0.022 A 
BRANCH  88  91
ATOM     91  S   UNL A   1      43.499  37.013  27.266  1.00  0.00     0.127 S 
ATOM     92  O   UNL A   1      43.597  38.450  27.525  1.00  0.00    -0.237 OA
ATOM     93  O   UNL A   1      44.678  36.428  26.626  1.00  0.00    -0.237 OA
ATOM     94  O   UNL A   1      42.222  36.572  26.726  1.00  0.00    -0.744 OA
ENDBRANCH  88  91
ENDBRANCH  61  84
ENDBRANCH  35  36
ENDBRANCH  27  30
ENDBRANCH  25  26
ENDBRANCH   1  25
TORSDOF 16
ENDMDL
MODEL 2
REMARK VINA RESULT:     -12.7      1.271      2.028
REMARK SMILES Cc1ccc(Nc2c(C)cccc2Cl)c(CC(=O)NCCCNC(=O)c2ccc(-c3c4nc(c(-c5cccc(S(=O)(=O)[O-])c5F)c5ccc([nH]5)c(-c5cccc(S(=O)(=O)[O-])c5F)c5nc(c(-c6cccc(S(=O)(=O)[O-])c6F)c6ccc3[nH]6)C=C5)C=C4)cc2)c1
REMARK SMILES IDX 21 1 20 2 19 3 17 4 18 5 16 7 15 8 1 9 2 10 3 11 89 12 4 13
REMARK SMILES IDX 5 14 6 15 7 17 8 18 13 19 9 20 10 21 12 22 14 23 11 24 22 25
REMARK SMILES IDX 23 26 24 27 25 29 26 30 27 31 88 32 28 33 87 34 29 35 30 36
REMARK SMILES IDX 31 37 81 38 32 39 86 40 80 41 82 42 33 43 85 44 79 45 78 46
REMARK SMILES IDX 34 48 66 49 46 50 65 51 47 52 50 53 64 54 83 55 48 56 49 57
REMARK SMILES IDX 63 59 84 60 51 61 35 62 36 63 44 64 37 65 39 66 45 67 38 68
REMARK SMILES IDX 40 69 41 70 42 71 43 72 67 73 68 74 76 75 69 76 71 77 77 78
REMARK SMILES IDX 70 79 72 80 73 81 74 82 75 83 52 84 53 85 61 86 54 87 56 88
REMARK SMILES IDX 62 89 55 90 57 91 58 92 59 93 60 94
REMARK H PARENT 19 6 6 16 23 28 82 47 50 58
REMARK Flexibility Score: inf
ROOT
ATOM      1  C   UNL A   1      37.752  21.094  25.004  1.00  0.00     0.042 C 
ENDROOT
BRANCH   1   2
ATOM      2  C   UNL A   1      36.259  20.898  25.238  1.00  0.00     0.117 C 
BRANCH   2   3
ATOM      3  N   UNL A   1      35.709  21.843  26.197  1.00  0.00    -0.356 N 
ATOM      4  C   UNL A   1      34.483  21.853  26.799  1.00  0.00     0.224 C 
ATOM      5  O   UNL A   1      34.198  22.784  27.556  1.00  0.00    -0.275 OA
ATOM      6  H   UNL A   1      36.307  22.584  26.449  1.00  0.00     0.163 HD
BRANCH   4   7
ATOM      7  C   UNL A   1      33.465  20.751  26.537  1.00  0.00     0.137 C 
BRANCH   7   8
ATOM      8  C   UNL A   1      32.896  20.777  25.134  1.00  0.00    -0.015 A 
ATOM      9  C   UNL A   1      32.335  18.171  22.389  1.00  0.00     0.044 C 
ATOM     10  C   UNL A   1      32.379  19.479  23.121  1.00  0.00    -0.051 A 
ATOM     11  C   UNL A   1      32.155  20.668  22.431  1.00  0.00     0.005 A 
ATOM     12  C   UNL A   1      32.704  19.539  24.479  1.00  0.00     0.009 A 
ATOM     13  C   UNL A   1      32.270  21.896  23.087  1.00  0.00     0.026 A 
ATOM     14  C   UNL A   1      32.648  21.982  24.437  1.00  0.00     0.042 A 
BRANCH  14  15
ATOM     15  N   UNL A   1      32.738  23.236  25.084  1.00  0.00    -0.354 N 
ATOM     16  H   UNL A   1      33.493  23.343  25.706  1.00  0.00     0.167 HD
BRANCH  15  17
ATOM     17  C   UNL A   1      31.884  24.362  24.956  1.00  0.00     0.060 A 
ATOM     18  C   UNL A   1      32.213  25.460  24.128  1.00  0.00    -0.026 A 
ATOM     19  C   UNL A   1      30.714  24.443  25.745  1.00  0.00     0.064 A 
ATOM     20  C   UNL A   1      33.406  25.460  23.211  1.00  0.00     0.046 C 
ATOM     21  C   UNL A   1      31.402  26.611  24.149  1.00  0.00     0.005 A 
ATOM     22  C   UNL A   1      29.911  25.586  25.739  1.00  0.00     0.023 A 
ATOM     23  Cl  UNL A   1      30.253  23.138  26.785  1.00  0.00    -0.082 Cl
ATOM     24  C   UNL A   1      30.263  26.674  24.948  1.00  0.00     0.002 A 
ENDBRANCH  15  17
ENDBRANCH  14  15
ENDBRANCH   7   8
ENDBRANCH   4   7
ENDBRANCH   2   3
ENDBRANCH   1   2
BRANCH   1  25
ATOM     25  C   UNL A   1      38.342  22.353  25.611  1.00  0.00     0.118 C 
BRANCH  25  26
ATOM     26  N   UNL A   1      39.673  22.153  26.167  1.00  0.00    -0.352 N 
ATOM     27  C   UNL A   1      40.545  23.088  26.693  1.00  0.00     0.251 C 
ATOM     28  H   UNL A   1      39.996  21.224  26.169  1.00  0.00     0.163 HD
ATOM     29  O   UNL A   1      41.683  22.740  26.993  1.00  0.00    -0.269 OA
BRANCH  27  30
ATOM     30  C   UNL A   1      40.046  24.448  27.008  1.00  0.00     0.039 A 
ATOM     31  C   UNL A   1      40.627  25.526  26.329  1.00  0.00     0.014 A 
ATOM     32  C   UNL A   1      39.225  24.675  28.109  1.00  0.00     0.014 A 
ATOM     33  C   UNL A   1      40.617  26.788  26.913  1.00  0.00     0.010 A 
ATOM     34  C   UNL A   1      39.287  25.899  28.736  1.00  0.00     0.010 A 
ATOM     35  C   UNL A   1      40.053  26.926  28.177  1.00  0.00    -0.014 A 
BRANCH  35  36
ATOM     36  C   UNL A   1      40.254  28.068  29.052  1.00  0.00     0.031 A 
ATOM     37  C   UNL A   1      39.418  29.267  28.908  1.00  0.00     0.074 A 
ATOM     38  C   UNL A   1      41.062  27.919  30.124  1.00  0.00     0.049 A 
ATOM     39  N   UNL A   1      39.644  30.374  29.526  1.00  0.00    -0.248 NA
ATOM     40  C   UNL A   1      38.272  29.322  28.014  1.00  0.00     0.031 C 
ATOM     41  C   UNL A   1      41.100  28.735  31.332  1.00  0.00     0.029 A 
ATOM     42  N   UNL A   1      42.195  27.106  30.232  1.00  0.00    -0.354 N 
ATOM     43  C   UNL A   1      38.524  31.160  29.380  1.00  0.00     0.074 A 
ATOM     44  C   UNL A   1      37.780  30.526  28.320  1.00  0.00     0.031 C 
ATOM     45  C   UNL A   1      42.309  28.607  31.898  1.00  0.00     0.029 A 
ATOM     46  C   UNL A   1      43.132  27.868  30.957  1.00  0.00     0.049 A 
ATOM     47  H   UNL A   1      42.312  26.196  29.878  1.00  0.00     0.167 HD
ATOM     48  C   UNL A   1      38.312  32.150  30.294  1.00  0.00     0.034 A 
ATOM     49  C   UNL A   1      44.309  28.308  30.418  1.00  0.00     0.034 A 
ATOM     50  C   UNL A   1      39.510  32.354  31.136  1.00  0.00     0.049 A 
ATOM     51  C   UNL A   1      44.469  29.827  30.448  1.00  0.00     0.074 A 
ATOM     52  C   UNL A   1      39.859  32.085  32.449  1.00  0.00     0.029 A 
ATOM     53  N   UNL A   1      40.690  32.717  30.506  1.00  0.00    -0.354 N 
ATOM     54  N   UNL A   1      43.625  30.661  30.995  1.00  0.00    -0.248 NA
ATOM     55  C   UNL A   1      45.557  30.526  29.762  1.00  0.00     0.031 C 
ATOM     56  C   UNL A   1      41.271  32.272  32.586  1.00  0.00     0.029 A 
ATOM     57  C   UNL A   1      41.773  32.683  31.364  1.00  0.00     0.049 A 
ATOM     58  H   UNL A   1      40.749  32.970  29.557  1.00  0.00     0.167 HD
ATOM     59  C   UNL A   1      43.921  31.943  30.597  1.00  0.00     0.074 A 
ATOM     60  C   UNL A   1      45.170  31.808  29.866  1.00  0.00     0.031 C 
ATOM     61  C   UNL A   1      43.085  33.009  30.814  1.00  0.00     0.034 A 
BRANCH  48  62
ATOM     62  C   UNL A   1      36.972  32.817  30.597  1.00  0.00     0.023 A 
ATOM     63  C   UNL A   1      36.490  32.721  31.924  1.00  0.00     0.012 A 
ATOM     64  C   UNL A   1      36.098  33.450  29.681  1.00  0.00     0.148 A 
ATOM     65  C   UNL A   1      35.210  33.151  32.298  1.00  0.00     0.002 A 
ATOM     66  C   UNL A   1      34.814  33.866  30.046  1.00  0.00     0.091 A 
ATOM     67  F   UNL A   1      36.487  33.689  28.433  1.00  0.00    -0.205 F 
ATOM     68  C   UNL A   1      34.361  33.708  31.354  1.00  0.00     0.022 A 
BRANCH  66  69
ATOM     69  S   UNL A   1      33.652  34.574  28.859  1.00  0.00     0.127 S 
ATOM     70  O   UNL A   1      32.530  34.951  29.722  1.00  0.00    -0.237 OA
ATOM     71  O   UNL A   1      34.406  35.704  28.317  1.00  0.00    -0.237 OA
ATOM     72  O   UNL A   1      33.342  33.523  27.897  1.00  0.00    -0.744 OA
ENDBRANCH  66  69
ENDBRANCH  48  62
BRANCH  49  73
ATOM     73  C   UNL A   1      44.831  27.407  29.341  1.00  0.00     0.023 A 
ATOM     74  C   UNL A   1      45.206  26.096  29.725  1.00  0.00     0.012 A 
ATOM     75  C   UNL A   1      44.596  27.667  27.980  1.00  0.00     0.148 A 
ATOM     76  C   UNL A   1      45.191  25.045  28.805  1.00  0.00     0.002 A 
ATOM     77  C   UNL A   1      44.610  26.618  27.063  1.00  0.00     0.091 A 
ATOM     78  F   UNL A   1      44.289  28.914  27.602  1.00  0.00    -0.205 F 
ATOM     79  C   UNL A   1      44.857  25.301  27.480  1.00  0.00     0.022 A 
BRANCH  77  80
ATOM     80  S   UNL A   1      44.202  26.896  25.334  1.00  0.00     0.127 S 
ATOM     81  O   UNL A   1      45.513  27.210  24.774  1.00  0.00    -0.237 OA
ATOM     82  O   UNL A   1      43.651  25.605  24.925  1.00  0.00    -0.237 OA
ATOM     83  O   UNL A   1      43.229  27.978  25.357  1.00  0.00    -0.744 OA
ENDBRANCH  77  80
ENDBRANCH  49  73
BRANCH  61  84
ATOM     84  C   UNL A   1      43.414  34.451  30.443  1.00  0.00     0.023 A 
ATOM     85  C   UNL A   1      43.491  35.455  31.429  1.00  0.00     0.012 A 
ATOM     86  C   UNL A   1      43.543  34.884  29.094  1.00  0.00     0.148 A 
ATOM     87  C   UNL A   1      43.788  36.788  31.112  1.00  0.00     0.002 A 
ATOM     88  C   UNL A   1      43.780  36.219  28.776  1.00  0.00     0.091 A 
ATOM     89  F   UNL A   1      43.430  34.006  28.094  1.00  0.00    -0.205 F 
ATOM     90  C   UNL A   1      43.934  37.170  29.787  1.00  0.00     0.022 A 
BRANCH  88  91
ATOM     91  S   UNL A   1      43.837  36.820  27.079  1.00  0.00     0.127 S 
ATOM     92  O   UNL A   1      42.642  36.199  26.508  1.00  0.00    -0.237 OA
ATOM     93  O   UNL A   1      43.739  38.267  27.270  1.00  0.00    -0.237 OA
ATOM     94  O   UNL A   1      45.097  36.356  26.519  1.00  0.00    -0.744 OA
ENDBRANCH  88  91
ENDBRANCH  61  84
ENDBRANCH  35  36
ENDBRANCH  27  30
ENDBRANCH  25  26
ENDBRANCH   1  25
TORSDOF 16
ENDMDL
MODEL 3
REMARK VINA RESULT:     -12.5      2.044      3.125
REMARK SMILES Cc1ccc(Nc2c(C)cccc2Cl)c(CC(=O)NCCCNC(=O)c2ccc(-c3c4nc(c(-c5cccc(S(=O)(=O)[O-])c5F)c5ccc([nH]5)c(-c5cccc(S(=O)(=O)[O-])c5F)c5nc(c(-c6cccc(S(=O)(=O)[O-])c6F)c6ccc3[nH]6)C=C5)C=C4)cc2)c1
REMARK SMILES IDX 21 1 20 2 19 3 17 4 18 5 16 7 15 8 1 9 2 10 3 11 89 12 4 13
REMARK SMILES IDX 5 14 6 15 7 17 8 18 13 19 9 20 10 21 12 22 14 23 11 24 22 25
REMARK SMILES IDX 23 26 24 27 25 29 26 30 27 31 88 32 28 33 87 34 29 35 30 36
REMARK SMILES IDX 31 37 81 38 32 39 86 40 80 41 82 42 33 43 85 44 79 45 78 46
REMARK SMILES IDX 34 48 66 49 46 50 65 51 47 52 50 53 64 54 83 55 48 56 49 57
REMARK SMILES IDX 63 59 84 60 51 61 35 62 36 63 44 64 37 65 39 66 45 67 38 68
REMARK SMILES IDX 40 69 41 70 42 71 43 72 67 73 68 74 76 75 69 76 71 77 77 78
REMARK SMILES IDX 70 79 72 80 73 81 74 82 75 83 52 84 53 85 61 86 54 87 56 88
REMARK SMILES IDX 62 89 55 90 57 91 58 92 59 93 60 94
REMARK H PARENT 19 6 6 16 23 28 82 47 50 58
REMARK Flexibility Score: inf
ROOT
ATOM      1  C   UNL A   1      38.194  21.474  25.377  1.00  0.00     0.042 C 
ENDROOT
BRANCH   1   2
ATOM      2  C   UNL A   1      36.725  21.213  25.072  1.00  0.00     0.117 C 
BRANCH   2   3
ATOM      3  N   UNL A   1      36.171  22.154  24.112  1.00  0.00    -0.356 N 
ATOM      4  C   UNL A   1      35.377  23.245  24.327  1.00  0.00     0.224 C 
ATOM      5  O   UNL A   1      34.976  23.890  23.355  1.00  0.00    -0.275 OA
ATOM      6  H   UNL A   1      36.403  21.980  23.171  1.00  0.00     0.163 HD
BRANCH   4   7
ATOM      7  C   UNL A   1      34.968  23.661  25.733  1.00  0.00     0.137 C 
BRANCH   7   8
ATOM      8  C   UNL A   1      33.927  24.761  25.758  1.00  0.00    -0.015 A 
ATOM      9  C   UNL A   1      34.027  28.581  25.951  1.00  0.00     0.044 C 
ATOM     10  C   UNL A   1      33.515  27.173  25.886  1.00  0.00    -0.051 A 
ATOM     11  C   UNL A   1      32.165  26.915  26.107  1.00  0.00     0.005 A 
ATOM     12  C   UNL A   1      34.381  26.097  25.667  1.00  0.00     0.009 A 
ATOM     13  C   UNL A   1      31.693  25.600  26.124  1.00  0.00     0.026 A 
ATOM     14  C   UNL A   1      32.553  24.502  25.961  1.00  0.00     0.042 A 
BRANCH  14  15
ATOM     15  N   UNL A   1      32.047  23.182  25.964  1.00  0.00    -0.354 N 
ATOM     16  H   UNL A   1      31.581  22.904  26.785  1.00  0.00     0.167 HD
BRANCH  15  17
ATOM     17  C   UNL A   1      32.120  22.202  24.939  1.00  0.00     0.060 A 
ATOM     18  C   UNL A   1      32.770  20.962  25.135  1.00  0.00    -0.026 A 
ATOM     19  C   UNL A   1      31.617  22.501  23.652  1.00  0.00     0.064 A 
ATOM     20  C   UNL A   1      33.299  20.522  26.473  1.00  0.00     0.046 C 
ATOM     21  C   UNL A   1      32.939  20.088  24.044  1.00  0.00     0.005 A 
ATOM     22  C   UNL A   1      31.777  21.614  22.586  1.00  0.00     0.023 A 
ATOM     23  Cl  UNL A   1      30.814  24.003  23.340  1.00  0.00    -0.082 Cl
ATOM     24  C   UNL A   1      32.448  20.412  22.780  1.00  0.00     0.002 A 
ENDBRANCH  15  17
ENDBRANCH  14  15
ENDBRANCH   7   8
ENDBRANCH   4   7
ENDBRANCH   2   3
ENDBRANCH   1   2
BRANCH   1  25
ATOM     25  C   UNL A   1      38.480  22.761  26.127  1.00  0.00     0.118 C 
BRANCH  25  26
ATOM     26  N   UNL A   1      39.651  22.676  26.988  1.00  0.00    -0.352 N 
ATOM     27  C   UNL A   1      40.335  23.693  27.629  1.00  0.00     0.251 C 
ATOM     28  H   UNL A   1      40.005  21.770  27.135  1.00  0.00     0.163 HD
ATOM     29  O   UNL A   1      41.385  23.432  28.209  1.00  0.00    -0.269 OA
BRANCH  27  30
ATOM     30  C   UNL A   1      39.719  25.038  27.716  1.00  0.00     0.039 A 
ATOM     31  C   UNL A   1      40.136  26.004  26.792  1.00  0.00     0.014 A 
ATOM     32  C   UNL A   1      38.956  25.408  28.820  1.00  0.00     0.014 A 
ATOM     33  C   UNL A   1      40.033  27.353  27.119  1.00  0.00     0.010 A 
ATOM     34  C   UNL A   1      38.931  26.734  29.189  1.00  0.00     0.010 A 
ATOM     35  C   UNL A   1      39.545  27.692  28.376  1.00  0.00    -0.014 A 
BRANCH  35  36
ATOM     36  C   UNL A   1      39.684  29.000  28.991  1.00  0.00     0.031 A 
ATOM     37  C   UNL A   1      38.736  30.075  28.669  1.00  0.00     0.074 A 
ATOM     38  C   UNL A   1      40.555  29.138  30.016  1.00  0.00     0.049 A 
ATOM     39  N   UNL A   1      38.890  31.299  29.039  1.00  0.00    -0.248 NA
ATOM     40  C   UNL A   1      37.546  29.855  27.861  1.00  0.00     0.031 C 
ATOM     41  C   UNL A   1      40.578  30.182  31.033  1.00  0.00     0.029 A 
ATOM     42  N   UNL A   1      41.761  28.456  30.207  1.00  0.00    -0.354 N 
ATOM     43  C   UNL A   1      37.697  31.946  28.816  1.00  0.00     0.074 A 
ATOM     44  C   UNL A   1      36.962  31.053  27.954  1.00  0.00     0.031 C 
ATOM     45  C   UNL A   1      41.820  30.269  31.530  1.00  0.00     0.029 A 
ATOM     46  C   UNL A   1      42.660  29.422  30.701  1.00  0.00     0.049 A 
ATOM     47  H   UNL A   1      41.943  27.505  30.033  1.00  0.00     0.167 HD
ATOM     48  C   UNL A   1      37.441  33.082  29.527  1.00  0.00     0.034 A 
ATOM     49  C   UNL A   1      43.763  29.835  30.008  1.00  0.00     0.034 A 
ATOM     50  C   UNL A   1      38.656  33.548  30.229  1.00  0.00     0.049 A 
ATOM     51  C   UNL A   1      43.785  31.336  29.725  1.00  0.00     0.074 A 
ATOM     52  C   UNL A   1      39.093  33.580  31.543  1.00  0.00     0.029 A 
ATOM     53  N   UNL A   1      39.765  33.868  29.461  1.00  0.00    -0.354 N 
ATOM     54  N   UNL A   1      42.896  32.195  30.151  1.00  0.00    -0.248 NA
ATOM     55  C   UNL A   1      44.769  31.965  28.842  1.00  0.00     0.031 C 
ATOM     56  C   UNL A   1      40.487  33.903  31.545  1.00  0.00     0.029 A 
ATOM     57  C   UNL A   1      40.888  34.095  30.235  1.00  0.00     0.049 A 
ATOM     58  H   UNL A   1      39.753  33.926  28.479  1.00  0.00     0.167 HD
ATOM     59  C   UNL A   1      43.054  33.388  29.487  1.00  0.00     0.074 A 
ATOM     60  C   UNL A   1      44.272  33.206  28.716  1.00  0.00     0.031 C 
ATOM     61  C   UNL A   1      42.135  34.406  29.545  1.00  0.00     0.034 A 
BRANCH  48  62
ATOM     62  C   UNL A   1      36.063  33.688  29.781  1.00  0.00     0.023 A 
ATOM     63  C   UNL A   1      35.401  34.270  28.675  1.00  0.00     0.012 A 
ATOM     64  C   UNL A   1      35.396  33.821  31.022  1.00  0.00     0.148 A 
ATOM     65  C   UNL A   1      34.207  34.995  28.801  1.00  0.00     0.002 A 
ATOM     66  C   UNL A   1      34.214  34.556  31.156  1.00  0.00     0.091 A 
ATOM     67  F   UNL A   1      35.872  33.225  32.111  1.00  0.00    -0.205 F 
ATOM     68  C   UNL A   1      33.621  35.155  30.047  1.00  0.00     0.022 A 
BRANCH  66  69
ATOM     69  S   UNL A   1      33.416  34.824  32.754  1.00  0.00     0.127 S 
ATOM     70  O   UNL A   1      33.259  33.454  33.248  1.00  0.00    -0.237 OA
ATOM     71  O   UNL A   1      34.413  35.617  33.473  1.00  0.00    -0.237 OA
ATOM     72  O   UNL A   1      32.160  35.513  32.485  1.00  0.00    -0.744 OA
ENDBRANCH  66  69
ENDBRANCH  48  62
BRANCH  49  73
ATOM     73  C   UNL A   1      44.311  28.778  29.098  1.00  0.00     0.023 A 
ATOM     74  C   UNL A   1      44.796  27.594  29.707  1.00  0.00     0.012 A 
ATOM     75  C   UNL A   1      44.008  28.752  27.726  1.00  0.00     0.148 A 
ATOM     76  C   UNL A   1      44.825  26.386  29.006  1.00  0.00     0.002 A 
ATOM     77  C   UNL A   1      44.067  27.548  27.027  1.00  0.00     0.091 A 
ATOM     78  F   UNL A   1      43.596  29.879  27.132  1.00  0.00    -0.205 F 
ATOM     79  C   UNL A   1      44.426  26.357  27.675  1.00  0.00     0.022 A 
BRANCH  77  80
ATOM     80  S   UNL A   1      43.576  27.458  25.300  1.00  0.00     0.127 S 
ATOM     81  O   UNL A   1      44.829  27.788  24.626  1.00  0.00    -0.237 OA
ATOM     82  O   UNL A   1      43.151  26.066  25.162  1.00  0.00    -0.237 OA
ATOM     83  O   UNL A   1      42.497  28.425  25.174  1.00  0.00    -0.744 OA
ENDBRANCH  77  80
ENDBRANCH  49  73
BRANCH  61  84
ATOM     84  C   UNL A   1      42.313  35.763  28.873  1.00  0.00     0.023 A 
ATOM     85  C   UNL A   1      41.898  35.974  27.543  1.00  0.00     0.012 A 
ATOM     86  C   UNL A   1      43.003  36.841  29.494  1.00  0.00     0.148 A 
ATOM     87  C   UNL A   1      42.055  37.211  26.902  1.00  0.00     0.002 A 
ATOM     88  C   UNL A   1      43.209  38.051  28.836  1.00  0.00     0.091 A 
ATOM     89  F   UNL A   1      43.476  36.707  30.735  1.00  0.00    -0.205 F 
ATOM     90  C   UNL A   1      42.708  38.250  27.549  1.00  0.00     0.022 A 
BRANCH  88  91
ATOM     91  S   UNL A   1      44.173  39.395  29.550  1.00  0.00     0.127 S 
ATOM     92  O   UNL A   1      43.427  39.669  30.779  1.00  0.00    -0.237 OA
ATOM     93  O   UNL A   1      45.472  38.754  29.756  1.00  0.00    -0.237 OA
ATOM     94  O   UNL A   1      44.165  40.473  28.574  1.00  0.00    -0.744 OA
ENDBRANCH  88  91
ENDBRANCH  61  84
ENDBRANCH  35  36
ENDBRANCH  27  30
ENDBRANCH  25  26
ENDBRANCH   1  25
TORSDOF 16
ENDMDL
