MODEL 1
REMARK VINA RESULT:     -12.0      0.000      0.000
REMARK SMILES C[C@](NC(=O)NCC1CCOCC1)(C(=O)NCCCNC(=O)c1ccc(-c2c3nc(c(-c4cccc(S(=O)(=O)[O-])c4F)c4ccc([nH]4)c(-c4cccc(S(=O)(=O)[O-])c4F)c4nc(c(-c5cccc(S(=O)(=O)[O-])c5F)c5ccc2[nH]5)C=C4)C=C3)cc1)C(F)(F)F
REMARK SMILES IDX 18 1 17 2 16 3 14 4 15 5 2 7 1 8 86 9 87 10 88 11 89 12 3 13
REMARK SMILES IDX 4 14 5 16 6 17 7 19 8 20 9 21 13 22 10 23 12 24 11 25 19 26
REMARK SMILES IDX 20 27 21 28 22 30 23 31 24 32 85 33 25 34 84 35 26 36 27 37
REMARK SMILES IDX 28 38 78 39 29 40 83 41 77 42 79 43 30 44 82 45 76 46 75 47
REMARK SMILES IDX 31 49 63 50 43 51 62 52 44 53 47 54 61 55 80 56 45 57 46 58
REMARK SMILES IDX 60 60 81 61 48 62 32 63 33 64 41 65 34 66 36 67 42 68 35 69
REMARK SMILES IDX 37 70 38 71 39 72 40 73 64 74 65 75 73 76 66 77 68 78 74 79
REMARK SMILES IDX 67 80 69 81 70 82 71 83 72 84 49 85 50 86 58 87 51 88 53 89
REMARK SMILES IDX 59 90 52 91 54 92 55 93 56 94 57 95
REMARK H PARENT 16 6 3 15 6 18 20 29 79 48 47 59
REMARK Flexibility Score: inf
ROOT
ATOM      1  C   UNL A   1      35.082  21.954  26.186  1.00  0.00     0.042 C 
ENDROOT
BRANCH   1   2
ATOM      2  C   UNL A   1      34.183  23.161  26.379  1.00  0.00     0.117 C 
BRANCH   2   3
ATOM      3  N   UNL A   1      34.342  24.148  25.314  1.00  0.00    -0.354 N 
ATOM      4  C   UNL A   1      33.503  24.455  24.265  1.00  0.00     0.255 C 
ATOM      5  O   UNL A   1      33.800  25.423  23.568  1.00  0.00    -0.272 OA
ATOM      6  H   UNL A   1      35.174  24.672  25.350  1.00  0.00     0.163 HD
BRANCH   4   7
ATOM      7  C   UNL A   1      32.178  23.683  24.125  1.00  0.00     0.213 C 
ATOM      8  C   UNL A   1      31.408  24.469  23.038  1.00  0.00     0.056 C 
BRANCH   7   9
ATOM      9  C   UNL A   1      32.476  22.276  23.585  1.00  0.00     0.420 C 
ATOM     10  F   UNL A   1      33.750  22.133  23.161  1.00  0.00    -0.168 F 
ATOM     11  F   UNL A   1      32.286  21.354  24.570  1.00  0.00    -0.168 F 
ATOM     12  F   UNL A   1      31.649  21.915  22.577  1.00  0.00    -0.168 F 
ENDBRANCH   7   9
BRANCH   7  13
ATOM     13  N   UNL A   1      31.666  23.628  25.546  1.00  0.00    -0.316 N 
ATOM     14  C   UNL A   1      30.817  24.201  26.394  1.00  0.00     0.315 C 
ATOM     15  H   UNL A   1      32.131  22.899  26.018  1.00  0.00     0.166 HD
ATOM     16  O   UNL A   1      30.502  23.545  27.386  1.00  0.00    -0.249 OA
ATOM     17  N   UNL A   1      30.328  25.435  26.291  1.00  0.00    -0.338 N 
ATOM     18  H   UNL A   1      29.569  25.633  26.886  1.00  0.00     0.165 HD
BRANCH  17  19
ATOM     19  C   UNL A   1      30.732  26.515  25.450  1.00  0.00     0.121 C 
BRANCH  19  20
ATOM     20  C   UNL A   1      31.489  27.637  26.139  1.00  0.00     0.013 C 
ATOM     21  C   UNL A   1      31.477  28.857  25.203  1.00  0.00     0.034 C 
ATOM     22  C   UNL A   1      32.930  27.282  26.501  1.00  0.00     0.034 C 
ATOM     23  C   UNL A   1      32.265  30.003  25.804  1.00  0.00     0.160 C 
ATOM     24  C   UNL A   1      33.633  28.520  27.050  1.00  0.00     0.160 C 
ATOM     25  O   UNL A   1      33.597  29.589  26.103  1.00  0.00    -0.381 OA
ENDBRANCH  19  20
ENDBRANCH  17  19
ENDBRANCH   7  13
ENDBRANCH   4   7
ENDBRANCH   2   3
ENDBRANCH   1   2
BRANCH   1  26
ATOM     26  C   UNL A   1      36.431  22.332  25.603  1.00  0.00     0.118 C 
BRANCH  26  27
ATOM     27  N   UNL A   1      37.341  21.192  25.522  1.00  0.00    -0.352 N 
ATOM     28  C   UNL A   1      38.681  21.147  25.832  1.00  0.00     0.251 C 
ATOM     29  H   UNL A   1      36.944  20.349  25.207  1.00  0.00     0.163 HD
ATOM     30  O   UNL A   1      39.348  20.158  25.568  1.00  0.00    -0.269 OA
BRANCH  28  31
ATOM     31  C   UNL A   1      39.292  22.334  26.460  1.00  0.00     0.039 A 
ATOM     32  C   UNL A   1      40.327  22.163  27.381  1.00  0.00     0.014 A 
ATOM     33  C   UNL A   1      38.889  23.610  26.063  1.00  0.00     0.014 A 
ATOM     34  C   UNL A   1      41.016  23.282  27.849  1.00  0.00     0.010 A 
ATOM     35  C   UNL A   1      39.633  24.711  26.458  1.00  0.00     0.010 A 
ATOM     36  C   UNL A   1      40.699  24.560  27.358  1.00  0.00    -0.014 A 
BRANCH  36  37
ATOM     37  C   UNL A   1      41.454  25.770  27.760  1.00  0.00     0.031 A 
ATOM     38  C   UNL A   1      40.755  26.843  28.549  1.00  0.00     0.074 A 
ATOM     39  C   UNL A   1      42.705  25.965  27.300  1.00  0.00     0.049 A 
ATOM     40  N   UNL A   1      41.165  28.045  28.851  1.00  0.00    -0.248 NA
ATOM     41  C   UNL A   1      39.394  26.536  29.024  1.00  0.00     0.031 C 
ATOM     42  C   UNL A   1      43.457  25.029  26.461  1.00  0.00     0.029 A 
ATOM     43  N   UNL A   1      43.552  27.037  27.439  1.00  0.00    -0.354 N 
ATOM     44  C   UNL A   1      40.098  28.656  29.497  1.00  0.00     0.074 A 
ATOM     45  C   UNL A   1      39.010  27.703  29.519  1.00  0.00     0.031 C 
ATOM     46  C   UNL A   1      44.649  25.569  26.157  1.00  0.00     0.029 A 
ATOM     47  C   UNL A   1      44.733  26.901  26.747  1.00  0.00     0.049 A 
ATOM     48  H   UNL A   1      43.334  27.827  27.983  1.00  0.00     0.167 HD
ATOM     49  C   UNL A   1      40.038  29.890  30.051  1.00  0.00     0.034 A 
ATOM     50  C   UNL A   1      45.759  27.759  26.594  1.00  0.00     0.034 A 
ATOM     51  C   UNL A   1      41.146  30.803  30.085  1.00  0.00     0.049 A 
ATOM     52  C   UNL A   1      45.693  29.100  27.276  1.00  0.00     0.074 A 
ATOM     53  C   UNL A   1      41.224  32.037  30.702  1.00  0.00     0.029 A 
ATOM     54  N   UNL A   1      42.373  30.577  29.480  1.00  0.00    -0.354 N 
ATOM     55  N   UNL A   1      44.730  29.605  28.008  1.00  0.00    -0.248 NA
ATOM     56  C   UNL A   1      46.867  29.976  27.142  1.00  0.00     0.031 C 
ATOM     57  C   UNL A   1      42.497  32.563  30.463  1.00  0.00     0.029 A 
ATOM     58  C   UNL A   1      43.217  31.647  29.713  1.00  0.00     0.049 A 
ATOM     59  H   UNL A   1      42.608  29.774  28.962  1.00  0.00     0.167 HD
ATOM     60  C   UNL A   1      45.197  30.834  28.459  1.00  0.00     0.074 A 
ATOM     61  C   UNL A   1      46.534  30.994  27.925  1.00  0.00     0.031 C 
ATOM     62  C   UNL A   1      44.572  31.752  29.235  1.00  0.00     0.034 A 
BRANCH  49  63
ATOM     63  C   UNL A   1      38.752  30.296  30.719  1.00  0.00     0.023 A 
ATOM     64  C   UNL A   1      38.556  30.001  32.084  1.00  0.00     0.012 A 
ATOM     65  C   UNL A   1      37.764  31.013  30.018  1.00  0.00     0.148 A 
ATOM     66  C   UNL A   1      37.381  30.380  32.731  1.00  0.00     0.002 A 
ATOM     67  C   UNL A   1      36.615  31.427  30.682  1.00  0.00     0.091 A 
ATOM     68  F   UNL A   1      37.956  31.263  28.715  1.00  0.00    -0.205 F 
ATOM     69  C   UNL A   1      36.417  31.102  32.034  1.00  0.00     0.022 A 
BRANCH  67  70
ATOM     70  S   UNL A   1      35.351  32.431  29.893  1.00  0.00     0.127 S 
ATOM     71  O   UNL A   1      34.907  31.550  28.813  1.00  0.00    -0.237 OA
ATOM     72  O   UNL A   1      34.379  32.608  30.973  1.00  0.00    -0.237 OA
ATOM     73  O   UNL A   1      36.018  33.654  29.471  1.00  0.00    -0.744 OA
ENDBRANCH  67  70
ENDBRANCH  49  63
BRANCH  50  74
ATOM     74  C   UNL A   1      46.970  27.348  25.827  1.00  0.00     0.023 A 
ATOM     75  C   UNL A   1      47.935  26.537  26.453  1.00  0.00     0.012 A 
ATOM     76  C   UNL A   1      47.155  27.721  24.482  1.00  0.00     0.148 A 
ATOM     77  C   UNL A   1      49.080  26.131  25.766  1.00  0.00     0.002 A 
ATOM     78  C   UNL A   1      48.272  27.271  23.787  1.00  0.00     0.091 A 
ATOM     79  F   UNL A   1      46.229  28.500  23.906  1.00  0.00    -0.205 F 
ATOM     80  C   UNL A   1      49.244  26.489  24.431  1.00  0.00     0.022 A 
BRANCH  78  81
ATOM     81  S   UNL A   1      48.504  27.576  22.031  1.00  0.00     0.127 S 
ATOM     82  O   UNL A   1      49.604  28.537  22.039  1.00  0.00    -0.237 OA
ATOM     83  O   UNL A   1      48.852  26.244  21.536  1.00  0.00    -0.237 OA
ATOM     84  O   UNL A   1      47.224  28.080  21.551  1.00  0.00    -0.744 OA
ENDBRANCH  78  81
ENDBRANCH  50  74
BRANCH  62  85
ATOM     85  C   UNL A   1      45.335  32.991  29.616  1.00  0.00     0.023 A 
ATOM     86  C   UNL A   1      46.161  32.985  30.756  1.00  0.00     0.012 A 
ATOM     87  C   UNL A   1      45.319  34.122  28.774  1.00  0.00     0.148 A 
ATOM     88  C   UNL A   1      46.947  34.095  31.063  1.00  0.00     0.002 A 
ATOM     89  C   UNL A   1      46.139  35.205  29.061  1.00  0.00     0.091 A 
ATOM     90  F   UNL A   1      44.511  34.110  27.705  1.00  0.00    -0.205 F 
ATOM     91  C   UNL A   1      46.947  35.197  30.211  1.00  0.00     0.022 A 
BRANCH  89  92
ATOM     92  S   UNL A   1      46.279  36.622  27.968  1.00  0.00     0.127 S 
ATOM     93  O   UNL A   1      46.733  35.997  26.726  1.00  0.00    -0.237 OA
ATOM     94  O   UNL A   1      44.904  37.123  27.931  1.00  0.00    -0.237 OA
ATOM     95  O   UNL A   1      47.234  37.524  28.598  1.00  0.00    -0.744 OA
ENDBRANCH  89  92
ENDBRANCH  62  85
ENDBRANCH  36  37
ENDBRANCH  28  31
ENDBRANCH  26  27
ENDBRANCH   1  26
TORSDOF 17
ENDMDL
MODEL 2
REMARK VINA RESULT:     -11.9      5.434     10.486
REMARK SMILES C[C@](NC(=O)NCC1CCOCC1)(C(=O)NCCCNC(=O)c1ccc(-c2c3nc(c(-c4cccc(S(=O)(=O)[O-])c4F)c4ccc([nH]4)c(-c4cccc(S(=O)(=O)[O-])c4F)c4nc(c(-c5cccc(S(=O)(=O)[O-])c5F)c5ccc2[nH]5)C=C4)C=C3)cc1)C(F)(F)F
REMARK SMILES IDX 18 1 17 2 16 3 14 4 15 5 2 7 1 8 86 9 87 10 88 11 89 12 3 13
REMARK SMILES IDX 4 14 5 16 6 17 7 19 8 20 9 21 13 22 10 23 12 24 11 25 19 26
REMARK SMILES IDX 20 27 21 28 22 30 23 31 24 32 85 33 25 34 84 35 26 36 27 37
REMARK SMILES IDX 28 38 78 39 29 40 83 41 77 42 79 43 30 44 82 45 76 46 75 47
REMARK SMILES IDX 31 49 63 50 43 51 62 52 44 53 47 54 61 55 80 56 45 57 46 58
REMARK SMILES IDX 60 60 81 61 48 62 32 63 33 64 41 65 34 66 36 67 42 68 35 69
REMARK SMILES IDX 37 70 38 71 39 72 40 73 64 74 65 75 73 76 66 77 68 78 74 79
REMARK SMILES IDX 67 80 69 81 70 82 71 83 72 84 49 85 50 86 58 87 51 88 53 89
REMARK SMILES IDX 59 90 52 91 54 92 55 93 56 94 57 95
REMARK H PARENT 16 6 3 15 6 18 20 29 79 48 47 59
REMARK Flexibility Score: inf
ROOT
ATOM      1  C   UNL A   1      31.204  31.204  26.002  1.00  0.00     0.042 C 
ENDROOT
BRANCH   1   2
ATOM      2  C   UNL A   1      31.504  29.894  25.299  1.00  0.00     0.117 C 
BRANCH   2   3
ATOM      3  N   UNL A   1      30.913  29.831  23.964  1.00  0.00    -0.354 N 
ATOM      4  C   UNL A   1      30.957  28.822  23.026  1.00  0.00     0.255 C 
ATOM      5  O   UNL A   1      30.265  28.956  22.019  1.00  0.00    -0.272 OA
ATOM      6  H   UNL A   1      30.406  30.630  23.693  1.00  0.00     0.163 HD
BRANCH   4   7
ATOM      7  C   UNL A   1      31.732  27.533  23.361  1.00  0.00     0.213 C 
ATOM      8  C   UNL A   1      31.408  26.594  22.177  1.00  0.00     0.056 C 
BRANCH   7   9
ATOM      9  C   UNL A   1      33.237  27.838  23.341  1.00  0.00     0.420 C 
ATOM     10  F   UNL A   1      33.527  29.028  22.773  1.00  0.00    -0.168 F 
ATOM     11  F   UNL A   1      33.715  27.887  24.616  1.00  0.00    -0.168 F 
ATOM     12  F   UNL A   1      33.957  26.879  22.713  1.00  0.00    -0.168 F 
ENDBRANCH   7   9
BRANCH   7  13
ATOM     13  N   UNL A   1      31.256  27.206  24.758  1.00  0.00    -0.316 N 
ATOM     14  C   UNL A   1      31.452  26.381  25.782  1.00  0.00     0.315 C 
ATOM     15  H   UNL A   1      30.538  27.835  24.999  1.00  0.00     0.166 HD
ATOM     16  O   UNL A   1      31.033  26.754  26.878  1.00  0.00    -0.249 OA
ATOM     17  N   UNL A   1      32.007  25.173  25.713  1.00  0.00    -0.338 N 
ATOM     18  H   UNL A   1      32.254  24.778  26.581  1.00  0.00     0.165 HD
BRANCH  17  19
ATOM     19  C   UNL A   1      32.299  24.361  24.577  1.00  0.00     0.121 C 
BRANCH  19  20
ATOM     20  C   UNL A   1      33.630  23.631  24.614  1.00  0.00     0.013 C 
ATOM     21  C   UNL A   1      34.488  24.272  25.718  1.00  0.00     0.034 C 
ATOM     22  C   UNL A   1      34.391  23.661  23.290  1.00  0.00     0.034 C 
ATOM     23  C   UNL A   1      35.858  23.626  25.776  1.00  0.00     0.160 C 
ATOM     24  C   UNL A   1      35.767  23.029  23.483  1.00  0.00     0.160 C 
ATOM     25  O   UNL A   1      36.500  23.706  24.506  1.00  0.00    -0.381 OA
ENDBRANCH  19  20
ENDBRANCH  17  19
ENDBRANCH   7  13
ENDBRANCH   4   7
ENDBRANCH   2   3
ENDBRANCH   1   2
BRANCH   1  26
ATOM     26  C   UNL A   1      32.359  31.666  26.870  1.00  0.00     0.118 C 
BRANCH  26  27
ATOM     27  N   UNL A   1      32.254  33.078  27.229  1.00  0.00    -0.352 N 
ATOM     28  C   UNL A   1      33.090  33.817  28.035  1.00  0.00     0.251 C 
ATOM     29  H   UNL A   1      31.488  33.562  26.844  1.00  0.00     0.163 HD
ATOM     30  O   UNL A   1      32.789  34.953  28.367  1.00  0.00    -0.269 OA
BRANCH  28  31
ATOM     31  C   UNL A   1      34.338  33.189  28.508  1.00  0.00     0.039 A 
ATOM     32  C   UNL A   1      35.551  33.853  28.319  1.00  0.00     0.014 A 
ATOM     33  C   UNL A   1      34.281  31.985  29.213  1.00  0.00     0.014 A 
ATOM     34  C   UNL A   1      36.708  33.343  28.910  1.00  0.00     0.010 A 
ATOM     35  C   UNL A   1      35.412  31.531  29.874  1.00  0.00     0.010 A 
ATOM     36  C   UNL A   1      36.636  32.201  29.726  1.00  0.00    -0.014 A 
BRANCH  36  37
ATOM     37  C   UNL A   1      37.819  31.667  30.442  1.00  0.00     0.031 A 
ATOM     38  C   UNL A   1      38.661  30.610  29.782  1.00  0.00     0.074 A 
ATOM     39  C   UNL A   1      38.046  32.024  31.721  1.00  0.00     0.049 A 
ATOM     40  N   UNL A   1      39.623  29.886  30.289  1.00  0.00    -0.248 NA
ATOM     41  C   UNL A   1      38.349  30.296  28.377  1.00  0.00     0.031 C 
ATOM     42  C   UNL A   1      37.249  32.981  32.491  1.00  0.00     0.029 A 
ATOM     43  N   UNL A   1      38.993  31.589  32.615  1.00  0.00    -0.354 N 
ATOM     44  C   UNL A   1      39.991  28.996  29.288  1.00  0.00     0.074 A 
ATOM     45  C   UNL A   1      39.130  29.249  28.154  1.00  0.00     0.031 C 
ATOM     46  C   UNL A   1      37.737  33.058  33.741  1.00  0.00     0.029 A 
ATOM     47  C   UNL A   1      38.856  32.131  33.872  1.00  0.00     0.049 A 
ATOM     48  H   UNL A   1      39.704  30.950  32.378  1.00  0.00     0.167 HD
ATOM     49  C   UNL A   1      40.977  28.069  29.301  1.00  0.00     0.034 A 
ATOM     50  C   UNL A   1      39.545  31.894  35.005  1.00  0.00     0.034 A 
ATOM     51  C   UNL A   1      41.872  27.873  30.407  1.00  0.00     0.049 A 
ATOM     52  C   UNL A   1      40.680  30.907  34.973  1.00  0.00     0.074 A 
ATOM     53  C   UNL A   1      42.965  27.031  30.489  1.00  0.00     0.029 A 
ATOM     54  N   UNL A   1      41.780  28.533  31.623  1.00  0.00    -0.354 N 
ATOM     55  N   UNL A   1      41.108  30.176  33.972  1.00  0.00    -0.248 NA
ATOM     56  C   UNL A   1      41.451  30.734  36.213  1.00  0.00     0.031 C 
ATOM     57  C   UNL A   1      43.530  27.175  31.760  1.00  0.00     0.029 A 
ATOM     58  C   UNL A   1      42.799  28.121  32.461  1.00  0.00     0.049 A 
ATOM     59  H   UNL A   1      41.091  29.197  31.854  1.00  0.00     0.167 HD
ATOM     60  C   UNL A   1      42.222  29.494  34.445  1.00  0.00     0.074 A 
ATOM     61  C   UNL A   1      42.410  29.905  35.821  1.00  0.00     0.031 C 
ATOM     62  C   UNL A   1      43.013  28.600  33.802  1.00  0.00     0.034 A 
BRANCH  49  63
ATOM     63  C   UNL A   1      41.180  27.245  28.058  1.00  0.00     0.023 A 
ATOM     64  C   UNL A   1      41.785  27.831  26.927  1.00  0.00     0.012 A 
ATOM     65  C   UNL A   1      40.824  25.883  28.024  1.00  0.00     0.148 A 
ATOM     66  C   UNL A   1      41.998  27.085  25.769  1.00  0.00     0.002 A 
ATOM     67  C   UNL A   1      41.082  25.134  26.882  1.00  0.00     0.091 A 
ATOM     68  F   UNL A   1      40.228  25.349  29.100  1.00  0.00    -0.205 F 
ATOM     69  C   UNL A   1      41.658  25.736  25.750  1.00  0.00     0.022 A 
BRANCH  67  70
ATOM     70  S   UNL A   1      40.754  23.370  26.788  1.00  0.00     0.127 S 
ATOM     71  O   UNL A   1      41.653  22.960  25.710  1.00  0.00    -0.237 OA
ATOM     72  O   UNL A   1      41.151  22.911  28.120  1.00  0.00    -0.237 OA
ATOM     73  O   UNL A   1      39.332  23.243  26.502  1.00  0.00    -0.744 OA
ENDBRANCH  67  70
ENDBRANCH  49  63
BRANCH  50  74
ATOM     74  C   UNL A   1      39.231  32.662  36.244  1.00  0.00     0.023 A 
ATOM     75  C   UNL A   1      39.747  33.964  36.392  1.00  0.00     0.012 A 
ATOM     76  C   UNL A   1      38.406  32.132  37.254  1.00  0.00     0.148 A 
ATOM     77  C   UNL A   1      39.474  34.713  37.537  1.00  0.00     0.002 A 
ATOM     78  C   UNL A   1      38.095  32.902  38.369  1.00  0.00     0.091 A 
ATOM     79  F   UNL A   1      37.932  30.888  37.099  1.00  0.00    -0.205 F 
ATOM     80  C   UNL A   1      38.640  34.187  38.520  1.00  0.00     0.022 A 
BRANCH  78  81
ATOM     81  S   UNL A   1      36.931  32.358  39.624  1.00  0.00     0.127 S 
ATOM     82  O   UNL A   1      37.036  33.428  40.612  1.00  0.00    -0.237 OA
ATOM     83  O   UNL A   1      35.672  32.329  38.878  1.00  0.00    -0.237 OA
ATOM     84  O   UNL A   1      37.404  31.049  40.053  1.00  0.00    -0.744 OA
ENDBRANCH  78  81
ENDBRANCH  50  74
BRANCH  62  85
ATOM     85  C   UNL A   1      44.194  28.041  34.546  1.00  0.00     0.023 A 
ATOM     86  C   UNL A   1      45.391  28.779  34.620  1.00  0.00     0.012 A 
ATOM     87  C   UNL A   1      44.075  26.836  35.267  1.00  0.00     0.148 A 
ATOM     88  C   UNL A   1      46.459  28.315  35.386  1.00  0.00     0.002 A 
ATOM     89  C   UNL A   1      45.126  26.404  36.065  1.00  0.00     0.091 A 
ATOM     90  F   UNL A   1      42.932  26.142  35.166  1.00  0.00    -0.205 F 
ATOM     91  C   UNL A   1      46.323  27.138  36.119  1.00  0.00     0.022 A 
BRANCH  89  92
ATOM     92  S   UNL A   1      45.002  24.955  37.119  1.00  0.00     0.127 S 
ATOM     93  O   UNL A   1      44.466  23.958  36.193  1.00  0.00    -0.237 OA
ATOM     94  O   UNL A   1      46.396  24.737  37.511  1.00  0.00    -0.237 OA
ATOM     95  O   UNL A   1      44.118  25.329  38.214  1.00  0.00    -0.744 OA
ENDBRANCH  89  92
ENDBRANCH  62  85
ENDBRANCH  36  37
ENDBRANCH  28  31
ENDBRANCH  26  27
ENDBRANCH   1  26
TORSDOF 17
ENDMDL
MODEL 3
REMARK VINA RESULT:     -11.9      1.634      7.826
REMARK SMILES C[C@](NC(=O)NCC1CCOCC1)(C(=O)NCCCNC(=O)c1ccc(-c2c3nc(c(-c4cccc(S(=O)(=O)[O-])c4F)c4ccc([nH]4)c(-c4cccc(S(=O)(=O)[O-])c4F)c4nc(c(-c5cccc(S(=O)(=O)[O-])c5F)c5ccc2[nH]5)C=C4)C=C3)cc1)C(F)(F)F
REMARK SMILES IDX 18 1 17 2 16 3 14 4 15 5 2 7 1 8 86 9 87 10 88 11 89 12 3 13
REMARK SMILES IDX 4 14 5 16 6 17 7 19 8 20 9 21 13 22 10 23 12 24 11 25 19 26
REMARK SMILES IDX 20 27 21 28 22 30 23 31 24 32 85 33 25 34 84 35 26 36 27 37
REMARK SMILES IDX 28 38 78 39 29 40 83 41 77 42 79 43 30 44 82 45 76 46 75 47
REMARK SMILES IDX 31 49 63 50 43 51 62 52 44 53 47 54 61 55 80 56 45 57 46 58
REMARK SMILES IDX 60 60 81 61 48 62 32 63 33 64 41 65 34 66 36 67 42 68 35 69
REMARK SMILES IDX 37 70 38 71 39 72 40 73 64 74 65 75 73 76 66 77 68 78 74 79
REMARK SMILES IDX 67 80 69 81 70 82 71 83 72 84 49 85 50 86 58 87 51 88 53 89
REMARK SMILES IDX 59 90 52 91 54 92 55 93 56 94 57 95
REMARK H PARENT 16 6 3 15 6 18 20 29 79 48 47 59
REMARK Flexibility Score: inf
ROOT
ATOM      1  C   UNL A   1      36.662  22.242  23.871  1.00  0.00     0.042 C 
ENDROOT
BRANCH   1   2
ATOM      2  C   UNL A   1      35.324  22.913  23.622  1.00  0.00     0.117 C 
BRANCH   2   3
ATOM      3  N   UNL A   1      34.201  22.097  24.077  1.00  0.00    -0.354 N 
ATOM      4  C   UNL A   1      32.990  22.482  24.610  1.00  0.00     0.255 C 
ATOM      5  O   UNL A   1      32.150  21.605  24.797  1.00  0.00    -0.272 OA
ATOM      6  H   UNL A   1      34.328  21.124  23.990  1.00  0.00     0.163 HD
BRANCH   4   7
ATOM      7  C   UNL A   1      32.703  23.985  24.787  1.00  0.00     0.213 C 
ATOM      8  C   UNL A   1      31.257  24.020  25.334  1.00  0.00     0.056 C 
BRANCH   7   9
ATOM      9  C   UNL A   1      33.643  24.547  25.865  1.00  0.00     0.420 C 
ATOM     10  F   UNL A   1      34.763  25.100  25.352  1.00  0.00    -0.168 F 
ATOM     11  F   UNL A   1      33.008  25.529  26.565  1.00  0.00    -0.168 F 
ATOM     12  F   UNL A   1      34.007  23.618  26.779  1.00  0.00    -0.168 F 
ENDBRANCH   7   9
BRANCH   7  13
ATOM     13  N   UNL A   1      33.027  24.555  23.425  1.00  0.00    -0.316 N 
ATOM     14  C   UNL A   1      33.143  25.694  22.749  1.00  0.00     0.315 C 
ATOM     15  H   UNL A   1      33.227  23.809  22.814  1.00  0.00     0.166 HD
ATOM     16  O   UNL A   1      33.795  25.650  21.706  1.00  0.00    -0.249 OA
ATOM     17  N   UNL A   1      32.573  26.852  23.071  1.00  0.00    -0.338 N 
ATOM     18  H   UNL A   1      32.915  27.635  22.581  1.00  0.00     0.165 HD
BRANCH  17  19
ATOM     19  C   UNL A   1      31.543  27.136  24.017  1.00  0.00     0.121 C 
BRANCH  19  20
ATOM     20  C   UNL A   1      30.582  28.246  23.630  1.00  0.00     0.013 C 
ATOM     21  C   UNL A   1      29.207  27.610  23.371  1.00  0.00     0.034 C 
ATOM     22  C   UNL A   1      31.018  29.045  22.403  1.00  0.00     0.034 C 
ATOM     23  C   UNL A   1      28.205  28.657  22.925  1.00  0.00     0.160 C 
ATOM     24  C   UNL A   1      29.916  30.028  22.022  1.00  0.00     0.160 C 
ATOM     25  O   UNL A   1      28.686  29.346  21.773  1.00  0.00    -0.381 OA
ENDBRANCH  19  20
ENDBRANCH  17  19
ENDBRANCH   7  13
ENDBRANCH   4   7
ENDBRANCH   2   3
ENDBRANCH   1   2
BRANCH   1  26
ATOM     26  C   UNL A   1      36.934  22.038  25.350  1.00  0.00     0.118 C 
BRANCH  26  27
ATOM     27  N   UNL A   1      37.946  21.013  25.593  1.00  0.00    -0.352 N 
ATOM     28  C   UNL A   1      39.219  21.172  26.090  1.00  0.00     0.251 C 
ATOM     29  H   UNL A   1      37.682  20.090  25.372  1.00  0.00     0.163 HD
ATOM     30  O   UNL A   1      40.007  20.238  26.094  1.00  0.00    -0.269 OA
BRANCH  28  31
ATOM     31  C   UNL A   1      39.613  22.504  26.587  1.00  0.00     0.039 A 
ATOM     32  C   UNL A   1      40.566  22.601  27.600  1.00  0.00     0.014 A 
ATOM     33  C   UNL A   1      39.093  23.649  25.978  1.00  0.00     0.014 A 
ATOM     34  C   UNL A   1      41.061  23.857  27.955  1.00  0.00     0.010 A 
ATOM     35  C   UNL A   1      39.650  24.884  26.268  1.00  0.00     0.010 A 
ATOM     36  C   UNL A   1      40.635  25.002  27.260  1.00  0.00    -0.014 A 
BRANCH  36  37
ATOM     37  C   UNL A   1      41.190  26.348  27.542  1.00  0.00     0.031 A 
ATOM     38  C   UNL A   1      42.609  26.654  27.149  1.00  0.00     0.074 A 
ATOM     39  C   UNL A   1      40.475  27.229  28.268  1.00  0.00     0.049 A 
ATOM     40  N   UNL A   1      43.344  27.690  27.452  1.00  0.00    -0.248 NA
ATOM     41  C   UNL A   1      43.307  25.638  26.343  1.00  0.00     0.031 C 
ATOM     42  C   UNL A   1      39.117  27.013  28.772  1.00  0.00     0.029 A 
ATOM     43  N   UNL A   1      40.809  28.473  28.745  1.00  0.00    -0.354 N 
ATOM     44  C   UNL A   1      44.602  27.426  26.926  1.00  0.00     0.074 A 
ATOM     45  C   UNL A   1      44.541  26.119  26.310  1.00  0.00     0.031 C 
ATOM     46  C   UNL A   1      38.737  28.082  29.490  1.00  0.00     0.029 A 
ATOM     47  C   UNL A   1      39.833  29.045  29.528  1.00  0.00     0.049 A 
ATOM     48  H   UNL A   1      41.666  28.914  28.544  1.00  0.00     0.167 HD
ATOM     49  C   UNL A   1      45.703  28.213  26.930  1.00  0.00     0.034 A 
ATOM     50  C   UNL A   1      39.831  30.205  30.211  1.00  0.00     0.034 A 
ATOM     51  C   UNL A   1      45.734  29.538  27.484  1.00  0.00     0.049 A 
ATOM     52  C   UNL A   1      41.045  31.092  30.143  1.00  0.00     0.074 A 
ATOM     53  C   UNL A   1      46.766  30.457  27.456  1.00  0.00     0.029 A 
ATOM     54  N   UNL A   1      44.681  30.134  28.161  1.00  0.00    -0.354 N 
ATOM     55  N   UNL A   1      42.179  30.889  29.517  1.00  0.00    -0.248 NA
ATOM     56  C   UNL A   1      40.970  32.382  30.844  1.00  0.00     0.031 C 
ATOM     57  C   UNL A   1      46.340  31.608  28.126  1.00  0.00     0.029 A 
ATOM     58  C   UNL A   1      45.036  31.411  28.553  1.00  0.00     0.049 A 
ATOM     59  H   UNL A   1      43.810  29.710  28.336  1.00  0.00     0.167 HD
ATOM     60  C   UNL A   1      42.934  32.040  29.709  1.00  0.00     0.074 A 
ATOM     61  C   UNL A   1      42.124  32.942  30.502  1.00  0.00     0.031 C 
ATOM     62  C   UNL A   1      44.186  32.321  29.277  1.00  0.00     0.034 A 
BRANCH  49  63
ATOM     63  C   UNL A   1      46.943  27.686  26.259  1.00  0.00     0.023 A 
ATOM     64  C   UNL A   1      47.848  26.894  26.995  1.00  0.00     0.012 A 
ATOM     65  C   UNL A   1      47.187  27.927  24.893  1.00  0.00     0.148 A 
ATOM     66  C   UNL A   1      48.995  26.381  26.393  1.00  0.00     0.002 A 
ATOM     67  C   UNL A   1      48.310  27.373  24.289  1.00  0.00     0.091 A 
ATOM     68  F   UNL A   1      46.329  28.702  24.214  1.00  0.00    -0.205 F 
ATOM     69  C   UNL A   1      49.221  26.611  25.039  1.00  0.00     0.022 A 
BRANCH  67  70
ATOM     70  S   UNL A   1      48.646  27.545  22.532  1.00  0.00     0.127 S 
ATOM     71  O   UNL A   1      49.938  28.230  22.544  1.00  0.00    -0.237 OA
ATOM     72  O   UNL A   1      48.700  26.151  22.090  1.00  0.00    -0.237 OA
ATOM     73  O   UNL A   1      47.535  28.311  21.986  1.00  0.00    -0.744 OA
ENDBRANCH  67  70
ENDBRANCH  49  63
BRANCH  50  74
ATOM     74  C   UNL A   1      38.610  30.632  30.954  1.00  0.00     0.023 A 
ATOM     75  C   UNL A   1      38.520  30.366  32.333  1.00  0.00     0.012 A 
ATOM     76  C   UNL A   1      37.562  31.323  30.318  1.00  0.00     0.148 A 
ATOM     77  C   UNL A   1      37.395  30.752  33.062  1.00  0.00     0.002 A 
ATOM     78  C   UNL A   1      36.465  31.750  31.060  1.00  0.00     0.091 A 
ATOM     79  F   UNL A   1      37.661  31.559  29.003  1.00  0.00    -0.205 F 
ATOM     80  C   UNL A   1      36.372  31.452  32.428  1.00  0.00     0.022 A 
BRANCH  78  81
ATOM     81  S   UNL A   1      35.161  32.767  30.357  1.00  0.00     0.127 S 
ATOM     82  O   UNL A   1      34.640  31.898  29.305  1.00  0.00    -0.237 OA
ATOM     83  O   UNL A   1      34.270  32.951  31.503  1.00  0.00    -0.237 OA
ATOM     84  O   UNL A   1      35.818  33.986  29.906  1.00  0.00    -0.744 OA
ENDBRANCH  78  81
ENDBRANCH  50  74
BRANCH  62  85
ATOM     85  C   UNL A   1      44.753  33.679  29.592  1.00  0.00     0.023 A 
ATOM     86  C   UNL A   1      45.485  33.876  30.778  1.00  0.00     0.012 A 
ATOM     87  C   UNL A   1      44.654  34.725  28.653  1.00  0.00     0.148 A 
ATOM     88  C   UNL A   1      46.096  35.103  31.033  1.00  0.00     0.002 A 
ATOM     89  C   UNL A   1      45.304  35.929  28.893  1.00  0.00     0.091 A 
ATOM     90  F   UNL A   1      43.936  34.519  27.539  1.00  0.00    -0.205 F 
ATOM     91  C   UNL A   1      46.018  36.123  30.087  1.00  0.00     0.022 A 
BRANCH  89  92
ATOM     92  S   UNL A   1      45.342  37.259  27.687  1.00  0.00     0.127 S 
ATOM     93  O   UNL A   1      46.109  38.282  28.396  1.00  0.00    -0.237 OA
ATOM     94  O   UNL A   1      46.045  36.639  26.563  1.00  0.00    -0.237 OA
ATOM     95  O   UNL A   1      43.951  37.597  27.417  1.00  0.00    -0.744 OA
ENDBRANCH  89  92
ENDBRANCH  62  85
ENDBRANCH  36  37
ENDBRANCH  28  31
ENDBRANCH  26  27
ENDBRANCH   1  26
TORSDOF 17
ENDMDL
