MODEL 1
REMARK VINA RESULT:     -10.6      0.000      0.000
REMARK SMILES C[C@@H](C(=O)NCCCNC(=O)c1ccc(-c2c3nc(c(-c4cccc(S(=O)(=O)[O-])c4F)c4ccc([nH]4)c(-c4cccc(S(=O)(=O)[O-])c4F)c4nc(c(-c5cccc(S(=O)(=O)[O-])c5F)c5ccc2[nH]5)C=C4)C=C3)cc1)c1ccc(-c2ccccc2)cc1
REMARK SMILES IDX 7 1 6 2 5 3 3 4 4 5 2 7 1 8 75 9 76 10 86 11 77 12 85 13
REMARK SMILES IDX 78 14 79 15 80 16 84 17 81 18 83 19 82 20 8 21 9 22 10 23
REMARK SMILES IDX 11 25 12 26 13 27 74 28 14 29 73 30 15 31 16 32 17 33 67 34
REMARK SMILES IDX 18 35 72 36 66 37 68 38 19 39 71 40 65 41 64 42 20 44 52 45
REMARK SMILES IDX 32 46 51 47 33 48 36 49 50 50 69 51 34 52 35 53 49 55 70 56
REMARK SMILES IDX 37 57 21 58 22 59 30 60 23 61 25 62 31 63 24 64 26 65 27 66
REMARK SMILES IDX 28 67 29 68 53 69 54 70 62 71 55 72 57 73 63 74 56 75 58 76
REMARK SMILES IDX 59 77 60 78 61 79 38 80 39 81 47 82 40 83 42 84 48 85 41 86
REMARK SMILES IDX 43 87 44 88 45 89 46 90
REMARK H PARENT 5 6 9 24 68 43 36 54
REMARK Flexibility Score: inf
ROOT
ATOM      1  C   UNL A   1      33.433  33.968  28.691  1.00  0.00     0.042 C 
ENDROOT
BRANCH   1   2
ATOM      2  C   UNL A   1      34.153  35.152  29.337  1.00  0.00     0.117 C 
BRANCH   2   3
ATOM      3  N   UNL A   1      34.032  35.139  30.781  1.00  0.00    -0.356 N 
ATOM      4  C   UNL A   1      34.529  34.272  31.710  1.00  0.00     0.227 C 
ATOM      5  O   UNL A   1      34.228  34.498  32.884  1.00  0.00    -0.274 OA
ATOM      6  H   UNL A   1      33.501  35.881  31.154  1.00  0.00     0.163 HD
BRANCH   4   7
ATOM      7  C   UNL A   1      35.443  33.113  31.276  1.00  0.00     0.105 C 
ATOM      8  C   UNL A   1      35.589  32.044  32.363  1.00  0.00     0.023 C 
BRANCH   7   9
ATOM      9  C   UNL A   1      36.834  33.582  30.854  1.00  0.00    -0.036 A 
ATOM     10  C   UNL A   1      37.291  33.364  29.548  1.00  0.00     0.005 A 
ATOM     11  C   UNL A   1      37.698  34.198  31.770  1.00  0.00     0.005 A 
ATOM     12  C   UNL A   1      38.587  33.738  29.177  1.00  0.00     0.009 A 
ATOM     13  C   UNL A   1      38.991  34.569  31.396  1.00  0.00     0.009 A 
ATOM     14  C   UNL A   1      39.462  34.337  30.097  1.00  0.00    -0.018 A 
BRANCH  14  15
ATOM     15  C   UNL A   1      40.835  34.700  29.720  1.00  0.00    -0.018 A 
ATOM     16  C   UNL A   1      41.091  35.527  28.615  1.00  0.00     0.009 A 
ATOM     17  C   UNL A   1      41.931  34.228  30.462  1.00  0.00     0.009 A 
ATOM     18  C   UNL A   1      42.398  35.872  28.264  1.00  0.00     0.001 A 
ATOM     19  C   UNL A   1      43.238  34.570  30.112  1.00  0.00     0.001 A 
ATOM     20  C   UNL A   1      43.471  35.392  29.012  1.00  0.00     0.000 A 
ENDBRANCH  14  15
ENDBRANCH   7   9
ENDBRANCH   4   7
ENDBRANCH   2   3
ENDBRANCH   1   2
BRANCH   1  21
ATOM     21  C   UNL A   1      34.353  32.957  28.007  1.00  0.00     0.118 C 
BRANCH  21  22
ATOM     22  N   UNL A   1      33.674  31.715  27.674  1.00  0.00    -0.352 N 
ATOM     23  C   UNL A   1      34.147  30.429  27.606  1.00  0.00     0.251 C 
ATOM     24  H   UNL A   1      32.718  31.812  27.462  1.00  0.00     0.163 HD
ATOM     25  O   UNL A   1      33.424  29.558  27.128  1.00  0.00    -0.269 OA
BRANCH  23  26
ATOM     26  C   UNL A   1      35.507  30.077  28.081  1.00  0.00     0.039 A 
ATOM     27  C   UNL A   1      35.656  29.649  29.404  1.00  0.00     0.014 A 
ATOM     28  C   UNL A   1      36.636  30.211  27.268  1.00  0.00     0.014 A 
ATOM     29  C   UNL A   1      36.921  29.309  29.892  1.00  0.00     0.010 A 
ATOM     30  C   UNL A   1      37.889  29.805  27.734  1.00  0.00     0.010 A 
ATOM     31  C   UNL A   1      38.046  29.354  29.052  1.00  0.00    -0.014 A 
BRANCH  31  32
ATOM     32  C   UNL A   1      39.373  28.896  29.541  1.00  0.00     0.031 A 
ATOM     33  C   UNL A   1      40.083  29.615  30.657  1.00  0.00     0.074 A 
ATOM     34  C   UNL A   1      39.971  27.850  28.934  1.00  0.00     0.049 A 
ATOM     35  N   UNL A   1      41.235  29.338  31.213  1.00  0.00    -0.248 NA
ATOM     36  C   UNL A   1      39.427  30.811  31.209  1.00  0.00     0.031 C 
ATOM     37  C   UNL A   1      39.434  27.127  27.780  1.00  0.00     0.029 A 
ATOM     38  N   UNL A   1      41.167  27.227  29.188  1.00  0.00    -0.354 N 
ATOM     39  C   UNL A   1      41.453  30.330  32.161  1.00  0.00     0.074 A 
ATOM     40  C   UNL A   1      40.331  31.241  32.079  1.00  0.00     0.031 C 
ATOM     41  C   UNL A   1      40.292  26.156  27.430  1.00  0.00     0.029 A 
ATOM     42  C   UNL A   1      41.450  26.200  28.318  1.00  0.00     0.049 A 
ATOM     43  H   UNL A   1      41.767  27.492  29.922  1.00  0.00     0.167 HD
ATOM     44  C   UNL A   1      42.476  30.457  33.042  1.00  0.00     0.034 A 
ATOM     45  C   UNL A   1      42.518  25.382  28.242  1.00  0.00     0.034 A 
ATOM     46  C   UNL A   1      43.575  29.533  33.145  1.00  0.00     0.049 A 
ATOM     47  C   UNL A   1      43.611  25.510  29.266  1.00  0.00     0.074 A 
ATOM     48  C   UNL A   1      44.618  29.534  34.056  1.00  0.00     0.029 A 
ATOM     49  N   UNL A   1      43.781  28.449  32.305  1.00  0.00    -0.354 N 
ATOM     50  N   UNL A   1      43.712  26.354  30.265  1.00  0.00    -0.248 NA
ATOM     51  C   UNL A   1      44.716  24.545  29.182  1.00  0.00     0.031 C 
ATOM     52  C   UNL A   1      45.462  28.458  33.758  1.00  0.00     0.029 A 
ATOM     53  C   UNL A   1      44.935  27.777  32.673  1.00  0.00     0.049 A 
ATOM     54  H   UNL A   1      43.194  28.195  31.558  1.00  0.00     0.167 HD
ATOM     55  C   UNL A   1      44.877  26.008  30.940  1.00  0.00     0.074 A 
ATOM     56  C   UNL A   1      45.427  24.854  30.258  1.00  0.00     0.031 C 
ATOM     57  C   UNL A   1      45.452  26.604  32.013  1.00  0.00     0.034 A 
BRANCH  44  58
ATOM     58  C   UNL A   1      42.419  31.603  34.020  1.00  0.00     0.023 A 
ATOM     59  C   UNL A   1      43.013  32.834  33.672  1.00  0.00     0.012 A 
ATOM     60  C   UNL A   1      41.727  31.494  35.242  1.00  0.00     0.148 A 
ATOM     61  C   UNL A   1      42.947  33.927  34.535  1.00  0.00     0.002 A 
ATOM     62  C   UNL A   1      41.629  32.600  36.079  1.00  0.00     0.091 A 
ATOM     63  F   UNL A   1      41.183  30.312  35.565  1.00  0.00    -0.205 F 
ATOM     64  C   UNL A   1      42.247  33.813  35.732  1.00  0.00     0.022 A 
BRANCH  62  65
ATOM     65  S   UNL A   1      40.684  32.581  37.607  1.00  0.00     0.127 S 
ATOM     66  O   UNL A   1      40.510  34.011  37.863  1.00  0.00    -0.237 OA
ATOM     67  O   UNL A   1      39.463  31.882  37.204  1.00  0.00    -0.237 OA
ATOM     68  O   UNL A   1      41.500  31.868  38.577  1.00  0.00    -0.744 OA
ENDBRANCH  62  65
ENDBRANCH  44  58
BRANCH  45  69
ATOM     69  C   UNL A   1      42.568  24.325  27.193  1.00  0.00     0.023 A 
ATOM     70  C   UNL A   1      43.282  24.563  26.003  1.00  0.00     0.012 A 
ATOM     71  C   UNL A   1      41.944  23.078  27.382  1.00  0.00     0.148 A 
ATOM     72  C   UNL A   1      43.347  23.588  25.006  1.00  0.00     0.002 A 
ATOM     73  C   UNL A   1      42.062  22.090  26.411  1.00  0.00     0.091 A 
ATOM     74  F   UNL A   1      41.257  22.876  28.515  1.00  0.00    -0.205 F 
ATOM     75  C   UNL A   1      42.748  22.348  25.215  1.00  0.00     0.022 A 
BRANCH  73  76
ATOM     76  S   UNL A   1      41.445  20.422  26.665  1.00  0.00     0.127 S 
ATOM     77  O   UNL A   1      41.898  19.748  25.451  1.00  0.00    -0.237 OA
ATOM     78  O   UNL A   1      42.142  20.022  27.889  1.00  0.00    -0.237 OA
ATOM     79  O   UNL A   1      40.004  20.559  26.818  1.00  0.00    -0.744 OA
ENDBRANCH  73  76
ENDBRANCH  45  69
BRANCH  57  80
ATOM     80  C   UNL A   1      46.741  26.014  32.525  1.00  0.00     0.023 A 
ATOM     81  C   UNL A   1      47.972  26.514  32.054  1.00  0.00     0.012 A 
ATOM     82  C   UNL A   1      46.736  24.998  33.500  1.00  0.00     0.148 A 
ATOM     83  C   UNL A   1      49.177  25.985  32.515  1.00  0.00     0.002 A 
ATOM     84  C   UNL A   1      47.942  24.507  33.989  1.00  0.00     0.091 A 
ATOM     85  F   UNL A   1      45.557  24.518  33.922  1.00  0.00    -0.205 F 
ATOM     86  C   UNL A   1      49.162  24.990  33.489  1.00  0.00     0.022 A 
BRANCH  84  87
ATOM     87  S   UNL A   1      48.016  23.290  35.308  1.00  0.00     0.127 S 
ATOM     88  O   UNL A   1      49.458  23.167  35.519  1.00  0.00    -0.237 OA
ATOM     89  O   UNL A   1      47.297  23.958  36.393  1.00  0.00    -0.237 OA
ATOM     90  O   UNL A   1      47.353  22.101  34.790  1.00  0.00    -0.744 OA
ENDBRANCH  84  87
ENDBRANCH  57  80
ENDBRANCH  31  32
ENDBRANCH  23  26
ENDBRANCH  21  22
ENDBRANCH   1  21
TORSDOF 15
ENDMDL
MODEL 2
REMARK VINA RESULT:     -10.2      4.294     11.266
REMARK SMILES C[C@@H](C(=O)NCCCNC(=O)c1ccc(-c2c3nc(c(-c4cccc(S(=O)(=O)[O-])c4F)c4ccc([nH]4)c(-c4cccc(S(=O)(=O)[O-])c4F)c4nc(c(-c5cccc(S(=O)(=O)[O-])c5F)c5ccc2[nH]5)C=C4)C=C3)cc1)c1ccc(-c2ccccc2)cc1
REMARK SMILES IDX 7 1 6 2 5 3 3 4 4 5 2 7 1 8 75 9 76 10 86 11 77 12 85 13
REMARK SMILES IDX 78 14 79 15 80 16 84 17 81 18 83 19 82 20 8 21 9 22 10 23
REMARK SMILES IDX 11 25 12 26 13 27 74 28 14 29 73 30 15 31 16 32 17 33 67 34
REMARK SMILES IDX 18 35 72 36 66 37 68 38 19 39 71 40 65 41 64 42 20 44 52 45
REMARK SMILES IDX 32 46 51 47 33 48 36 49 50 50 69 51 34 52 35 53 49 55 70 56
REMARK SMILES IDX 37 57 21 58 22 59 30 60 23 61 25 62 31 63 24 64 26 65 27 66
REMARK SMILES IDX 28 67 29 68 53 69 54 70 62 71 55 72 57 73 63 74 56 75 58 76
REMARK SMILES IDX 59 77 60 78 61 79 38 80 39 81 47 82 40 83 42 84 48 85 41 86
REMARK SMILES IDX 43 87 44 88 45 89 46 90
REMARK H PARENT 5 6 9 24 68 43 36 54
REMARK Flexibility Score: inf
ROOT
ATOM      1  C   UNL A   1      41.985  20.359  27.254  1.00  0.00     0.042 C 
ENDROOT
BRANCH   1   2
ATOM      2  C   UNL A   1      42.508  20.502  25.825  1.00  0.00     0.117 C 
BRANCH   2   3
ATOM      3  N   UNL A   1      43.954  20.589  25.781  1.00  0.00    -0.356 N 
ATOM      4  C   UNL A   1      44.781  21.674  25.748  1.00  0.00     0.227 C 
ATOM      5  O   UNL A   1      45.989  21.437  25.678  1.00  0.00    -0.274 OA
ATOM      6  H   UNL A   1      44.417  19.719  25.774  1.00  0.00     0.163 HD
BRANCH   4   7
ATOM      7  C   UNL A   1      44.198  23.095  25.836  1.00  0.00     0.105 C 
ATOM      8  C   UNL A   1      44.896  24.073  24.886  1.00  0.00     0.023 C 
BRANCH   7   9
ATOM      9  C   UNL A   1      44.239  23.665  27.252  1.00  0.00    -0.036 A 
ATOM     10  C   UNL A   1      45.459  24.032  27.834  1.00  0.00     0.005 A 
ATOM     11  C   UNL A   1      43.070  23.793  28.015  1.00  0.00     0.005 A 
ATOM     12  C   UNL A   1      45.506  24.498  29.153  1.00  0.00     0.009 A 
ATOM     13  C   UNL A   1      43.121  24.257  29.331  1.00  0.00     0.009 A 
ATOM     14  C   UNL A   1      44.339  24.608  29.926  1.00  0.00    -0.018 A 
BRANCH  14  15
ATOM     15  C   UNL A   1      44.390  25.065  31.321  1.00  0.00    -0.018 A 
ATOM     16  C   UNL A   1      44.155  26.407  31.657  1.00  0.00     0.009 A 
ATOM     17  C   UNL A   1      44.672  24.161  32.361  1.00  0.00     0.009 A 
ATOM     18  C   UNL A   1      44.200  26.834  32.986  1.00  0.00     0.001 A 
ATOM     19  C   UNL A   1      44.719  24.586  33.690  1.00  0.00     0.001 A 
ATOM     20  C   UNL A   1      44.483  25.923  34.002  1.00  0.00     0.000 A 
ENDBRANCH  14  15
ENDBRANCH   7   9
ENDBRANCH   4   7
ENDBRANCH   2   3
ENDBRANCH   1   2
BRANCH   1  21
ATOM     21  C   UNL A   1      40.979  21.430  27.676  1.00  0.00     0.118 C 
BRANCH  21  22
ATOM     22  N   UNL A   1      39.879  21.571  26.737  1.00  0.00    -0.352 N 
ATOM     23  C   UNL A   1      39.151  22.675  26.373  1.00  0.00     0.251 C 
ATOM     24  H   UNL A   1      39.613  20.737  26.287  1.00  0.00     0.163 HD
ATOM     25  O   UNL A   1      38.144  22.519  25.685  1.00  0.00    -0.269 OA
BRANCH  23  26
ATOM     26  C   UNL A   1      39.543  24.039  26.803  1.00  0.00     0.039 A 
ATOM     27  C   UNL A   1      39.265  24.423  28.118  1.00  0.00     0.014 A 
ATOM     28  C   UNL A   1      40.127  24.956  25.925  1.00  0.00     0.014 A 
ATOM     29  C   UNL A   1      39.616  25.700  28.563  1.00  0.00     0.010 A 
ATOM     30  C   UNL A   1      40.541  26.206  26.389  1.00  0.00     0.010 A 
ATOM     31  C   UNL A   1      40.286  26.595  27.712  1.00  0.00    -0.014 A 
BRANCH  31  32
ATOM     32  C   UNL A   1      40.751  27.914  28.215  1.00  0.00     0.031 A 
ATOM     33  C   UNL A   1      42.216  28.258  28.260  1.00  0.00     0.074 A 
ATOM     34  C   UNL A   1      39.844  28.792  28.689  1.00  0.00     0.049 A 
ATOM     35  N   UNL A   1      42.788  29.368  28.654  1.00  0.00    -0.248 NA
ATOM     36  C   UNL A   1      43.163  27.219  27.827  1.00  0.00     0.031 C 
ATOM     37  C   UNL A   1      38.404  28.545  28.790  1.00  0.00     0.029 A 
ATOM     38  N   UNL A   1      39.997  30.060  29.192  1.00  0.00    -0.354 N 
ATOM     39  C   UNL A   1      44.157  29.156  28.538  1.00  0.00     0.074 A 
ATOM     40  C   UNL A   1      44.332  27.796  28.072  1.00  0.00     0.031 C 
ATOM     41  C   UNL A   1      37.807  29.626  29.314  1.00  0.00     0.029 A 
ATOM     42  C   UNL A   1      38.819  30.635  29.608  1.00  0.00     0.049 A 
ATOM     43  H   UNL A   1      40.869  30.515  29.251  1.00  0.00     0.167 HD
ATOM     44  C   UNL A   1      45.175  30.021  28.765  1.00  0.00     0.034 A 
ATOM     45  C   UNL A   1      38.577  31.839  30.162  1.00  0.00     0.034 A 
ATOM     46  C   UNL A   1      45.000  31.383  29.197  1.00  0.00     0.049 A 
ATOM     47  C   UNL A   1      39.718  32.799  30.352  1.00  0.00     0.074 A 
ATOM     48  C   UNL A   1      45.964  32.360  29.380  1.00  0.00     0.029 A 
ATOM     49  N   UNL A   1      43.782  31.961  29.522  1.00  0.00    -0.354 N 
ATOM     50  N   UNL A   1      40.989  32.637  30.073  1.00  0.00    -0.248 NA
ATOM     51  C   UNL A   1      39.387  34.126  30.890  1.00  0.00     0.031 C 
ATOM     52  C   UNL A   1      45.330  33.524  29.829  1.00  0.00     0.029 A 
ATOM     53  C   UNL A   1      43.969  33.278  29.908  1.00  0.00     0.049 A 
ATOM     54  H   UNL A   1      42.912  31.503  29.483  1.00  0.00     0.167 HD
ATOM     55  C   UNL A   1      41.605  33.845  30.380  1.00  0.00     0.074 A 
ATOM     56  C   UNL A   1      40.560  34.742  30.831  1.00  0.00     0.031 C 
ATOM     57  C   UNL A   1      42.918  34.175  30.316  1.00  0.00     0.034 A 
BRANCH  44  58
ATOM     58  C   UNL A   1      46.577  29.543  28.482  1.00  0.00     0.023 A 
ATOM     59  C   UNL A   1      47.135  29.765  27.207  1.00  0.00     0.012 A 
ATOM     60  C   UNL A   1      47.364  28.941  29.484  1.00  0.00     0.148 A 
ATOM     61  C   UNL A   1      48.442  29.370  26.922  1.00  0.00     0.002 A 
ATOM     62  C   UNL A   1      48.680  28.587  29.205  1.00  0.00     0.091 A 
ATOM     63  F   UNL A   1      46.812  28.720  30.685  1.00  0.00    -0.205 F 
ATOM     64  C   UNL A   1      49.216  28.791  27.923  1.00  0.00     0.022 A 
BRANCH  62  65
ATOM     65  S   UNL A   1      49.786  27.906  30.446  1.00  0.00     0.127 S 
ATOM     66  O   UNL A   1      49.704  28.917  31.500  1.00  0.00    -0.237 OA
ATOM     67  O   UNL A   1      49.137  26.635  30.772  1.00  0.00    -0.237 OA
ATOM     68  O   UNL A   1      51.084  27.778  29.803  1.00  0.00    -0.744 OA
ENDBRANCH  62  65
ENDBRANCH  44  58
BRANCH  45  69
ATOM     69  C   UNL A   1      37.181  32.226  30.513  1.00  0.00     0.023 A 
ATOM     70  C   UNL A   1      36.712  32.014  31.824  1.00  0.00     0.012 A 
ATOM     71  C   UNL A   1      36.332  32.833  29.569  1.00  0.00     0.148 A 
ATOM     72  C   UNL A   1      35.410  32.369  32.179  1.00  0.00     0.002 A 
ATOM     73  C   UNL A   1      35.057  33.239  29.945  1.00  0.00     0.091 A 
ATOM     74  F   UNL A   1      36.792  33.014  28.323  1.00  0.00    -0.205 F 
ATOM     75  C   UNL A   1      34.587  32.993  31.244  1.00  0.00     0.022 A 
BRANCH  73  76
ATOM     76  S   UNL A   1      33.989  34.177  28.846  1.00  0.00     0.127 S 
ATOM     77  O   UNL A   1      32.911  34.578  29.746  1.00  0.00    -0.237 OA
ATOM     78  O   UNL A   1      34.872  35.263  28.418  1.00  0.00    -0.237 OA
ATOM     79  O   UNL A   1      33.621  33.254  27.781  1.00  0.00    -0.744 OA
ENDBRANCH  73  76
ENDBRANCH  45  69
BRANCH  57  80
ATOM     80  C   UNL A   1      43.301  35.571  30.736  1.00  0.00     0.023 A 
ATOM     81  C   UNL A   1      43.619  35.831  32.084  1.00  0.00     0.012 A 
ATOM     82  C   UNL A   1      43.389  36.614  29.793  1.00  0.00     0.148 A 
ATOM     83  C   UNL A   1      43.978  37.114  32.496  1.00  0.00     0.002 A 
ATOM     84  C   UNL A   1      43.794  37.880  30.202  1.00  0.00     0.091 A 
ATOM     85  F   UNL A   1      43.064  36.356  28.518  1.00  0.00    -0.205 F 
ATOM     86  C   UNL A   1      44.076  38.134  31.554  1.00  0.00     0.022 A 
BRANCH  84  87
ATOM     87  S   UNL A   1      44.034  39.230  29.041  1.00  0.00     0.127 S 
ATOM     88  O   UNL A   1      42.673  39.448  28.552  1.00  0.00    -0.237 OA
ATOM     89  O   UNL A   1      44.549  40.296  29.902  1.00  0.00    -0.237 OA
ATOM     90  O   UNL A   1      44.986  38.741  28.054  1.00  0.00    -0.744 OA
ENDBRANCH  84  87
ENDBRANCH  57  80
ENDBRANCH  31  32
ENDBRANCH  23  26
ENDBRANCH  21  22
ENDBRANCH   1  21
TORSDOF 15
ENDMDL
MODEL 3
REMARK VINA RESULT:     -10.0      4.116     11.143
REMARK SMILES C[C@@H](C(=O)NCCCNC(=O)c1ccc(-c2c3nc(c(-c4cccc(S(=O)(=O)[O-])c4F)c4ccc([nH]4)c(-c4cccc(S(=O)(=O)[O-])c4F)c4nc(c(-c5cccc(S(=O)(=O)[O-])c5F)c5ccc2[nH]5)C=C4)C=C3)cc1)c1ccc(-c2ccccc2)cc1
REMARK SMILES IDX 7 1 6 2 5 3 3 4 4 5 2 7 1 8 75 9 76 10 86 11 77 12 85 13
REMARK SMILES IDX 78 14 79 15 80 16 84 17 81 18 83 19 82 20 8 21 9 22 10 23
REMARK SMILES IDX 11 25 12 26 13 27 74 28 14 29 73 30 15 31 16 32 17 33 67 34
REMARK SMILES IDX 18 35 72 36 66 37 68 38 19 39 71 40 65 41 64 42 20 44 52 45
REMARK SMILES IDX 32 46 51 47 33 48 36 49 50 50 69 51 34 52 35 53 49 55 70 56
REMARK SMILES IDX 37 57 21 58 22 59 30 60 23 61 25 62 31 63 24 64 26 65 27 66
REMARK SMILES IDX 28 67 29 68 53 69 54 70 62 71 55 72 57 73 63 74 56 75 58 76
REMARK SMILES IDX 59 77 60 78 61 79 38 80 39 81 47 82 40 83 42 84 48 85 41 86
REMARK SMILES IDX 43 87 44 88 45 89 46 90
REMARK H PARENT 5 6 9 24 68 43 36 54
REMARK Flexibility Score: inf
ROOT
ATOM      1  C   UNL A   1      41.929  20.314  27.214  1.00  0.00     0.042 C 
ENDROOT
BRANCH   1   2
ATOM      2  C   UNL A   1      42.433  20.502  25.784  1.00  0.00     0.117 C 
BRANCH   2   3
ATOM      3  N   UNL A   1      43.880  20.561  25.721  1.00  0.00    -0.356 N 
ATOM      4  C   UNL A   1      44.730  21.628  25.755  1.00  0.00     0.227 C 
ATOM      5  O   UNL A   1      45.931  21.372  25.645  1.00  0.00    -0.274 OA
ATOM      6  H   UNL A   1      44.323  19.685  25.640  1.00  0.00     0.163 HD
BRANCH   4   7
ATOM      7  C   UNL A   1      44.181  23.050  25.961  1.00  0.00     0.105 C 
ATOM      8  C   UNL A   1      44.900  24.087  25.092  1.00  0.00     0.023 C 
BRANCH   7   9
ATOM      9  C   UNL A   1      44.238  23.502  27.418  1.00  0.00    -0.036 A 
ATOM     10  C   UNL A   1      45.446  23.934  27.981  1.00  0.00     0.005 A 
ATOM     11  C   UNL A   1      43.100  23.453  28.236  1.00  0.00     0.005 A 
ATOM     12  C   UNL A   1      45.513  24.291  29.332  1.00  0.00     0.009 A 
ATOM     13  C   UNL A   1      43.171  23.809  29.584  1.00  0.00     0.009 A 
ATOM     14  C   UNL A   1      44.379  24.224  30.158  1.00  0.00    -0.018 A 
BRANCH  14  15
ATOM     15  C   UNL A   1      44.455  24.565  31.585  1.00  0.00    -0.018 A 
ATOM     16  C   UNL A   1      44.380  23.573  32.576  1.00  0.00     0.009 A 
ATOM     17  C   UNL A   1      44.609  25.901  31.996  1.00  0.00     0.009 A 
ATOM     18  C   UNL A   1      44.457  23.904  33.931  1.00  0.00     0.001 A 
ATOM     19  C   UNL A   1      44.684  26.234  33.350  1.00  0.00     0.001 A 
ATOM     20  C   UNL A   1      44.608  25.234  34.317  1.00  0.00     0.000 A 
ENDBRANCH  14  15
ENDBRANCH   7   9
ENDBRANCH   4   7
ENDBRANCH   2   3
ENDBRANCH   1   2
BRANCH   1  21
ATOM     21  C   UNL A   1      40.880  21.333  27.661  1.00  0.00     0.118 C 
BRANCH  21  22
ATOM     22  N   UNL A   1      39.824  21.521  26.680  1.00  0.00    -0.352 N 
ATOM     23  C   UNL A   1      39.128  22.647  26.321  1.00  0.00     0.251 C 
ATOM     24  H   UNL A   1      39.566  20.706  26.192  1.00  0.00     0.163 HD
ATOM     25  O   UNL A   1      38.150  22.528  25.585  1.00  0.00    -0.269 OA
BRANCH  23  26
ATOM     26  C   UNL A   1      39.521  23.990  26.811  1.00  0.00     0.039 A 
ATOM     27  C   UNL A   1      39.162  24.349  28.115  1.00  0.00     0.014 A 
ATOM     28  C   UNL A   1      40.183  24.914  25.999  1.00  0.00     0.014 A 
ATOM     29  C   UNL A   1      39.511  25.606  28.615  1.00  0.00     0.010 A 
ATOM     30  C   UNL A   1      40.592  26.142  26.522  1.00  0.00     0.010 A 
ATOM     31  C   UNL A   1      40.257  26.504  27.834  1.00  0.00    -0.014 A 
BRANCH  31  32
ATOM     32  C   UNL A   1      40.716  27.799  28.402  1.00  0.00     0.031 A 
ATOM     33  C   UNL A   1      42.181  28.088  28.599  1.00  0.00     0.074 A 
ATOM     34  C   UNL A   1      39.798  28.706  28.796  1.00  0.00     0.049 A 
ATOM     35  N   UNL A   1      42.750  29.171  29.065  1.00  0.00    -0.248 NA
ATOM     36  C   UNL A   1      43.128  27.019  28.247  1.00  0.00     0.031 C 
ATOM     37  C   UNL A   1      38.347  28.511  28.748  1.00  0.00     0.029 A 
ATOM     38  N   UNL A   1      39.946  29.961  29.331  1.00  0.00    -0.354 N 
ATOM     39  C   UNL A   1      44.115  28.910  29.083  1.00  0.00     0.074 A 
ATOM     40  C   UNL A   1      44.287  27.550  28.617  1.00  0.00     0.031 C 
ATOM     41  C   UNL A   1      37.740  29.607  29.227  1.00  0.00     0.029 A 
ATOM     42  C   UNL A   1      38.753  30.574  29.636  1.00  0.00     0.049 A 
ATOM     43  H   UNL A   1      40.822  30.382  29.484  1.00  0.00     0.167 HD
ATOM     44  C   UNL A   1      45.135  29.734  29.424  1.00  0.00     0.034 A 
ATOM     45  C   UNL A   1      38.500  31.780  30.181  1.00  0.00     0.034 A 
ATOM     46  C   UNL A   1      44.966  31.096  29.857  1.00  0.00     0.049 A 
ATOM     47  C   UNL A   1      39.650  32.695  30.499  1.00  0.00     0.074 A 
ATOM     48  C   UNL A   1      45.942  32.034  30.151  1.00  0.00     0.029 A 
ATOM     49  N   UNL A   1      43.743  31.716  30.067  1.00  0.00    -0.354 N 
ATOM     50  N   UNL A   1      40.935  32.488  30.346  1.00  0.00    -0.248 NA
ATOM     51  C   UNL A   1      39.314  34.027  31.022  1.00  0.00     0.031 C 
ATOM     52  C   UNL A   1      45.307  33.216  30.552  1.00  0.00     0.029 A 
ATOM     53  C   UNL A   1      43.938  33.020  30.490  1.00  0.00     0.049 A 
ATOM     54  H   UNL A   1      42.866  31.291  29.935  1.00  0.00     0.167 HD
ATOM     55  C   UNL A   1      41.560  33.669  30.731  1.00  0.00     0.074 A 
ATOM     56  C   UNL A   1      40.508  34.599  31.090  1.00  0.00     0.031 C 
ATOM     57  C   UNL A   1      42.884  33.951  30.805  1.00  0.00     0.034 A 
BRANCH  44  58
ATOM     58  C   UNL A   1      46.540  29.207  29.276  1.00  0.00     0.023 A 
ATOM     59  C   UNL A   1      47.099  28.437  30.317  1.00  0.00     0.012 A 
ATOM     60  C   UNL A   1      47.279  29.408  28.094  1.00  0.00     0.148 A 
ATOM     61  C   UNL A   1      48.382  27.901  30.198  1.00  0.00     0.002 A 
ATOM     62  C   UNL A   1      48.541  28.835  27.965  1.00  0.00     0.091 A 
ATOM     63  F   UNL A   1      46.740  30.156  27.122  1.00  0.00    -0.205 F 
ATOM     64  C   UNL A   1      49.096  28.092  29.019  1.00  0.00     0.022 A 
BRANCH  62  65
ATOM     65  S   UNL A   1      49.513  28.956  26.458  1.00  0.00     0.127 S 
ATOM     66  O   UNL A   1      50.680  28.141  26.796  1.00  0.00    -0.237 OA
ATOM     67  O   UNL A   1      48.618  28.355  25.467  1.00  0.00    -0.237 OA
ATOM     68  O   UNL A   1      49.775  30.372  26.260  1.00  0.00    -0.744 OA
ENDBRANCH  62  65
ENDBRANCH  44  58
BRANCH  45  69
ATOM     69  C   UNL A   1      37.090  32.214  30.397  1.00  0.00     0.023 A 
ATOM     70  C   UNL A   1      36.576  32.274  31.706  1.00  0.00     0.012 A 
ATOM     71  C   UNL A   1      36.272  32.601  29.318  1.00  0.00     0.148 A 
ATOM     72  C   UNL A   1      35.261  32.680  31.934  1.00  0.00     0.002 A 
ATOM     73  C   UNL A   1      34.983  33.061  29.558  1.00  0.00     0.091 A 
ATOM     74  F   UNL A   1      36.775  32.524  28.078  1.00  0.00    -0.205 F 
ATOM     75  C   UNL A   1      34.468  33.085  30.863  1.00  0.00     0.022 A 
BRANCH  73  76
ATOM     76  S   UNL A   1      33.950  33.736  28.252  1.00  0.00     0.127 S 
ATOM     77  O   UNL A   1      34.921  34.494  27.465  1.00  0.00    -0.237 OA
ATOM     78  O   UNL A   1      33.445  32.524  27.606  1.00  0.00    -0.237 OA
ATOM     79  O   UNL A   1      32.928  34.520  28.930  1.00  0.00    -0.744 OA
ENDBRANCH  73  76
ENDBRANCH  45  69
BRANCH  57  80
ATOM     80  C   UNL A   1      43.273  35.327  31.282  1.00  0.00     0.023 A 
ATOM     81  C   UNL A   1      43.582  36.329  30.341  1.00  0.00     0.012 A 
ATOM     82  C   UNL A   1      43.290  35.640  32.655  1.00  0.00     0.148 A 
ATOM     83  C   UNL A   1      43.943  37.610  30.759  1.00  0.00     0.002 A 
ATOM     84  C   UNL A   1      43.604  36.932  33.063  1.00  0.00     0.091 A 
ATOM     85  F   UNL A   1      43.013  34.670  33.539  1.00  0.00    -0.205 F 
ATOM     86  C   UNL A   1      43.944  37.913  32.118  1.00  0.00     0.022 A 
BRANCH  84  87
ATOM     87  S   UNL A   1      43.542  37.434  34.787  1.00  0.00     0.127 S 
ATOM     88  O   UNL A   1      43.877  38.854  34.696  1.00  0.00    -0.237 OA
ATOM     89  O   UNL A   1      42.150  37.159  35.144  1.00  0.00    -0.237 OA
ATOM     90  O   UNL A   1      44.515  36.601  35.479  1.00  0.00    -0.744 OA
ENDBRANCH  84  87
ENDBRANCH  57  80
ENDBRANCH  31  32
ENDBRANCH  23  26
ENDBRANCH  21  22
ENDBRANCH   1  21
TORSDOF 15
ENDMDL
