MODEL 1
REMARK VINA RESULT:      -9.3      0.000      0.000
REMARK SMILES CC(C)Cc1ccc([C@@H](C)C(=O)NCCCNC(=O)c2ccc(-c3c4nc(c(-c5cccc(S(=O)(=O)[O-])c5F)c5ccc([nH]5)c(-c5cccc(S(=O)(=O)[O-])c5F)c5nc(c(-c6cccc(S(=O)(=O)[O-])c6F)c6ccc3[nH]6)C=C5)C=C4)cc2)cc1
REMARK SMILES IDX 15 1 14 2 13 3 11 4 12 5 9 7 10 8 8 9 5 10 6 11 84 12 7 13
REMARK SMILES IDX 83 14 4 15 2 16 1 17 3 18 16 19 17 20 18 21 19 23 20 24
REMARK SMILES IDX 21 25 82 26 22 27 81 28 23 29 24 30 25 31 75 32 26 33 80 34
REMARK SMILES IDX 74 35 76 36 27 37 79 38 73 39 72 40 28 42 60 43 40 44 59 45
REMARK SMILES IDX 41 46 44 47 58 48 77 49 42 50 43 51 57 53 78 54 45 55 29 56
REMARK SMILES IDX 30 57 38 58 31 59 33 60 39 61 32 62 34 63 35 64 36 65 37 66
REMARK SMILES IDX 61 67 62 68 70 69 63 70 65 71 71 72 64 73 66 74 67 75 68 76
REMARK SMILES IDX 69 77 46 78 47 79 55 80 48 81 50 82 56 83 49 84 51 85 52 86
REMARK SMILES IDX 53 87 54 88
REMARK H PARENT 13 6 17 22 76 41 44 52
REMARK Flexibility Score: inf
ROOT
ATOM      1  C   UNL A   1      34.339  34.587  28.366  1.00  0.00     0.042 C 
ENDROOT
BRANCH   1   2
ATOM      2  C   UNL A   1      33.455  34.216  29.553  1.00  0.00     0.117 C 
BRANCH   2   3
ATOM      3  N   UNL A   1      33.868  34.856  30.787  1.00  0.00    -0.356 N 
ATOM      4  C   UNL A   1      34.816  34.525  31.705  1.00  0.00     0.227 C 
ATOM      5  O   UNL A   1      34.927  35.286  32.676  1.00  0.00    -0.274 OA
ATOM      6  H   UNL A   1      33.372  35.678  30.998  1.00  0.00     0.163 HD
BRANCH   4   7
ATOM      7  C   UNL A   1      35.743  33.310  31.579  1.00  0.00     0.105 C 
ATOM      8  C   UNL A   1      35.669  32.337  32.757  1.00  0.00     0.023 C 
BRANCH   7   9
ATOM      9  C   UNL A   1      37.140  33.655  31.095  1.00  0.00    -0.036 A 
ATOM     10  C   UNL A   1      39.771  34.305  30.286  1.00  0.00    -0.048 A 
ATOM     11  C   UNL A   1      38.879  33.702  29.396  1.00  0.00     0.004 A 
ATOM     12  C   UNL A   1      39.349  34.568  31.592  1.00  0.00     0.004 A 
ATOM     13  C   UNL A   1      37.572  33.413  29.786  1.00  0.00     0.005 A 
ATOM     14  C   UNL A   1      38.053  34.234  31.994  1.00  0.00     0.005 A 
BRANCH  10  15
ATOM     15  C   UNL A   1      41.135  34.738  29.799  1.00  0.00     0.038 C 
BRANCH  15  16
ATOM     16  C   UNL A   1      42.262  33.987  30.536  1.00  0.00    -0.013 C 
ATOM     17  C   UNL A   1      42.758  32.777  29.740  1.00  0.00     0.008 C 
ATOM     18  C   UNL A   1      43.425  34.931  30.834  1.00  0.00     0.008 C 
ENDBRANCH  15  16
ENDBRANCH  10  15
ENDBRANCH   7   9
ENDBRANCH   4   7
ENDBRANCH   2   3
ENDBRANCH   1   2
BRANCH   1  19
ATOM     19  C   UNL A   1      35.085  33.405  27.757  1.00  0.00     0.118 C 
BRANCH  19  20
ATOM     20  N   UNL A   1      34.254  32.210  27.671  1.00  0.00    -0.352 N 
ATOM     21  C   UNL A   1      34.575  30.882  27.815  1.00  0.00     0.251 C 
ATOM     22  H   UNL A   1      33.305  32.383  27.477  1.00  0.00     0.163 HD
ATOM     23  O   UNL A   1      33.757  30.030  27.475  1.00  0.00    -0.269 OA
BRANCH  21  24
ATOM     24  C   UNL A   1      35.886  30.464  28.361  1.00  0.00     0.039 A 
ATOM     25  C   UNL A   1      35.948  29.980  29.674  1.00  0.00     0.014 A 
ATOM     26  C   UNL A   1      37.059  30.584  27.613  1.00  0.00     0.014 A 
ATOM     27  C   UNL A   1      37.168  29.549  30.202  1.00  0.00     0.010 A 
ATOM     28  C   UNL A   1      38.259  30.084  28.112  1.00  0.00     0.010 A 
ATOM     29  C   UNL A   1      38.327  29.557  29.410  1.00  0.00    -0.014 A 
BRANCH  29  30
ATOM     30  C   UNL A   1      39.608  28.983  29.898  1.00  0.00     0.031 A 
ATOM     31  C   UNL A   1      40.379  29.657  31.001  1.00  0.00     0.074 A 
ATOM     32  C   UNL A   1      40.132  27.912  29.269  1.00  0.00     0.049 A 
ATOM     33  N   UNL A   1      41.557  29.358  31.484  1.00  0.00    -0.248 NA
ATOM     34  C   UNL A   1      39.756  30.836  31.625  1.00  0.00     0.031 C 
ATOM     35  C   UNL A   1      39.515  27.213  28.138  1.00  0.00     0.029 A 
ATOM     36  N   UNL A   1      41.316  27.246  29.463  1.00  0.00    -0.354 N 
ATOM     37  C   UNL A   1      41.834  30.328  32.440  1.00  0.00     0.074 A 
ATOM     38  C   UNL A   1      40.711  31.240  32.451  1.00  0.00     0.031 C 
ATOM     39  C   UNL A   1      40.329  26.224  27.736  1.00  0.00     0.029 A 
ATOM     40  C   UNL A   1      41.539  26.241  28.551  1.00  0.00     0.049 A 
ATOM     41  H   UNL A   1      41.946  27.467  30.186  1.00  0.00     0.167 HD
ATOM     42  C   UNL A   1      42.913  30.436  33.252  1.00  0.00     0.034 A 
ATOM     43  C   UNL A   1      42.606  25.437  28.373  1.00  0.00     0.034 A 
ATOM     44  C   UNL A   1      44.010  29.505  33.264  1.00  0.00     0.049 A 
ATOM     45  C   UNL A   1      43.786  25.572  29.293  1.00  0.00     0.074 A 
ATOM     46  C   UNL A   1      45.099  29.470  34.116  1.00  0.00     0.029 A 
ATOM     47  N   UNL A   1      44.169  28.456  32.371  1.00  0.00    -0.354 N 
ATOM     48  N   UNL A   1      43.954  26.390  30.303  1.00  0.00    -0.248 NA
ATOM     49  C   UNL A   1      44.916  24.657  29.067  1.00  0.00     0.031 C 
ATOM     50  C   UNL A   1      45.932  28.419  33.720  1.00  0.00     0.029 A 
ATOM     51  C   UNL A   1      45.349  27.783  32.636  1.00  0.00     0.049 A 
ATOM     52  H   UNL A   1      43.534  28.224  31.654  1.00  0.00     0.167 HD
ATOM     53  C   UNL A   1      45.194  26.075  30.847  1.00  0.00     0.074 A 
ATOM     54  C   UNL A   1      45.721  24.970  30.073  1.00  0.00     0.031 C 
ATOM     55  C   UNL A   1      45.845  26.660  31.883  1.00  0.00     0.034 A 
BRANCH  42  56
ATOM     56  C   UNL A   1      42.941  31.578  34.235  1.00  0.00     0.023 A 
ATOM     57  C   UNL A   1      43.533  32.802  33.862  1.00  0.00     0.012 A 
ATOM     58  C   UNL A   1      42.326  31.465  35.497  1.00  0.00     0.148 A 
ATOM     59  C   UNL A   1      43.543  33.884  34.741  1.00  0.00     0.002 A 
ATOM     60  C   UNL A   1      42.301  32.562  36.352  1.00  0.00     0.091 A 
ATOM     61  F   UNL A   1      41.784  30.288  35.843  1.00  0.00    -0.205 F 
ATOM     62  C   UNL A   1      42.919  33.768  35.979  1.00  0.00     0.022 A 
BRANCH  60  63
ATOM     63  S   UNL A   1      41.457  32.541  37.937  1.00  0.00     0.127 S 
ATOM     64  O   UNL A   1      40.117  32.102  37.552  1.00  0.00    -0.237 OA
ATOM     65  O   UNL A   1      42.232  31.551  38.685  1.00  0.00    -0.237 OA
ATOM     66  O   UNL A   1      41.544  33.898  38.457  1.00  0.00    -0.744 OA
ENDBRANCH  60  63
ENDBRANCH  42  56
BRANCH  43  67
ATOM     67  C   UNL A   1      42.588  24.409  27.295  1.00  0.00     0.023 A 
ATOM     68  C   UNL A   1      43.195  24.693  26.056  1.00  0.00     0.012 A 
ATOM     69  C   UNL A   1      42.004  23.144  27.499  1.00  0.00     0.148 A 
ATOM     70  C   UNL A   1      43.196  23.746  25.031  1.00  0.00     0.002 A 
ATOM     71  C   UNL A   1      42.060  22.185  26.494  1.00  0.00     0.091 A 
ATOM     72  F   UNL A   1      41.421  22.898  28.681  1.00  0.00    -0.205 F 
ATOM     73  C   UNL A   1      42.640  22.489  25.254  1.00  0.00     0.022 A 
BRANCH  71  74
ATOM     74  S   UNL A   1      41.489  20.500  26.742  1.00  0.00     0.127 S 
ATOM     75  O   UNL A   1      42.255  20.091  27.915  1.00  0.00    -0.237 OA
ATOM     76  O   UNL A   1      40.058  20.699  26.977  1.00  0.00    -0.237 OA
ATOM     77  O   UNL A   1      41.802  19.795  25.506  1.00  0.00    -0.744 OA
ENDBRANCH  71  74
ENDBRANCH  43  67
BRANCH  55  78
ATOM     78  C   UNL A   1      47.201  26.115  32.251  1.00  0.00     0.023 A 
ATOM     79  C   UNL A   1      48.355  26.654  31.647  1.00  0.00     0.012 A 
ATOM     80  C   UNL A   1      47.338  25.128  33.248  1.00  0.00     0.148 A 
ATOM     81  C   UNL A   1      49.622  26.199  32.009  1.00  0.00     0.002 A 
ATOM     82  C   UNL A   1      48.606  24.716  33.638  1.00  0.00     0.091 A 
ATOM     83  F   UNL A   1      46.226  24.618  33.798  1.00  0.00    -0.205 F 
ATOM     84  C   UNL A   1      49.748  25.240  33.011  1.00  0.00     0.022 A 
BRANCH  82  85
ATOM     85  S   UNL A   1      48.874  23.554  34.982  1.00  0.00     0.127 S 
ATOM     86  O   UNL A   1      50.245  23.871  35.380  1.00  0.00    -0.237 OA
ATOM     87  O   UNL A   1      47.850  23.956  35.947  1.00  0.00    -0.237 OA
ATOM     88  O   UNL A   1      48.683  22.226  34.413  1.00  0.00    -0.744 OA
ENDBRANCH  82  85
ENDBRANCH  55  78
ENDBRANCH  29  30
ENDBRANCH  21  24
ENDBRANCH  19  20
ENDBRANCH   1  19
TORSDOF 16
ENDMDL
MODEL 2
REMARK VINA RESULT:      -9.3      2.721      5.342
REMARK SMILES CC(C)Cc1ccc([C@@H](C)C(=O)NCCCNC(=O)c2ccc(-c3c4nc(c(-c5cccc(S(=O)(=O)[O-])c5F)c5ccc([nH]5)c(-c5cccc(S(=O)(=O)[O-])c5F)c5nc(c(-c6cccc(S(=O)(=O)[O-])c6F)c6ccc3[nH]6)C=C5)C=C4)cc2)cc1
REMARK SMILES IDX 15 1 14 2 13 3 11 4 12 5 9 7 10 8 8 9 5 10 6 11 84 12 7 13
REMARK SMILES IDX 83 14 4 15 2 16 1 17 3 18 16 19 17 20 18 21 19 23 20 24
REMARK SMILES IDX 21 25 82 26 22 27 81 28 23 29 24 30 25 31 75 32 26 33 80 34
REMARK SMILES IDX 74 35 76 36 27 37 79 38 73 39 72 40 28 42 60 43 40 44 59 45
REMARK SMILES IDX 41 46 44 47 58 48 77 49 42 50 43 51 57 53 78 54 45 55 29 56
REMARK SMILES IDX 30 57 38 58 31 59 33 60 39 61 32 62 34 63 35 64 36 65 37 66
REMARK SMILES IDX 61 67 62 68 70 69 63 70 65 71 71 72 64 73 66 74 67 75 68 76
REMARK SMILES IDX 69 77 46 78 47 79 55 80 48 81 50 82 56 83 49 84 51 85 52 86
REMARK SMILES IDX 53 87 54 88
REMARK H PARENT 13 6 17 22 76 41 44 52
REMARK Flexibility Score: inf
ROOT
ATOM      1  C   UNL A   1      32.844  28.314  27.368  1.00  0.00     0.042 C 
ENDROOT
BRANCH   1   2
ATOM      2  C   UNL A   1      31.496  28.025  26.714  1.00  0.00     0.117 C 
BRANCH   2   3
ATOM      3  N   UNL A   1      31.415  28.508  25.349  1.00  0.00    -0.356 N 
ATOM      4  C   UNL A   1      31.259  27.855  24.165  1.00  0.00     0.227 C 
ATOM      5  O   UNL A   1      31.234  28.562  23.149  1.00  0.00    -0.274 OA
ATOM      6  H   UNL A   1      31.487  29.485  25.263  1.00  0.00     0.163 HD
BRANCH   4   7
ATOM      7  C   UNL A   1      31.087  26.335  24.042  1.00  0.00     0.105 C 
ATOM      8  C   UNL A   1      29.685  25.832  24.389  1.00  0.00     0.023 C 
BRANCH   7   9
ATOM      9  C   UNL A   1      32.238  25.541  24.633  1.00  0.00    -0.036 A 
ATOM     10  C   UNL A   1      34.442  24.130  25.704  1.00  0.00    -0.048 A 
ATOM     11  C   UNL A   1      33.141  23.841  26.119  1.00  0.00     0.004 A 
ATOM     12  C   UNL A   1      34.643  25.142  24.761  1.00  0.00     0.004 A 
ATOM     13  C   UNL A   1      32.052  24.514  25.566  1.00  0.00     0.005 A 
ATOM     14  C   UNL A   1      33.554  25.847  24.243  1.00  0.00     0.005 A 
BRANCH  10  15
ATOM     15  C   UNL A   1      35.593  23.291  26.212  1.00  0.00     0.038 C 
BRANCH  15  16
ATOM     16  C   UNL A   1      36.833  23.424  25.304  1.00  0.00    -0.013 C 
ATOM     17  C   UNL A   1      38.116  23.626  26.115  1.00  0.00     0.008 C 
ATOM     18  C   UNL A   1      36.968  22.198  24.405  1.00  0.00     0.008 C 
ENDBRANCH  15  16
ENDBRANCH  10  15
ENDBRANCH   7   9
ENDBRANCH   4   7
ENDBRANCH   2   3
ENDBRANCH   1   2
BRANCH   1  19
ATOM     19  C   UNL A   1      33.779  29.158  26.511  1.00  0.00     0.118 C 
BRANCH  19  20
ATOM     20  N   UNL A   1      33.864  30.538  26.977  1.00  0.00    -0.352 N 
ATOM     21  C   UNL A   1      34.747  31.140  27.840  1.00  0.00     0.251 C 
ATOM     22  H   UNL A   1      33.173  31.137  26.613  1.00  0.00     0.163 HD
ATOM     23  O   UNL A   1      34.492  32.264  28.267  1.00  0.00    -0.269 OA
BRANCH  21  24
ATOM     24  C   UNL A   1      35.990  30.457  28.268  1.00  0.00     0.039 A 
ATOM     25  C   UNL A   1      37.126  30.549  27.455  1.00  0.00     0.014 A 
ATOM     26  C   UNL A   1      36.035  29.692  29.435  1.00  0.00     0.014 A 
ATOM     27  C   UNL A   1      38.320  29.941  27.851  1.00  0.00     0.010 A 
ATOM     28  C   UNL A   1      37.243  29.151  29.867  1.00  0.00     0.010 A 
ATOM     29  C   UNL A   1      38.400  29.272  29.083  1.00  0.00    -0.014 A 
BRANCH  29  30
ATOM     30  C   UNL A   1      39.687  28.730  29.592  1.00  0.00     0.031 A 
ATOM     31  C   UNL A   1      40.435  29.438  30.690  1.00  0.00     0.074 A 
ATOM     32  C   UNL A   1      40.236  27.658  28.986  1.00  0.00     0.049 A 
ATOM     33  N   UNL A   1      41.614  29.170  31.189  1.00  0.00    -0.248 NA
ATOM     34  C   UNL A   1      39.785  30.616  31.287  1.00  0.00     0.031 C 
ATOM     35  C   UNL A   1      39.643  26.928  27.863  1.00  0.00     0.029 A 
ATOM     36  N   UNL A   1      41.431  27.018  29.203  1.00  0.00    -0.354 N 
ATOM     37  C   UNL A   1      41.864  30.162  32.130  1.00  0.00     0.074 A 
ATOM     38  C   UNL A   1      40.724  31.053  32.114  1.00  0.00     0.031 C 
ATOM     39  C   UNL A   1      40.479  25.947  27.487  1.00  0.00     0.029 A 
ATOM     40  C   UNL A   1      41.681  26.001  28.312  1.00  0.00     0.049 A 
ATOM     41  H   UNL A   1      42.050  27.264  29.928  1.00  0.00     0.167 HD
ATOM     42  C   UNL A   1      42.933  30.304  32.949  1.00  0.00     0.034 A 
ATOM     43  C   UNL A   1      42.764  25.215  28.157  1.00  0.00     0.034 A 
ATOM     44  C   UNL A   1      44.047  29.394  32.987  1.00  0.00     0.049 A 
ATOM     45  C   UNL A   1      43.933  25.388  29.085  1.00  0.00     0.074 A 
ATOM     46  C   UNL A   1      45.129  29.395  33.850  1.00  0.00     0.029 A 
ATOM     47  N   UNL A   1      44.234  28.333  32.115  1.00  0.00    -0.354 N 
ATOM     48  N   UNL A   1      44.077  26.227  30.082  1.00  0.00    -0.248 NA
ATOM     49  C   UNL A   1      45.081  24.491  28.885  1.00  0.00     0.031 C 
ATOM     50  C   UNL A   1      45.985  28.352  33.479  1.00  0.00     0.029 A 
ATOM     51  C   UNL A   1      45.424  27.686  32.402  1.00  0.00     0.049 A 
ATOM     52  H   UNL A   1      43.610  28.076  31.397  1.00  0.00     0.167 HD
ATOM     53  C   UNL A   1      45.317  25.945  30.642  1.00  0.00     0.074 A 
ATOM     54  C   UNL A   1      45.872  24.837  29.892  1.00  0.00     0.031 C 
ATOM     55  C   UNL A   1      45.948  26.560  31.673  1.00  0.00     0.034 A 
BRANCH  42  56
ATOM     56  C   UNL A   1      42.931  31.463  33.912  1.00  0.00     0.023 A 
ATOM     57  C   UNL A   1      43.447  32.710  33.500  1.00  0.00     0.012 A 
ATOM     58  C   UNL A   1      42.360  31.342  35.194  1.00  0.00     0.148 A 
ATOM     59  C   UNL A   1      43.426  33.806  34.360  1.00  0.00     0.002 A 
ATOM     60  C   UNL A   1      42.304  32.452  36.031  1.00  0.00     0.091 A 
ATOM     61  F   UNL A   1      41.892  30.145  35.576  1.00  0.00    -0.205 F 
ATOM     62  C   UNL A   1      42.847  33.681  35.619  1.00  0.00     0.022 A 
BRANCH  60  63
ATOM     63  S   UNL A   1      41.510  32.415  37.641  1.00  0.00     0.127 S 
ATOM     64  O   UNL A   1      41.658  33.803  38.075  1.00  0.00    -0.237 OA
ATOM     65  O   UNL A   1      40.142  32.024  37.301  1.00  0.00    -0.237 OA
ATOM     66  O   UNL A   1      42.244  31.434  38.429  1.00  0.00    -0.744 OA
ENDBRANCH  60  63
ENDBRANCH  42  56
BRANCH  43  67
ATOM     67  C   UNL A   1      42.775  24.168  27.097  1.00  0.00     0.023 A 
ATOM     68  C   UNL A   1      43.466  24.407  25.894  1.00  0.00     0.012 A 
ATOM     69  C   UNL A   1      42.135  22.928  27.287  1.00  0.00     0.148 A 
ATOM     70  C   UNL A   1      43.497  23.441  24.887  1.00  0.00     0.002 A 
ATOM     71  C   UNL A   1      42.218  21.949  26.304  1.00  0.00     0.091 A 
ATOM     72  F   UNL A   1      41.472  22.725  28.434  1.00  0.00    -0.205 F 
ATOM     73  C   UNL A   1      42.883  22.208  25.097  1.00  0.00     0.022 A 
BRANCH  71  74
ATOM     74  S   UNL A   1      41.573  20.290  26.543  1.00  0.00     0.127 S 
ATOM     75  O   UNL A   1      40.133  20.509  26.440  1.00  0.00    -0.237 OA
ATOM     76  O   UNL A   1      42.170  19.568  25.420  1.00  0.00    -0.237 OA
ATOM     77  O   UNL A   1      42.054  19.867  27.853  1.00  0.00    -0.744 OA
ENDBRANCH  71  74
ENDBRANCH  43  67
BRANCH  55  78
ATOM     78  C   UNL A   1      47.310  26.047  32.063  1.00  0.00     0.023 A 
ATOM     79  C   UNL A   1      48.455  26.551  31.414  1.00  0.00     0.012 A 
ATOM     80  C   UNL A   1      47.462  25.129  33.121  1.00  0.00     0.148 A 
ATOM     81  C   UNL A   1      49.728  26.127  31.793  1.00  0.00     0.002 A 
ATOM     82  C   UNL A   1      48.736  24.749  33.524  1.00  0.00     0.091 A 
ATOM     83  F   UNL A   1      46.358  24.650  33.714  1.00  0.00    -0.205 F 
ATOM     84  C   UNL A   1      49.869  25.237  32.854  1.00  0.00     0.022 A 
BRANCH  82  85
ATOM     85  S   UNL A   1      49.023  23.678  34.939  1.00  0.00     0.127 S 
ATOM     86  O   UNL A   1      48.306  22.466  34.546  1.00  0.00    -0.237 OA
ATOM     87  O   UNL A   1      50.481  23.551  34.939  1.00  0.00    -0.237 OA
ATOM     88  O   UNL A   1      48.475  24.379  36.093  1.00  0.00    -0.744 OA
ENDBRANCH  82  85
ENDBRANCH  55  78
ENDBRANCH  29  30
ENDBRANCH  21  24
ENDBRANCH  19  20
ENDBRANCH   1  19
TORSDOF 16
ENDMDL
MODEL 3
REMARK VINA RESULT:      -9.3      4.083     10.238
REMARK SMILES CC(C)Cc1ccc([C@@H](C)C(=O)NCCCNC(=O)c2ccc(-c3c4nc(c(-c5cccc(S(=O)(=O)[O-])c5F)c5ccc([nH]5)c(-c5cccc(S(=O)(=O)[O-])c5F)c5nc(c(-c6cccc(S(=O)(=O)[O-])c6F)c6ccc3[nH]6)C=C5)C=C4)cc2)cc1
REMARK SMILES IDX 15 1 14 2 13 3 11 4 12 5 9 7 10 8 8 9 5 10 6 11 84 12 7 13
REMARK SMILES IDX 83 14 4 15 2 16 1 17 3 18 16 19 17 20 18 21 19 23 20 24
REMARK SMILES IDX 21 25 82 26 22 27 81 28 23 29 24 30 25 31 75 32 26 33 80 34
REMARK SMILES IDX 74 35 76 36 27 37 79 38 73 39 72 40 28 42 60 43 40 44 59 45
REMARK SMILES IDX 41 46 44 47 58 48 77 49 42 50 43 51 57 53 78 54 45 55 29 56
REMARK SMILES IDX 30 57 38 58 31 59 33 60 39 61 32 62 34 63 35 64 36 65 37 66
REMARK SMILES IDX 61 67 62 68 70 69 63 70 65 71 71 72 64 73 66 74 67 75 68 76
REMARK SMILES IDX 69 77 46 78 47 79 55 80 48 81 50 82 56 83 49 84 51 85 52 86
REMARK SMILES IDX 53 87 54 88
REMARK H PARENT 13 6 17 22 76 41 44 52
REMARK Flexibility Score: inf
ROOT
ATOM      1  C   UNL A   1      31.672  28.752  26.480  1.00  0.00     0.042 C 
ENDROOT
BRANCH   1   2
ATOM      2  C   UNL A   1      32.119  27.294  26.520  1.00  0.00     0.117 C 
BRANCH   2   3
ATOM      3  N   UNL A   1      31.038  26.380  26.834  1.00  0.00    -0.356 N 
ATOM      4  C   UNL A   1      30.246  25.607  26.043  1.00  0.00     0.227 C 
ATOM      5  O   UNL A   1      29.390  24.926  26.623  1.00  0.00    -0.274 OA
ATOM      6  H   UNL A   1      30.841  26.306  27.795  1.00  0.00     0.163 HD
BRANCH   4   7
ATOM      7  C   UNL A   1      30.383  25.522  24.517  1.00  0.00     0.105 C 
ATOM      8  C   UNL A   1      31.749  25.026  24.037  1.00  0.00     0.023 C 
BRANCH   7   9
ATOM      9  C   UNL A   1      29.824  26.728  23.786  1.00  0.00    -0.036 A 
ATOM     10  C   UNL A   1      28.705  28.971  22.477  1.00  0.00    -0.048 A 
ATOM     11  C   UNL A   1      30.078  28.723  22.418  1.00  0.00     0.004 A 
ATOM     12  C   UNL A   1      27.891  28.102  23.209  1.00  0.00     0.004 A 
ATOM     13  C   UNL A   1      30.624  27.599  23.035  1.00  0.00     0.005 A 
ATOM     14  C   UNL A   1      28.448  27.002  23.866  1.00  0.00     0.005 A 
BRANCH  10  15
ATOM     15  C   UNL A   1      28.116  30.115  21.682  1.00  0.00     0.038 C 
BRANCH  15  16
ATOM     16  C   UNL A   1      28.432  31.477  22.334  1.00  0.00    -0.013 C 
ATOM     17  C   UNL A   1      28.036  32.648  21.432  1.00  0.00     0.008 C 
ATOM     18  C   UNL A   1      27.731  31.595  23.685  1.00  0.00     0.008 C 
ENDBRANCH  15  16
ENDBRANCH  10  15
ENDBRANCH   7   9
ENDBRANCH   4   7
ENDBRANCH   2   3
ENDBRANCH   1   2
BRANCH   1  19
ATOM     19  C   UNL A   1      32.716  29.704  25.908  1.00  0.00     0.118 C 
BRANCH  19  20
ATOM     20  N   UNL A   1      32.469  31.090  26.288  1.00  0.00    -0.352 N 
ATOM     21  C   UNL A   1      33.114  31.902  27.189  1.00  0.00     0.251 C 
ATOM     22  H   UNL A   1      31.713  31.515  25.822  1.00  0.00     0.163 HD
ATOM     23  O   UNL A   1      32.591  32.966  27.515  1.00  0.00    -0.269 OA
BRANCH  21  24
ATOM     24  C   UNL A   1      34.416  31.514  27.777  1.00  0.00     0.039 A 
ATOM     25  C   UNL A   1      35.386  32.502  27.985  1.00  0.00     0.014 A 
ATOM     26  C   UNL A   1      34.708  30.183  28.085  1.00  0.00     0.014 A 
ATOM     27  C   UNL A   1      36.610  32.167  28.568  1.00  0.00     0.010 A 
ATOM     28  C   UNL A   1      35.897  29.863  28.736  1.00  0.00     0.010 A 
ATOM     29  C   UNL A   1      36.860  30.851  28.988  1.00  0.00    -0.014 A 
BRANCH  29  30
ATOM     30  C   UNL A   1      38.097  30.492  29.730  1.00  0.00     0.031 A 
ATOM     31  C   UNL A   1      39.063  29.486  29.166  1.00  0.00     0.074 A 
ATOM     32  C   UNL A   1      38.292  30.992  30.966  1.00  0.00     0.049 A 
ATOM     33  N   UNL A   1      40.136  28.977  29.714  1.00  0.00    -0.248 NA
ATOM     34  C   UNL A   1      38.773  28.963  27.821  1.00  0.00     0.031 C 
ATOM     35  C   UNL A   1      37.390  31.920  31.653  1.00  0.00     0.029 A 
ATOM     36  N   UNL A   1      39.290  30.764  31.881  1.00  0.00    -0.354 N 
ATOM     37  C   UNL A   1      40.628  28.051  28.802  1.00  0.00     0.074 A 
ATOM     38  C   UNL A   1      39.722  28.050  27.674  1.00  0.00     0.031 C 
ATOM     39  C   UNL A   1      37.872  32.176  32.879  1.00  0.00     0.029 A 
ATOM     40  C   UNL A   1      39.093  31.403  33.083  1.00  0.00     0.049 A 
ATOM     41  H   UNL A   1      40.073  30.198  31.694  1.00  0.00     0.167 HD
ATOM     42  C   UNL A   1      41.746  27.290  28.884  1.00  0.00     0.034 A 
ATOM     43  C   UNL A   1      39.798  31.354  34.230  1.00  0.00     0.034 A 
ATOM     44  C   UNL A   1      42.664  27.322  29.991  1.00  0.00     0.049 A 
ATOM     45  C   UNL A   1      41.039  30.508  34.291  1.00  0.00     0.074 A 
ATOM     46  C   UNL A   1      43.875  26.665  30.123  1.00  0.00     0.029 A 
ATOM     47  N   UNL A   1      42.467  28.035  31.164  1.00  0.00    -0.354 N 
ATOM     48  N   UNL A   1      41.580  29.770  33.353  1.00  0.00    -0.248 NA
ATOM     49  C   UNL A   1      41.782  30.507  35.560  1.00  0.00     0.031 C 
ATOM     50  C   UNL A   1      44.395  26.956  31.389  1.00  0.00     0.029 A 
ATOM     51  C   UNL A   1      43.521  27.815  32.035  1.00  0.00     0.049 A 
ATOM     52  H   UNL A   1      41.692  28.613  31.350  1.00  0.00     0.167 HD
ATOM     53  C   UNL A   1      42.736  29.235  33.908  1.00  0.00     0.074 A 
ATOM     54  C   UNL A   1      42.834  29.759  35.255  1.00  0.00     0.031 C 
ATOM     55  C   UNL A   1      43.627  28.373  33.359  1.00  0.00     0.034 A 
BRANCH  42  56
ATOM     56  C   UNL A   1      42.068  26.387  27.721  1.00  0.00     0.023 A 
ATOM     57  C   UNL A   1      42.849  26.880  26.655  1.00  0.00     0.012 A 
ATOM     58  C   UNL A   1      41.661  25.039  27.713  1.00  0.00     0.148 A 
ATOM     59  C   UNL A   1      43.189  26.055  25.584  1.00  0.00     0.002 A 
ATOM     60  C   UNL A   1      42.041  24.211  26.662  1.00  0.00     0.091 A 
ATOM     61  F   UNL A   1      40.904  24.592  28.727  1.00  0.00    -0.205 F 
ATOM     62  C   UNL A   1      42.795  24.721  25.592  1.00  0.00     0.022 A 
BRANCH  60  63
ATOM     63  S   UNL A   1      41.651  22.458  26.616  1.00  0.00     0.127 S 
ATOM     64  O   UNL A   1      42.307  21.977  27.830  1.00  0.00    -0.237 OA
ATOM     65  O   UNL A   1      40.189  22.467  26.674  1.00  0.00    -0.237 OA
ATOM     66  O   UNL A   1      42.205  21.956  25.366  1.00  0.00    -0.744 OA
ENDBRANCH  60  63
ENDBRANCH  42  56
BRANCH  43  67
ATOM     67  C   UNL A   1      39.363  32.162  35.404  1.00  0.00     0.023 A 
ATOM     68  C   UNL A   1      38.539  31.573  36.383  1.00  0.00     0.012 A 
ATOM     69  C   UNL A   1      39.783  33.495  35.572  1.00  0.00     0.148 A 
ATOM     70  C   UNL A   1      38.120  32.306  37.495  1.00  0.00     0.002 A 
ATOM     71  C   UNL A   1      39.410  34.201  36.710  1.00  0.00     0.091 A 
ATOM     72  F   UNL A   1      40.556  34.041  34.622  1.00  0.00    -0.205 F 
ATOM     73  C   UNL A   1      38.565  33.615  37.664  1.00  0.00     0.022 A 
BRANCH  71  74
ATOM     74  S   UNL A   1      40.044  35.841  37.074  1.00  0.00     0.127 S 
ATOM     75  O   UNL A   1      41.477  35.592  37.188  1.00  0.00    -0.237 OA
ATOM     76  O   UNL A   1      39.639  36.591  35.885  1.00  0.00    -0.237 OA
ATOM     77  O   UNL A   1      39.375  36.256  38.301  1.00  0.00    -0.744 OA
ENDBRANCH  71  74
ENDBRANCH  43  67
BRANCH  55  78
ATOM     78  C   UNL A   1      44.796  27.943  34.207  1.00  0.00     0.023 A 
ATOM     79  C   UNL A   1      44.710  26.754  34.959  1.00  0.00     0.012 A 
ATOM     80  C   UNL A   1      46.002  28.672  34.199  1.00  0.00     0.148 A 
ATOM     81  C   UNL A   1      45.797  26.312  35.712  1.00  0.00     0.002 A 
ATOM     82  C   UNL A   1      47.097  28.198  34.912  1.00  0.00     0.091 A 
ATOM     83  F   UNL A   1      46.057  29.808  33.489  1.00  0.00    -0.205 F 
ATOM     84  C   UNL A   1      46.992  27.026  35.679  1.00  0.00     0.022 A 
BRANCH  82  85
ATOM     85  S   UNL A   1      48.705  28.998  34.859  1.00  0.00     0.127 S 
ATOM     86  O   UNL A   1      49.008  28.962  33.429  1.00  0.00    -0.237 OA
ATOM     87  O   UNL A   1      48.406  30.330  35.386  1.00  0.00    -0.237 OA
ATOM     88  O   UNL A   1      49.583  28.195  35.701  1.00  0.00    -0.744 OA
ENDBRANCH  82  85
ENDBRANCH  55  78
ENDBRANCH  29  30
ENDBRANCH  21  24
ENDBRANCH  19  20
ENDBRANCH   1  19
TORSDOF 16
ENDMDL
