MODEL 1
REMARK VINA RESULT:     -11.3      0.000      0.000
REMARK SMILES CC(C)(C)c1cc(NC(=O)CSC[C@H]([NH3+])C(=O)NCCCNC(=O)c2ccc(-c3c4nc(c(-c5cccc(S(=O)(=O)[O-])c5F)c5ccc([nH]5)c(-c5cccc(S(=O)(=O)[O-])c5F)c5nc(c(-c6cccc(S(=O)(=O)[O-])c6F)c6ccc3[nH]6)C=C5)C=C4)cc2)on1
REMARK SMILES IDX 16 1 17 2 18 3 14 5 13 6 12 7 11 8 9 9 8 10 10 12 7 13 5 14
REMARK SMILES IDX 6 15 89 16 88 17 2 18 1 19 3 20 4 21 15 22 19 26 20 27 21 28
REMARK SMILES IDX 22 29 23 30 24 32 25 33 26 34 87 35 27 36 86 37 28 38 29 39
REMARK SMILES IDX 30 40 80 41 31 42 85 43 79 44 81 45 32 46 84 47 78 48 77 49
REMARK SMILES IDX 33 51 65 52 45 53 64 54 46 55 49 56 63 57 82 58 47 59 48 60
REMARK SMILES IDX 62 62 83 63 50 64 34 65 35 66 43 67 36 68 38 69 44 70 37 71
REMARK SMILES IDX 39 72 40 73 41 74 42 75 66 76 67 77 75 78 68 79 70 80 76 81
REMARK SMILES IDX 69 82 71 83 72 84 73 85 74 86 51 87 52 88 60 89 53 90 55 91
REMARK SMILES IDX 61 92 54 93 56 94 57 95 58 96 59 97
REMARK H PARENT 18 4 8 11 15 23 15 24 15 25 22 31 81 50 49 61
REMARK Flexibility Score: inf
ROOT
ATOM      1  C   UNL A   1      32.320  23.498  26.631  1.00  0.00     0.279 C 
ATOM      2  O   UNL A   1      31.821  24.028  27.627  1.00  0.00    -0.268 OA
ATOM      3  N   UNL A   1      33.682  23.433  26.546  1.00  0.00    -0.351 N 
ATOM      4  H   UNL A   1      34.171  23.809  27.312  1.00  0.00     0.163 HD
ENDROOT
BRANCH   1   5
ATOM      5  C   UNL A   1      31.436  22.882  25.535  1.00  0.00     0.280 C 
BRANCH   5   6
ATOM      6  C   UNL A   1      31.089  23.967  24.501  1.00  0.00     0.145 C 
BRANCH   6   7
ATOM      7  S   UNL A   1      31.916  23.724  22.889  1.00  0.00    -0.145 SA
BRANCH   7   8
ATOM      8  C   UNL A   1      33.136  25.074  22.928  1.00  0.00     0.170 C 
BRANCH   8   9
ATOM      9  C   UNL A   1      32.963  26.048  21.775  1.00  0.00     0.236 C 
ATOM     10  N   UNL A   1      32.652  27.364  21.953  1.00  0.00    -0.294 N 
ATOM     11  H   UNL A   1      32.629  27.915  21.138  1.00  0.00     0.173 HD
ATOM     12  O   UNL A   1      33.146  25.663  20.612  1.00  0.00    -0.274 OA
BRANCH  10  13
ATOM     13  C   UNL A   1      32.366  28.014  23.124  1.00  0.00     0.231 A 
ATOM     14  C   UNL A   1      32.238  28.807  25.183  1.00  0.00     0.091 A 
ATOM     15  C   UNL A   1      33.019  27.983  24.330  1.00  0.00     0.097 A 
ATOM     16  N   UNL A   1      31.233  29.370  24.497  1.00  0.00    -0.082 NA
ATOM     17  O   UNL A   1      31.317  28.866  23.217  1.00  0.00    -0.338 OA
BRANCH  14  18
ATOM     18  C   UNL A   1      32.452  29.136  26.646  1.00  0.00     0.008 C 
ATOM     19  C   UNL A   1      31.609  28.174  27.502  1.00  0.00     0.018 C 
ATOM     20  C   UNL A   1      32.026  30.587  26.958  1.00  0.00     0.018 C 
ATOM     21  C   UNL A   1      33.935  28.996  27.054  1.00  0.00     0.018 C 
ENDBRANCH  14  18
ENDBRANCH  10  13
ENDBRANCH   8   9
ENDBRANCH   7   8
ENDBRANCH   6   7
ENDBRANCH   5   6
BRANCH   5  22
ATOM     22  N   UNL A   1      30.277  22.202  26.151  1.00  0.00    -0.347 N 
ATOM     23  H   UNL A   1      30.411  22.149  27.161  1.00  0.00     0.345 HD
ATOM     24  H   UNL A   1      30.193  21.261  25.769  1.00  0.00     0.345 HD
ATOM     25  H   UNL A   1      29.427  22.728  25.948  1.00  0.00     0.345 HD
ENDBRANCH   5  22
ENDBRANCH   1   5
BRANCH   3  26
ATOM     26  C   UNL A   1      34.515  22.885  25.483  1.00  0.00     0.118 C 
BRANCH  26  27
ATOM     27  C   UNL A   1      35.671  22.052  26.007  1.00  0.00     0.042 C 
BRANCH  27  28
ATOM     28  C   UNL A   1      36.816  21.900  25.021  1.00  0.00     0.118 C 
BRANCH  28  29
ATOM     29  N   UNL A   1      37.758  20.850  25.396  1.00  0.00    -0.352 N 
ATOM     30  C   UNL A   1      39.007  20.947  25.957  1.00  0.00     0.251 C 
ATOM     31  H   UNL A   1      37.450  19.932  25.220  1.00  0.00     0.163 HD
ATOM     32  O   UNL A   1      39.713  19.944  26.043  1.00  0.00    -0.269 OA
BRANCH  30  33
ATOM     33  C   UNL A   1      39.508  22.252  26.435  1.00  0.00     0.039 A 
ATOM     34  C   UNL A   1      40.520  22.281  27.398  1.00  0.00     0.014 A 
ATOM     35  C   UNL A   1      38.988  23.446  25.930  1.00  0.00     0.014 A 
ATOM     36  C   UNL A   1      41.053  23.507  27.801  1.00  0.00     0.010 A 
ATOM     37  C   UNL A   1      39.595  24.655  26.251  1.00  0.00     0.010 A 
ATOM     38  C   UNL A   1      40.622  24.702  27.202  1.00  0.00    -0.014 A 
BRANCH  38  39
ATOM     39  C   UNL A   1      41.233  26.008  27.556  1.00  0.00     0.031 A 
ATOM     40  C   UNL A   1      42.648  26.322  27.148  1.00  0.00     0.074 A 
ATOM     41  C   UNL A   1      40.544  26.880  28.317  1.00  0.00     0.049 A 
ATOM     42  N   UNL A   1      43.353  27.399  27.379  1.00  0.00    -0.248 NA
ATOM     43  C   UNL A   1      43.379  25.277  26.410  1.00  0.00     0.031 C 
ATOM     44  C   UNL A   1      39.198  26.659  28.851  1.00  0.00     0.029 A 
ATOM     45  N   UNL A   1      40.886  28.123  28.789  1.00  0.00    -0.354 N 
ATOM     46  C   UNL A   1      44.616  27.145  26.858  1.00  0.00     0.074 A 
ATOM     47  C   UNL A   1      44.595  25.797  26.337  1.00  0.00     0.031 C 
ATOM     48  C   UNL A   1      38.819  27.739  29.553  1.00  0.00     0.029 A 
ATOM     49  C   UNL A   1      39.904  28.714  29.549  1.00  0.00     0.049 A 
ATOM     50  H   UNL A   1      41.752  28.551  28.601  1.00  0.00     0.167 HD
ATOM     51  C   UNL A   1      45.690  27.968  26.791  1.00  0.00     0.034 A 
ATOM     52  C   UNL A   1      39.879  29.909  30.171  1.00  0.00     0.034 A 
ATOM     53  C   UNL A   1      45.694  29.321  27.276  1.00  0.00     0.049 A 
ATOM     54  C   UNL A   1      41.070  30.820  30.052  1.00  0.00     0.074 A 
ATOM     55  C   UNL A   1      46.690  30.274  27.161  1.00  0.00     0.029 A 
ATOM     56  N   UNL A   1      44.658  29.909  27.986  1.00  0.00    -0.354 N 
ATOM     57  N   UNL A   1      42.193  30.631  29.402  1.00  0.00    -0.248 NA
ATOM     58  C   UNL A   1      40.975  32.125  30.723  1.00  0.00     0.031 C 
ATOM     59  C   UNL A   1      46.273  31.424  27.837  1.00  0.00     0.029 A 
ATOM     60  C   UNL A   1      44.999  31.204  28.337  1.00  0.00     0.049 A 
ATOM     61  H   UNL A   1      43.805  29.470  28.207  1.00  0.00     0.167 HD
ATOM     62  C   UNL A   1      42.923  31.804  29.554  1.00  0.00     0.074 A 
ATOM     63  C   UNL A   1      42.106  32.704  30.342  1.00  0.00     0.031 C 
ATOM     64  C   UNL A   1      44.161  32.105  29.088  1.00  0.00     0.034 A 
BRANCH  51  65
ATOM     65  C   UNL A   1      46.939  27.430  26.139  1.00  0.00     0.023 A 
ATOM     66  C   UNL A   1      47.145  27.613  24.754  1.00  0.00     0.012 A 
ATOM     67  C   UNL A   1      47.924  26.768  26.898  1.00  0.00     0.148 A 
ATOM     68  C   UNL A   1      48.280  27.099  24.128  1.00  0.00     0.002 A 
ATOM     69  C   UNL A   1      49.078  26.305  26.277  1.00  0.00     0.091 A 
ATOM     70  F   UNL A   1      47.705  26.584  28.208  1.00  0.00    -0.205 F 
ATOM     71  C   UNL A   1      49.250  26.454  24.891  1.00  0.00     0.022 A 
BRANCH  69  72
ATOM     72  S   UNL A   1      50.423  25.539  27.187  1.00  0.00     0.127 S 
ATOM     73  O   UNL A   1      50.712  26.557  28.196  1.00  0.00    -0.237 OA
ATOM     74  O   UNL A   1      49.791  24.326  27.708  1.00  0.00    -0.237 OA
ATOM     75  O   UNL A   1      51.480  25.300  26.214  1.00  0.00    -0.744 OA
ENDBRANCH  69  72
ENDBRANCH  51  65
BRANCH  52  76
ATOM     76  C   UNL A   1      38.649  30.343  30.891  1.00  0.00     0.023 A 
ATOM     77  C   UNL A   1      38.524  30.065  32.267  1.00  0.00     0.012 A 
ATOM     78  C   UNL A   1      37.629  31.061  30.240  1.00  0.00     0.148 A 
ATOM     79  C   UNL A   1      37.393  30.471  32.975  1.00  0.00     0.002 A 
ATOM     80  C   UNL A   1      36.528  31.509  30.962  1.00  0.00     0.091 A 
ATOM     81  F   UNL A   1      37.766  31.312  28.930  1.00  0.00    -0.205 F 
ATOM     82  C   UNL A   1      36.401  31.201  32.326  1.00  0.00     0.022 A 
BRANCH  80  83
ATOM     83  S   UNL A   1      35.260  32.560  30.246  1.00  0.00     0.127 S 
ATOM     84  O   UNL A   1      34.706  31.693  29.208  1.00  0.00    -0.237 OA
ATOM     85  O   UNL A   1      34.381  32.790  31.393  1.00  0.00    -0.237 OA
ATOM     86  O   UNL A   1      35.953  33.748  29.768  1.00  0.00    -0.744 OA
ENDBRANCH  80  83
ENDBRANCH  52  76
BRANCH  64  87
ATOM     87  C   UNL A   1      44.704  33.479  29.383  1.00  0.00     0.023 A 
ATOM     88  C   UNL A   1      45.385  33.726  30.592  1.00  0.00     0.012 A 
ATOM     89  C   UNL A   1      44.603  34.509  28.426  1.00  0.00     0.148 A 
ATOM     90  C   UNL A   1      45.925  34.983  30.858  1.00  0.00     0.002 A 
ATOM     91  C   UNL A   1      45.190  35.743  28.674  1.00  0.00     0.091 A 
ATOM     92  F   UNL A   1      43.936  34.262  27.289  1.00  0.00    -0.205 F 
ATOM     93  C   UNL A   1      45.838  35.987  29.895  1.00  0.00     0.022 A 
BRANCH  91  94
ATOM     94  S   UNL A   1      45.218  37.061  27.454  1.00  0.00     0.127 S 
ATOM     95  O   UNL A   1      45.850  38.147  28.203  1.00  0.00    -0.237 OA
ATOM     96  O   UNL A   1      46.047  36.485  26.396  1.00  0.00    -0.237 OA
ATOM     97  O   UNL A   1      43.830  37.290  27.077  1.00  0.00    -0.744 OA
ENDBRANCH  91  94
ENDBRANCH  64  87
ENDBRANCH  38  39
ENDBRANCH  30  33
ENDBRANCH  28  29
ENDBRANCH  27  28
ENDBRANCH  26  27
ENDBRANCH   3  26
TORSDOF 20
ENDMDL
MODEL 2
REMARK VINA RESULT:     -11.3      4.647     10.005
REMARK SMILES CC(C)(C)c1cc(NC(=O)CSC[C@H]([NH3+])C(=O)NCCCNC(=O)c2ccc(-c3c4nc(c(-c5cccc(S(=O)(=O)[O-])c5F)c5ccc([nH]5)c(-c5cccc(S(=O)(=O)[O-])c5F)c5nc(c(-c6cccc(S(=O)(=O)[O-])c6F)c6ccc3[nH]6)C=C5)C=C4)cc2)on1
REMARK SMILES IDX 16 1 17 2 18 3 14 5 13 6 12 7 11 8 9 9 8 10 10 12 7 13 5 14
REMARK SMILES IDX 6 15 89 16 88 17 2 18 1 19 3 20 4 21 15 22 19 26 20 27 21 28
REMARK SMILES IDX 22 29 23 30 24 32 25 33 26 34 87 35 27 36 86 37 28 38 29 39
REMARK SMILES IDX 30 40 80 41 31 42 85 43 79 44 81 45 32 46 84 47 78 48 77 49
REMARK SMILES IDX 33 51 65 52 45 53 64 54 46 55 49 56 63 57 82 58 47 59 48 60
REMARK SMILES IDX 62 62 83 63 50 64 34 65 35 66 43 67 36 68 38 69 44 70 37 71
REMARK SMILES IDX 39 72 40 73 41 74 42 75 66 76 67 77 75 78 68 79 70 80 76 81
REMARK SMILES IDX 69 82 71 83 72 84 73 85 74 86 51 87 52 88 60 89 53 90 55 91
REMARK SMILES IDX 61 92 54 93 56 94 57 95 58 96 59 97
REMARK H PARENT 18 4 8 11 15 23 15 24 15 25 22 31 81 50 49 61
REMARK Flexibility Score: inf
ROOT
ATOM      1  C   UNL A   1      32.997  26.379  21.955  1.00  0.00     0.279 C 
ATOM      2  O   UNL A   1      33.486  25.680  21.064  1.00  0.00    -0.268 OA
ATOM      3  N   UNL A   1      33.302  27.710  21.976  1.00  0.00    -0.351 N 
ATOM      4  H   UNL A   1      33.892  28.019  21.252  1.00  0.00     0.163 HD
ENDROOT
BRANCH   1   5
ATOM      5  C   UNL A   1      32.029  25.781  22.988  1.00  0.00     0.280 C 
BRANCH   5   6
ATOM      6  C   UNL A   1      32.814  25.412  24.258  1.00  0.00     0.145 C 
BRANCH   6   7
ATOM      7  S   UNL A   1      31.808  25.493  25.782  1.00  0.00    -0.145 SA
BRANCH   7   8
ATOM      8  C   UNL A   1      30.799  23.988  25.602  1.00  0.00     0.170 C 
BRANCH   8   9
ATOM      9  C   UNL A   1      30.928  23.055  26.794  1.00  0.00     0.236 C 
ATOM     10  N   UNL A   1      32.038  22.299  27.031  1.00  0.00    -0.294 N 
ATOM     11  H   UNL A   1      32.036  21.782  27.868  1.00  0.00     0.173 HD
ATOM     12  O   UNL A   1      30.012  22.991  27.626  1.00  0.00    -0.274 OA
BRANCH  10  13
ATOM     13  C   UNL A   1      33.154  22.167  26.249  1.00  0.00     0.231 A 
ATOM     14  C   UNL A   1      35.132  22.265  25.268  1.00  0.00     0.091 A 
ATOM     15  C   UNL A   1      34.411  22.692  26.414  1.00  0.00     0.097 A 
ATOM     16  N   UNL A   1      34.375  21.456  24.514  1.00  0.00    -0.082 NA
ATOM     17  O   UNL A   1      33.143  21.405  25.129  1.00  0.00    -0.338 OA
BRANCH  14  18
ATOM     18  C   UNL A   1      36.568  22.555  24.884  1.00  0.00     0.008 C 
ATOM     19  C   UNL A   1      36.605  23.046  23.426  1.00  0.00     0.018 C 
ATOM     20  C   UNL A   1      37.444  21.289  25.007  1.00  0.00     0.018 C 
ATOM     21  C   UNL A   1      37.197  23.636  25.790  1.00  0.00     0.018 C 
ENDBRANCH  14  18
ENDBRANCH  10  13
ENDBRANCH   8   9
ENDBRANCH   7   8
ENDBRANCH   6   7
ENDBRANCH   5   6
BRANCH   5  22
ATOM     22  N   UNL A   1      31.265  24.674  22.375  1.00  0.00    -0.347 N 
ATOM     23  H   UNL A   1      30.276  24.922  22.341  1.00  0.00     0.345 HD
ATOM     24  H   UNL A   1      31.384  23.829  22.932  1.00  0.00     0.345 HD
ATOM     25  H   UNL A   1      31.606  24.509  21.428  1.00  0.00     0.345 HD
ENDBRANCH   5  22
ENDBRANCH   1   5
BRANCH   3  26
ATOM     26  C   UNL A   1      32.881  28.739  22.918  1.00  0.00     0.118 C 
BRANCH  26  27
ATOM     27  C   UNL A   1      33.904  28.999  24.009  1.00  0.00     0.042 C 
BRANCH  27  28
ATOM     28  C   UNL A   1      33.309  29.078  25.404  1.00  0.00     0.118 C 
BRANCH  28  29
ATOM     29  N   UNL A   1      32.829  30.413  25.746  1.00  0.00    -0.352 N 
ATOM     30  C   UNL A   1      33.204  31.249  26.768  1.00  0.00     0.251 C 
ATOM     31  H   UNL A   1      32.130  30.769  25.152  1.00  0.00     0.163 HD
ATOM     32  O   UNL A   1      32.556  32.271  26.985  1.00  0.00    -0.269 OA
BRANCH  30  33
ATOM     33  C   UNL A   1      34.365  30.911  27.616  1.00  0.00     0.039 A 
ATOM     34  C   UNL A   1      34.370  29.698  28.311  1.00  0.00     0.014 A 
ATOM     35  C   UNL A   1      35.452  31.782  27.722  1.00  0.00     0.014 A 
ATOM     36  C   UNL A   1      35.494  29.334  29.055  1.00  0.00     0.010 A 
ATOM     37  C   UNL A   1      36.609  31.368  28.372  1.00  0.00     0.010 A 
ATOM     38  C   UNL A   1      36.638  30.148  29.060  1.00  0.00    -0.014 A 
BRANCH  38  39
ATOM     39  C   UNL A   1      37.873  29.741  29.777  1.00  0.00     0.031 A 
ATOM     40  C   UNL A   1      38.160  30.268  31.158  1.00  0.00     0.074 A 
ATOM     41  C   UNL A   1      38.778  28.962  29.153  1.00  0.00     0.049 A 
ATOM     42  N   UNL A   1      39.189  30.037  31.931  1.00  0.00    -0.248 NA
ATOM     43  C   UNL A   1      37.178  31.202  31.736  1.00  0.00     0.031 C 
ATOM     44  C   UNL A   1      38.659  28.457  27.783  1.00  0.00     0.029 A 
ATOM     45  N   UNL A   1      39.985  28.470  29.583  1.00  0.00    -0.354 N 
ATOM     46  C   UNL A   1      39.003  30.827  33.059  1.00  0.00     0.074 A 
ATOM     47  C   UNL A   1      37.783  31.575  32.853  1.00  0.00     0.031 C 
ATOM     48  C   UNL A   1      39.734  27.707  27.496  1.00  0.00     0.029 A 
ATOM     49  C   UNL A   1      40.634  27.704  28.644  1.00  0.00     0.049 A 
ATOM     50  H   UNL A   1      40.352  28.650  30.479  1.00  0.00     0.167 HD
ATOM     51  C   UNL A   1      39.759  30.902  34.180  1.00  0.00     0.034 A 
ATOM     52  C   UNL A   1      41.821  27.069  28.702  1.00  0.00     0.034 A 
ATOM     53  C   UNL A   1      40.950  30.126  34.396  1.00  0.00     0.049 A 
ATOM     54  C   UNL A   1      42.627  27.137  29.970  1.00  0.00     0.074 A 
ATOM     55  C   UNL A   1      41.729  30.046  35.536  1.00  0.00     0.029 A 
ATOM     56  N   UNL A   1      41.545  29.311  33.446  1.00  0.00    -0.354 N 
ATOM     57  N   UNL A   1      42.345  27.749  31.095  1.00  0.00    -0.248 NA
ATOM     58  C   UNL A   1      43.897  26.398  29.989  1.00  0.00     0.031 C 
ATOM     59  C   UNL A   1      42.818  29.214  35.261  1.00  0.00     0.029 A 
ATOM     60  C   UNL A   1      42.696  28.741  33.964  1.00  0.00     0.049 A 
ATOM     61  H   UNL A   1      41.200  29.159  32.536  1.00  0.00     0.167 HD
ATOM     62  C   UNL A   1      43.381  27.440  31.967  1.00  0.00     0.074 A 
ATOM     63  C   UNL A   1      44.288  26.571  31.245  1.00  0.00     0.031 C 
ATOM     64  C   UNL A   1      43.569  27.845  33.249  1.00  0.00     0.034 A 
BRANCH  51  65
ATOM     65  C   UNL A   1      39.297  31.836  35.270  1.00  0.00     0.023 A 
ATOM     66  C   UNL A   1      38.300  31.419  36.179  1.00  0.00     0.012 A 
ATOM     67  C   UNL A   1      39.866  33.117  35.415  1.00  0.00     0.148 A 
ATOM     68  C   UNL A   1      37.840  32.278  37.176  1.00  0.00     0.002 A 
ATOM     69  C   UNL A   1      39.439  33.948  36.445  1.00  0.00     0.091 A 
ATOM     70  F   UNL A   1      40.796  33.507  34.532  1.00  0.00    -0.205 F 
ATOM     71  C   UNL A   1      38.416  33.537  37.314  1.00  0.00     0.022 A 
BRANCH  69  72
ATOM     72  S   UNL A   1      40.180  35.554  36.758  1.00  0.00     0.127 S 
ATOM     73  O   UNL A   1      39.724  35.827  38.120  1.00  0.00    -0.237 OA
ATOM     74  O   UNL A   1      41.609  35.261  36.642  1.00  0.00    -0.237 OA
ATOM     75  O   UNL A   1      39.659  36.443  35.730  1.00  0.00    -0.744 OA
ENDBRANCH  69  72
ENDBRANCH  51  65
BRANCH  52  76
ATOM     76  C   UNL A   1      42.275  26.242  27.548  1.00  0.00     0.023 A 
ATOM     77  C   UNL A   1      43.103  26.826  26.568  1.00  0.00     0.012 A 
ATOM     78  C   UNL A   1      41.933  24.881  27.437  1.00  0.00     0.148 A 
ATOM     79  C   UNL A   1      43.559  26.077  25.483  1.00  0.00     0.002 A 
ATOM     80  C   UNL A   1      42.434  24.126  26.381  1.00  0.00     0.091 A 
ATOM     81  F   UNL A   1      41.142  24.347  28.378  1.00  0.00    -0.205 F 
ATOM     82  C   UNL A   1      43.233  24.726  25.395  1.00  0.00     0.022 A 
BRANCH  80  83
ATOM     83  S   UNL A   1      42.173  22.355  26.248  1.00  0.00     0.127 S 
ATOM     84  O   UNL A   1      40.718  22.274  26.141  1.00  0.00    -0.237 OA
ATOM     85  O   UNL A   1      42.901  22.039  25.018  1.00  0.00    -0.237 OA
ATOM     86  O   UNL A   1      42.747  21.777  27.455  1.00  0.00    -0.744 OA
ENDBRANCH  80  83
ENDBRANCH  52  76
BRANCH  64  87
ATOM     87  C   UNL A   1      44.784  27.328  33.975  1.00  0.00     0.023 A 
ATOM     88  C   UNL A   1      45.966  28.092  34.010  1.00  0.00     0.012 A 
ATOM     89  C   UNL A   1      44.727  26.112  34.687  1.00  0.00     0.148 A 
ATOM     90  C   UNL A   1      47.084  27.641  34.711  1.00  0.00     0.002 A 
ATOM     91  C   UNL A   1      45.824  25.694  35.428  1.00  0.00     0.091 A 
ATOM     92  F   UNL A   1      43.599  25.389  34.628  1.00  0.00    -0.205 F 
ATOM     93  C   UNL A   1      47.008  26.449  35.430  1.00  0.00     0.022 A 
BRANCH  91  94
ATOM     94  S   UNL A   1      45.787  24.228  36.465  1.00  0.00     0.127 S 
ATOM     95  O   UNL A   1      44.673  24.527  37.364  1.00  0.00    -0.237 OA
ATOM     96  O   UNL A   1      45.518  23.169  35.493  1.00  0.00    -0.237 OA
ATOM     97  O   UNL A   1      47.096  24.149  37.099  1.00  0.00    -0.744 OA
ENDBRANCH  91  94
ENDBRANCH  64  87
ENDBRANCH  38  39
ENDBRANCH  30  33
ENDBRANCH  28  29
ENDBRANCH  27  28
ENDBRANCH  26  27
ENDBRANCH   3  26
TORSDOF 20
ENDMDL
MODEL 3
REMARK VINA RESULT:     -11.2      4.662      9.680
REMARK SMILES CC(C)(C)c1cc(NC(=O)CSC[C@H]([NH3+])C(=O)NCCCNC(=O)c2ccc(-c3c4nc(c(-c5cccc(S(=O)(=O)[O-])c5F)c5ccc([nH]5)c(-c5cccc(S(=O)(=O)[O-])c5F)c5nc(c(-c6cccc(S(=O)(=O)[O-])c6F)c6ccc3[nH]6)C=C5)C=C4)cc2)on1
REMARK SMILES IDX 16 1 17 2 18 3 14 5 13 6 12 7 11 8 9 9 8 10 10 12 7 13 5 14
REMARK SMILES IDX 6 15 89 16 88 17 2 18 1 19 3 20 4 21 15 22 19 26 20 27 21 28
REMARK SMILES IDX 22 29 23 30 24 32 25 33 26 34 87 35 27 36 86 37 28 38 29 39
REMARK SMILES IDX 30 40 80 41 31 42 85 43 79 44 81 45 32 46 84 47 78 48 77 49
REMARK SMILES IDX 33 51 65 52 45 53 64 54 46 55 49 56 63 57 82 58 47 59 48 60
REMARK SMILES IDX 62 62 83 63 50 64 34 65 35 66 43 67 36 68 38 69 44 70 37 71
REMARK SMILES IDX 39 72 40 73 41 74 42 75 66 76 67 77 75 78 68 79 70 80 76 81
REMARK SMILES IDX 69 82 71 83 72 84 73 85 74 86 51 87 52 88 60 89 53 90 55 91
REMARK SMILES IDX 61 92 54 93 56 94 57 95 58 96 59 97
REMARK H PARENT 18 4 8 11 15 23 15 24 15 25 22 31 81 50 49 61
REMARK Flexibility Score: inf
ROOT
ATOM      1  C   UNL A   1      31.362  25.005  26.426  1.00  0.00     0.279 C 
ATOM      2  O   UNL A   1      31.597  24.058  27.180  1.00  0.00    -0.268 OA
ATOM      3  N   UNL A   1      31.605  26.270  26.879  1.00  0.00    -0.351 N 
ATOM      4  H   UNL A   1      31.971  26.329  27.790  1.00  0.00     0.163 HD
ENDROOT
BRANCH   1   5
ATOM      5  C   UNL A   1      30.857  24.769  24.993  1.00  0.00     0.280 C 
BRANCH   5   6
ATOM      6  C   UNL A   1      31.939  25.223  23.998  1.00  0.00     0.145 C 
BRANCH   6   7
ATOM      7  S   UNL A   1      32.520  23.884  22.898  1.00  0.00    -0.145 SA
BRANCH   7   8
ATOM      8  C   UNL A   1      34.267  23.769  23.398  1.00  0.00     0.170 C 
BRANCH   8   9
ATOM      9  C   UNL A   1      34.447  23.835  24.905  1.00  0.00     0.236 C 
ATOM     10  N   UNL A   1      34.184  22.782  25.731  1.00  0.00    -0.294 N 
ATOM     11  H   UNL A   1      34.400  22.917  26.682  1.00  0.00     0.173 HD
ATOM     12  O   UNL A   1      34.887  24.868  25.427  1.00  0.00    -0.274 OA
BRANCH  10  13
ATOM     13  C   UNL A   1      33.659  21.561  25.405  1.00  0.00     0.231 A 
ATOM     14  C   UNL A   1      33.240  19.486  24.770  1.00  0.00     0.091 A 
ATOM     15  C   UNL A   1      34.293  20.398  25.047  1.00  0.00     0.097 A 
ATOM     16  N   UNL A   1      32.053  20.046  25.041  1.00  0.00    -0.082 NA
ATOM     17  O   UNL A   1      32.323  21.340  25.430  1.00  0.00    -0.338 OA
BRANCH  14  18
ATOM     18  C   UNL A   1      33.325  18.046  24.307  1.00  0.00     0.008 C 
ATOM     19  C   UNL A   1      32.526  17.162  25.281  1.00  0.00     0.018 C 
ATOM     20  C   UNL A   1      34.789  17.556  24.275  1.00  0.00     0.018 C 
ATOM     21  C   UNL A   1      32.750  17.865  22.885  1.00  0.00     0.018 C 
ENDBRANCH  14  18
ENDBRANCH  10  13
ENDBRANCH   8   9
ENDBRANCH   7   8
ENDBRANCH   6   7
ENDBRANCH   5   6
BRANCH   5  22
ATOM     22  N   UNL A   1      29.533  25.402  24.819  1.00  0.00    -0.347 N 
ATOM     23  H   UNL A   1      29.500  25.881  23.919  1.00  0.00     0.345 HD
ATOM     24  H   UNL A   1      29.377  26.076  25.568  1.00  0.00     0.345 HD
ATOM     25  H   UNL A   1      28.807  24.686  24.850  1.00  0.00     0.345 HD
ENDBRANCH   5  22
ENDBRANCH   1   5
BRANCH   3  26
ATOM     26  C   UNL A   1      31.399  27.547  26.207  1.00  0.00     0.118 C 
BRANCH  26  27
ATOM     27  C   UNL A   1      32.690  28.318  25.993  1.00  0.00     0.042 C 
BRANCH  27  28
ATOM     28  C   UNL A   1      33.399  28.697  27.281  1.00  0.00     0.118 C 
BRANCH  28  29
ATOM     29  N   UNL A   1      33.486  30.140  27.482  1.00  0.00    -0.352 N 
ATOM     30  C   UNL A   1      34.481  30.892  28.055  1.00  0.00     0.251 C 
ATOM     31  H   UNL A   1      32.712  30.653  27.156  1.00  0.00     0.163 HD
ATOM     32  O   UNL A   1      34.287  32.085  28.281  1.00  0.00    -0.269 OA
BRANCH  30  33
ATOM     33  C   UNL A   1      35.769  30.266  28.418  1.00  0.00     0.039 A 
ATOM     34  C   UNL A   1      36.840  30.347  27.524  1.00  0.00     0.014 A 
ATOM     35  C   UNL A   1      35.926  29.608  29.640  1.00  0.00     0.014 A 
ATOM     36  C   UNL A   1      38.083  29.825  27.888  1.00  0.00     0.010 A 
ATOM     37  C   UNL A   1      37.189  29.189  30.043  1.00  0.00     0.010 A 
ATOM     38  C   UNL A   1      38.278  29.277  29.166  1.00  0.00    -0.014 A 
BRANCH  38  39
ATOM     39  C   UNL A   1      39.611  28.791  29.604  1.00  0.00     0.031 A 
ATOM     40  C   UNL A   1      40.351  29.495  30.710  1.00  0.00     0.074 A 
ATOM     41  C   UNL A   1      40.194  27.768  28.950  1.00  0.00     0.049 A 
ATOM     42  N   UNL A   1      41.527  29.227  31.216  1.00  0.00    -0.248 NA
ATOM     43  C   UNL A   1      39.700  30.674  31.307  1.00  0.00     0.031 C 
ATOM     44  C   UNL A   1      39.619  27.058  27.805  1.00  0.00     0.029 A 
ATOM     45  N   UNL A   1      41.407  27.155  29.144  1.00  0.00    -0.354 N 
ATOM     46  C   UNL A   1      41.775  30.224  32.152  1.00  0.00     0.074 A 
ATOM     47  C   UNL A   1      40.646  31.127  32.116  1.00  0.00     0.031 C 
ATOM     48  C   UNL A   1      40.466  26.092  27.416  1.00  0.00     0.029 A 
ATOM     49  C   UNL A   1      41.656  26.133  28.258  1.00  0.00     0.049 A 
ATOM     50  H   UNL A   1      42.039  27.422  29.850  1.00  0.00     0.167 HD
ATOM     51  C   UNL A   1      42.830  30.361  32.990  1.00  0.00     0.034 A 
ATOM     52  C   UNL A   1      42.724  25.319  28.140  1.00  0.00     0.034 A 
ATOM     53  C   UNL A   1      43.931  29.439  33.050  1.00  0.00     0.049 A 
ATOM     54  C   UNL A   1      43.868  25.468  29.104  1.00  0.00     0.074 A 
ATOM     55  C   UNL A   1      44.995  29.425  33.934  1.00  0.00     0.029 A 
ATOM     56  N   UNL A   1      44.120  28.377  32.179  1.00  0.00    -0.354 N 
ATOM     57  N   UNL A   1      44.003  26.309  30.101  1.00  0.00    -0.248 NA
ATOM     58  C   UNL A   1      44.991  24.532  28.950  1.00  0.00     0.031 C 
ATOM     59  C   UNL A   1      45.849  28.379  33.570  1.00  0.00     0.029 A 
ATOM     60  C   UNL A   1      45.295  27.714  32.487  1.00  0.00     0.049 A 
ATOM     61  H   UNL A   1      43.507  28.130  31.448  1.00  0.00     0.167 HD
ATOM     62  C   UNL A   1      45.206  25.981  30.716  1.00  0.00     0.074 A 
ATOM     63  C   UNL A   1      45.750  24.852  29.989  1.00  0.00     0.031 C 
ATOM     64  C   UNL A   1      45.808  26.567  31.782  1.00  0.00     0.034 A 
BRANCH  51  65
ATOM     65  C   UNL A   1      42.822  31.539  33.932  1.00  0.00     0.023 A 
ATOM     66  C   UNL A   1      43.322  32.787  33.501  1.00  0.00     0.012 A 
ATOM     67  C   UNL A   1      42.297  31.422  35.234  1.00  0.00     0.148 A 
ATOM     68  C   UNL A   1      43.349  33.881  34.366  1.00  0.00     0.002 A 
ATOM     69  C   UNL A   1      42.280  32.530  36.072  1.00  0.00     0.091 A 
ATOM     70  F   UNL A   1      41.846  30.225  35.636  1.00  0.00    -0.205 F 
ATOM     71  C   UNL A   1      42.819  33.754  35.647  1.00  0.00     0.022 A 
BRANCH  69  72
ATOM     72  S   UNL A   1      41.540  32.490  37.709  1.00  0.00     0.127 S 
ATOM     73  O   UNL A   1      42.280  31.398  38.339  1.00  0.00    -0.237 OA
ATOM     74  O   UNL A   1      41.861  33.822  38.224  1.00  0.00    -0.237 OA
ATOM     75  O   UNL A   1      40.119  32.249  37.500  1.00  0.00    -0.744 OA
ENDBRANCH  69  72
ENDBRANCH  51  65
BRANCH  52  76
ATOM     76  C   UNL A   1      42.717  24.235  27.117  1.00  0.00     0.023 A 
ATOM     77  C   UNL A   1      43.416  24.427  25.908  1.00  0.00     0.012 A 
ATOM     78  C   UNL A   1      42.067  23.008  27.348  1.00  0.00     0.148 A 
ATOM     79  C   UNL A   1      43.445  23.428  24.936  1.00  0.00     0.002 A 
ATOM     80  C   UNL A   1      42.143  21.996  26.397  1.00  0.00     0.091 A 
ATOM     81  F   UNL A   1      41.406  22.848  28.503  1.00  0.00    -0.205 F 
ATOM     82  C   UNL A   1      42.817  22.210  25.184  1.00  0.00     0.022 A 
BRANCH  80  83
ATOM     83  S   UNL A   1      41.475  20.353  26.676  1.00  0.00     0.127 S 
ATOM     84  O   UNL A   1      42.258  19.903  27.825  1.00  0.00    -0.237 OA
ATOM     85  O   UNL A   1      40.071  20.648  26.963  1.00  0.00    -0.237 OA
ATOM     86  O   UNL A   1      41.697  19.619  25.438  1.00  0.00    -0.744 OA
ENDBRANCH  80  83
ENDBRANCH  52  76
BRANCH  64  87
ATOM     87  C   UNL A   1      47.111  25.980  32.258  1.00  0.00     0.023 A 
ATOM     88  C   UNL A   1      48.328  26.404  31.688  1.00  0.00     0.012 A 
ATOM     89  C   UNL A   1      47.133  25.058  33.325  1.00  0.00     0.148 A 
ATOM     90  C   UNL A   1      49.543  25.896  32.148  1.00  0.00     0.002 A 
ATOM     91  C   UNL A   1      48.349  24.598  33.814  1.00  0.00     0.091 A 
ATOM     92  F   UNL A   1      45.965  24.653  33.844  1.00  0.00    -0.205 F 
ATOM     93  C   UNL A   1      49.553  25.003  33.218  1.00  0.00     0.022 A 
BRANCH  91  94
ATOM     94  S   UNL A   1      48.467  23.528  35.252  1.00  0.00     0.127 S 
ATOM     95  O   UNL A   1      47.896  22.281  34.744  1.00  0.00    -0.237 OA
ATOM     96  O   UNL A   1      49.910  23.486  35.489  1.00  0.00    -0.237 OA
ATOM     97  O   UNL A   1      47.700  24.180  36.304  1.00  0.00    -0.744 OA
ENDBRANCH  91  94
ENDBRANCH  64  87
ENDBRANCH  38  39
ENDBRANCH  30  33
ENDBRANCH  28  29
ENDBRANCH  27  28
ENDBRANCH  26  27
ENDBRANCH   3  26
TORSDOF 20
ENDMDL
