MODEL 1
REMARK VINA RESULT:     -12.2      0.000      0.000
REMARK SMILES Cc1ccc(Cl)c(Nc2ccccc2C(=O)NCCCNC(=O)c2ccc(-c3c4nc(c(-c5cccc(S(=O)(=O)[O-])c5F)c5ccc([nH]5)c(-c5cccc(S(=O)(=O)[O-])c5F)c5nc(c(-c6cccc(S(=O)(=O)[O-])c6F)c6ccc3[nH]6)C=C5)C=C4)cc2)c1Cl
REMARK SMILES IDX 19 1 18 2 17 3 15 4 16 5 14 7 9 8 10 9 11 10 13 11 12 12
REMARK SMILES IDX 8 13 7 15 1 16 2 17 3 18 87 19 4 20 88 21 5 22 6 23 20 24
REMARK SMILES IDX 21 25 22 26 23 28 24 29 25 30 86 31 26 32 85 33 27 34 28 35
REMARK SMILES IDX 29 36 79 37 30 38 84 39 78 40 80 41 31 42 83 43 77 44 76 45
REMARK SMILES IDX 32 47 64 48 44 49 63 50 45 51 48 52 62 53 81 54 46 55 47 56
REMARK SMILES IDX 61 58 82 59 49 60 33 61 34 62 42 63 35 64 37 65 43 66 36 67
REMARK SMILES IDX 38 68 39 69 40 70 41 71 65 72 66 73 74 74 67 75 69 76 75 77
REMARK SMILES IDX 68 78 70 79 71 80 72 81 73 82 50 83 51 84 59 85 52 86 54 87
REMARK SMILES IDX 60 88 53 89 55 90 56 91 57 92 58 93
REMARK H PARENT 17 6 8 14 21 27 80 46 48 57
REMARK Flexibility Score: inf
ROOT
ATOM      1  C   UNL A   1      36.190  21.804  24.275  1.00  0.00     0.042 C 
ENDROOT
BRANCH   1   2
ATOM      2  C   UNL A   1      35.969  23.247  23.883  1.00  0.00     0.118 C 
BRANCH   2   3
ATOM      3  N   UNL A   1      34.987  23.505  22.861  1.00  0.00    -0.352 N 
ATOM      4  C   UNL A   1      33.954  24.414  22.882  1.00  0.00     0.253 C 
ATOM      5  O   UNL A   1      33.379  24.640  21.813  1.00  0.00    -0.269 OA
ATOM      6  H   UNL A   1      35.065  22.961  22.044  1.00  0.00     0.163 HD
BRANCH   4   7
ATOM      7  C   UNL A   1      33.401  25.007  24.142  1.00  0.00     0.063 A 
ATOM      8  C   UNL A   1      32.434  24.480  25.027  1.00  0.00     0.051 A 
ATOM      9  C   UNL A   1      31.985  25.312  26.082  1.00  0.00     0.027 A 
ATOM     10  C   UNL A   1      32.518  26.580  26.315  1.00  0.00     0.002 A 
ATOM     11  C   UNL A   1      33.951  26.284  24.415  1.00  0.00     0.016 A 
ATOM     12  C   UNL A   1      33.524  27.059  25.494  1.00  0.00     0.001 A 
BRANCH   8  13
ATOM     13  N   UNL A   1      31.900  23.173  25.062  1.00  0.00    -0.352 N 
ATOM     14  H   UNL A   1      30.919  23.167  25.151  1.00  0.00     0.167 HD
BRANCH  13  15
ATOM     15  C   UNL A   1      32.447  21.868  24.999  1.00  0.00     0.077 A 
ATOM     16  C   UNL A   1      32.366  18.644  22.919  1.00  0.00     0.046 C 
ATOM     17  C   UNL A   1      32.623  19.619  24.036  1.00  0.00    -0.030 A 
ATOM     18  C   UNL A   1      33.173  19.146  25.236  1.00  0.00     0.006 A 
ATOM     19  C   UNL A   1      32.301  20.989  23.910  1.00  0.00     0.069 A 
ATOM     20  C   UNL A   1      33.429  20.019  26.286  1.00  0.00     0.023 A 
ATOM     21  Cl  UNL A   1      31.851  21.590  22.339  1.00  0.00    -0.082 Cl
ATOM     22  C   UNL A   1      33.080  21.362  26.165  1.00  0.00     0.066 A 
ATOM     23  Cl  UNL A   1      33.338  22.385  27.544  1.00  0.00    -0.082 Cl
ENDBRANCH  13  15
ENDBRANCH   8  13
ENDBRANCH   4   7
ENDBRANCH   2   3
ENDBRANCH   1   2
BRANCH   1  24
ATOM     24  C   UNL A   1      36.753  21.590  25.675  1.00  0.00     0.118 C 
BRANCH  24  25
ATOM     25  N   UNL A   1      37.932  20.721  25.751  1.00  0.00    -0.352 N 
ATOM     26  C   UNL A   1      39.243  20.961  26.113  1.00  0.00     0.251 C 
ATOM     27  H   UNL A   1      37.755  19.788  25.493  1.00  0.00     0.163 HD
ATOM     28  O   UNL A   1      40.069  20.063  26.011  1.00  0.00    -0.269 OA
BRANCH  26  29
ATOM     29  C   UNL A   1      39.665  22.299  26.592  1.00  0.00     0.039 A 
ATOM     30  C   UNL A   1      40.680  22.404  27.551  1.00  0.00     0.014 A 
ATOM     31  C   UNL A   1      39.072  23.452  26.093  1.00  0.00     0.014 A 
ATOM     32  C   UNL A   1      41.168  23.665  27.913  1.00  0.00     0.010 A 
ATOM     33  C   UNL A   1      39.653  24.688  26.337  1.00  0.00     0.010 A 
ATOM     34  C   UNL A   1      40.697  24.816  27.263  1.00  0.00    -0.014 A 
BRANCH  34  35
ATOM     35  C   UNL A   1      41.246  26.174  27.523  1.00  0.00     0.031 A 
ATOM     36  C   UNL A   1      42.657  26.499  27.103  1.00  0.00     0.074 A 
ATOM     37  C   UNL A   1      40.546  27.054  28.268  1.00  0.00     0.049 A 
ATOM     38  N   UNL A   1      43.391  27.540  27.397  1.00  0.00    -0.248 NA
ATOM     39  C   UNL A   1      43.359  25.484  26.298  1.00  0.00     0.031 C 
ATOM     40  C   UNL A   1      39.213  26.818  28.830  1.00  0.00     0.029 A 
ATOM     41  N   UNL A   1      40.878  28.307  28.718  1.00  0.00    -0.354 N 
ATOM     42  C   UNL A   1      44.651  27.273  26.874  1.00  0.00     0.074 A 
ATOM     43  C   UNL A   1      44.597  25.950  26.296  1.00  0.00     0.031 C 
ATOM     44  C   UNL A   1      38.843  27.890  29.548  1.00  0.00     0.029 A 
ATOM     45  C   UNL A   1      39.921  28.873  29.529  1.00  0.00     0.049 A 
ATOM     46  H   UNL A   1      41.720  28.759  28.483  1.00  0.00     0.167 HD
ATOM     47  C   UNL A   1      45.746  28.071  26.836  1.00  0.00     0.034 A 
ATOM     48  C   UNL A   1      39.916  30.046  30.192  1.00  0.00     0.034 A 
ATOM     49  C   UNL A   1      45.766  29.415  27.343  1.00  0.00     0.049 A 
ATOM     50  C   UNL A   1      41.099  30.963  30.051  1.00  0.00     0.074 A 
ATOM     51  C   UNL A   1      46.774  30.356  27.255  1.00  0.00     0.029 A 
ATOM     52  N   UNL A   1      44.718  30.012  28.029  1.00  0.00    -0.354 N 
ATOM     53  N   UNL A   1      42.227  30.760  29.414  1.00  0.00    -0.248 NA
ATOM     54  C   UNL A   1      40.996  32.286  30.684  1.00  0.00     0.031 C 
ATOM     55  C   UNL A   1      46.342  31.520  27.900  1.00  0.00     0.029 A 
ATOM     56  C   UNL A   1      45.054  31.310  28.371  1.00  0.00     0.049 A 
ATOM     57  H   UNL A   1      43.862  29.576  28.244  1.00  0.00     0.167 HD
ATOM     58  C   UNL A   1      42.956  31.937  29.541  1.00  0.00     0.074 A 
ATOM     59  C   UNL A   1      42.131  32.856  30.300  1.00  0.00     0.031 C 
ATOM     60  C   UNL A   1      44.200  32.226  29.085  1.00  0.00     0.034 A 
BRANCH  47  61
ATOM     61  C   UNL A   1      46.980  27.524  26.163  1.00  0.00     0.023 A 
ATOM     62  C   UNL A   1      47.170  27.732  24.779  1.00  0.00     0.012 A 
ATOM     63  C   UNL A   1      47.954  26.811  26.889  1.00  0.00     0.148 A 
ATOM     64  C   UNL A   1      48.271  27.188  24.120  1.00  0.00     0.002 A 
ATOM     65  C   UNL A   1      49.077  26.317  26.232  1.00  0.00     0.091 A 
ATOM     66  F   UNL A   1      47.753  26.601  28.198  1.00  0.00    -0.205 F 
ATOM     67  C   UNL A   1      49.227  26.488  24.847  1.00  0.00     0.022 A 
BRANCH  65  68
ATOM     68  S   UNL A   1      50.409  25.478  27.098  1.00  0.00     0.127 S 
ATOM     69  O   UNL A   1      51.359  25.235  26.014  1.00  0.00    -0.237 OA
ATOM     70  O   UNL A   1      50.836  26.489  28.066  1.00  0.00    -0.237 OA
ATOM     71  O   UNL A   1      49.811  24.289  27.691  1.00  0.00    -0.744 OA
ENDBRANCH  65  68
ENDBRANCH  47  61
BRANCH  48  72
ATOM     72  C   UNL A   1      38.711  30.441  30.977  1.00  0.00     0.023 A 
ATOM     73  C   UNL A   1      38.678  30.188  32.362  1.00  0.00     0.012 A 
ATOM     74  C   UNL A   1      37.639  31.130  30.378  1.00  0.00     0.148 A 
ATOM     75  C   UNL A   1      37.590  30.595  33.134  1.00  0.00     0.002 A 
ATOM     76  C   UNL A   1      36.583  31.582  31.162  1.00  0.00     0.091 A 
ATOM     77  F   UNL A   1      37.689  31.357  29.058  1.00  0.00    -0.205 F 
ATOM     78  C   UNL A   1      36.549  31.302  32.537  1.00  0.00     0.022 A 
BRANCH  76  79
ATOM     79  S   UNL A   1      35.268  32.619  30.512  1.00  0.00     0.127 S 
ATOM     80  O   UNL A   1      34.339  32.667  31.637  1.00  0.00    -0.237 OA
ATOM     81  O   UNL A   1      35.977  33.871  30.245  1.00  0.00    -0.237 OA
ATOM     82  O   UNL A   1      34.780  31.938  29.320  1.00  0.00    -0.744 OA
ENDBRANCH  76  79
ENDBRANCH  48  72
BRANCH  60  83
ATOM     83  C   UNL A   1      44.743  33.602  29.364  1.00  0.00     0.023 A 
ATOM     84  C   UNL A   1      45.415  33.858  30.575  1.00  0.00     0.012 A 
ATOM     85  C   UNL A   1      44.659  34.617  28.390  1.00  0.00     0.148 A 
ATOM     86  C   UNL A   1      45.972  35.111  30.825  1.00  0.00     0.002 A 
ATOM     87  C   UNL A   1      45.258  35.847  28.625  1.00  0.00     0.091 A 
ATOM     88  F   UNL A   1      43.997  34.358  27.253  1.00  0.00    -0.205 F 
ATOM     89  C   UNL A   1      45.904  36.101  29.846  1.00  0.00     0.022 A 
BRANCH  87  90
ATOM     90  S   UNL A   1      45.305  37.145  27.384  1.00  0.00     0.127 S 
ATOM     91  O   UNL A   1      46.037  36.492  26.299  1.00  0.00    -0.237 OA
ATOM     92  O   UNL A   1      43.885  37.369  27.113  1.00  0.00    -0.237 OA
ATOM     93  O   UNL A   1      45.984  38.271  28.010  1.00  0.00    -0.744 OA
ENDBRANCH  87  90
ENDBRANCH  60  83
ENDBRANCH  34  35
ENDBRANCH  26  29
ENDBRANCH  24  25
ENDBRANCH   1  24
TORSDOF 15
ENDMDL
MODEL 2
REMARK VINA RESULT:     -12.2      5.012     10.206
REMARK SMILES Cc1ccc(Cl)c(Nc2ccccc2C(=O)NCCCNC(=O)c2ccc(-c3c4nc(c(-c5cccc(S(=O)(=O)[O-])c5F)c5ccc([nH]5)c(-c5cccc(S(=O)(=O)[O-])c5F)c5nc(c(-c6cccc(S(=O)(=O)[O-])c6F)c6ccc3[nH]6)C=C5)C=C4)cc2)c1Cl
REMARK SMILES IDX 19 1 18 2 17 3 15 4 16 5 14 7 9 8 10 9 11 10 13 11 12 12
REMARK SMILES IDX 8 13 7 15 1 16 2 17 3 18 87 19 4 20 88 21 5 22 6 23 20 24
REMARK SMILES IDX 21 25 22 26 23 28 24 29 25 30 86 31 26 32 85 33 27 34 28 35
REMARK SMILES IDX 29 36 79 37 30 38 84 39 78 40 80 41 31 42 83 43 77 44 76 45
REMARK SMILES IDX 32 47 64 48 44 49 63 50 45 51 48 52 62 53 81 54 46 55 47 56
REMARK SMILES IDX 61 58 82 59 49 60 33 61 34 62 42 63 35 64 37 65 43 66 36 67
REMARK SMILES IDX 38 68 39 69 40 70 41 71 65 72 66 73 74 74 67 75 69 76 75 77
REMARK SMILES IDX 68 78 70 79 71 80 72 81 73 82 50 83 51 84 59 85 52 86 54 87
REMARK SMILES IDX 60 88 53 89 55 90 56 91 57 92 58 93
REMARK H PARENT 17 6 8 14 21 27 80 46 48 57
REMARK Flexibility Score: inf
ROOT
ATOM      1  C   UNL A   1      31.744  29.201  26.831  1.00  0.00     0.042 C 
ENDROOT
BRANCH   1   2
ATOM      2  C   UNL A   1      32.319  27.806  26.745  1.00  0.00     0.118 C 
BRANCH   2   3
ATOM      3  N   UNL A   1      31.387  26.709  26.794  1.00  0.00    -0.352 N 
ATOM      4  C   UNL A   1      31.579  25.409  26.386  1.00  0.00     0.253 C 
ATOM      5  O   UNL A   1      30.736  24.577  26.735  1.00  0.00    -0.269 OA
ATOM      6  H   UNL A   1      30.499  26.916  27.167  1.00  0.00     0.163 HD
BRANCH   4   7
ATOM      7  C   UNL A   1      32.650  24.995  25.423  1.00  0.00     0.063 A 
ATOM      8  C   UNL A   1      32.657  25.064  24.012  1.00  0.00     0.051 A 
ATOM      9  C   UNL A   1      33.749  24.475  23.330  1.00  0.00     0.027 A 
ATOM     10  C   UNL A   1      34.835  23.911  24.000  1.00  0.00     0.002 A 
ATOM     11  C   UNL A   1      33.776  24.445  26.084  1.00  0.00     0.016 A 
ATOM     12  C   UNL A   1      34.862  23.919  25.384  1.00  0.00     0.001 A 
BRANCH   8  13
ATOM     13  N   UNL A   1      31.747  25.733  23.164  1.00  0.00    -0.352 N 
ATOM     14  H   UNL A   1      31.448  25.174  22.411  1.00  0.00     0.167 HD
BRANCH  13  15
ATOM     15  C   UNL A   1      31.164  27.025  23.145  1.00  0.00     0.077 A 
ATOM     16  C   UNL A   1      27.770  28.816  23.089  1.00  0.00     0.046 C 
ATOM     17  C   UNL A   1      29.249  28.552  23.010  1.00  0.00    -0.030 A 
ATOM     18  C   UNL A   1      30.100  29.584  22.588  1.00  0.00     0.006 A 
ATOM     19  C   UNL A   1      29.792  27.287  23.326  1.00  0.00     0.069 A 
ATOM     20  C   UNL A   1      31.472  29.378  22.510  1.00  0.00     0.023 A 
ATOM     21  Cl  UNL A   1      28.754  26.107  24.073  1.00  0.00    -0.082 Cl
ATOM     22  C   UNL A   1      31.996  28.119  22.794  1.00  0.00     0.066 A 
ATOM     23  Cl  UNL A   1      33.706  27.898  22.588  1.00  0.00    -0.082 Cl
ENDBRANCH  13  15
ENDBRANCH   8  13
ENDBRANCH   4   7
ENDBRANCH   2   3
ENDBRANCH   1   2
BRANCH   1  24
ATOM     24  C   UNL A   1      32.483  30.259  26.019  1.00  0.00     0.118 C 
BRANCH  24  25
ATOM     25  N   UNL A   1      32.421  31.621  26.561  1.00  0.00    -0.352 N 
ATOM     26  C   UNL A   1      33.248  32.320  27.418  1.00  0.00     0.251 C 
ATOM     27  H   UNL A   1      31.639  32.135  26.255  1.00  0.00     0.163 HD
ATOM     28  O   UNL A   1      32.922  33.441  27.786  1.00  0.00    -0.269 OA
BRANCH  26  29
ATOM     29  C   UNL A   1      34.505  31.716  27.920  1.00  0.00     0.039 A 
ATOM     30  C   UNL A   1      35.648  32.512  28.062  1.00  0.00     0.014 A 
ATOM     31  C   UNL A   1      34.560  30.370  28.261  1.00  0.00     0.014 A 
ATOM     32  C   UNL A   1      36.799  31.977  28.653  1.00  0.00     0.010 A 
ATOM     33  C   UNL A   1      35.642  29.884  28.979  1.00  0.00     0.010 A 
ATOM     34  C   UNL A   1      36.785  30.672  29.171  1.00  0.00    -0.014 A 
BRANCH  34  35
ATOM     35  C   UNL A   1      37.936  30.080  29.903  1.00  0.00     0.031 A 
ATOM     36  C   UNL A   1      38.237  30.534  31.309  1.00  0.00     0.074 A 
ATOM     37  C   UNL A   1      38.796  29.263  29.261  1.00  0.00     0.049 A 
ATOM     38  N   UNL A   1      39.286  30.295  32.051  1.00  0.00    -0.248 NA
ATOM     39  C   UNL A   1      37.253  31.431  31.940  1.00  0.00     0.031 C 
ATOM     40  C   UNL A   1      38.679  28.836  27.865  1.00  0.00     0.029 A 
ATOM     41  N   UNL A   1      39.965  28.682  29.688  1.00  0.00    -0.354 N 
ATOM     42  C   UNL A   1      39.119  31.063  33.199  1.00  0.00     0.074 A 
ATOM     43  C   UNL A   1      37.898  31.817  33.029  1.00  0.00     0.031 C 
ATOM     44  C   UNL A   1      39.732  28.064  27.551  1.00  0.00     0.029 A 
ATOM     45  C   UNL A   1      40.615  27.968  28.708  1.00  0.00     0.049 A 
ATOM     46  H   UNL A   1      40.306  28.769  30.607  1.00  0.00     0.167 HD
ATOM     47  C   UNL A   1      39.886  31.108  34.315  1.00  0.00     0.034 A 
ATOM     48  C   UNL A   1      41.795  27.318  28.733  1.00  0.00     0.034 A 
ATOM     49  C   UNL A   1      41.055  30.294  34.507  1.00  0.00     0.049 A 
ATOM     50  C   UNL A   1      42.581  27.293  30.015  1.00  0.00     0.074 A 
ATOM     51  C   UNL A   1      41.841  30.166  35.637  1.00  0.00     0.029 A 
ATOM     52  N   UNL A   1      41.602  29.462  33.541  1.00  0.00    -0.354 N 
ATOM     53  N   UNL A   1      42.324  27.898  31.150  1.00  0.00    -0.248 NA
ATOM     54  C   UNL A   1      43.795  26.465  30.037  1.00  0.00     0.031 C 
ATOM     55  C   UNL A   1      42.872  29.265  35.349  1.00  0.00     0.029 A 
ATOM     56  C   UNL A   1      42.715  28.816  34.046  1.00  0.00     0.049 A 
ATOM     57  H   UNL A   1      41.250  29.350  32.628  1.00  0.00     0.167 HD
ATOM     58  C   UNL A   1      43.325  27.502  32.031  1.00  0.00     0.074 A 
ATOM     59  C   UNL A   1      44.180  26.587  31.301  1.00  0.00     0.031 C 
ATOM     60  C   UNL A   1      43.526  27.872  33.319  1.00  0.00     0.034 A 
BRANCH  47  61
ATOM     61  C   UNL A   1      39.436  32.017  35.430  1.00  0.00     0.023 A 
ATOM     62  C   UNL A   1      38.502  31.546  36.380  1.00  0.00     0.012 A 
ATOM     63  C   UNL A   1      39.931  33.330  35.548  1.00  0.00     0.148 A 
ATOM     64  C   UNL A   1      38.024  32.383  37.387  1.00  0.00     0.002 A 
ATOM     65  C   UNL A   1      39.487  34.142  36.589  1.00  0.00     0.091 A 
ATOM     66  F   UNL A   1      40.799  33.775  34.629  1.00  0.00    -0.205 F 
ATOM     67  C   UNL A   1      38.522  33.677  37.496  1.00  0.00     0.022 A 
BRANCH  65  68
ATOM     68  S   UNL A   1      40.135  35.794  36.866  1.00  0.00     0.127 S 
ATOM     69  O   UNL A   1      39.679  36.496  35.666  1.00  0.00    -0.237 OA
ATOM     70  O   UNL A   1      39.455  36.192  38.098  1.00  0.00    -0.237 OA
ATOM     71  O   UNL A   1      41.578  35.639  36.995  1.00  0.00    -0.744 OA
ENDBRANCH  65  68
ENDBRANCH  47  61
BRANCH  48  72
ATOM     72  C   UNL A   1      42.251  26.575  27.524  1.00  0.00     0.023 A 
ATOM     73  C   UNL A   1      43.025  27.244  26.555  1.00  0.00     0.012 A 
ATOM     74  C   UNL A   1      41.990  25.201  27.366  1.00  0.00     0.148 A 
ATOM     75  C   UNL A   1      43.513  26.563  25.441  1.00  0.00     0.002 A 
ATOM     76  C   UNL A   1      42.527  24.515  26.282  1.00  0.00     0.091 A 
ATOM     77  F   UNL A   1      41.249  24.585  28.297  1.00  0.00    -0.205 F 
ATOM     78  C   UNL A   1      43.275  25.197  25.310  1.00  0.00     0.022 A 
BRANCH  76  79
ATOM     79  S   UNL A   1      42.392  22.733  26.100  1.00  0.00     0.127 S 
ATOM     80  O   UNL A   1      40.946  22.534  26.147  1.00  0.00    -0.237 OA
ATOM     81  O   UNL A   1      43.000  22.518  24.787  1.00  0.00    -0.237 OA
ATOM     82  O   UNL A   1      43.144  22.164  27.211  1.00  0.00    -0.744 OA
ENDBRANCH  76  79
ENDBRANCH  48  72
BRANCH  60  83
ATOM     83  C   UNL A   1      44.700  27.268  34.043  1.00  0.00     0.023 A 
ATOM     84  C   UNL A   1      45.924  27.963  34.093  1.00  0.00     0.012 A 
ATOM     85  C   UNL A   1      44.564  26.053  34.742  1.00  0.00     0.148 A 
ATOM     86  C   UNL A   1      47.004  27.444  34.806  1.00  0.00     0.002 A 
ATOM     87  C   UNL A   1      45.628  25.566  35.490  1.00  0.00     0.091 A 
ATOM     88  F   UNL A   1      43.396  25.398  34.664  1.00  0.00    -0.205 F 
ATOM     89  C   UNL A   1      46.853  26.253  35.513  1.00  0.00     0.022 A 
BRANCH  87  90
ATOM     90  S   UNL A   1      45.491  24.094  36.510  1.00  0.00     0.127 S 
ATOM     91  O   UNL A   1      44.917  24.637  37.741  1.00  0.00    -0.237 OA
ATOM     92  O   UNL A   1      44.579  23.257  35.730  1.00  0.00    -0.237 OA
ATOM     93  O   UNL A   1      46.842  23.563  36.629  1.00  0.00    -0.744 OA
ENDBRANCH  87  90
ENDBRANCH  60  83
ENDBRANCH  34  35
ENDBRANCH  26  29
ENDBRANCH  24  25
ENDBRANCH   1  24
TORSDOF 15
ENDMDL
MODEL 3
REMARK VINA RESULT:     -12.0      1.525      7.690
REMARK SMILES Cc1ccc(Cl)c(Nc2ccccc2C(=O)NCCCNC(=O)c2ccc(-c3c4nc(c(-c5cccc(S(=O)(=O)[O-])c5F)c5ccc([nH]5)c(-c5cccc(S(=O)(=O)[O-])c5F)c5nc(c(-c6cccc(S(=O)(=O)[O-])c6F)c6ccc3[nH]6)C=C5)C=C4)cc2)c1Cl
REMARK SMILES IDX 19 1 18 2 17 3 15 4 16 5 14 7 9 8 10 9 11 10 13 11 12 12
REMARK SMILES IDX 8 13 7 15 1 16 2 17 3 18 87 19 4 20 88 21 5 22 6 23 20 24
REMARK SMILES IDX 21 25 22 26 23 28 24 29 25 30 86 31 26 32 85 33 27 34 28 35
REMARK SMILES IDX 29 36 79 37 30 38 84 39 78 40 80 41 31 42 83 43 77 44 76 45
REMARK SMILES IDX 32 47 64 48 44 49 63 50 45 51 48 52 62 53 81 54 46 55 47 56
REMARK SMILES IDX 61 58 82 59 49 60 33 61 34 62 42 63 35 64 37 65 43 66 36 67
REMARK SMILES IDX 38 68 39 69 40 70 41 71 65 72 66 73 74 74 67 75 69 76 75 77
REMARK SMILES IDX 68 78 70 79 71 80 72 81 73 82 50 83 51 84 59 85 52 86 54 87
REMARK SMILES IDX 60 88 53 89 55 90 56 91 57 92 58 93
REMARK H PARENT 17 6 8 14 21 27 80 46 48 57
REMARK Flexibility Score: inf
ROOT
ATOM      1  C   UNL A   1      36.203  22.167  24.314  1.00  0.00     0.042 C 
ENDROOT
BRANCH   1   2
ATOM      2  C   UNL A   1      35.698  23.590  24.237  1.00  0.00     0.118 C 
BRANCH   2   3
ATOM      3  N   UNL A   1      34.871  23.931  23.108  1.00  0.00    -0.352 N 
ATOM      4  C   UNL A   1      33.881  24.884  23.034  1.00  0.00     0.253 C 
ATOM      5  O   UNL A   1      33.462  25.176  21.910  1.00  0.00    -0.269 OA
ATOM      6  H   UNL A   1      35.035  23.416  22.285  1.00  0.00     0.163 HD
BRANCH   4   7
ATOM      7  C   UNL A   1      33.190  25.452  24.236  1.00  0.00     0.063 A 
ATOM      8  C   UNL A   1      32.184  24.875  25.043  1.00  0.00     0.051 A 
ATOM      9  C   UNL A   1      31.599  25.686  26.046  1.00  0.00     0.027 A 
ATOM     10  C   UNL A   1      32.034  26.986  26.307  1.00  0.00     0.002 A 
ATOM     11  C   UNL A   1      33.637  26.762  24.538  1.00  0.00     0.016 A 
ATOM     12  C   UNL A   1      33.076  27.518  25.567  1.00  0.00     0.001 A 
BRANCH   8  13
ATOM     13  N   UNL A   1      31.728  23.538  25.050  1.00  0.00    -0.352 N 
ATOM     14  H   UNL A   1      30.745  23.473  25.040  1.00  0.00     0.167 HD
BRANCH  13  15
ATOM     15  C   UNL A   1      32.356  22.268  25.069  1.00  0.00     0.077 A 
ATOM     16  C   UNL A   1      32.529  18.945  23.158  1.00  0.00     0.046 C 
ATOM     17  C   UNL A   1      32.695  19.988  24.229  1.00  0.00    -0.030 A 
ATOM     18  C   UNL A   1      33.239  19.611  25.466  1.00  0.00     0.006 A 
ATOM     19  C   UNL A   1      32.293  21.327  24.024  1.00  0.00     0.069 A 
ATOM     20  C   UNL A   1      33.413  20.551  26.474  1.00  0.00     0.023 A 
ATOM     21  Cl  UNL A   1      31.851  21.819  22.414  1.00  0.00    -0.082 Cl
ATOM     22  C   UNL A   1      32.985  21.862  26.274  1.00  0.00     0.066 A 
ATOM     23  Cl  UNL A   1      33.143  22.968  27.605  1.00  0.00    -0.082 Cl
ENDBRANCH  13  15
ENDBRANCH   8  13
ENDBRANCH   4   7
ENDBRANCH   2   3
ENDBRANCH   1   2
BRANCH   1  24
ATOM     24  C   UNL A   1      36.713  21.732  25.684  1.00  0.00     0.118 C 
BRANCH  24  25
ATOM     25  N   UNL A   1      37.797  20.745  25.664  1.00  0.00    -0.352 N 
ATOM     26  C   UNL A   1      39.130  20.818  26.018  1.00  0.00     0.251 C 
ATOM     27  H   UNL A   1      37.521  19.859  25.335  1.00  0.00     0.163 HD
ATOM     28  O   UNL A   1      39.857  19.852  25.826  1.00  0.00    -0.269 OA
BRANCH  26  29
ATOM     29  C   UNL A   1      39.693  22.061  26.596  1.00  0.00     0.039 A 
ATOM     30  C   UNL A   1      40.669  21.980  27.597  1.00  0.00     0.014 A 
ATOM     31  C   UNL A   1      39.272  23.307  26.149  1.00  0.00     0.014 A 
ATOM     32  C   UNL A   1      41.294  23.146  28.056  1.00  0.00     0.010 A 
ATOM     33  C   UNL A   1      39.991  24.443  26.491  1.00  0.00     0.010 A 
ATOM     34  C   UNL A   1      41.000  24.383  27.462  1.00  0.00    -0.014 A 
BRANCH  34  35
ATOM     35  C   UNL A   1      41.703  25.642  27.828  1.00  0.00     0.031 A 
ATOM     36  C   UNL A   1      40.959  26.719  28.577  1.00  0.00     0.074 A 
ATOM     37  C   UNL A   1      42.943  25.884  27.357  1.00  0.00     0.049 A 
ATOM     38  N   UNL A   1      41.314  27.952  28.826  1.00  0.00    -0.248 NA
ATOM     39  C   UNL A   1      39.606  26.381  29.053  1.00  0.00     0.031 C 
ATOM     40  C   UNL A   1      43.729  24.968  26.526  1.00  0.00     0.029 A 
ATOM     41  N   UNL A   1      43.743  26.994  27.474  1.00  0.00    -0.354 N 
ATOM     42  C   UNL A   1      40.208  28.550  29.421  1.00  0.00     0.074 A 
ATOM     43  C   UNL A   1      39.154  27.562  29.444  1.00  0.00     0.031 C 
ATOM     44  C   UNL A   1      44.895  25.553  26.208  1.00  0.00     0.029 A 
ATOM     45  C   UNL A   1      44.927  26.895  26.780  1.00  0.00     0.049 A 
ATOM     46  H   UNL A   1      43.493  27.785  28.002  1.00  0.00     0.167 HD
ATOM     47  C   UNL A   1      40.089  29.795  29.944  1.00  0.00     0.034 A 
ATOM     48  C   UNL A   1      45.924  27.787  26.614  1.00  0.00     0.034 A 
ATOM     49  C   UNL A   1      41.168  30.743  29.989  1.00  0.00     0.049 A 
ATOM     50  C   UNL A   1      45.817  29.126  27.291  1.00  0.00     0.074 A 
ATOM     51  C   UNL A   1      41.202  31.984  30.596  1.00  0.00     0.029 A 
ATOM     52  N   UNL A   1      42.411  30.548  29.405  1.00  0.00    -0.354 N 
ATOM     53  N   UNL A   1      44.824  29.618  27.991  1.00  0.00    -0.248 NA
ATOM     54  C   UNL A   1      46.982  30.017  27.191  1.00  0.00     0.031 C 
ATOM     55  C   UNL A   1      42.462  32.546  30.368  1.00  0.00     0.029 A 
ATOM     56  C   UNL A   1      43.222  31.644  29.637  1.00  0.00     0.049 A 
ATOM     57  H   UNL A   1      42.677  29.747  28.898  1.00  0.00     0.167 HD
ATOM     58  C   UNL A   1      45.252  30.862  28.442  1.00  0.00     0.074 A 
ATOM     59  C   UNL A   1      46.605  31.037  27.952  1.00  0.00     0.031 C 
ATOM     60  C   UNL A   1      44.582  31.780  29.181  1.00  0.00     0.034 A 
BRANCH  47  61
ATOM     61  C   UNL A   1      38.766  30.162  30.566  1.00  0.00     0.023 A 
ATOM     62  C   UNL A   1      38.487  29.771  31.895  1.00  0.00     0.012 A 
ATOM     63  C   UNL A   1      37.798  30.893  29.850  1.00  0.00     0.148 A 
ATOM     64  C   UNL A   1      37.250  30.046  32.476  1.00  0.00     0.002 A 
ATOM     65  C   UNL A   1      36.586  31.208  30.456  1.00  0.00     0.091 A 
ATOM     66  F   UNL A   1      38.063  31.239  28.583  1.00  0.00    -0.205 F 
ATOM     67  C   UNL A   1      36.304  30.771  31.760  1.00  0.00     0.022 A 
BRANCH  65  68
ATOM     68  S   UNL A   1      35.336  32.214  29.647  1.00  0.00     0.127 S 
ATOM     69  O   UNL A   1      36.125  33.359  29.195  1.00  0.00    -0.237 OA
ATOM     70  O   UNL A   1      34.874  31.332  28.575  1.00  0.00    -0.237 OA
ATOM     71  O   UNL A   1      34.336  32.501  30.667  1.00  0.00    -0.744 OA
ENDBRANCH  65  68
ENDBRANCH  47  61
BRANCH  48  72
ATOM     72  C   UNL A   1      47.135  27.399  25.838  1.00  0.00     0.023 A 
ATOM     73  C   UNL A   1      48.111  26.583  26.444  1.00  0.00     0.012 A 
ATOM     74  C   UNL A   1      47.289  27.764  24.487  1.00  0.00     0.148 A 
ATOM     75  C   UNL A   1      49.227  26.156  25.727  1.00  0.00     0.002 A 
ATOM     76  C   UNL A   1      48.377  27.290  23.761  1.00  0.00     0.091 A 
ATOM     77  F   UNL A   1      46.352  28.544  23.930  1.00  0.00    -0.205 F 
ATOM     78  C   UNL A   1      49.355  26.498  24.383  1.00  0.00     0.022 A 
BRANCH  76  79
ATOM     79  S   UNL A   1      48.555  27.561  21.994  1.00  0.00     0.127 S 
ATOM     80  O   UNL A   1      49.688  28.482  21.944  1.00  0.00    -0.237 OA
ATOM     81  O   UNL A   1      48.838  26.209  21.510  1.00  0.00    -0.237 OA
ATOM     82  O   UNL A   1      47.280  28.105  21.547  1.00  0.00    -0.744 OA
ENDBRANCH  76  79
ENDBRANCH  48  72
BRANCH  60  83
ATOM     83  C   UNL A   1      45.307  33.051  29.536  1.00  0.00     0.023 A 
ATOM     84  C   UNL A   1      46.074  33.114  30.715  1.00  0.00     0.012 A 
ATOM     85  C   UNL A   1      45.294  34.153  28.658  1.00  0.00     0.148 A 
ATOM     86  C   UNL A   1      46.795  34.265  31.031  1.00  0.00     0.002 A 
ATOM     87  C   UNL A   1      46.053  35.277  28.953  1.00  0.00     0.091 A 
ATOM     88  F   UNL A   1      44.541  34.079  27.550  1.00  0.00    -0.205 F 
ATOM     89  C   UNL A   1      46.795  35.341  30.145  1.00  0.00     0.022 A 
BRANCH  87  90
ATOM     90  S   UNL A   1      46.190  36.668  27.824  1.00  0.00     0.127 S 
ATOM     91  O   UNL A   1      47.045  36.115  26.774  1.00  0.00    -0.237 OA
ATOM     92  O   UNL A   1      44.799  36.885  27.427  1.00  0.00    -0.237 OA
ATOM     93  O   UNL A   1      46.772  37.755  28.599  1.00  0.00    -0.744 OA
ENDBRANCH  87  90
ENDBRANCH  60  83
ENDBRANCH  34  35
ENDBRANCH  26  29
ENDBRANCH  24  25
ENDBRANCH   1  24
TORSDOF 15
ENDMDL
