MODEL 1
REMARK VINA RESULT:     -11.4      0.000      0.000
REMARK SMILES CCOC(=O)NC(=O)C[N@H+]1CC[C@@H](C(=O)NCCCNC(=O)c2ccc(-c3c4nc(c(-c5cccc(S(=O)(=O)[O-])c5F)c5ccc([nH]5)c(-c5cccc(S(=O)(=O)[O-])c5F)c5nc(c(-c6cccc(S(=O)(=O)[O-])c6F)c6ccc3[nH]6)C=C5)C=C4)cc2)[C@@H]1C
REMARK SMILES IDX 17 1 16 2 14 3 15 4 13 6 10 7 11 8 86 9 12 11 87 12 9 13
REMARK SMILES IDX 7 14 4 15 5 16 6 17 8 19 3 20 2 21 1 22 18 23 19 24 20 25
REMARK SMILES IDX 21 26 22 28 23 29 24 30 85 31 25 32 84 33 26 34 27 35 28 36
REMARK SMILES IDX 78 37 29 38 83 39 77 40 79 41 30 42 82 43 76 44 75 45 31 47
REMARK SMILES IDX 63 48 43 49 62 50 44 51 47 52 61 53 80 54 45 55 46 56 60 58
REMARK SMILES IDX 81 59 48 60 32 61 33 62 41 63 34 64 36 65 42 66 35 67 37 68
REMARK SMILES IDX 38 69 39 70 40 71 64 72 65 73 73 74 66 75 68 76 74 77 67 78
REMARK SMILES IDX 69 79 70 80 71 81 72 82 49 83 50 84 58 85 51 86 53 87 59 88
REMARK SMILES IDX 52 89 54 90 55 91 56 92 57 93
REMARK H PARENT 16 5 10 10 6 18 20 27 79 46 47 57
REMARK Flexibility Score: inf
ROOT
ATOM      1  C   UNL A   1      31.456  30.700  25.965  1.00  0.00     0.117 C 
ENDROOT
BRANCH   1   2
ATOM      2  N   UNL A   1      31.837  29.641  26.882  1.00  0.00    -0.356 N 
ATOM      3  C   UNL A   1      32.438  28.443  26.658  1.00  0.00     0.229 C 
ATOM      4  O   UNL A   1      33.110  28.004  27.602  1.00  0.00    -0.275 OA
ATOM      5  H   UNL A   1      31.624  29.822  27.827  1.00  0.00     0.163 HD
BRANCH   3   6
ATOM      6  C   UNL A   1      32.224  27.528  25.448  1.00  0.00     0.142 C 
ATOM      7  N   UNL A   1      31.811  25.172  25.718  1.00  0.00    -0.324 N 
ATOM      8  C   UNL A   1      30.563  25.755  25.249  1.00  0.00     0.263 C 
ATOM      9  C   UNL A   1      32.865  26.174  25.748  1.00  0.00     0.194 C 
ATOM     10  H   UNL A   1      32.055  24.476  25.012  1.00  0.00     0.348 HD
ATOM     11  C   UNL A   1      30.852  27.212  24.894  1.00  0.00     0.081 C 
ATOM     12  C   UNL A   1      33.925  25.759  24.724  1.00  0.00     0.076 C 
BRANCH   7  13
ATOM     13  C   UNL A   1      31.754  24.287  26.898  1.00  0.00     0.364 C 
BRANCH  13  14
ATOM     14  C   UNL A   1      30.725  23.163  26.799  1.00  0.00     0.284 C 
ATOM     15  C   UNL A   1      31.922  21.498  25.253  1.00  0.00     0.414 C 
ATOM     16  O   UNL A   1      31.885  20.287  25.000  1.00  0.00    -0.224 OA
ATOM     17  N   UNL A   1      30.897  22.072  25.970  1.00  0.00    -0.256 N 
ATOM     18  H   UNL A   1      30.058  21.567  25.863  1.00  0.00     0.176 HD
ATOM     19  O   UNL A   1      29.715  23.171  27.516  1.00  0.00    -0.268 OA
BRANCH  15  20
ATOM     20  O   UNL A   1      32.937  22.321  24.924  1.00  0.00    -0.450 OA
BRANCH  20  21
ATOM     21  C   UNL A   1      34.262  21.840  25.215  1.00  0.00     0.231 C 
ATOM     22  C   UNL A   1      34.669  22.126  26.652  1.00  0.00     0.049 C 
ENDBRANCH  20  21
ENDBRANCH  15  20
ENDBRANCH  13  14
ENDBRANCH   7  13
ENDBRANCH   3   6
ENDBRANCH   1   2
BRANCH   1  23
ATOM     23  C   UNL A   1      31.455  32.128  26.530  1.00  0.00     0.042 C 
BRANCH  23  24
ATOM     24  C   UNL A   1      32.682  32.572  27.331  1.00  0.00     0.118 C 
BRANCH  24  25
ATOM     25  N   UNL A   1      32.612  33.998  27.621  1.00  0.00    -0.352 N 
ATOM     26  C   UNL A   1      33.126  34.731  28.661  1.00  0.00     0.251 C 
ATOM     27  H   UNL A   1      32.111  34.525  26.956  1.00  0.00     0.163 HD
ATOM     28  O   UNL A   1      32.599  35.812  28.924  1.00  0.00    -0.269 OA
BRANCH  26  29
ATOM     29  C   UNL A   1      34.300  34.291  29.454  1.00  0.00     0.039 A 
ATOM     30  C   UNL A   1      35.583  34.533  28.939  1.00  0.00     0.014 A 
ATOM     31  C   UNL A   1      34.165  33.494  30.594  1.00  0.00     0.014 A 
ATOM     32  C   UNL A   1      36.715  33.991  29.561  1.00  0.00     0.010 A 
ATOM     33  C   UNL A   1      35.301  32.983  31.236  1.00  0.00     0.010 A 
ATOM     34  C   UNL A   1      36.588  33.209  30.719  1.00  0.00    -0.014 A 
BRANCH  34  35
ATOM     35  C   UNL A   1      37.782  32.625  31.397  1.00  0.00     0.031 A 
ATOM     36  C   UNL A   1      38.522  31.458  30.791  1.00  0.00     0.074 A 
ATOM     37  C   UNL A   1      38.163  33.092  32.602  1.00  0.00     0.049 A 
ATOM     38  N   UNL A   1      39.518  30.765  31.282  1.00  0.00    -0.248 NA
ATOM     39  C   UNL A   1      38.076  31.002  29.465  1.00  0.00     0.031 C 
ATOM     40  C   UNL A   1      37.514  34.187  33.324  1.00  0.00     0.029 A 
ATOM     41  N   UNL A   1      39.162  32.680  33.452  1.00  0.00    -0.354 N 
ATOM     42  C   UNL A   1      39.791  29.768  30.352  1.00  0.00     0.074 A 
ATOM     43  C   UNL A   1      38.847  29.941  29.267  1.00  0.00     0.031 C 
ATOM     44  C   UNL A   1      38.114  34.345  34.514  1.00  0.00     0.029 A 
ATOM     45  C   UNL A   1      39.168  33.343  34.658  1.00  0.00     0.049 A 
ATOM     46  H   UNL A   1      39.810  31.976  33.221  1.00  0.00     0.167 HD
ATOM     47  C   UNL A   1      40.750  28.810  30.383  1.00  0.00     0.034 A 
ATOM     48  C   UNL A   1      39.916  33.156  35.764  1.00  0.00     0.034 A 
ATOM     49  C   UNL A   1      41.722  28.665  31.436  1.00  0.00     0.049 A 
ATOM     50  C   UNL A   1      40.976  32.088  35.772  1.00  0.00     0.074 A 
ATOM     51  C   UNL A   1      42.792  27.788  31.503  1.00  0.00     0.029 A 
ATOM     52  N   UNL A   1      41.736  29.399  32.611  1.00  0.00    -0.354 N 
ATOM     53  N   UNL A   1      41.321  31.261  34.815  1.00  0.00    -0.248 NA
ATOM     54  C   UNL A   1      41.769  31.944  37.003  1.00  0.00     0.031 C 
ATOM     55  C   UNL A   1      43.437  27.975  32.730  1.00  0.00     0.029 A 
ATOM     56  C   UNL A   1      42.780  28.981  33.420  1.00  0.00     0.049 A 
ATOM     57  H   UNL A   1      41.097  30.113  32.838  1.00  0.00     0.167 HD
ATOM     58  C   UNL A   1      42.382  30.517  35.319  1.00  0.00     0.074 A 
ATOM     59  C   UNL A   1      42.643  31.008  36.655  1.00  0.00     0.031 C 
ATOM     60  C   UNL A   1      43.066  29.504  34.731  1.00  0.00     0.034 A 
BRANCH  47  61
ATOM     61  C   UNL A   1      40.838  27.857  29.217  1.00  0.00     0.023 A 
ATOM     62  C   UNL A   1      39.938  26.775  29.137  1.00  0.00     0.012 A 
ATOM     63  C   UNL A   1      41.748  28.079  28.164  1.00  0.00     0.148 A 
ATOM     64  C   UNL A   1      39.963  25.910  28.043  1.00  0.00     0.002 A 
ATOM     65  C   UNL A   1      41.741  27.234  27.058  1.00  0.00     0.091 A 
ATOM     66  F   UNL A   1      42.605  29.104  28.264  1.00  0.00    -0.205 F 
ATOM     67  C   UNL A   1      40.856  26.144  27.001  1.00  0.00     0.022 A 
BRANCH  65  68
ATOM     68  S   UNL A   1      42.798  27.496  25.629  1.00  0.00     0.127 S 
ATOM     69  O   UNL A   1      42.260  26.522  24.682  1.00  0.00    -0.237 OA
ATOM     70  O   UNL A   1      42.521  28.892  25.290  1.00  0.00    -0.237 OA
ATOM     71  O   UNL A   1      44.157  27.240  26.084  1.00  0.00    -0.744 OA
ENDBRANCH  65  68
ENDBRANCH  47  61
BRANCH  48  72
ATOM     72  C   UNL A   1      39.707  34.031  36.953  1.00  0.00     0.023 A 
ATOM     73  C   UNL A   1      40.093  35.384  36.893  1.00  0.00     0.012 A 
ATOM     74  C   UNL A   1      39.097  33.542  38.125  1.00  0.00     0.148 A 
ATOM     75  C   UNL A   1      39.898  36.228  37.987  1.00  0.00     0.002 A 
ATOM     76  C   UNL A   1      38.853  34.402  39.190  1.00  0.00     0.091 A 
ATOM     77  F   UNL A   1      38.754  32.246  38.171  1.00  0.00    -0.205 F 
ATOM     78  C   UNL A   1      39.268  35.741  39.129  1.00  0.00     0.022 A 
BRANCH  76  79
ATOM     79  S   UNL A   1      37.923  33.892  40.639  1.00  0.00     0.127 S 
ATOM     80  O   UNL A   1      36.734  33.292  40.038  1.00  0.00    -0.237 OA
ATOM     81  O   UNL A   1      38.839  32.942  41.272  1.00  0.00    -0.237 OA
ATOM     82  O   UNL A   1      37.700  35.108  41.410  1.00  0.00    -0.744 OA
ENDBRANCH  76  79
ENDBRANCH  48  72
BRANCH  60  83
ATOM     83  C   UNL A   1      44.174  28.852  35.518  1.00  0.00     0.023 A 
ATOM     84  C   UNL A   1      45.474  29.391  35.464  1.00  0.00     0.012 A 
ATOM     85  C   UNL A   1      43.912  27.765  36.375  1.00  0.00     0.148 A 
ATOM     86  C   UNL A   1      46.502  28.846  36.232  1.00  0.00     0.002 A 
ATOM     87  C   UNL A   1      44.932  27.253  37.172  1.00  0.00     0.091 A 
ATOM     88  F   UNL A   1      42.673  27.255  36.401  1.00  0.00    -0.205 F 
ATOM     89  C   UNL A   1      46.229  27.786  37.093  1.00  0.00     0.022 A 
BRANCH  87  90
ATOM     90  S   UNL A   1      44.660  25.949  38.377  1.00  0.00     0.127 S 
ATOM     91  O   UNL A   1      43.596  26.521  39.201  1.00  0.00    -0.237 OA
ATOM     92  O   UNL A   1      44.241  24.829  37.532  1.00  0.00    -0.237 OA
ATOM     93  O   UNL A   1      45.934  25.754  39.054  1.00  0.00    -0.744 OA
ENDBRANCH  87  90
ENDBRANCH  60  83
ENDBRANCH  34  35
ENDBRANCH  26  29
ENDBRANCH  24  25
ENDBRANCH  23  24
ENDBRANCH   1  23
TORSDOF 17
ENDMDL
MODEL 2
REMARK VINA RESULT:     -11.3      3.608      8.877
REMARK SMILES CCOC(=O)NC(=O)C[N@H+]1CC[C@@H](C(=O)NCCCNC(=O)c2ccc(-c3c4nc(c(-c5cccc(S(=O)(=O)[O-])c5F)c5ccc([nH]5)c(-c5cccc(S(=O)(=O)[O-])c5F)c5nc(c(-c6cccc(S(=O)(=O)[O-])c6F)c6ccc3[nH]6)C=C5)C=C4)cc2)[C@@H]1C
REMARK SMILES IDX 17 1 16 2 14 3 15 4 13 6 10 7 11 8 86 9 12 11 87 12 9 13
REMARK SMILES IDX 7 14 4 15 5 16 6 17 8 19 3 20 2 21 1 22 18 23 19 24 20 25
REMARK SMILES IDX 21 26 22 28 23 29 24 30 85 31 25 32 84 33 26 34 27 35 28 36
REMARK SMILES IDX 78 37 29 38 83 39 77 40 79 41 30 42 82 43 76 44 75 45 31 47
REMARK SMILES IDX 63 48 43 49 62 50 44 51 47 52 61 53 80 54 45 55 46 56 60 58
REMARK SMILES IDX 81 59 48 60 32 61 33 62 41 63 34 64 36 65 42 66 35 67 37 68
REMARK SMILES IDX 38 69 39 70 40 71 64 72 65 73 73 74 66 75 68 76 74 77 67 78
REMARK SMILES IDX 69 79 70 80 71 81 72 82 49 83 50 84 58 85 51 86 53 87 59 88
REMARK SMILES IDX 52 89 54 90 55 91 56 92 57 93
REMARK H PARENT 16 5 10 10 6 18 20 27 79 46 47 57
REMARK Flexibility Score: inf
ROOT
ATOM      1  C   UNL A   1      31.499  27.837  26.435  1.00  0.00     0.117 C 
ENDROOT
BRANCH   1   2
ATOM      2  N   UNL A   1      30.703  26.626  26.508  1.00  0.00    -0.356 N 
ATOM      3  C   UNL A   1      30.997  25.345  26.163  1.00  0.00     0.229 C 
ATOM      4  O   UNL A   1      30.389  24.473  26.801  1.00  0.00    -0.275 OA
ATOM      5  H   UNL A   1      29.795  26.754  26.868  1.00  0.00     0.163 HD
BRANCH   3   6
ATOM      6  C   UNL A   1      31.853  24.894  24.975  1.00  0.00     0.142 C 
ATOM      7  N   UNL A   1      33.026  22.791  25.004  1.00  0.00    -0.324 N 
ATOM      8  C   UNL A   1      31.952  22.648  24.033  1.00  0.00     0.263 C 
ATOM      9  C   UNL A   1      33.075  24.153  25.515  1.00  0.00     0.194 C 
ATOM     10  H   UNL A   1      33.881  22.620  24.475  1.00  0.00     0.348 HD
ATOM     11  C   UNL A   1      31.313  24.024  23.862  1.00  0.00     0.081 C 
ATOM     12  C   UNL A   1      34.406  24.764  25.071  1.00  0.00     0.076 C 
BRANCH   7  13
ATOM     13  C   UNL A   1      33.174  21.734  26.024  1.00  0.00     0.364 C 
BRANCH  13  14
ATOM     14  C   UNL A   1      33.438  20.341  25.458  1.00  0.00     0.284 C 
ATOM     15  C   UNL A   1      35.977  20.404  25.082  1.00  0.00     0.414 C 
ATOM     16  O   UNL A   1      36.913  19.600  24.980  1.00  0.00    -0.224 OA
ATOM     17  N   UNL A   1      34.682  19.948  25.003  1.00  0.00    -0.256 N 
ATOM     18  H   UNL A   1      34.625  19.116  24.478  1.00  0.00     0.176 HD
ATOM     19  O   UNL A   1      32.540  19.488  25.446  1.00  0.00    -0.268 OA
BRANCH  15  20
ATOM     20  O   UNL A   1      36.119  21.722  25.325  1.00  0.00    -0.450 OA
BRANCH  20  21
ATOM     21  C   UNL A   1      37.126  22.403  24.555  1.00  0.00     0.231 C 
ATOM     22  C   UNL A   1      36.637  22.747  23.156  1.00  0.00     0.049 C 
ENDBRANCH  20  21
ENDBRANCH  15  20
ENDBRANCH  13  14
ENDBRANCH   7  13
ENDBRANCH   3   6
ENDBRANCH   1   2
BRANCH   1  23
ATOM     23  C   UNL A   1      32.943  27.739  26.949  1.00  0.00     0.042 C 
BRANCH  23  24
ATOM     24  C   UNL A   1      34.011  28.556  26.216  1.00  0.00     0.118 C 
BRANCH  24  25
ATOM     25  N   UNL A   1      33.908  29.965  26.574  1.00  0.00    -0.352 N 
ATOM     26  C   UNL A   1      34.520  30.688  27.567  1.00  0.00     0.251 C 
ATOM     27  H   UNL A   1      33.294  30.486  26.007  1.00  0.00     0.163 HD
ATOM     28  O   UNL A   1      33.978  31.728  27.945  1.00  0.00    -0.269 OA
BRANCH  26  29
ATOM     29  C   UNL A   1      35.812  30.288  28.176  1.00  0.00     0.039 A 
ATOM     30  C   UNL A   1      36.974  30.376  27.394  1.00  0.00     0.014 A 
ATOM     31  C   UNL A   1      35.879  29.665  29.424  1.00  0.00     0.014 A 
ATOM     32  C   UNL A   1      38.188  29.854  27.859  1.00  0.00     0.010 A 
ATOM     33  C   UNL A   1      37.102  29.176  29.905  1.00  0.00     0.010 A 
ATOM     34  C   UNL A   1      38.268  29.248  29.122  1.00  0.00    -0.014 A 
BRANCH  34  35
ATOM     35  C   UNL A   1      39.551  28.687  29.636  1.00  0.00     0.031 A 
ATOM     36  C   UNL A   1      40.324  29.393  30.723  1.00  0.00     0.074 A 
ATOM     37  C   UNL A   1      40.069  27.577  29.074  1.00  0.00     0.049 A 
ATOM     38  N   UNL A   1      41.498  29.103  31.224  1.00  0.00    -0.248 NA
ATOM     39  C   UNL A   1      39.703  30.588  31.313  1.00  0.00     0.031 C 
ATOM     40  C   UNL A   1      39.450  26.816  27.988  1.00  0.00     0.029 A 
ATOM     41  N   UNL A   1      41.252  26.918  29.309  1.00  0.00    -0.354 N 
ATOM     42  C   UNL A   1      41.777  30.097  32.156  1.00  0.00     0.074 A 
ATOM     43  C   UNL A   1      40.650  31.006  32.143  1.00  0.00     0.031 C 
ATOM     44  C   UNL A   1      40.266  25.811  27.635  1.00  0.00     0.029 A 
ATOM     45  C   UNL A   1      41.481  25.872  28.444  1.00  0.00     0.049 A 
ATOM     46  H   UNL A   1      41.876  27.170  30.027  1.00  0.00     0.167 HD
ATOM     47  C   UNL A   1      42.858  30.233  32.962  1.00  0.00     0.034 A 
ATOM     48  C   UNL A   1      42.553  25.067  28.298  1.00  0.00     0.034 A 
ATOM     49  C   UNL A   1      43.959  29.305  33.012  1.00  0.00     0.049 A 
ATOM     50  C   UNL A   1      43.740  25.236  29.208  1.00  0.00     0.074 A 
ATOM     51  C   UNL A   1      45.047  29.307  33.869  1.00  0.00     0.029 A 
ATOM     52  N   UNL A   1      44.123  28.221  32.165  1.00  0.00    -0.354 N 
ATOM     53  N   UNL A   1      43.911  26.087  30.191  1.00  0.00    -0.248 NA
ATOM     54  C   UNL A   1      44.871  24.317  29.009  1.00  0.00     0.031 C 
ATOM     55  C   UNL A   1      45.882  28.240  33.523  1.00  0.00     0.029 A 
ATOM     56  C   UNL A   1      45.304  27.561  32.462  1.00  0.00     0.049 A 
ATOM     57  H   UNL A   1      43.492  27.958  31.456  1.00  0.00     0.167 HD
ATOM     58  C   UNL A   1      45.154  25.791  30.738  1.00  0.00     0.074 A 
ATOM     59  C   UNL A   1      45.682  24.666  29.998  1.00  0.00     0.031 C 
ATOM     60  C   UNL A   1      45.806  26.412  31.753  1.00  0.00     0.034 A 
BRANCH  47  61
ATOM     61  C   UNL A   1      42.895  31.410  33.905  1.00  0.00     0.023 A 
ATOM     62  C   UNL A   1      43.449  32.631  33.468  1.00  0.00     0.012 A 
ATOM     63  C   UNL A   1      42.310  31.335  35.185  1.00  0.00     0.148 A 
ATOM     64  C   UNL A   1      43.448  33.749  34.301  1.00  0.00     0.002 A 
ATOM     65  C   UNL A   1      42.279  32.465  35.995  1.00  0.00     0.091 A 
ATOM     66  F   UNL A   1      41.801  30.162  35.589  1.00  0.00    -0.205 F 
ATOM     67  C   UNL A   1      42.855  33.670  35.558  1.00  0.00     0.022 A 
BRANCH  65  68
ATOM     68  S   UNL A   1      41.471  32.488  37.600  1.00  0.00     0.127 S 
ATOM     69  O   UNL A   1      41.638  33.886  37.995  1.00  0.00    -0.237 OA
ATOM     70  O   UNL A   1      40.098  32.110  37.262  1.00  0.00    -0.237 OA
ATOM     71  O   UNL A   1      42.182  31.518  38.420  1.00  0.00    -0.744 OA
ENDBRANCH  65  68
ENDBRANCH  47  61
BRANCH  48  72
ATOM     72  C   UNL A   1      42.536  23.998  27.259  1.00  0.00     0.023 A 
ATOM     73  C   UNL A   1      43.110  24.250  25.997  1.00  0.00     0.012 A 
ATOM     74  C   UNL A   1      41.989  22.727  27.523  1.00  0.00     0.148 A 
ATOM     75  C   UNL A   1      43.118  23.264  25.010  1.00  0.00     0.002 A 
ATOM     76  C   UNL A   1      42.051  21.731  26.556  1.00  0.00     0.091 A 
ATOM     77  F   UNL A   1      41.428  22.513  28.722  1.00  0.00    -0.205 F 
ATOM     78  C   UNL A   1      42.600  22.002  25.293  1.00  0.00     0.022 A 
BRANCH  76  79
ATOM     79  S   UNL A   1      41.536  20.042  26.885  1.00  0.00     0.127 S 
ATOM     80  O   UNL A   1      42.816  19.377  27.120  1.00  0.00    -0.237 OA
ATOM     81  O   UNL A   1      40.699  20.205  28.074  1.00  0.00    -0.237 OA
ATOM     82  O   UNL A   1      40.807  19.615  25.698  1.00  0.00    -0.744 OA
ENDBRANCH  76  79
ENDBRANCH  48  72
BRANCH  60  83
ATOM     83  C   UNL A   1      47.167  25.891  32.139  1.00  0.00     0.023 A 
ATOM     84  C   UNL A   1      48.309  26.372  31.470  1.00  0.00     0.012 A 
ATOM     85  C   UNL A   1      47.322  24.996  33.216  1.00  0.00     0.148 A 
ATOM     86  C   UNL A   1      49.584  25.954  31.851  1.00  0.00     0.002 A 
ATOM     87  C   UNL A   1      48.598  24.617  33.619  1.00  0.00     0.091 A 
ATOM     88  F   UNL A   1      46.222  24.537  33.830  1.00  0.00    -0.205 F 
ATOM     89  C   UNL A   1      49.729  25.088  32.931  1.00  0.00     0.022 A 
BRANCH  87  90
ATOM     90  S   UNL A   1      48.894  23.576  35.054  1.00  0.00     0.127 S 
ATOM     91  O   UNL A   1      48.263  22.321  34.647  1.00  0.00    -0.237 OA
ATOM     92  O   UNL A   1      50.355  23.534  35.110  1.00  0.00    -0.237 OA
ATOM     93  O   UNL A   1      48.263  24.253  36.179  1.00  0.00    -0.744 OA
ENDBRANCH  87  90
ENDBRANCH  60  83
ENDBRANCH  34  35
ENDBRANCH  26  29
ENDBRANCH  24  25
ENDBRANCH  23  24
ENDBRANCH   1  23
TORSDOF 17
ENDMDL
MODEL 3
REMARK VINA RESULT:     -11.3      1.314      1.565
REMARK SMILES CCOC(=O)NC(=O)C[N@H+]1CC[C@@H](C(=O)NCCCNC(=O)c2ccc(-c3c4nc(c(-c5cccc(S(=O)(=O)[O-])c5F)c5ccc([nH]5)c(-c5cccc(S(=O)(=O)[O-])c5F)c5nc(c(-c6cccc(S(=O)(=O)[O-])c6F)c6ccc3[nH]6)C=C5)C=C4)cc2)[C@@H]1C
REMARK SMILES IDX 17 1 16 2 14 3 15 4 13 6 10 7 11 8 86 9 12 11 87 12 9 13
REMARK SMILES IDX 7 14 4 15 5 16 6 17 8 19 3 20 2 21 1 22 18 23 19 24 20 25
REMARK SMILES IDX 21 26 22 28 23 29 24 30 85 31 25 32 84 33 26 34 27 35 28 36
REMARK SMILES IDX 78 37 29 38 83 39 77 40 79 41 30 42 82 43 76 44 75 45 31 47
REMARK SMILES IDX 63 48 43 49 62 50 44 51 47 52 61 53 80 54 45 55 46 56 60 58
REMARK SMILES IDX 81 59 48 60 32 61 33 62 41 63 34 64 36 65 42 66 35 67 37 68
REMARK SMILES IDX 38 69 39 70 40 71 64 72 65 73 73 74 66 75 68 76 74 77 67 78
REMARK SMILES IDX 69 79 70 80 71 81 72 82 49 83 50 84 58 85 51 86 53 87 59 88
REMARK SMILES IDX 52 89 54 90 55 91 56 92 57 93
REMARK H PARENT 16 5 10 10 6 18 20 27 79 46 47 57
REMARK Flexibility Score: inf
ROOT
ATOM      1  C   UNL A   1      31.383  30.630  25.927  1.00  0.00     0.117 C 
ENDROOT
BRANCH   1   2
ATOM      2  N   UNL A   1      31.720  29.569  26.859  1.00  0.00    -0.356 N 
ATOM      3  C   UNL A   1      32.317  28.365  26.658  1.00  0.00     0.229 C 
ATOM      4  O   UNL A   1      32.950  27.921  27.627  1.00  0.00    -0.275 OA
ATOM      5  H   UNL A   1      31.474  29.753  27.795  1.00  0.00     0.163 HD
BRANCH   3   6
ATOM      6  C   UNL A   1      32.139  27.450  25.442  1.00  0.00     0.142 C 
ATOM      7  N   UNL A   1      31.798  25.081  25.697  1.00  0.00    -0.324 N 
ATOM      8  C   UNL A   1      30.535  25.628  25.223  1.00  0.00     0.263 C 
ATOM      9  C   UNL A   1      32.820  26.115  25.738  1.00  0.00     0.194 C 
ATOM     10  H   UNL A   1      32.067  24.397  24.989  1.00  0.00     0.348 HD
ATOM     11  C   UNL A   1      30.781  27.095  24.878  1.00  0.00     0.081 C 
ATOM     12  C   UNL A   1      33.898  25.739  24.719  1.00  0.00     0.076 C 
BRANCH   7  13
ATOM     13  C   UNL A   1      31.761  24.189  26.872  1.00  0.00     0.364 C 
BRANCH  13  14
ATOM     14  C   UNL A   1      30.739  23.058  26.778  1.00  0.00     0.284 C 
ATOM     15  C   UNL A   1      31.951  21.388  25.250  1.00  0.00     0.414 C 
ATOM     16  O   UNL A   1      31.922  20.174  25.006  1.00  0.00    -0.224 OA
ATOM     17  N   UNL A   1      30.921  21.961  25.958  1.00  0.00    -0.256 N 
ATOM     18  H   UNL A   1      30.085  21.450  25.852  1.00  0.00     0.176 HD
ATOM     19  O   UNL A   1      29.727  23.066  27.491  1.00  0.00    -0.268 OA
BRANCH  15  20
ATOM     20  O   UNL A   1      32.963  22.214  24.918  1.00  0.00    -0.450 OA
BRANCH  20  21
ATOM     21  C   UNL A   1      34.283  21.643  24.948  1.00  0.00     0.231 C 
ATOM     22  C   UNL A   1      35.218  22.314  23.953  1.00  0.00     0.049 C 
ENDBRANCH  20  21
ENDBRANCH  15  20
ENDBRANCH  13  14
ENDBRANCH   7  13
ENDBRANCH   3   6
ENDBRANCH   1   2
BRANCH   1  23
ATOM     23  C   UNL A   1      31.426  32.064  26.477  1.00  0.00     0.042 C 
BRANCH  23  24
ATOM     24  C   UNL A   1      32.647  32.465  27.310  1.00  0.00     0.118 C 
BRANCH  24  25
ATOM     25  N   UNL A   1      32.619  33.892  27.600  1.00  0.00    -0.352 N 
ATOM     26  C   UNL A   1      33.165  34.611  28.633  1.00  0.00     0.251 C 
ATOM     27  H   UNL A   1      32.122  34.432  26.943  1.00  0.00     0.163 HD
ATOM     28  O   UNL A   1      32.670  35.706  28.903  1.00  0.00    -0.269 OA
BRANCH  26  29
ATOM     29  C   UNL A   1      34.339  34.140  29.410  1.00  0.00     0.039 A 
ATOM     30  C   UNL A   1      35.622  34.468  28.946  1.00  0.00     0.014 A 
ATOM     31  C   UNL A   1      34.209  33.242  30.472  1.00  0.00     0.014 A 
ATOM     32  C   UNL A   1      36.760  33.910  29.543  1.00  0.00     0.010 A 
ATOM     33  C   UNL A   1      35.350  32.712  31.091  1.00  0.00     0.010 A 
ATOM     34  C   UNL A   1      36.638  33.025  30.625  1.00  0.00    -0.014 A 
BRANCH  34  35
ATOM     35  C   UNL A   1      37.838  32.421  31.274  1.00  0.00     0.031 A 
ATOM     36  C   UNL A   1      38.560  31.259  30.638  1.00  0.00     0.074 A 
ATOM     37  C   UNL A   1      38.241  32.866  32.481  1.00  0.00     0.049 A 
ATOM     38  N   UNL A   1      39.558  30.551  31.102  1.00  0.00    -0.248 NA
ATOM     39  C   UNL A   1      38.089  30.828  29.313  1.00  0.00     0.031 C 
ATOM     40  C   UNL A   1      37.611  33.954  33.230  1.00  0.00     0.029 A 
ATOM     41  N   UNL A   1      39.250  32.433  33.308  1.00  0.00    -0.354 N 
ATOM     42  C   UNL A   1      39.810  29.568  30.152  1.00  0.00     0.074 A 
ATOM     43  C   UNL A   1      38.850  29.765  29.085  1.00  0.00     0.031 C 
ATOM     44  C   UNL A   1      38.230  34.088  34.413  1.00  0.00     0.029 A 
ATOM     45  C   UNL A   1      39.280  33.077  34.524  1.00  0.00     0.049 A 
ATOM     46  H   UNL A   1      39.890  31.729  33.055  1.00  0.00     0.167 HD
ATOM     47  C   UNL A   1      40.762  28.602  30.153  1.00  0.00     0.034 A 
ATOM     48  C   UNL A   1      40.043  32.867  35.615  1.00  0.00     0.034 A 
ATOM     49  C   UNL A   1      41.749  28.433  31.189  1.00  0.00     0.049 A 
ATOM     50  C   UNL A   1      41.095  31.791  35.590  1.00  0.00     0.074 A 
ATOM     51  C   UNL A   1      42.814  27.548  31.225  1.00  0.00     0.029 A 
ATOM     52  N   UNL A   1      41.787  29.149  32.375  1.00  0.00    -0.354 N 
ATOM     53  N   UNL A   1      41.420  30.977  34.614  1.00  0.00    -0.248 NA
ATOM     54  C   UNL A   1      41.907  31.622  36.805  1.00  0.00     0.031 C 
ATOM     55  C   UNL A   1      43.479  27.711  32.444  1.00  0.00     0.029 A 
ATOM     56  C   UNL A   1      42.840  28.710  33.160  1.00  0.00     0.049 A 
ATOM     57  H   UNL A   1      41.156  29.863  32.623  1.00  0.00     0.167 HD
ATOM     58  C   UNL A   1      42.483  30.218  35.090  1.00  0.00     0.074 A 
ATOM     59  C   UNL A   1      42.769  30.686  36.429  1.00  0.00     0.031 C 
ATOM     60  C   UNL A   1      43.150  29.210  34.475  1.00  0.00     0.034 A 
BRANCH  47  61
ATOM     61  C   UNL A   1      40.824  27.667  28.971  1.00  0.00     0.023 A 
ATOM     62  C   UNL A   1      39.868  26.639  28.848  1.00  0.00     0.012 A 
ATOM     63  C   UNL A   1      41.771  27.857  27.943  1.00  0.00     0.148 A 
ATOM     64  C   UNL A   1      39.871  25.795  27.739  1.00  0.00     0.002 A 
ATOM     65  C   UNL A   1      41.743  27.035  26.822  1.00  0.00     0.091 A 
ATOM     66  F   UNL A   1      42.682  28.830  28.084  1.00  0.00    -0.205 F 
ATOM     67  C   UNL A   1      40.800  25.998  26.723  1.00  0.00     0.022 A 
BRANCH  65  68
ATOM     68  S   UNL A   1      42.848  27.263  25.423  1.00  0.00     0.127 S 
ATOM     69  O   UNL A   1      44.102  27.610  26.091  1.00  0.00    -0.237 OA
ATOM     70  O   UNL A   1      42.836  25.939  24.800  1.00  0.00    -0.237 OA
ATOM     71  O   UNL A   1      42.258  28.319  24.614  1.00  0.00    -0.744 OA
ENDBRANCH  65  68
ENDBRANCH  47  61
BRANCH  48  72
ATOM     72  C   UNL A   1      39.859  33.724  36.821  1.00  0.00     0.023 A 
ATOM     73  C   UNL A   1      38.838  33.415  37.740  1.00  0.00     0.012 A 
ATOM     74  C   UNL A   1      40.707  34.819  37.079  1.00  0.00     0.148 A 
ATOM     75  C   UNL A   1      38.650  34.193  38.883  1.00  0.00     0.002 A 
ATOM     76  C   UNL A   1      40.552  35.556  38.247  1.00  0.00     0.091 A 
ATOM     77  F   UNL A   1      41.660  35.111  36.182  1.00  0.00    -0.205 F 
ATOM     78  C   UNL A   1      39.513  35.255  39.142  1.00  0.00     0.022 A 
BRANCH  76  79
ATOM     79  S   UNL A   1      41.705  36.847  38.726  1.00  0.00     0.127 S 
ATOM     80  O   UNL A   1      40.809  37.862  39.275  1.00  0.00    -0.237 OA
ATOM     81  O   UNL A   1      42.538  36.161  39.714  1.00  0.00    -0.237 OA
ATOM     82  O   UNL A   1      42.410  37.215  37.505  1.00  0.00    -0.744 OA
ENDBRANCH  76  79
ENDBRANCH  48  72
BRANCH  60  83
ATOM     83  C   UNL A   1      44.266  28.537  35.234  1.00  0.00     0.023 A 
ATOM     84  C   UNL A   1      45.590  28.984  35.061  1.00  0.00     0.012 A 
ATOM     85  C   UNL A   1      43.994  27.528  36.179  1.00  0.00     0.148 A 
ATOM     86  C   UNL A   1      46.632  28.421  35.798  1.00  0.00     0.002 A 
ATOM     87  C   UNL A   1      45.031  27.003  36.943  1.00  0.00     0.091 A 
ATOM     88  F   UNL A   1      42.730  27.106  36.319  1.00  0.00    -0.205 F 
ATOM     89  C   UNL A   1      46.351  27.441  36.747  1.00  0.00     0.022 A 
BRANCH  87  90
ATOM     90  S   UNL A   1      44.759  25.801  38.251  1.00  0.00     0.127 S 
ATOM     91  O   UNL A   1      43.796  26.498  39.102  1.00  0.00    -0.237 OA
ATOM     92  O   UNL A   1      44.210  24.661  37.515  1.00  0.00    -0.237 OA
ATOM     93  O   UNL A   1      46.063  25.560  38.854  1.00  0.00    -0.744 OA
ENDBRANCH  87  90
ENDBRANCH  60  83
ENDBRANCH  34  35
ENDBRANCH  26  29
ENDBRANCH  24  25
ENDBRANCH  23  24
ENDBRANCH   1  23
TORSDOF 17
ENDMDL
