MODEL 1
REMARK VINA RESULT:     -12.5      0.000      0.000
REMARK SMILES Cc1ccc(C)c(/C=C2\SC(=S)N(CC(=O)NCCCNC(=O)c3ccc(-c4c5nc(c(-c6cccc(S(=O)(=O)[O-])c6F)c6ccc([nH]6)c(-c6cccc(S(=O)(=O)[O-])c6F)c6nc(c(-c7cccc(S(=O)(=O)[O-])c7F)c7ccc4[nH]7)C=C6)C=C5)cc3)C2=O)c1
REMARK SMILES IDX 19 1 18 2 17 3 15 4 16 5 14 7 13 8 8 9 9 10 10 11 87 12
REMARK SMILES IDX 11 13 88 14 12 15 7 16 1 17 2 18 3 19 89 20 4 21 5 22 6 23
REMARK SMILES IDX 20 24 21 25 22 26 23 28 24 29 25 30 86 31 26 32 85 33 27 34
REMARK SMILES IDX 28 35 29 36 79 37 30 38 84 39 78 40 80 41 31 42 83 43 77 44
REMARK SMILES IDX 76 45 32 47 64 48 44 49 63 50 45 51 48 52 62 53 81 54 46 55
REMARK SMILES IDX 47 56 61 58 82 59 49 60 33 61 34 62 42 63 35 64 37 65 43 66
REMARK SMILES IDX 36 67 38 68 39 69 40 70 41 71 65 72 66 73 74 74 67 75 69 76
REMARK SMILES IDX 75 77 68 78 70 79 71 80 72 81 73 82 50 83 51 84 59 85 52 86
REMARK SMILES IDX 54 87 60 88 53 89 55 90 56 91 57 92 58 93
REMARK H PARENT 17 6 21 27 80 46 48 57
REMARK Flexibility Score: inf
ROOT
ATOM      1  C   UNL A   1      32.062  30.845  26.646  1.00  0.00     0.042 C 
ENDROOT
BRANCH   1   2
ATOM      2  C   UNL A   1      31.783  30.052  25.368  1.00  0.00     0.117 C 
BRANCH   2   3
ATOM      3  N   UNL A   1      32.956  29.746  24.571  1.00  0.00    -0.354 N 
ATOM      4  C   UNL A   1      33.025  28.953  23.457  1.00  0.00     0.240 C 
ATOM      5  O   UNL A   1      33.714  29.374  22.524  1.00  0.00    -0.273 OA
ATOM      6  H   UNL A   1      33.801  30.155  24.867  1.00  0.00     0.163 HD
BRANCH   4   7
ATOM      7  C   UNL A   1      32.116  27.734  23.261  1.00  0.00     0.227 C 
BRANCH   7   8
ATOM      8  N   UNL A   1      32.612  26.497  23.864  1.00  0.00    -0.283 N 
ATOM      9  C   UNL A   1      34.641  23.557  23.279  1.00  0.00     0.029 C 
ATOM     10  C   UNL A   1      33.836  24.479  23.825  1.00  0.00     0.081 C 
ATOM     11  S   UNL A   1      33.177  24.523  25.412  1.00  0.00    -0.054 SA
ATOM     12  C   UNL A   1      33.396  25.678  23.052  1.00  0.00     0.266 C 
ATOM     13  C   UNL A   1      32.268  25.995  25.094  1.00  0.00     0.148 C 
ATOM     14  O   UNL A   1      33.665  25.865  21.902  1.00  0.00    -0.268 OA
ATOM     15  S   UNL A   1      31.163  26.587  26.198  1.00  0.00    -0.052 S 
BRANCH   9  16
ATOM     16  C   UNL A   1      35.166  22.361  23.960  1.00  0.00    -0.021 A 
ATOM     17  C   UNL A   1      38.528  21.240  25.383  1.00  0.00     0.044 C 
ATOM     18  C   UNL A   1      37.084  21.236  24.987  1.00  0.00    -0.051 A 
ATOM     19  C   UNL A   1      36.297  20.100  25.183  1.00  0.00     0.004 A 
ATOM     20  C   UNL A   1      36.502  22.366  24.400  1.00  0.00     0.011 A 
ATOM     21  C   UNL A   1      34.956  20.099  24.797  1.00  0.00     0.004 A 
ATOM     22  C   UNL A   1      34.372  21.222  24.185  1.00  0.00    -0.044 A 
ATOM     23  C   UNL A   1      32.919  21.125  23.798  1.00  0.00     0.045 C 
ENDBRANCH   9  16
ENDBRANCH   7   8
ENDBRANCH   4   7
ENDBRANCH   2   3
ENDBRANCH   1   2
BRANCH   1  24
ATOM     24  C   UNL A   1      33.524  30.887  27.080  1.00  0.00     0.118 C 
BRANCH  24  25
ATOM     25  N   UNL A   1      33.781  31.880  28.141  1.00  0.00    -0.352 N 
ATOM     26  C   UNL A   1      34.723  31.965  29.154  1.00  0.00     0.251 C 
ATOM     27  H   UNL A   1      33.154  32.638  28.125  1.00  0.00     0.163 HD
ATOM     28  O   UNL A   1      34.532  32.745  30.084  1.00  0.00    -0.269 OA
BRANCH  26  29
ATOM     29  C   UNL A   1      35.955  31.151  29.134  1.00  0.00     0.039 A 
ATOM     30  C   UNL A   1      35.991  29.767  28.920  1.00  0.00     0.014 A 
ATOM     31  C   UNL A   1      37.138  31.786  29.404  1.00  0.00     0.014 A 
ATOM     32  C   UNL A   1      37.214  29.093  29.069  1.00  0.00     0.010 A 
ATOM     33  C   UNL A   1      38.280  31.206  28.975  1.00  0.00     0.010 A 
ATOM     34  C   UNL A   1      38.373  29.854  29.169  1.00  0.00    -0.014 A 
BRANCH  34  35
ATOM     35  C   UNL A   1      39.719  29.370  29.422  1.00  0.00     0.031 A 
ATOM     36  C   UNL A   1      40.113  29.411  30.842  1.00  0.00     0.074 A 
ATOM     37  C   UNL A   1      40.370  28.577  28.537  1.00  0.00     0.049 A 
ATOM     38  N   UNL A   1      40.888  30.267  31.419  1.00  0.00    -0.248 NA
ATOM     39  C   UNL A   1      39.398  28.523  31.772  1.00  0.00     0.031 C 
ATOM     40  C   UNL A   1      39.884  28.049  27.251  1.00  0.00     0.029 A 
ATOM     41  N   UNL A   1      41.565  27.939  28.683  1.00  0.00    -0.354 N 
ATOM     42  C   UNL A   1      40.940  29.846  32.744  1.00  0.00     0.074 A 
ATOM     43  C   UNL A   1      39.775  29.032  32.945  1.00  0.00     0.031 C 
ATOM     44  C   UNL A   1      40.671  27.020  26.856  1.00  0.00     0.029 A 
ATOM     45  C   UNL A   1      41.787  26.904  27.777  1.00  0.00     0.049 A 
ATOM     46  H   UNL A   1      42.219  28.189  29.374  1.00  0.00     0.167 HD
ATOM     47  C   UNL A   1      42.096  29.892  33.464  1.00  0.00     0.034 A 
ATOM     48  C   UNL A   1      42.787  25.988  27.829  1.00  0.00     0.034 A 
ATOM     49  C   UNL A   1      43.113  30.637  32.759  1.00  0.00     0.049 A 
ATOM     50  C   UNL A   1      43.819  26.525  28.750  1.00  0.00     0.074 A 
ATOM     51  C   UNL A   1      43.204  31.904  32.217  1.00  0.00     0.029 A 
ATOM     52  N   UNL A   1      44.113  29.898  32.170  1.00  0.00    -0.354 N 
ATOM     53  N   UNL A   1      44.545  27.579  28.495  1.00  0.00    -0.248 NA
ATOM     54  C   UNL A   1      43.763  26.132  30.149  1.00  0.00     0.031 C 
ATOM     55  C   UNL A   1      43.951  31.738  31.014  1.00  0.00     0.029 A 
ATOM     56  C   UNL A   1      44.326  30.397  30.914  1.00  0.00     0.049 A 
ATOM     57  H   UNL A   1      44.592  29.142  32.581  1.00  0.00     0.167 HD
ATOM     58  C   UNL A   1      44.652  28.231  29.716  1.00  0.00     0.074 A 
ATOM     59  C   UNL A   1      44.273  27.232  30.712  1.00  0.00     0.031 C 
ATOM     60  C   UNL A   1      44.738  29.593  29.779  1.00  0.00     0.034 A 
BRANCH  47  61
ATOM     61  C   UNL A   1      42.463  28.964  34.606  1.00  0.00     0.023 A 
ATOM     62  C   UNL A   1      42.970  29.579  35.774  1.00  0.00     0.012 A 
ATOM     63  C   UNL A   1      42.577  27.556  34.534  1.00  0.00     0.148 A 
ATOM     64  C   UNL A   1      43.611  28.844  36.776  1.00  0.00     0.002 A 
ATOM     65  C   UNL A   1      43.135  26.820  35.575  1.00  0.00     0.091 A 
ATOM     66  F   UNL A   1      42.283  26.903  33.409  1.00  0.00    -0.205 F 
ATOM     67  C   UNL A   1      43.687  27.462  36.682  1.00  0.00     0.022 A 
BRANCH  65  68
ATOM     68  S   UNL A   1      43.195  25.024  35.516  1.00  0.00     0.127 S 
ATOM     69  O   UNL A   1      43.852  24.712  36.779  1.00  0.00    -0.237 OA
ATOM     70  O   UNL A   1      41.775  24.676  35.449  1.00  0.00    -0.237 OA
ATOM     71  O   UNL A   1      43.939  24.702  34.303  1.00  0.00    -0.744 OA
ENDBRANCH  65  68
ENDBRANCH  47  61
BRANCH  48  72
ATOM     72  C   UNL A   1      42.864  24.601  27.311  1.00  0.00     0.023 A 
ATOM     73  C   UNL A   1      41.721  23.776  27.359  1.00  0.00     0.012 A 
ATOM     74  C   UNL A   1      43.959  24.174  26.529  1.00  0.00     0.148 A 
ATOM     75  C   UNL A   1      41.656  22.584  26.626  1.00  0.00     0.002 A 
ATOM     76  C   UNL A   1      43.891  22.986  25.803  1.00  0.00     0.091 A 
ATOM     77  F   UNL A   1      45.026  24.977  26.427  1.00  0.00    -0.205 F 
ATOM     78  C   UNL A   1      42.737  22.194  25.842  1.00  0.00     0.022 A 
BRANCH  76  79
ATOM     79  S   UNL A   1      45.221  22.432  24.726  1.00  0.00     0.127 S 
ATOM     80  O   UNL A   1      46.292  22.156  25.686  1.00  0.00    -0.237 OA
ATOM     81  O   UNL A   1      44.633  21.244  24.110  1.00  0.00    -0.237 OA
ATOM     82  O   UNL A   1      45.487  23.541  23.822  1.00  0.00    -0.744 OA
ENDBRANCH  76  79
ENDBRANCH  48  72
BRANCH  60  83
ATOM     83  C   UNL A   1      45.002  30.350  28.500  1.00  0.00     0.023 A 
ATOM     84  C   UNL A   1      43.959  30.763  27.644  1.00  0.00     0.012 A 
ATOM     85  C   UNL A   1      46.301  30.829  28.262  1.00  0.00     0.148 A 
ATOM     86  C   UNL A   1      44.208  31.621  26.570  1.00  0.00     0.002 A 
ATOM     87  C   UNL A   1      46.536  31.724  27.225  1.00  0.00     0.091 A 
ATOM     88  F   UNL A   1      47.284  30.428  29.084  1.00  0.00    -0.205 F 
ATOM     89  C   UNL A   1      45.494  32.115  26.370  1.00  0.00     0.022 A 
BRANCH  87  90
ATOM     90  S   UNL A   1      48.136  32.506  27.007  1.00  0.00     0.127 S 
ATOM     91  O   UNL A   1      47.870  33.451  25.924  1.00  0.00    -0.237 OA
ATOM     92  O   UNL A   1      48.367  33.123  28.316  1.00  0.00    -0.237 OA
ATOM     93  O   UNL A   1      49.068  31.431  26.687  1.00  0.00    -0.744 OA
ENDBRANCH  87  90
ENDBRANCH  60  83
ENDBRANCH  34  35
ENDBRANCH  26  29
ENDBRANCH  24  25
ENDBRANCH   1  24
TORSDOF 15
ENDMDL
MODEL 2
REMARK VINA RESULT:     -12.4      2.834      8.984
REMARK SMILES Cc1ccc(C)c(/C=C2\SC(=S)N(CC(=O)NCCCNC(=O)c3ccc(-c4c5nc(c(-c6cccc(S(=O)(=O)[O-])c6F)c6ccc([nH]6)c(-c6cccc(S(=O)(=O)[O-])c6F)c6nc(c(-c7cccc(S(=O)(=O)[O-])c7F)c7ccc4[nH]7)C=C6)C=C5)cc3)C2=O)c1
REMARK SMILES IDX 19 1 18 2 17 3 15 4 16 5 14 7 13 8 8 9 9 10 10 11 87 12
REMARK SMILES IDX 11 13 88 14 12 15 7 16 1 17 2 18 3 19 89 20 4 21 5 22 6 23
REMARK SMILES IDX 20 24 21 25 22 26 23 28 24 29 25 30 86 31 26 32 85 33 27 34
REMARK SMILES IDX 28 35 29 36 79 37 30 38 84 39 78 40 80 41 31 42 83 43 77 44
REMARK SMILES IDX 76 45 32 47 64 48 44 49 63 50 45 51 48 52 62 53 81 54 46 55
REMARK SMILES IDX 47 56 61 58 82 59 49 60 33 61 34 62 42 63 35 64 37 65 43 66
REMARK SMILES IDX 36 67 38 68 39 69 40 70 41 71 65 72 66 73 74 74 67 75 69 76
REMARK SMILES IDX 75 77 68 78 70 79 71 80 72 81 73 82 50 83 51 84 59 85 52 86
REMARK SMILES IDX 54 87 60 88 53 89 55 90 56 91 57 92 58 93
REMARK H PARENT 17 6 21 27 80 46 48 57
REMARK Flexibility Score: inf
ROOT
ATOM      1  C   UNL A   1      35.854  22.671  25.206  1.00  0.00     0.042 C 
ENDROOT
BRANCH   1   2
ATOM      2  C   UNL A   1      35.008  21.643  24.453  1.00  0.00     0.117 C 
BRANCH   2   3
ATOM      3  N   UNL A   1      33.845  21.162  25.175  1.00  0.00    -0.354 N 
ATOM      4  C   UNL A   1      32.529  21.277  24.811  1.00  0.00     0.240 C 
ATOM      5  O   UNL A   1      31.823  20.280  24.979  1.00  0.00    -0.273 OA
ATOM      6  H   UNL A   1      34.022  20.700  26.026  1.00  0.00     0.163 HD
BRANCH   4   7
ATOM      7  C   UNL A   1      32.002  22.476  24.015  1.00  0.00     0.227 C 
BRANCH   7   8
ATOM      8  N   UNL A   1      32.009  23.745  24.742  1.00  0.00    -0.283 N 
ATOM      9  C   UNL A   1      33.458  27.060  24.845  1.00  0.00     0.029 C 
ATOM     10  C   UNL A   1      32.750  25.955  25.115  1.00  0.00     0.081 C 
ATOM     11  S   UNL A   1      31.597  25.699  26.363  1.00  0.00    -0.054 SA
ATOM     12  C   UNL A   1      32.888  24.724  24.281  1.00  0.00     0.266 C 
ATOM     13  C   UNL A   1      31.344  24.017  25.911  1.00  0.00     0.148 C 
ATOM     14  O   UNL A   1      33.667  24.613  23.381  1.00  0.00    -0.268 OA
ATOM     15  S   UNL A   1      30.424  22.995  26.858  1.00  0.00    -0.052 S 
BRANCH   9  16
ATOM     16  C   UNL A   1      33.372  28.337  25.573  1.00  0.00    -0.021 A 
ATOM     17  C   UNL A   1      35.371  30.104  28.306  1.00  0.00     0.044 C 
ATOM     18  C   UNL A   1      34.321  29.819  27.277  1.00  0.00    -0.051 A 
ATOM     19  C   UNL A   1      33.257  30.701  27.086  1.00  0.00     0.004 A 
ATOM     20  C   UNL A   1      34.382  28.657  26.499  1.00  0.00     0.011 A 
ATOM     21  C   UNL A   1      32.274  30.422  26.135  1.00  0.00     0.004 A 
ATOM     22  C   UNL A   1      32.316  29.244  25.368  1.00  0.00    -0.044 A 
ATOM     23  C   UNL A   1      31.208  29.026  24.370  1.00  0.00     0.045 C 
ENDBRANCH   9  16
ENDBRANCH   7   8
ENDBRANCH   4   7
ENDBRANCH   2   3
ENDBRANCH   1   2
BRANCH   1  24
ATOM     24  C   UNL A   1      37.268  22.867  24.670  1.00  0.00     0.118 C 
BRANCH  24  25
ATOM     25  N   UNL A   1      38.246  21.943  25.275  1.00  0.00    -0.352 N 
ATOM     26  C   UNL A   1      39.344  22.130  26.101  1.00  0.00     0.251 C 
ATOM     27  H   UNL A   1      38.087  21.000  25.044  1.00  0.00     0.163 HD
ATOM     28  O   UNL A   1      40.165  21.222  26.218  1.00  0.00    -0.269 OA
BRANCH  26  29
ATOM     29  C   UNL A   1      39.541  23.385  26.854  1.00  0.00     0.039 A 
ATOM     30  C   UNL A   1      38.591  24.410  26.953  1.00  0.00     0.014 A 
ATOM     31  C   UNL A   1      40.760  23.585  27.445  1.00  0.00     0.014 A 
ATOM     32  C   UNL A   1      38.960  25.612  27.579  1.00  0.00     0.010 A 
ATOM     33  C   UNL A   1      40.831  24.464  28.467  1.00  0.00     0.010 A 
ATOM     34  C   UNL A   1      40.152  25.640  28.293  1.00  0.00    -0.014 A 
BRANCH  34  35
ATOM     35  C   UNL A   1      40.765  26.793  28.930  1.00  0.00     0.031 A 
ATOM     36  C   UNL A   1      42.057  27.187  28.340  1.00  0.00     0.074 A 
ATOM     37  C   UNL A   1      40.042  27.661  29.679  1.00  0.00     0.049 A 
ATOM     38  N   UNL A   1      43.238  26.969  28.815  1.00  0.00    -0.248 NA
ATOM     39  C   UNL A   1      42.048  27.696  26.960  1.00  0.00     0.031 C 
ATOM     40  C   UNL A   1      38.597  27.646  29.958  1.00  0.00     0.029 A 
ATOM     41  N   UNL A   1      40.434  28.846  30.224  1.00  0.00    -0.354 N 
ATOM     42  C   UNL A   1      44.094  27.554  27.889  1.00  0.00     0.074 A 
ATOM     43  C   UNL A   1      43.347  27.651  26.668  1.00  0.00     0.031 C 
ATOM     44  C   UNL A   1      38.211  28.859  30.420  1.00  0.00     0.029 A 
ATOM     45  C   UNL A   1      39.390  29.687  30.601  1.00  0.00     0.049 A 
ATOM     46  H   UNL A   1      41.380  29.089  30.342  1.00  0.00     0.167 HD
ATOM     47  C   UNL A   1      45.209  28.236  28.277  1.00  0.00     0.034 A 
ATOM     48  C   UNL A   1      39.497  30.987  30.974  1.00  0.00     0.034 A 
ATOM     49  C   UNL A   1      45.469  28.040  29.684  1.00  0.00     0.049 A 
ATOM     50  C   UNL A   1      40.922  31.225  31.313  1.00  0.00     0.074 A 
ATOM     51  C   UNL A   1      45.650  26.945  30.506  1.00  0.00     0.029 A 
ATOM     52  N   UNL A   1      45.162  29.093  30.514  1.00  0.00    -0.354 N 
ATOM     53  N   UNL A   1      41.527  30.688  32.336  1.00  0.00    -0.248 NA
ATOM     54  C   UNL A   1      41.798  31.742  30.273  1.00  0.00     0.031 C 
ATOM     55  C   UNL A   1      45.003  27.290  31.729  1.00  0.00     0.029 A 
ATOM     56  C   UNL A   1      44.515  28.594  31.612  1.00  0.00     0.049 A 
ATOM     57  H   UNL A   1      45.370  30.041  30.348  1.00  0.00     0.167 HD
ATOM     58  C   UNL A   1      42.800  30.389  31.869  1.00  0.00     0.074 A 
ATOM     59  C   UNL A   1      42.950  31.179  30.649  1.00  0.00     0.031 C 
ATOM     60  C   UNL A   1      43.485  29.306  32.343  1.00  0.00     0.034 A 
BRANCH  47  61
ATOM     61  C   UNL A   1      45.851  29.382  27.520  1.00  0.00     0.023 A 
ATOM     62  C   UNL A   1      47.263  29.367  27.440  1.00  0.00     0.012 A 
ATOM     63  C   UNL A   1      45.209  30.572  27.103  1.00  0.00     0.148 A 
ATOM     64  C   UNL A   1      47.992  30.489  27.035  1.00  0.00     0.002 A 
ATOM     65  C   UNL A   1      45.934  31.654  26.615  1.00  0.00     0.091 A 
ATOM     66  F   UNL A   1      43.901  30.745  27.295  1.00  0.00    -0.205 F 
ATOM     67  C   UNL A   1      47.328  31.632  26.613  1.00  0.00     0.022 A 
BRANCH  65  68
ATOM     68  S   UNL A   1      45.106  33.128  26.003  1.00  0.00     0.127 S 
ATOM     69  O   UNL A   1      46.238  33.944  25.580  1.00  0.00    -0.237 OA
ATOM     70  O   UNL A   1      44.289  32.586  24.917  1.00  0.00    -0.237 OA
ATOM     71  O   UNL A   1      44.331  33.633  27.131  1.00  0.00    -0.744 OA
ENDBRANCH  65  68
ENDBRANCH  47  61
BRANCH  48  72
ATOM     72  C   UNL A   1      38.528  32.107  30.891  1.00  0.00     0.023 A 
ATOM     73  C   UNL A   1      37.975  32.457  29.641  1.00  0.00     0.012 A 
ATOM     74  C   UNL A   1      37.940  32.651  32.054  1.00  0.00     0.148 A 
ATOM     75  C   UNL A   1      36.854  33.291  29.553  1.00  0.00     0.002 A 
ATOM     76  C   UNL A   1      36.826  33.483  31.961  1.00  0.00     0.091 A 
ATOM     77  F   UNL A   1      38.417  32.279  33.248  1.00  0.00    -0.205 F 
ATOM     78  C   UNL A   1      36.274  33.797  30.713  1.00  0.00     0.022 A 
BRANCH  76  79
ATOM     79  S   UNL A   1      35.984  34.140  33.408  1.00  0.00     0.127 S 
ATOM     80  O   UNL A   1      37.059  34.882  34.072  1.00  0.00    -0.237 OA
ATOM     81  O   UNL A   1      34.951  34.976  32.801  1.00  0.00    -0.237 OA
ATOM     82  O   UNL A   1      35.502  32.982  34.146  1.00  0.00    -0.744 OA
ENDBRANCH  76  79
ENDBRANCH  48  72
BRANCH  60  83
ATOM     83  C   UNL A   1      42.957  28.613  33.577  1.00  0.00     0.023 A 
ATOM     84  C   UNL A   1      41.884  27.699  33.523  1.00  0.00     0.012 A 
ATOM     85  C   UNL A   1      43.686  28.731  34.773  1.00  0.00     0.148 A 
ATOM     86  C   UNL A   1      41.537  26.932  34.637  1.00  0.00     0.002 A 
ATOM     87  C   UNL A   1      43.372  27.928  35.863  1.00  0.00     0.091 A 
ATOM     88  F   UNL A   1      44.705  29.604  34.810  1.00  0.00    -0.205 F 
ATOM     89  C   UNL A   1      42.292  27.033  35.802  1.00  0.00     0.022 A 
BRANCH  87  90
ATOM     90  S   UNL A   1      44.395  27.907  37.337  1.00  0.00     0.127 S 
ATOM     91  O   UNL A   1      45.716  27.606  36.790  1.00  0.00    -0.237 OA
ATOM     92  O   UNL A   1      44.240  29.272  37.847  1.00  0.00    -0.237 OA
ATOM     93  O   UNL A   1      43.825  26.883  38.204  1.00  0.00    -0.744 OA
ENDBRANCH  87  90
ENDBRANCH  60  83
ENDBRANCH  34  35
ENDBRANCH  26  29
ENDBRANCH  24  25
ENDBRANCH   1  24
TORSDOF 15
ENDMDL
MODEL 3
REMARK VINA RESULT:     -12.3      1.785      2.427
REMARK SMILES Cc1ccc(C)c(/C=C2\SC(=S)N(CC(=O)NCCCNC(=O)c3ccc(-c4c5nc(c(-c6cccc(S(=O)(=O)[O-])c6F)c6ccc([nH]6)c(-c6cccc(S(=O)(=O)[O-])c6F)c6nc(c(-c7cccc(S(=O)(=O)[O-])c7F)c7ccc4[nH]7)C=C6)C=C5)cc3)C2=O)c1
REMARK SMILES IDX 19 1 18 2 17 3 15 4 16 5 14 7 13 8 8 9 9 10 10 11 87 12
REMARK SMILES IDX 11 13 88 14 12 15 7 16 1 17 2 18 3 19 89 20 4 21 5 22 6 23
REMARK SMILES IDX 20 24 21 25 22 26 23 28 24 29 25 30 86 31 26 32 85 33 27 34
REMARK SMILES IDX 28 35 29 36 79 37 30 38 84 39 78 40 80 41 31 42 83 43 77 44
REMARK SMILES IDX 76 45 32 47 64 48 44 49 63 50 45 51 48 52 62 53 81 54 46 55
REMARK SMILES IDX 47 56 61 58 82 59 49 60 33 61 34 62 42 63 35 64 37 65 43 66
REMARK SMILES IDX 36 67 38 68 39 69 40 70 41 71 65 72 66 73 74 74 67 75 69 76
REMARK SMILES IDX 75 77 68 78 70 79 71 80 72 81 73 82 50 83 51 84 59 85 52 86
REMARK SMILES IDX 54 87 60 88 53 89 55 90 56 91 57 92 58 93
REMARK H PARENT 17 6 21 27 80 46 48 57
REMARK Flexibility Score: inf
ROOT
ATOM      1  C   UNL A   1      33.275  29.384  27.117  1.00  0.00     0.042 C 
ENDROOT
BRANCH   1   2
ATOM      2  C   UNL A   1      32.733  29.664  25.715  1.00  0.00     0.117 C 
BRANCH   2   3
ATOM      3  N   UNL A   1      33.655  29.371  24.634  1.00  0.00    -0.354 N 
ATOM      4  C   UNL A   1      33.363  28.828  23.411  1.00  0.00     0.240 C 
ATOM      5  O   UNL A   1      33.923  29.333  22.436  1.00  0.00    -0.273 OA
ATOM      6  H   UNL A   1      34.601  29.587  24.799  1.00  0.00     0.163 HD
BRANCH   4   7
ATOM      7  C   UNL A   1      32.228  27.815  23.215  1.00  0.00     0.227 C 
BRANCH   7   8
ATOM      8  N   UNL A   1      32.493  26.484  23.758  1.00  0.00    -0.283 N 
ATOM      9  C   UNL A   1      34.250  23.373  23.173  1.00  0.00     0.029 C 
ATOM     10  C   UNL A   1      33.482  24.341  23.692  1.00  0.00     0.081 C 
ATOM     11  S   UNL A   1      32.611  24.339  25.173  1.00  0.00    -0.054 SA
ATOM     12  C   UNL A   1      33.291  25.642  22.984  1.00  0.00     0.266 C 
ATOM     13  C   UNL A   1      31.924  25.932  24.879  1.00  0.00     0.148 C 
ATOM     14  O   UNL A   1      33.741  25.884  21.903  1.00  0.00    -0.268 OA
ATOM     15  S   UNL A   1      30.744  26.566  25.876  1.00  0.00    -0.052 S 
BRANCH   9  16
ATOM     16  C   UNL A   1      34.539  22.073  23.801  1.00  0.00    -0.021 A 
ATOM     17  C   UNL A   1      32.559  18.931  24.690  1.00  0.00     0.044 C 
ATOM     18  C   UNL A   1      33.693  19.898  24.543  1.00  0.00    -0.051 A 
ATOM     19  C   UNL A   1      34.952  19.599  25.064  1.00  0.00     0.004 A 
ATOM     20  C   UNL A   1      33.506  21.123  23.892  1.00  0.00     0.011 A 
ATOM     21  C   UNL A   1      36.001  20.511  24.935  1.00  0.00     0.004 A 
ATOM     22  C   UNL A   1      35.813  21.753  24.305  1.00  0.00    -0.044 A 
ATOM     23  C   UNL A   1      37.002  22.676  24.218  1.00  0.00     0.045 C 
ENDBRANCH   9  16
ENDBRANCH   7   8
ENDBRANCH   4   7
ENDBRANCH   2   3
ENDBRANCH   1   2
BRANCH   1  24
ATOM     24  C   UNL A   1      34.739  29.753  27.335  1.00  0.00     0.118 C 
BRANCH  24  25
ATOM     25  N   UNL A   1      34.972  31.209  27.328  1.00  0.00    -0.352 N 
ATOM     26  C   UNL A   1      35.911  32.024  27.943  1.00  0.00     0.251 C 
ATOM     27  H   UNL A   1      34.329  31.705  26.773  1.00  0.00     0.163 HD
ATOM     28  O   UNL A   1      35.701  33.233  28.009  1.00  0.00    -0.269 OA
BRANCH  26  29
ATOM     29  C   UNL A   1      37.161  31.474  28.505  1.00  0.00     0.039 A 
ATOM     30  C   UNL A   1      37.998  32.154  29.399  1.00  0.00     0.014 A 
ATOM     31  C   UNL A   1      37.559  30.236  28.074  1.00  0.00     0.014 A 
ATOM     32  C   UNL A   1      39.229  31.573  29.745  1.00  0.00     0.010 A 
ATOM     33  C   UNL A   1      38.409  29.537  28.856  1.00  0.00     0.010 A 
ATOM     34  C   UNL A   1      39.450  30.247  29.392  1.00  0.00    -0.014 A 
BRANCH  34  35
ATOM     35  C   UNL A   1      40.676  29.487  29.565  1.00  0.00     0.031 A 
ATOM     36  C   UNL A   1      40.921  29.054  30.952  1.00  0.00     0.074 A 
ATOM     37  C   UNL A   1      41.290  28.879  28.521  1.00  0.00     0.049 A 
ATOM     38  N   UNL A   1      41.750  29.563  31.801  1.00  0.00    -0.248 NA
ATOM     39  C   UNL A   1      39.990  28.075  31.534  1.00  0.00     0.031 C 
ATOM     40  C   UNL A   1      40.868  28.831  27.111  1.00  0.00     0.029 A 
ATOM     41  N   UNL A   1      42.356  28.030  28.537  1.00  0.00    -0.354 N 
ATOM     42  C   UNL A   1      41.601  28.780  32.940  1.00  0.00     0.074 A 
ATOM     43  C   UNL A   1      40.314  28.156  32.824  1.00  0.00     0.031 C 
ATOM     44  C   UNL A   1      41.530  27.838  26.473  1.00  0.00     0.029 A 
ATOM     45  C   UNL A   1      42.515  27.274  27.378  1.00  0.00     0.049 A 
ATOM     46  H   UNL A   1      42.964  27.957  29.307  1.00  0.00     0.167 HD
ATOM     47  C   UNL A   1      42.670  28.420  33.705  1.00  0.00     0.034 A 
ATOM     48  C   UNL A   1      43.357  26.224  27.211  1.00  0.00     0.034 A 
ATOM     49  C   UNL A   1      43.854  29.149  33.311  1.00  0.00     0.049 A 
ATOM     50  C   UNL A   1      44.357  26.290  28.307  1.00  0.00     0.074 A 
ATOM     51  C   UNL A   1      44.188  30.481  33.178  1.00  0.00     0.029 A 
ATOM     52  N   UNL A   1      44.789  28.447  32.586  1.00  0.00    -0.354 N 
ATOM     53  N   UNL A   1      45.253  27.232  28.417  1.00  0.00    -0.248 NA
ATOM     54  C   UNL A   1      44.098  25.531  29.519  1.00  0.00     0.031 C 
ATOM     55  C   UNL A   1      45.022  30.539  32.024  1.00  0.00     0.029 A 
ATOM     56  C   UNL A   1      45.204  29.238  31.550  1.00  0.00     0.049 A 
ATOM     57  H   UNL A   1      45.106  27.534  32.780  1.00  0.00     0.167 HD
ATOM     58  C   UNL A   1      45.328  27.481  29.782  1.00  0.00     0.074 A 
ATOM     59  C   UNL A   1      44.703  26.320  30.412  1.00  0.00     0.031 C 
ATOM     60  C   UNL A   1      45.608  28.733  30.252  1.00  0.00     0.034 A 
BRANCH  47  61
ATOM     61  C   UNL A   1      42.775  27.157  34.537  1.00  0.00     0.023 A 
ATOM     62  C   UNL A   1      42.478  27.287  35.913  1.00  0.00     0.012 A 
ATOM     63  C   UNL A   1      43.365  25.937  34.132  1.00  0.00     0.148 A 
ATOM     64  C   UNL A   1      42.810  26.292  36.838  1.00  0.00     0.002 A 
ATOM     65  C   UNL A   1      43.610  24.913  35.042  1.00  0.00     0.091 A 
ATOM     66  F   UNL A   1      43.833  25.782  32.893  1.00  0.00    -0.205 F 
ATOM     67  C   UNL A   1      43.369  25.099  36.402  1.00  0.00     0.022 A 
BRANCH  65  68
ATOM     68  S   UNL A   1      44.277  23.332  34.505  1.00  0.00     0.127 S 
ATOM     69  O   UNL A   1      43.214  22.848  33.631  1.00  0.00    -0.237 OA
ATOM     70  O   UNL A   1      45.507  23.738  33.824  1.00  0.00    -0.237 OA
ATOM     71  O   UNL A   1      44.503  22.571  35.729  1.00  0.00    -0.744 OA
ENDBRANCH  65  68
ENDBRANCH  47  61
BRANCH  48  72
ATOM     72  C   UNL A   1      43.282  25.050  26.308  1.00  0.00     0.023 A 
ATOM     73  C   UNL A   1      44.200  24.929  25.245  1.00  0.00     0.012 A 
ATOM     74  C   UNL A   1      42.500  23.922  26.642  1.00  0.00     0.148 A 
ATOM     75  C   UNL A   1      44.361  23.719  24.559  1.00  0.00     0.002 A 
ATOM     76  C   UNL A   1      42.661  22.720  25.956  1.00  0.00     0.091 A 
ATOM     77  F   UNL A   1      41.668  24.006  27.688  1.00  0.00    -0.205 F 
ATOM     78  C   UNL A   1      43.599  22.612  24.921  1.00  0.00     0.022 A 
BRANCH  76  79
ATOM     79  S   UNL A   1      41.754  21.228  26.388  1.00  0.00     0.127 S 
ATOM     80  O   UNL A   1      42.328  20.247  25.464  1.00  0.00    -0.237 OA
ATOM     81  O   UNL A   1      42.132  21.042  27.787  1.00  0.00    -0.237 OA
ATOM     82  O   UNL A   1      40.351  21.536  26.152  1.00  0.00    -0.744 OA
ENDBRANCH  76  79
ENDBRANCH  48  72
BRANCH  60  83
ATOM     83  C   UNL A   1      46.112  29.766  29.273  1.00  0.00     0.023 A 
ATOM     84  C   UNL A   1      47.473  29.858  28.914  1.00  0.00     0.012 A 
ATOM     85  C   UNL A   1      45.170  30.519  28.551  1.00  0.00     0.148 A 
ATOM     86  C   UNL A   1      47.887  30.690  27.871  1.00  0.00     0.002 A 
ATOM     87  C   UNL A   1      45.578  31.305  27.481  1.00  0.00     0.091 A 
ATOM     88  F   UNL A   1      43.878  30.421  28.903  1.00  0.00    -0.205 F 
ATOM     89  C   UNL A   1      46.937  31.401  27.143  1.00  0.00     0.022 A 
BRANCH  87  90
ATOM     90  S   UNL A   1      44.390  32.126  26.416  1.00  0.00     0.127 S 
ATOM     91  O   UNL A   1      43.448  31.050  26.119  1.00  0.00    -0.237 OA
ATOM     92  O   UNL A   1      43.863  33.180  27.286  1.00  0.00    -0.237 OA
ATOM     93  O   UNL A   1      45.153  32.626  25.277  1.00  0.00    -0.744 OA
ENDBRANCH  87  90
ENDBRANCH  60  83
ENDBRANCH  34  35
ENDBRANCH  26  29
ENDBRANCH  24  25
ENDBRANCH   1  24
TORSDOF 15
ENDMDL
