MODEL 1
REMARK VINA RESULT:     -14.0      0.000      0.000
REMARK SMILES Cc1ccc(-c2nn(-c3ccccc3)cc2[C@@H]2[NH2+][C@H](C(=O)NCCCNC(=O)c3ccc(-c4c5nc(c(-c6cccc(S(=O)(=O)[O-])c6F)c6ccc([nH]6)c(-c6cccc(S(=O)(=O)[O-])c6F)c6nc(c(-c7cccc(S(=O)(=O)[O-])c7F)c7ccc4[nH]7)C=C6)C=C5)cc3)CS2)cc1
REMARK SMILES IDX 24 1 23 2 22 3 20 4 21 5 19 7 17 8 18 9 93 10 92 13 16 14
REMARK SMILES IDX 6 15 7 16 8 17 15 18 5 19 1 20 2 21 3 22 95 23 4 24 94 25
REMARK SMILES IDX 9 26 10 27 14 28 11 29 13 30 12 31 25 32 26 33 27 34 28 36
REMARK SMILES IDX 29 37 30 38 91 39 31 40 90 41 32 42 33 43 34 44 84 45 35 46
REMARK SMILES IDX 89 47 83 48 85 49 36 50 88 51 82 52 81 53 37 55 69 56 49 57
REMARK SMILES IDX 68 58 50 59 53 60 67 61 86 62 51 63 52 64 66 66 87 67 54 68
REMARK SMILES IDX 38 69 39 70 47 71 40 72 42 73 48 74 41 75 43 76 44 77 45 78
REMARK SMILES IDX 46 79 70 80 71 81 79 82 72 83 74 84 80 85 73 86 75 87 76 88
REMARK SMILES IDX 77 89 78 90 55 91 56 92 64 93 57 94 59 95 65 96 58 97 60 98
REMARK SMILES IDX 61 99 62 100 63 101
REMARK H PARENT 22 6 18 11 18 12 26 35 85 54 53 65
REMARK Flexibility Score: inf
ROOT
ATOM      1  C   UNL A   1      33.819  28.691  25.369  1.00  0.00     0.042 C 
ENDROOT
BRANCH   1   2
ATOM      2  C   UNL A   1      32.744  27.698  24.926  1.00  0.00     0.118 C 
BRANCH   2   3
ATOM      3  N   UNL A   1      33.190  26.806  23.862  1.00  0.00    -0.351 N 
ATOM      4  C   UNL A   1      33.957  25.684  23.861  1.00  0.00     0.279 C 
ATOM      5  O   UNL A   1      34.047  25.072  22.787  1.00  0.00    -0.268 OA
ATOM      6  H   UNL A   1      32.872  27.068  22.968  1.00  0.00     0.163 HD
BRANCH   4   7
ATOM      7  C   UNL A   1      34.644  25.090  25.100  1.00  0.00     0.283 C 
ATOM      8  C   UNL A   1      34.279  23.318  26.725  1.00  0.00     0.278 C 
ATOM      9  N   UNL A   1      33.716  24.520  26.099  1.00  0.00    -0.320 N 
ATOM     10  S   UNL A   1      36.014  23.196  26.235  1.00  0.00    -0.087 SA
ATOM     11  H   UNL A   1      33.537  25.219  26.822  1.00  0.00     0.348 HD
ATOM     12  H   UNL A   1      32.850  24.262  25.625  1.00  0.00     0.348 HD
ATOM     13  C   UNL A   1      35.714  24.092  24.696  1.00  0.00     0.151 C 
BRANCH   8  14
ATOM     14  C   UNL A   1      33.440  22.169  26.253  1.00  0.00     0.067 A 
ATOM     15  C   UNL A   1      32.224  22.230  25.503  1.00  0.00     0.103 A 
ATOM     16  N   UNL A   1      31.924  21.026  25.004  1.00  0.00    -0.167 NA
ATOM     17  N   UNL A   1      32.854  20.174  25.469  1.00  0.00    -0.240 N 
ATOM     18  C   UNL A   1      33.687  20.801  26.362  1.00  0.00     0.126 A 
BRANCH  15  19
ATOM     19  C   UNL A   1      31.336  23.343  25.151  1.00  0.00     0.003 A 
ATOM     20  C   UNL A   1      28.824  26.628  23.889  1.00  0.00     0.044 C 
ATOM     21  C   UNL A   1      29.707  25.496  24.321  1.00  0.00    -0.051 A 
ATOM     22  C   UNL A   1      29.973  25.283  25.678  1.00  0.00     0.004 A 
ATOM     23  C   UNL A   1      30.303  24.659  23.377  1.00  0.00     0.004 A 
ATOM     24  C   UNL A   1      30.776  24.212  26.090  1.00  0.00     0.011 A 
ATOM     25  C   UNL A   1      31.111  23.598  23.789  1.00  0.00     0.011 A 
ENDBRANCH  15  19
BRANCH  17  26
ATOM     26  C   UNL A   1      32.900  18.836  24.999  1.00  0.00     0.065 A 
ATOM     27  C   UNL A   1      32.632  17.808  25.910  1.00  0.00     0.028 A 
ATOM     28  C   UNL A   1      33.208  18.519  23.674  1.00  0.00     0.028 A 
ATOM     29  C   UNL A   1      32.738  16.476  25.533  1.00  0.00     0.002 A 
ATOM     30  C   UNL A   1      33.343  17.175  23.305  1.00  0.00     0.002 A 
ATOM     31  C   UNL A   1      33.143  16.162  24.242  1.00  0.00     0.000 A 
ENDBRANCH  17  26
ENDBRANCH   8  14
ENDBRANCH   4   7
ENDBRANCH   2   3
ENDBRANCH   1   2
BRANCH   1  32
ATOM     32  C   UNL A   1      33.518  29.374  26.696  1.00  0.00     0.118 C 
BRANCH  32  33
ATOM     33  N   UNL A   1      34.033  30.724  26.956  1.00  0.00    -0.352 N 
ATOM     34  C   UNL A   1      35.206  31.052  27.644  1.00  0.00     0.251 C 
ATOM     35  H   UNL A   1      33.498  31.475  26.611  1.00  0.00     0.163 HD
ATOM     36  O   UNL A   1      35.584  32.213  27.789  1.00  0.00    -0.269 OA
BRANCH  34  37
ATOM     37  C   UNL A   1      36.057  29.928  28.089  1.00  0.00     0.039 A 
ATOM     38  C   UNL A   1      36.184  29.683  29.465  1.00  0.00     0.014 A 
ATOM     39  C   UNL A   1      37.029  29.520  27.192  1.00  0.00     0.014 A 
ATOM     40  C   UNL A   1      37.418  29.283  29.972  1.00  0.00     0.010 A 
ATOM     41  C   UNL A   1      38.287  29.328  27.706  1.00  0.00     0.010 A 
ATOM     42  C   UNL A   1      38.494  29.242  29.100  1.00  0.00    -0.014 A 
BRANCH  42  43
ATOM     43  C   UNL A   1      39.872  28.911  29.434  1.00  0.00     0.031 A 
ATOM     44  C   UNL A   1      40.231  27.488  29.198  1.00  0.00     0.074 A 
ATOM     45  C   UNL A   1      40.811  29.888  29.405  1.00  0.00     0.049 A 
ATOM     46  N   UNL A   1      41.427  27.025  29.200  1.00  0.00    -0.248 NA
ATOM     47  C   UNL A   1      39.226  26.467  28.896  1.00  0.00     0.031 C 
ATOM     48  C   UNL A   1      42.171  29.757  28.891  1.00  0.00     0.029 A 
ATOM     49  N   UNL A   1      40.807  31.160  29.988  1.00  0.00    -0.354 N 
ATOM     50  C   UNL A   1      41.392  25.778  28.613  1.00  0.00     0.074 A 
ATOM     51  C   UNL A   1      39.995  25.442  28.527  1.00  0.00     0.031 C 
ATOM     52  C   UNL A   1      42.929  30.748  29.378  1.00  0.00     0.029 A 
ATOM     53  C   UNL A   1      42.140  31.430  30.383  1.00  0.00     0.049 A 
ATOM     54  H   UNL A   1      40.029  31.754  30.101  1.00  0.00     0.167 HD
ATOM     55  C   UNL A   1      42.566  25.254  28.165  1.00  0.00     0.034 A 
ATOM     56  C   UNL A   1      42.554  31.650  31.671  1.00  0.00     0.034 A 
ATOM     57  C   UNL A   1      43.695  26.075  28.645  1.00  0.00     0.049 A 
ATOM     58  C   UNL A   1      43.479  30.559  32.186  1.00  0.00     0.074 A 
ATOM     59  C   UNL A   1      44.526  27.033  28.089  1.00  0.00     0.029 A 
ATOM     60  N   UNL A   1      43.878  26.170  30.015  1.00  0.00    -0.354 N 
ATOM     61  N   UNL A   1      44.071  29.661  31.446  1.00  0.00    -0.248 NA
ATOM     62  C   UNL A   1      43.678  30.323  33.616  1.00  0.00     0.031 C 
ATOM     63  C   UNL A   1      45.165  27.737  29.161  1.00  0.00     0.029 A 
ATOM     64  C   UNL A   1      44.763  27.175  30.362  1.00  0.00     0.049 A 
ATOM     65  H   UNL A   1      43.427  25.588  30.669  1.00  0.00     0.167 HD
ATOM     66  C   UNL A   1      44.505  28.639  32.253  1.00  0.00     0.074 A 
ATOM     67  C   UNL A   1      44.246  29.110  33.604  1.00  0.00     0.031 C 
ATOM     68  C   UNL A   1      44.967  27.438  31.783  1.00  0.00     0.034 A 
BRANCH  55  69
ATOM     69  C   UNL A   1      42.744  24.104  27.183  1.00  0.00     0.023 A 
ATOM     70  C   UNL A   1      43.422  24.406  25.980  1.00  0.00     0.012 A 
ATOM     71  C   UNL A   1      42.248  22.779  27.286  1.00  0.00     0.148 A 
ATOM     72  C   UNL A   1      43.557  23.486  24.933  1.00  0.00     0.002 A 
ATOM     73  C   UNL A   1      42.384  21.855  26.242  1.00  0.00     0.091 A 
ATOM     74  F   UNL A   1      41.626  22.374  28.388  1.00  0.00    -0.205 F 
ATOM     75  C   UNL A   1      43.031  22.212  25.059  1.00  0.00     0.022 A 
BRANCH  73  76
ATOM     76  S   UNL A   1      41.713  20.180  26.322  1.00  0.00     0.127 S 
ATOM     77  O   UNL A   1      42.161  19.738  27.645  1.00  0.00    -0.237 OA
ATOM     78  O   UNL A   1      40.273  20.415  26.217  1.00  0.00    -0.237 OA
ATOM     79  O   UNL A   1      42.297  19.441  25.209  1.00  0.00    -0.744 OA
ENDBRANCH  73  76
ENDBRANCH  55  69
BRANCH  56  80
ATOM     80  C   UNL A   1      41.538  32.351  32.509  1.00  0.00     0.023 A 
ATOM     81  C   UNL A   1      41.266  33.675  32.098  1.00  0.00     0.012 A 
ATOM     82  C   UNL A   1      40.539  31.594  33.143  1.00  0.00     0.148 A 
ATOM     83  C   UNL A   1      39.946  34.075  31.969  1.00  0.00     0.002 A 
ATOM     84  C   UNL A   1      39.230  32.008  33.032  1.00  0.00     0.091 A 
ATOM     85  F   UNL A   1      40.849  30.429  33.722  1.00  0.00    -0.205 F 
ATOM     86  C   UNL A   1      38.941  33.197  32.361  1.00  0.00     0.022 A 
BRANCH  84  87
ATOM     87  S   UNL A   1      37.890  30.925  33.526  1.00  0.00     0.127 S 
ATOM     88  O   UNL A   1      37.857  31.137  34.969  1.00  0.00    -0.237 OA
ATOM     89  O   UNL A   1      36.745  31.470  32.798  1.00  0.00    -0.237 OA
ATOM     90  O   UNL A   1      38.310  29.609  33.064  1.00  0.00    -0.744 OA
ENDBRANCH  84  87
ENDBRANCH  56  80
BRANCH  68  91
ATOM     91  C   UNL A   1      45.589  26.389  32.696  1.00  0.00     0.023 A 
ATOM     92  C   UNL A   1      46.974  26.122  32.640  1.00  0.00     0.012 A 
ATOM     93  C   UNL A   1      44.828  25.545  33.544  1.00  0.00     0.148 A 
ATOM     94  C   UNL A   1      47.592  25.188  33.477  1.00  0.00     0.002 A 
ATOM     95  C   UNL A   1      45.433  24.565  34.323  1.00  0.00     0.091 A 
ATOM     96  F   UNL A   1      43.500  25.664  33.594  1.00  0.00    -0.205 F 
ATOM     97  C   UNL A   1      46.820  24.412  34.325  1.00  0.00     0.022 A 
BRANCH  95  98
ATOM     98  S   UNL A   1      44.485  23.385  35.297  1.00  0.00     0.127 S 
ATOM     99  O   UNL A   1      43.747  22.675  34.251  1.00  0.00    -0.237 OA
ATOM    100  O   UNL A   1      45.545  22.605  35.934  1.00  0.00    -0.237 OA
ATOM    101  O   UNL A   1      43.661  24.168  36.206  1.00  0.00    -0.744 OA
ENDBRANCH  95  98
ENDBRANCH  68  91
ENDBRANCH  42  43
ENDBRANCH  34  37
ENDBRANCH  32  33
ENDBRANCH   1  32
TORSDOF 16
ENDMDL
MODEL 2
REMARK VINA RESULT:     -12.7      3.792      8.867
REMARK SMILES Cc1ccc(-c2nn(-c3ccccc3)cc2[C@@H]2[NH2+][C@H](C(=O)NCCCNC(=O)c3ccc(-c4c5nc(c(-c6cccc(S(=O)(=O)[O-])c6F)c6ccc([nH]6)c(-c6cccc(S(=O)(=O)[O-])c6F)c6nc(c(-c7cccc(S(=O)(=O)[O-])c7F)c7ccc4[nH]7)C=C6)C=C5)cc3)CS2)cc1
REMARK SMILES IDX 24 1 23 2 22 3 20 4 21 5 19 7 17 8 18 9 93 10 92 13 16 14
REMARK SMILES IDX 6 15 7 16 8 17 15 18 5 19 1 20 2 21 3 22 95 23 4 24 94 25
REMARK SMILES IDX 9 26 10 27 14 28 11 29 13 30 12 31 25 32 26 33 27 34 28 36
REMARK SMILES IDX 29 37 30 38 91 39 31 40 90 41 32 42 33 43 34 44 84 45 35 46
REMARK SMILES IDX 89 47 83 48 85 49 36 50 88 51 82 52 81 53 37 55 69 56 49 57
REMARK SMILES IDX 68 58 50 59 53 60 67 61 86 62 51 63 52 64 66 66 87 67 54 68
REMARK SMILES IDX 38 69 39 70 47 71 40 72 42 73 48 74 41 75 43 76 44 77 45 78
REMARK SMILES IDX 46 79 70 80 71 81 79 82 72 83 74 84 80 85 73 86 75 87 76 88
REMARK SMILES IDX 77 89 78 90 55 91 56 92 64 93 57 94 59 95 65 96 58 97 60 98
REMARK SMILES IDX 61 99 62 100 63 101
REMARK H PARENT 22 6 18 11 18 12 26 35 85 54 53 65
REMARK Flexibility Score: inf
ROOT
ATOM      1  C   UNL A   1      32.960  27.764  25.664  1.00  0.00     0.042 C 
ENDROOT
BRANCH   1   2
ATOM      2  C   UNL A   1      33.324  26.411  25.052  1.00  0.00     0.118 C 
BRANCH   2   3
ATOM      3  N   UNL A   1      33.669  26.496  23.637  1.00  0.00    -0.351 N 
ATOM      4  C   UNL A   1      33.431  25.675  22.580  1.00  0.00     0.279 C 
ATOM      5  O   UNL A   1      33.750  26.102  21.461  1.00  0.00    -0.268 OA
ATOM      6  H   UNL A   1      34.174  27.307  23.401  1.00  0.00     0.163 HD
BRANCH   4   7
ATOM      7  C   UNL A   1      32.730  24.310  22.669  1.00  0.00     0.283 C 
ATOM      8  C   UNL A   1      33.240  22.030  23.341  1.00  0.00     0.278 C 
ATOM      9  N   UNL A   1      33.625  23.151  22.475  1.00  0.00    -0.320 N 
ATOM     10  S   UNL A   1      31.636  22.420  24.076  1.00  0.00    -0.087 SA
ATOM     11  H   UNL A   1      33.573  22.851  21.500  1.00  0.00     0.348 HD
ATOM     12  H   UNL A   1      34.575  23.433  22.715  1.00  0.00     0.348 HD
ATOM     13  C   UNL A   1      31.936  24.196  23.959  1.00  0.00     0.151 C 
BRANCH   8  14
ATOM     14  C   UNL A   1      34.341  21.881  24.346  1.00  0.00     0.067 A 
ATOM     15  C   UNL A   1      34.818  20.672  24.943  1.00  0.00     0.103 A 
ATOM     16  N   UNL A   1      35.992  20.882  25.548  1.00  0.00    -0.167 NA
ATOM     17  N   UNL A   1      36.253  22.196  25.435  1.00  0.00    -0.240 N 
ATOM     18  C   UNL A   1      35.195  22.856  24.861  1.00  0.00     0.126 A 
BRANCH  15  19
ATOM     19  C   UNL A   1      34.298  19.301  24.944  1.00  0.00     0.003 A 
ATOM     20  C   UNL A   1      32.635  15.315  25.149  1.00  0.00     0.044 C 
ATOM     21  C   UNL A   1      33.215  16.696  25.093  1.00  0.00    -0.051 A 
ATOM     22  C   UNL A   1      34.433  16.927  24.443  1.00  0.00     0.004 A 
ATOM     23  C   UNL A   1      32.567  17.765  25.713  1.00  0.00     0.004 A 
ATOM     24  C   UNL A   1      34.967  18.219  24.365  1.00  0.00     0.011 A 
ATOM     25  C   UNL A   1      33.106  19.050  25.642  1.00  0.00     0.011 A 
ENDBRANCH  15  19
BRANCH  17  26
ATOM     26  C   UNL A   1      37.506  22.717  25.850  1.00  0.00     0.065 A 
ATOM     27  C   UNL A   1      38.590  21.836  25.936  1.00  0.00     0.028 A 
ATOM     28  C   UNL A   1      37.685  24.064  26.177  1.00  0.00     0.028 A 
ATOM     29  C   UNL A   1      39.821  22.266  26.411  1.00  0.00     0.002 A 
ATOM     30  C   UNL A   1      38.920  24.487  26.683  1.00  0.00     0.002 A 
ATOM     31  C   UNL A   1      39.970  23.582  26.831  1.00  0.00     0.000 A 
ENDBRANCH  17  26
ENDBRANCH   8  14
ENDBRANCH   4   7
ENDBRANCH   2   3
ENDBRANCH   1   2
BRANCH   1  32
ATOM     32  C   UNL A   1      34.074  28.385  26.497  1.00  0.00     0.118 C 
BRANCH  32  33
ATOM     33  N   UNL A   1      34.049  29.822  26.794  1.00  0.00    -0.352 N 
ATOM     34  C   UNL A   1      34.939  30.518  27.618  1.00  0.00     0.251 C 
ATOM     35  H   UNL A   1      33.335  30.349  26.370  1.00  0.00     0.163 HD
ATOM     36  O   UNL A   1      34.869  31.734  27.788  1.00  0.00    -0.269 OA
BRANCH  34  37
ATOM     37  C   UNL A   1      36.066  29.749  28.188  1.00  0.00     0.039 A 
ATOM     38  C   UNL A   1      36.195  29.676  29.584  1.00  0.00     0.014 A 
ATOM     39  C   UNL A   1      37.157  29.578  27.354  1.00  0.00     0.014 A 
ATOM     40  C   UNL A   1      37.467  29.715  30.150  1.00  0.00     0.010 A 
ATOM     41  C   UNL A   1      38.389  29.821  27.908  1.00  0.00     0.010 A 
ATOM     42  C   UNL A   1      38.546  29.926  29.307  1.00  0.00    -0.014 A 
BRANCH  42  43
ATOM     43  C   UNL A   1      39.942  30.059  29.698  1.00  0.00     0.031 A 
ATOM     44  C   UNL A   1      40.316  31.420  30.165  1.00  0.00     0.074 A 
ATOM     45  C   UNL A   1      40.619  28.961  30.116  1.00  0.00     0.049 A 
ATOM     46  N   UNL A   1      41.410  31.712  30.768  1.00  0.00    -0.248 NA
ATOM     47  C   UNL A   1      39.427  32.573  30.008  1.00  0.00     0.031 C 
ATOM     48  C   UNL A   1      41.562  28.906  31.228  1.00  0.00     0.029 A 
ATOM     49  N   UNL A   1      40.739  27.698  29.526  1.00  0.00    -0.354 N 
ATOM     50  C   UNL A   1      41.250  32.957  31.340  1.00  0.00     0.074 A 
ATOM     51  C   UNL A   1      40.041  33.483  30.764  1.00  0.00     0.031 C 
ATOM     52  C   UNL A   1      42.330  27.816  31.107  1.00  0.00     0.029 A 
ATOM     53  C   UNL A   1      42.050  27.243  29.807  1.00  0.00     0.049 A 
ATOM     54  H   UNL A   1      40.046  27.218  29.016  1.00  0.00     0.167 HD
ATOM     55  C   UNL A   1      42.114  33.315  32.329  1.00  0.00     0.034 A 
ATOM     56  C   UNL A   1      43.006  26.958  28.866  1.00  0.00     0.034 A 
ATOM     57  C   UNL A   1      43.221  32.342  32.403  1.00  0.00     0.049 A 
ATOM     58  C   UNL A   1      44.193  27.907  28.928  1.00  0.00     0.074 A 
ATOM     59  C   UNL A   1      43.551  31.281  33.230  1.00  0.00     0.029 A 
ATOM     60  N   UNL A   1      44.032  32.212  31.287  1.00  0.00    -0.354 N 
ATOM     61  N   UNL A   1      44.458  28.719  29.915  1.00  0.00    -0.248 NA
ATOM     62  C   UNL A   1      45.088  28.102  27.788  1.00  0.00     0.031 C 
ATOM     63  C   UNL A   1      44.537  30.488  32.557  1.00  0.00     0.029 A 
ATOM     64  C   UNL A   1      44.841  31.092  31.349  1.00  0.00     0.049 A 
ATOM     65  H   UNL A   1      44.032  32.847  30.535  1.00  0.00     0.167 HD
ATOM     66  C   UNL A   1      45.353  29.665  29.481  1.00  0.00     0.074 A 
ATOM     67  C   UNL A   1      45.725  29.224  28.146  1.00  0.00     0.031 C 
ATOM     68  C   UNL A   1      45.675  30.793  30.188  1.00  0.00     0.034 A 
BRANCH  55  69
ATOM     69  C   UNL A   1      41.935  34.436  33.344  1.00  0.00     0.023 A 
ATOM     70  C   UNL A   1      42.676  35.618  33.111  1.00  0.00     0.012 A 
ATOM     71  C   UNL A   1      41.176  34.421  34.542  1.00  0.00     0.148 A 
ATOM     72  C   UNL A   1      42.708  36.686  34.016  1.00  0.00     0.002 A 
ATOM     73  C   UNL A   1      41.203  35.488  35.449  1.00  0.00     0.091 A 
ATOM     74  F   UNL A   1      40.414  33.376  34.846  1.00  0.00    -0.205 F 
ATOM     75  C   UNL A   1      41.978  36.618  35.190  1.00  0.00     0.022 A 
BRANCH  73  76
ATOM     76  S   UNL A   1      40.292  35.472  37.009  1.00  0.00     0.127 S 
ATOM     77  O   UNL A   1      40.454  36.854  37.467  1.00  0.00    -0.237 OA
ATOM     78  O   UNL A   1      38.938  35.130  36.577  1.00  0.00    -0.237 OA
ATOM     79  O   UNL A   1      40.935  34.477  37.858  1.00  0.00    -0.744 OA
ENDBRANCH  73  76
ENDBRANCH  55  69
BRANCH  56  80
ATOM     80  C   UNL A   1      42.446  26.399  27.601  1.00  0.00     0.023 A 
ATOM     81  C   UNL A   1      42.070  27.378  26.654  1.00  0.00     0.012 A 
ATOM     82  C   UNL A   1      42.873  25.133  27.169  1.00  0.00     0.148 A 
ATOM     83  C   UNL A   1      42.484  27.228  25.340  1.00  0.00     0.002 A 
ATOM     84  C   UNL A   1      43.262  24.982  25.856  1.00  0.00     0.091 A 
ATOM     85  F   UNL A   1      43.023  24.140  28.052  1.00  0.00    -0.205 F 
ATOM     86  C   UNL A   1      43.153  26.063  24.980  1.00  0.00     0.022 A 
BRANCH  84  87
ATOM     87  S   UNL A   1      44.121  23.500  25.327  1.00  0.00     0.127 S 
ATOM     88  O   UNL A   1      44.981  24.020  24.271  1.00  0.00    -0.237 OA
ATOM     89  O   UNL A   1      44.821  23.080  26.541  1.00  0.00    -0.237 OA
ATOM     90  O   UNL A   1      43.053  22.598  24.921  1.00  0.00    -0.744 OA
ENDBRANCH  84  87
ENDBRANCH  56  80
BRANCH  68  91
ATOM     91  C   UNL A   1      46.788  31.739  29.753  1.00  0.00     0.023 A 
ATOM     92  C   UNL A   1      47.953  31.881  30.537  1.00  0.00     0.012 A 
ATOM     93  C   UNL A   1      46.678  32.610  28.640  1.00  0.00     0.148 A 
ATOM     94  C   UNL A   1      49.010  32.716  30.163  1.00  0.00     0.002 A 
ATOM     95  C   UNL A   1      47.699  33.495  28.309  1.00  0.00     0.091 A 
ATOM     96  F   UNL A   1      45.572  32.610  27.893  1.00  0.00    -0.205 F 
ATOM     97  C   UNL A   1      48.884  33.521  29.043  1.00  0.00     0.022 A 
BRANCH  95  98
ATOM     98  S   UNL A   1      47.532  34.711  26.993  1.00  0.00     0.127 S 
ATOM     99  O   UNL A   1      46.364  35.468  27.447  1.00  0.00    -0.237 OA
ATOM    100  O   UNL A   1      48.802  35.429  27.089  1.00  0.00    -0.237 OA
ATOM    101  O   UNL A   1      47.336  33.962  25.761  1.00  0.00    -0.744 OA
ENDBRANCH  95  98
ENDBRANCH  68  91
ENDBRANCH  42  43
ENDBRANCH  34  37
ENDBRANCH  32  33
ENDBRANCH   1  32
TORSDOF 16
ENDMDL
MODEL 3
REMARK VINA RESULT:     -12.6      4.271      8.960
REMARK SMILES Cc1ccc(-c2nn(-c3ccccc3)cc2[C@@H]2[NH2+][C@H](C(=O)NCCCNC(=O)c3ccc(-c4c5nc(c(-c6cccc(S(=O)(=O)[O-])c6F)c6ccc([nH]6)c(-c6cccc(S(=O)(=O)[O-])c6F)c6nc(c(-c7cccc(S(=O)(=O)[O-])c7F)c7ccc4[nH]7)C=C6)C=C5)cc3)CS2)cc1
REMARK SMILES IDX 24 1 23 2 22 3 20 4 21 5 19 7 17 8 18 9 93 10 92 13 16 14
REMARK SMILES IDX 6 15 7 16 8 17 15 18 5 19 1 20 2 21 3 22 95 23 4 24 94 25
REMARK SMILES IDX 9 26 10 27 14 28 11 29 13 30 12 31 25 32 26 33 27 34 28 36
REMARK SMILES IDX 29 37 30 38 91 39 31 40 90 41 32 42 33 43 34 44 84 45 35 46
REMARK SMILES IDX 89 47 83 48 85 49 36 50 88 51 82 52 81 53 37 55 69 56 49 57
REMARK SMILES IDX 68 58 50 59 53 60 67 61 86 62 51 63 52 64 66 66 87 67 54 68
REMARK SMILES IDX 38 69 39 70 47 71 40 72 42 73 48 74 41 75 43 76 44 77 45 78
REMARK SMILES IDX 46 79 70 80 71 81 79 82 72 83 74 84 80 85 73 86 75 87 76 88
REMARK SMILES IDX 77 89 78 90 55 91 56 92 64 93 57 94 59 95 65 96 58 97 60 98
REMARK SMILES IDX 61 99 62 100 63 101
REMARK H PARENT 22 6 18 11 18 12 26 35 85 54 53 65
REMARK Flexibility Score: inf
ROOT
ATOM      1  C   UNL A   1      41.748  23.142  26.849  1.00  0.00     0.042 C 
ENDROOT
BRANCH   1   2
ATOM      2  C   UNL A   1      40.220  23.158  26.915  1.00  0.00     0.118 C 
BRANCH   2   3
ATOM      3  N   UNL A   1      39.612  21.924  26.430  1.00  0.00    -0.351 N 
ATOM      4  C   UNL A   1      38.524  21.677  25.654  1.00  0.00     0.279 C 
ATOM      5  O   UNL A   1      38.342  20.500  25.308  1.00  0.00    -0.268 OA
ATOM      6  H   UNL A   1      40.083  21.110  26.721  1.00  0.00     0.163 HD
BRANCH   4   7
ATOM      7  C   UNL A   1      37.564  22.751  25.121  1.00  0.00     0.283 C 
ATOM      8  C   UNL A   1      35.329  22.905  24.174  1.00  0.00     0.278 C 
ATOM      9  N   UNL A   1      36.654  22.283  24.055  1.00  0.00    -0.320 N 
ATOM     10  S   UNL A   1      35.444  24.227  25.401  1.00  0.00    -0.087 SA
ATOM     11  H   UNL A   1      37.055  22.524  23.147  1.00  0.00     0.348 HD
ATOM     12  H   UNL A   1      36.545  21.273  24.145  1.00  0.00     0.348 HD
ATOM     13  C   UNL A   1      36.803  23.407  26.260  1.00  0.00     0.151 C 
BRANCH   8  14
ATOM     14  C   UNL A   1      34.385  21.808  24.559  1.00  0.00     0.067 A 
ATOM     15  C   UNL A   1      32.958  21.869  24.621  1.00  0.00     0.103 A 
ATOM     16  N   UNL A   1      32.442  20.638  24.702  1.00  0.00    -0.167 NA
ATOM     17  N   UNL A   1      33.481  19.789  24.775  1.00  0.00    -0.240 N 
ATOM     18  C   UNL A   1      34.666  20.476  24.861  1.00  0.00     0.126 A 
BRANCH  15  19
ATOM     19  C   UNL A   1      32.014  22.989  24.546  1.00  0.00     0.003 A 
ATOM     20  C   UNL A   1      29.296  26.320  24.088  1.00  0.00     0.044 C 
ATOM     21  C   UNL A   1      30.249  25.174  24.240  1.00  0.00    -0.051 A 
ATOM     22  C   UNL A   1      30.754  24.834  25.501  1.00  0.00     0.004 A 
ATOM     23  C   UNL A   1      30.673  24.449  23.126  1.00  0.00     0.004 A 
ATOM     24  C   UNL A   1      31.625  23.748  25.653  1.00  0.00     0.011 A 
ATOM     25  C   UNL A   1      31.548  23.372  23.279  1.00  0.00     0.011 A 
ENDBRANCH  15  19
BRANCH  17  26
ATOM     26  C   UNL A   1      33.268  18.387  24.722  1.00  0.00     0.065 A 
ATOM     27  C   UNL A   1      32.528  17.793  25.751  1.00  0.00     0.028 A 
ATOM     28  C   UNL A   1      33.774  17.592  23.690  1.00  0.00     0.028 A 
ATOM     29  C   UNL A   1      32.352  16.417  25.799  1.00  0.00     0.002 A 
ATOM     30  C   UNL A   1      33.618  16.203  23.757  1.00  0.00     0.002 A 
ATOM     31  C   UNL A   1      32.941  15.619  24.826  1.00  0.00     0.000 A 
ENDBRANCH  17  26
ENDBRANCH   8  14
ENDBRANCH   4   7
ENDBRANCH   2   3
ENDBRANCH   1   2
BRANCH   1  32
ATOM     32  C   UNL A   1      42.304  23.060  25.434  1.00  0.00     0.118 C 
BRANCH  32  33
ATOM     33  N   UNL A   1      43.037  21.863  25.006  1.00  0.00    -0.352 N 
ATOM     34  C   UNL A   1      44.418  21.653  25.098  1.00  0.00     0.251 C 
ATOM     35  H   UNL A   1      42.505  21.135  24.614  1.00  0.00     0.163 HD
ATOM     36  O   UNL A   1      44.950  20.603  24.746  1.00  0.00    -0.269 OA
BRANCH  34  37
ATOM     37  C   UNL A   1      45.212  22.707  25.765  1.00  0.00     0.039 A 
ATOM     38  C   UNL A   1      45.194  22.780  27.166  1.00  0.00     0.014 A 
ATOM     39  C   UNL A   1      45.507  23.816  24.990  1.00  0.00     0.014 A 
ATOM     40  C   UNL A   1      45.192  24.029  27.781  1.00  0.00     0.010 A 
ATOM     41  C   UNL A   1      45.300  25.039  25.577  1.00  0.00     0.010 A 
ATOM     42  C   UNL A   1      45.107  25.150  26.971  1.00  0.00    -0.014 A 
BRANCH  42  43
ATOM     43  C   UNL A   1      45.031  26.536  27.410  1.00  0.00     0.031 A 
ATOM     44  C   UNL A   1      43.666  27.123  27.339  1.00  0.00     0.074 A 
ATOM     45  C   UNL A   1      45.953  27.003  28.287  1.00  0.00     0.049 A 
ATOM     46  N   UNL A   1      43.318  28.232  27.880  1.00  0.00    -0.248 NA
ATOM     47  C   UNL A   1      42.559  26.449  26.659  1.00  0.00     0.031 C 
ATOM     48  C   UNL A   1      45.692  27.890  29.416  1.00  0.00     0.029 A 
ATOM     49  N   UNL A   1      47.350  26.923  28.254  1.00  0.00    -0.354 N 
ATOM     50  C   UNL A   1      41.940  28.271  27.900  1.00  0.00     0.074 A 
ATOM     51  C   UNL A   1      41.520  27.187  27.052  1.00  0.00     0.031 C 
ATOM     52  C   UNL A   1      46.837  28.464  29.805  1.00  0.00     0.029 A 
ATOM     53  C   UNL A   1      47.838  28.129  28.814  1.00  0.00     0.049 A 
ATOM     54  H   UNL A   1      47.889  26.174  27.910  1.00  0.00     0.167 HD
ATOM     55  C   UNL A   1      41.343  29.154  28.747  1.00  0.00     0.034 A 
ATOM     56  C   UNL A   1      48.612  29.049  28.156  1.00  0.00     0.034 A 
ATOM     57  C   UNL A   1      42.353  30.076  29.302  1.00  0.00     0.049 A 
ATOM     58  C   UNL A   1      47.901  30.378  27.954  1.00  0.00     0.074 A 
ATOM     59  C   UNL A   1      43.026  30.196  30.506  1.00  0.00     0.029 A 
ATOM     60  N   UNL A   1      43.036  30.886  28.409  1.00  0.00    -0.354 N 
ATOM     61  N   UNL A   1      46.808  30.749  28.564  1.00  0.00    -0.248 NA
ATOM     62  C   UNL A   1      48.312  31.327  26.919  1.00  0.00     0.031 C 
ATOM     63  C   UNL A   1      44.156  31.051  30.295  1.00  0.00     0.029 A 
ATOM     64  C   UNL A   1      44.141  31.489  28.982  1.00  0.00     0.049 A 
ATOM     65  H   UNL A   1      42.765  31.016  27.472  1.00  0.00     0.167 HD
ATOM     66  C   UNL A   1      46.257  31.805  27.881  1.00  0.00     0.074 A 
ATOM     67  C   UNL A   1      47.246  32.136  26.868  1.00  0.00     0.031 C 
ATOM     68  C   UNL A   1      44.999  32.293  28.116  1.00  0.00     0.034 A 
BRANCH  55  69
ATOM     69  C   UNL A   1      39.895  29.139  29.220  1.00  0.00     0.023 A 
ATOM     70  C   UNL A   1      38.906  29.095  28.210  1.00  0.00     0.012 A 
ATOM     71  C   UNL A   1      39.405  29.241  30.547  1.00  0.00     0.148 A 
ATOM     72  C   UNL A   1      37.537  29.197  28.483  1.00  0.00     0.002 A 
ATOM     73  C   UNL A   1      38.035  29.340  30.824  1.00  0.00     0.091 A 
ATOM     74  F   UNL A   1      40.243  29.254  31.578  1.00  0.00    -0.205 F 
ATOM     75  C   UNL A   1      37.100  29.328  29.790  1.00  0.00     0.022 A 
BRANCH  73  76
ATOM     76  S   UNL A   1      37.386  29.529  32.499  1.00  0.00     0.127 S 
ATOM     77  O   UNL A   1      38.336  30.477  33.086  1.00  0.00    -0.237 OA
ATOM     78  O   UNL A   1      36.053  30.078  32.258  1.00  0.00    -0.237 OA
ATOM     79  O   UNL A   1      37.404  28.204  33.107  1.00  0.00    -0.744 OA
ENDBRANCH  73  76
ENDBRANCH  55  69
BRANCH  56  80
ATOM     80  C   UNL A   1      49.545  28.439  27.164  1.00  0.00     0.023 A 
ATOM     81  C   UNL A   1      50.496  27.562  27.732  1.00  0.00     0.012 A 
ATOM     82  C   UNL A   1      49.101  28.237  25.847  1.00  0.00     0.148 A 
ATOM     83  C   UNL A   1      50.687  26.319  27.149  1.00  0.00     0.002 A 
ATOM     84  C   UNL A   1      49.314  27.007  25.263  1.00  0.00     0.091 A 
ATOM     85  F   UNL A   1      48.372  29.175  25.235  1.00  0.00    -0.205 F 
ATOM     86  C   UNL A   1      50.023  26.029  25.962  1.00  0.00     0.022 A 
BRANCH  84  87
ATOM     87  S   UNL A   1      48.491  26.576  23.730  1.00  0.00     0.127 S 
ATOM     88  O   UNL A   1      48.387  25.126  23.850  1.00  0.00    -0.237 OA
ATOM     89  O   UNL A   1      47.222  27.294  23.829  1.00  0.00    -0.237 OA
ATOM     90  O   UNL A   1      49.379  27.088  22.696  1.00  0.00    -0.744 OA
ENDBRANCH  84  87
ENDBRANCH  56  80
BRANCH  68  91
ATOM     91  C   UNL A   1      44.480  33.564  27.454  1.00  0.00     0.023 A 
ATOM     92  C   UNL A   1      43.964  33.527  26.141  1.00  0.00     0.012 A 
ATOM     93  C   UNL A   1      44.595  34.850  28.040  1.00  0.00     0.148 A 
ATOM     94  C   UNL A   1      43.453  34.661  25.504  1.00  0.00     0.002 A 
ATOM     95  C   UNL A   1      44.154  35.990  27.377  1.00  0.00     0.091 A 
ATOM     96  F   UNL A   1      45.154  34.993  29.243  1.00  0.00    -0.205 F 
ATOM     97  C   UNL A   1      43.544  35.895  26.126  1.00  0.00     0.022 A 
BRANCH  95  98
ATOM     98  S   UNL A   1      44.417  37.647  28.028  1.00  0.00     0.127 S 
ATOM     99  O   UNL A   1      43.885  38.471  26.942  1.00  0.00    -0.237 OA
ATOM    100  O   UNL A   1      43.595  37.624  29.237  1.00  0.00    -0.237 OA
ATOM    101  O   UNL A   1      45.848  37.779  28.255  1.00  0.00    -0.744 OA
ENDBRANCH  95  98
ENDBRANCH  68  91
ENDBRANCH  42  43
ENDBRANCH  34  37
ENDBRANCH  32  33
ENDBRANCH   1  32
TORSDOF 16
ENDMDL
