MODEL 1
REMARK VINA RESULT:     -10.9      0.000      0.000
REMARK SMILES COc1ccc(Br)cc1S(=O)(=O)N(C)CC(=O)NCCCNC(=O)c1ccc(-c2c3nc(c(-c4cccc(S(=O)(=O)[O-])c4F)c4ccc([nH]4)c(-c4cccc(S(=O)(=O)[O-])c4F)c4nc(c(-c5cccc(S(=O)(=O)[O-])c5F)c5ccc2[nH]5)C=C4)C=C3)cc1
REMARK SMILES IDX 19 1 18 2 16 3 17 4 15 6 13 7 14 8 10 9 11 10 12 11 9 12
REMARK SMILES IDX 3 13 4 14 5 15 8 16 6 17 7 18 2 19 1 20 20 21 21 22 22 23
REMARK SMILES IDX 23 24 24 26 25 27 26 28 87 29 27 30 86 31 28 32 29 33 30 34
REMARK SMILES IDX 80 35 31 36 85 37 79 38 81 39 32 40 84 41 78 42 77 43 33 45
REMARK SMILES IDX 65 46 45 47 64 48 46 49 49 50 63 51 82 52 47 53 48 54 62 56
REMARK SMILES IDX 83 57 50 58 34 59 35 60 43 61 36 62 38 63 44 64 37 65 39 66
REMARK SMILES IDX 40 67 41 68 42 69 66 70 67 71 75 72 68 73 70 74 76 75 69 76
REMARK SMILES IDX 71 77 72 78 73 79 74 80 51 81 52 82 60 83 53 84 55 85 61 86
REMARK SMILES IDX 54 87 56 88 57 89 58 90 59 91
REMARK H PARENT 18 5 22 25 81 44 49 55
REMARK Flexibility Score: inf
ROOT
ATOM      1  C   UNL A   1      31.375  30.810  26.131  1.00  0.00     0.117 C 
ENDROOT
BRANCH   1   2
ATOM      2  N   UNL A   1      32.284  30.015  26.937  1.00  0.00    -0.355 N 
ATOM      3  C   UNL A   1      33.274  29.138  26.586  1.00  0.00     0.235 C 
ATOM      4  O   UNL A   1      33.973  28.695  27.502  1.00  0.00    -0.274 OA
ATOM      5  H   UNL A   1      32.168  30.128  27.908  1.00  0.00     0.163 HD
BRANCH   3   6
ATOM      6  C   UNL A   1      33.554  28.762  25.128  1.00  0.00     0.202 C 
BRANCH   6   7
ATOM      7  N   UNL A   1      32.914  27.526  24.565  1.00  0.00    -0.191 NA
ATOM      8  C   UNL A   1      33.747  26.335  24.733  1.00  0.00     0.125 C 
BRANCH   7   9
ATOM      9  S   UNL A   1      32.147  27.794  23.071  1.00  0.00     0.247 S 
ATOM     10  O   UNL A   1      32.232  26.527  22.365  1.00  0.00    -0.207 OA
ATOM     11  O   UNL A   1      32.736  28.993  22.513  1.00  0.00    -0.207 OA
BRANCH   9  12
ATOM     12  C   UNL A   1      30.400  28.119  23.204  1.00  0.00     0.125 A 
ATOM     13  C   UNL A   1      29.388  27.216  23.545  1.00  0.00     0.138 A 
ATOM     14  C   UNL A   1      28.048  27.638  23.439  1.00  0.00     0.049 A 
ATOM     15  C   UNL A   1      27.717  28.926  23.010  1.00  0.00     0.019 A 
ATOM     16  C   UNL A   1      30.056  29.433  22.812  1.00  0.00     0.041 A 
ATOM     17  C   UNL A   1      28.727  29.828  22.718  1.00  0.00     0.019 A 
ATOM     18  Br  UNL A   1      28.298  31.587  22.182  1.00  0.00    -0.051 Br
BRANCH  13  19
ATOM     19  O   UNL A   1      29.694  25.977  24.032  1.00  0.00    -0.495 OA
ATOM     20  C   UNL A   1      29.829  25.896  25.456  1.00  0.00     0.278 C 
ENDBRANCH  13  19
ENDBRANCH   9  12
ENDBRANCH   7   9
ENDBRANCH   6   7
ENDBRANCH   3   6
ENDBRANCH   1   2
BRANCH   1  21
ATOM     21  C   UNL A   1      31.330  32.274  26.571  1.00  0.00     0.042 C 
BRANCH  21  22
ATOM     22  C   UNL A   1      32.650  32.820  27.099  1.00  0.00     0.118 C 
BRANCH  22  23
ATOM     23  N   UNL A   1      32.501  34.143  27.687  1.00  0.00    -0.352 N 
ATOM     24  C   UNL A   1      33.124  34.724  28.767  1.00  0.00     0.251 C 
ATOM     25  H   UNL A   1      31.843  34.719  27.235  1.00  0.00     0.163 HD
ATOM     26  O   UNL A   1      32.673  35.786  29.196  1.00  0.00    -0.269 OA
BRANCH  24  27
ATOM     27  C   UNL A   1      34.306  34.112  29.429  1.00  0.00     0.039 A 
ATOM     28  C   UNL A   1      34.090  33.201  30.472  1.00  0.00     0.014 A 
ATOM     29  C   UNL A   1      35.616  34.474  29.107  1.00  0.00     0.014 A 
ATOM     30  C   UNL A   1      35.173  32.634  31.156  1.00  0.00     0.010 A 
ATOM     31  C   UNL A   1      36.696  33.848  29.735  1.00  0.00     0.010 A 
ATOM     32  C   UNL A   1      36.490  32.938  30.782  1.00  0.00    -0.014 A 
BRANCH  32  33
ATOM     33  C   UNL A   1      37.658  32.348  31.492  1.00  0.00     0.031 A 
ATOM     34  C   UNL A   1      38.437  31.217  30.870  1.00  0.00     0.074 A 
ATOM     35  C   UNL A   1      37.978  32.771  32.731  1.00  0.00     0.049 A 
ATOM     36  N   UNL A   1      39.446  30.543  31.359  1.00  0.00    -0.248 NA
ATOM     37  C   UNL A   1      38.010  30.766  29.536  1.00  0.00     0.031 C 
ATOM     38  C   UNL A   1      37.261  33.802  33.484  1.00  0.00     0.029 A 
ATOM     39  N   UNL A   1      38.973  32.367  33.589  1.00  0.00    -0.354 N 
ATOM     40  C   UNL A   1      39.744  29.565  30.417  1.00  0.00     0.074 A 
ATOM     41  C   UNL A   1      38.793  29.716  29.338  1.00  0.00     0.031 C 
ATOM     42  C   UNL A   1      37.839  33.949  34.688  1.00  0.00     0.029 A 
ATOM     43  C   UNL A   1      38.954  33.012  34.803  1.00  0.00     0.049 A 
ATOM     44  H   UNL A   1      39.638  31.679  33.355  1.00  0.00     0.167 HD
ATOM     45  C   UNL A   1      40.740  28.646  30.426  1.00  0.00     0.034 A 
ATOM     46  C   UNL A   1      39.744  32.872  35.887  1.00  0.00     0.034 A 
ATOM     47  C   UNL A   1      41.735  28.541  31.459  1.00  0.00     0.049 A 
ATOM     48  C   UNL A   1      40.892  31.899  35.841  1.00  0.00     0.074 A 
ATOM     49  C   UNL A   1      42.843  27.713  31.505  1.00  0.00     0.029 A 
ATOM     50  N   UNL A   1      41.748  29.292  32.624  1.00  0.00    -0.354 N 
ATOM     51  N   UNL A   1      41.259  31.103  34.865  1.00  0.00    -0.248 NA
ATOM     52  C   UNL A   1      41.760  31.832  37.026  1.00  0.00     0.031 C 
ATOM     53  C   UNL A   1      43.528  27.964  32.700  1.00  0.00     0.029 A 
ATOM     54  C   UNL A   1      42.845  28.949  33.396  1.00  0.00     0.049 A 
ATOM     55  H   UNL A   1      41.077  29.970  32.866  1.00  0.00     0.167 HD
ATOM     56  C   UNL A   1      42.413  30.464  35.307  1.00  0.00     0.074 A 
ATOM     57  C   UNL A   1      42.699  30.984  36.627  1.00  0.00     0.031 C 
ATOM     58  C   UNL A   1      43.156  29.519  34.681  1.00  0.00     0.034 A 
BRANCH  45  59
ATOM     59  C   UNL A   1      40.852  27.728  29.239  1.00  0.00     0.023 A 
ATOM     60  C   UNL A   1      40.090  26.542  29.214  1.00  0.00     0.012 A 
ATOM     61  C   UNL A   1      41.659  28.055  28.132  1.00  0.00     0.148 A 
ATOM     62  C   UNL A   1      40.151  25.680  28.120  1.00  0.00     0.002 A 
ATOM     63  C   UNL A   1      41.688  27.207  27.029  1.00  0.00     0.091 A 
ATOM     64  F   UNL A   1      42.398  29.172  28.183  1.00  0.00    -0.205 F 
ATOM     65  C   UNL A   1      40.942  26.016  27.025  1.00  0.00     0.022 A 
BRANCH  63  66
ATOM     66  S   UNL A   1      42.623  27.596  25.546  1.00  0.00     0.127 S 
ATOM     67  O   UNL A   1      43.978  27.732  26.077  1.00  0.00    -0.237 OA
ATOM     68  O   UNL A   1      42.411  26.408  24.718  1.00  0.00    -0.237 OA
ATOM     69  O   UNL A   1      42.026  28.813  25.013  1.00  0.00    -0.744 OA
ENDBRANCH  63  66
ENDBRANCH  45  59
BRANCH  46  70
ATOM     70  C   UNL A   1      39.530  33.750  37.072  1.00  0.00     0.023 A 
ATOM     71  C   UNL A   1      39.925  35.099  37.005  1.00  0.00     0.012 A 
ATOM     72  C   UNL A   1      38.890  33.280  38.235  1.00  0.00     0.148 A 
ATOM     73  C   UNL A   1      39.709  35.960  38.082  1.00  0.00     0.002 A 
ATOM     74  C   UNL A   1      38.628  34.155  39.284  1.00  0.00     0.091 A 
ATOM     75  F   UNL A   1      38.538  31.987  38.293  1.00  0.00    -0.205 F 
ATOM     76  C   UNL A   1      39.048  35.492  39.215  1.00  0.00     0.022 A 
BRANCH  74  77
ATOM     77  S   UNL A   1      37.649  33.663  40.710  1.00  0.00     0.127 S 
ATOM     78  O   UNL A   1      36.455  33.109  40.080  1.00  0.00    -0.237 OA
ATOM     79  O   UNL A   1      38.517  32.679  41.359  1.00  0.00    -0.237 OA
ATOM     80  O   UNL A   1      37.459  34.881  41.487  1.00  0.00    -0.744 OA
ENDBRANCH  74  77
ENDBRANCH  46  70
BRANCH  58  81
ATOM     81  C   UNL A   1      44.365  28.988  35.403  1.00  0.00     0.023 A 
ATOM     82  C   UNL A   1      45.614  29.610  35.207  1.00  0.00     0.012 A 
ATOM     83  C   UNL A   1      44.254  27.936  36.333  1.00  0.00     0.148 A 
ATOM     84  C   UNL A   1      46.738  29.178  35.910  1.00  0.00     0.002 A 
ATOM     85  C   UNL A   1      45.372  27.536  37.058  1.00  0.00     0.091 A 
ATOM     86  F   UNL A   1      43.063  27.340  36.490  1.00  0.00    -0.205 F 
ATOM     87  C   UNL A   1      46.616  28.151  36.843  1.00  0.00     0.022 A 
BRANCH  85  88
ATOM     88  S   UNL A   1      45.273  26.278  38.338  1.00  0.00     0.127 S 
ATOM     89  O   UNL A   1      44.440  26.937  39.342  1.00  0.00    -0.237 OA
ATOM     90  O   UNL A   1      44.623  25.167  37.642  1.00  0.00    -0.237 OA
ATOM     91  O   UNL A   1      46.650  26.012  38.731  1.00  0.00    -0.744 OA
ENDBRANCH  85  88
ENDBRANCH  58  81
ENDBRANCH  32  33
ENDBRANCH  24  27
ENDBRANCH  22  23
ENDBRANCH  21  22
ENDBRANCH   1  21
TORSDOF 17
ENDMDL
MODEL 2
REMARK VINA RESULT:     -10.8      3.971      9.251
REMARK SMILES COc1ccc(Br)cc1S(=O)(=O)N(C)CC(=O)NCCCNC(=O)c1ccc(-c2c3nc(c(-c4cccc(S(=O)(=O)[O-])c4F)c4ccc([nH]4)c(-c4cccc(S(=O)(=O)[O-])c4F)c4nc(c(-c5cccc(S(=O)(=O)[O-])c5F)c5ccc2[nH]5)C=C4)C=C3)cc1
REMARK SMILES IDX 19 1 18 2 16 3 17 4 15 6 13 7 14 8 10 9 11 10 12 11 9 12
REMARK SMILES IDX 3 13 4 14 5 15 8 16 6 17 7 18 2 19 1 20 20 21 21 22 22 23
REMARK SMILES IDX 23 24 24 26 25 27 26 28 87 29 27 30 86 31 28 32 29 33 30 34
REMARK SMILES IDX 80 35 31 36 85 37 79 38 81 39 32 40 84 41 78 42 77 43 33 45
REMARK SMILES IDX 65 46 45 47 64 48 46 49 49 50 63 51 82 52 47 53 48 54 62 56
REMARK SMILES IDX 83 57 50 58 34 59 35 60 43 61 36 62 38 63 44 64 37 65 39 66
REMARK SMILES IDX 40 67 41 68 42 69 66 70 67 71 75 72 68 73 70 74 76 75 69 76
REMARK SMILES IDX 71 77 72 78 73 79 74 80 51 81 52 82 60 83 53 84 55 85 61 86
REMARK SMILES IDX 54 87 56 88 57 89 58 90 59 91
REMARK H PARENT 18 5 22 25 81 44 49 55
REMARK Flexibility Score: inf
ROOT
ATOM      1  C   UNL A   1      32.532  27.384  25.055  1.00  0.00     0.117 C 
ENDROOT
BRANCH   1   2
ATOM      2  N   UNL A   1      31.590  26.629  25.862  1.00  0.00    -0.355 N 
ATOM      3  C   UNL A   1      31.393  25.283  26.001  1.00  0.00     0.235 C 
ATOM      4  O   UNL A   1      30.585  24.926  26.865  1.00  0.00    -0.274 OA
ATOM      5  H   UNL A   1      30.986  27.186  26.404  1.00  0.00     0.163 HD
BRANCH   3   6
ATOM      6  C   UNL A   1      32.174  24.252  25.179  1.00  0.00     0.202 C 
BRANCH   6   7
ATOM      7  N   UNL A   1      32.059  24.286  23.683  1.00  0.00    -0.191 NA
ATOM      8  C   UNL A   1      30.713  23.957  23.213  1.00  0.00     0.125 C 
BRANCH   7   9
ATOM      9  S   UNL A   1      33.400  23.595  22.897  1.00  0.00     0.247 S 
ATOM     10  O   UNL A   1      34.236  24.717  22.506  1.00  0.00    -0.207 OA
ATOM     11  O   UNL A   1      32.872  22.685  21.903  1.00  0.00    -0.207 OA
BRANCH   9  12
ATOM     12  C   UNL A   1      34.436  22.613  23.964  1.00  0.00     0.125 A 
ATOM     13  C   UNL A   1      34.172  21.337  24.472  1.00  0.00     0.138 A 
ATOM     14  C   UNL A   1      35.055  20.799  25.429  1.00  0.00     0.049 A 
ATOM     15  C   UNL A   1      36.178  21.505  25.869  1.00  0.00     0.019 A 
ATOM     16  C   UNL A   1      35.598  23.302  24.385  1.00  0.00     0.041 A 
ATOM     17  C   UNL A   1      36.456  22.749  25.327  1.00  0.00     0.019 A 
ATOM     18  Br  UNL A   1      37.994  23.697  25.877  1.00  0.00    -0.051 Br
BRANCH  13  19
ATOM     19  O   UNL A   1      33.120  20.604  24.003  1.00  0.00    -0.495 OA
ATOM     20  C   UNL A   1      33.179  19.200  24.284  1.00  0.00     0.278 C 
ENDBRANCH  13  19
ENDBRANCH   9  12
ENDBRANCH   7   9
ENDBRANCH   6   7
ENDBRANCH   3   6
ENDBRANCH   1   2
BRANCH   1  21
ATOM     21  C   UNL A   1      33.709  27.914  25.874  1.00  0.00     0.042 C 
BRANCH  21  22
ATOM     22  C   UNL A   1      33.326  28.536  27.210  1.00  0.00     0.118 C 
BRANCH  22  23
ATOM     23  N   UNL A   1      33.416  29.988  27.186  1.00  0.00    -0.352 N 
ATOM     24  C   UNL A   1      34.370  30.840  27.693  1.00  0.00     0.251 C 
ATOM     25  H   UNL A   1      32.668  30.436  26.730  1.00  0.00     0.163 HD
ATOM     26  O   UNL A   1      34.114  32.044  27.729  1.00  0.00    -0.269 OA
BRANCH  24  27
ATOM     27  C   UNL A   1      35.680  30.356  28.202  1.00  0.00     0.039 A 
ATOM     28  C   UNL A   1      36.803  30.472  27.371  1.00  0.00     0.014 A 
ATOM     29  C   UNL A   1      35.815  29.717  29.437  1.00  0.00     0.014 A 
ATOM     30  C   UNL A   1      38.050  29.988  27.790  1.00  0.00     0.010 A 
ATOM     31  C   UNL A   1      37.072  29.307  29.887  1.00  0.00     0.010 A 
ATOM     32  C   UNL A   1      38.201  29.415  29.061  1.00  0.00    -0.014 A 
BRANCH  32  33
ATOM     33  C   UNL A   1      39.515  28.895  29.530  1.00  0.00     0.031 A 
ATOM     34  C   UNL A   1      40.247  29.576  30.659  1.00  0.00     0.074 A 
ATOM     35  C   UNL A   1      40.093  27.856  28.895  1.00  0.00     0.049 A 
ATOM     36  N   UNL A   1      41.421  29.300  31.166  1.00  0.00    -0.248 NA
ATOM     37  C   UNL A   1      39.586  30.735  31.280  1.00  0.00     0.031 C 
ATOM     38  C   UNL A   1      39.534  27.154  27.739  1.00  0.00     0.029 A 
ATOM     39  N   UNL A   1      41.295  27.226  29.115  1.00  0.00    -0.354 N 
ATOM     40  C   UNL A   1      41.658  30.273  32.131  1.00  0.00     0.074 A 
ATOM     41  C   UNL A   1      40.516  31.162  32.121  1.00  0.00     0.031 C 
ATOM     42  C   UNL A   1      40.389  26.192  27.353  1.00  0.00     0.029 A 
ATOM     43  C   UNL A   1      41.565  26.219  28.218  1.00  0.00     0.049 A 
ATOM     44  H   UNL A   1      41.906  27.474  29.847  1.00  0.00     0.167 HD
ATOM     45  C   UNL A   1      42.709  30.398  32.976  1.00  0.00     0.034 A 
ATOM     46  C   UNL A   1      42.635  25.406  28.104  1.00  0.00     0.034 A 
ATOM     47  C   UNL A   1      43.809  29.474  33.043  1.00  0.00     0.049 A 
ATOM     48  C   UNL A   1      43.754  25.515  29.105  1.00  0.00     0.074 A 
ATOM     49  C   UNL A   1      44.867  29.459  33.936  1.00  0.00     0.029 A 
ATOM     50  N   UNL A   1      43.990  28.398  32.189  1.00  0.00    -0.354 N 
ATOM     51  N   UNL A   1      43.874  26.336  30.121  1.00  0.00    -0.248 NA
ATOM     52  C   UNL A   1      44.865  24.561  28.973  1.00  0.00     0.031 C 
ATOM     53  C   UNL A   1      45.689  28.370  33.621  1.00  0.00     0.029 A 
ATOM     54  C   UNL A   1      45.141  27.709  32.533  1.00  0.00     0.049 A 
ATOM     55  H   UNL A   1      43.388  28.158  31.448  1.00  0.00     0.167 HD
ATOM     56  C   UNL A   1      45.055  25.980  30.763  1.00  0.00     0.074 A 
ATOM     57  C   UNL A   1      45.602  24.854  30.036  1.00  0.00     0.031 C 
ATOM     58  C   UNL A   1      45.643  26.550  31.844  1.00  0.00     0.034 A 
BRANCH  45  59
ATOM     59  C   UNL A   1      42.681  31.539  33.958  1.00  0.00     0.023 A 
ATOM     60  C   UNL A   1      43.271  32.768  33.599  1.00  0.00     0.012 A 
ATOM     61  C   UNL A   1      42.032  31.421  35.202  1.00  0.00     0.148 A 
ATOM     62  C   UNL A   1      43.244  33.852  34.474  1.00  0.00     0.002 A 
ATOM     63  C   UNL A   1      41.979  32.518  36.056  1.00  0.00     0.091 A 
ATOM     64  F   UNL A   1      41.500  30.237  35.540  1.00  0.00    -0.205 F 
ATOM     65  C   UNL A   1      42.590  33.731  35.697  1.00  0.00     0.022 A 
BRANCH  63  66
ATOM     66  S   UNL A   1      41.096  32.472  37.620  1.00  0.00     0.127 S 
ATOM     67  O   UNL A   1      39.807  31.914  37.217  1.00  0.00    -0.237 OA
ATOM     68  O   UNL A   1      41.924  31.572  38.424  1.00  0.00    -0.237 OA
ATOM     69  O   UNL A   1      41.070  33.849  38.097  1.00  0.00    -0.744 OA
ENDBRANCH  63  66
ENDBRANCH  45  59
BRANCH  46  70
ATOM     70  C   UNL A   1      42.647  24.349  27.053  1.00  0.00     0.023 A 
ATOM     71  C   UNL A   1      43.405  24.553  25.885  1.00  0.00     0.012 A 
ATOM     72  C   UNL A   1      41.967  23.128  27.225  1.00  0.00     0.148 A 
ATOM     73  C   UNL A   1      43.468  23.571  24.896  1.00  0.00     0.002 A 
ATOM     74  C   UNL A   1      42.078  22.131  26.260  1.00  0.00     0.091 A 
ATOM     75  F   UNL A   1      41.232  22.955  28.333  1.00  0.00    -0.205 F 
ATOM     76  C   UNL A   1      42.816  22.356  25.089  1.00  0.00     0.022 A 
BRANCH  74  77
ATOM     77  S   UNL A   1      41.391  20.488  26.509  1.00  0.00     0.127 S 
ATOM     78  O   UNL A   1      39.972  20.712  26.256  1.00  0.00    -0.237 OA
ATOM     79  O   UNL A   1      42.084  19.702  25.487  1.00  0.00    -0.237 OA
ATOM     80  O   UNL A   1      41.751  20.123  27.874  1.00  0.00    -0.744 OA
ENDBRANCH  74  77
ENDBRANCH  46  70
BRANCH  58  81
ATOM     81  C   UNL A   1      46.940  25.959  32.328  1.00  0.00     0.023 A 
ATOM     82  C   UNL A   1      48.155  26.437  31.799  1.00  0.00     0.012 A 
ATOM     83  C   UNL A   1      46.963  25.000  33.359  1.00  0.00     0.148 A 
ATOM     84  C   UNL A   1      49.373  25.952  32.274  1.00  0.00     0.002 A 
ATOM     85  C   UNL A   1      48.182  24.549  33.853  1.00  0.00     0.091 A 
ATOM     86  F   UNL A   1      45.796  24.540  33.834  1.00  0.00    -0.205 F 
ATOM     87  C   UNL A   1      49.387  25.018  33.307  1.00  0.00     0.022 A 
BRANCH  85  88
ATOM     88  S   UNL A   1      48.281  23.411  35.241  1.00  0.00     0.127 S 
ATOM     89  O   UNL A   1      49.725  23.291  35.427  1.00  0.00    -0.237 OA
ATOM     90  O   UNL A   1      47.590  24.143  36.303  1.00  0.00    -0.237 OA
ATOM     91  O   UNL A   1      47.594  22.203  34.805  1.00  0.00    -0.744 OA
ENDBRANCH  85  88
ENDBRANCH  58  81
ENDBRANCH  32  33
ENDBRANCH  24  27
ENDBRANCH  22  23
ENDBRANCH  21  22
ENDBRANCH   1  21
TORSDOF 17
ENDMDL
MODEL 3
REMARK VINA RESULT:     -10.6      3.182      8.611
REMARK SMILES COc1ccc(Br)cc1S(=O)(=O)N(C)CC(=O)NCCCNC(=O)c1ccc(-c2c3nc(c(-c4cccc(S(=O)(=O)[O-])c4F)c4ccc([nH]4)c(-c4cccc(S(=O)(=O)[O-])c4F)c4nc(c(-c5cccc(S(=O)(=O)[O-])c5F)c5ccc2[nH]5)C=C4)C=C3)cc1
REMARK SMILES IDX 19 1 18 2 16 3 17 4 15 6 13 7 14 8 10 9 11 10 12 11 9 12
REMARK SMILES IDX 3 13 4 14 5 15 8 16 6 17 7 18 2 19 1 20 20 21 21 22 22 23
REMARK SMILES IDX 23 24 24 26 25 27 26 28 87 29 27 30 86 31 28 32 29 33 30 34
REMARK SMILES IDX 80 35 31 36 85 37 79 38 81 39 32 40 84 41 78 42 77 43 33 45
REMARK SMILES IDX 65 46 45 47 64 48 46 49 49 50 63 51 82 52 47 53 48 54 62 56
REMARK SMILES IDX 83 57 50 58 34 59 35 60 43 61 36 62 38 63 44 64 37 65 39 66
REMARK SMILES IDX 40 67 41 68 42 69 66 70 67 71 75 72 68 73 70 74 76 75 69 76
REMARK SMILES IDX 71 77 72 78 73 79 74 80 51 81 52 82 60 83 53 84 55 85 61 86
REMARK SMILES IDX 54 87 56 88 57 89 58 90 59 91
REMARK H PARENT 18 5 22 25 81 44 49 55
REMARK Flexibility Score: inf
ROOT
ATOM      1  C   UNL A   1      31.155  28.150  24.038  1.00  0.00     0.117 C 
ENDROOT
BRANCH   1   2
ATOM      2  N   UNL A   1      32.170  28.067  23.002  1.00  0.00    -0.355 N 
ATOM      3  C   UNL A   1      32.961  27.030  22.591  1.00  0.00     0.235 C 
ATOM      4  O   UNL A   1      33.658  27.226  21.591  1.00  0.00    -0.274 OA
ATOM      5  H   UNL A   1      32.313  28.907  22.509  1.00  0.00     0.163 HD
BRANCH   3   6
ATOM      6  C   UNL A   1      32.949  25.666  23.289  1.00  0.00     0.202 C 
BRANCH   6   7
ATOM      7  N   UNL A   1      32.093  24.572  22.721  1.00  0.00    -0.191 NA
ATOM      8  C   UNL A   1      30.696  24.674  23.143  1.00  0.00     0.125 C 
BRANCH   7   9
ATOM      9  S   UNL A   1      32.854  23.051  22.744  1.00  0.00     0.247 S 
ATOM     10  O   UNL A   1      33.958  23.161  21.805  1.00  0.00    -0.207 OA
ATOM     11  O   UNL A   1      31.813  22.065  22.549  1.00  0.00    -0.207 OA
BRANCH   9  12
ATOM     12  C   UNL A   1      33.626  22.653  24.301  1.00  0.00     0.125 A 
ATOM     13  C   UNL A   1      33.160  22.952  25.585  1.00  0.00     0.138 A 
ATOM     14  C   UNL A   1      34.002  22.686  26.683  1.00  0.00     0.049 A 
ATOM     15  C   UNL A   1      35.273  22.130  26.514  1.00  0.00     0.019 A 
ATOM     16  C   UNL A   1      34.896  22.052  24.144  1.00  0.00     0.041 A 
ATOM     17  C   UNL A   1      35.708  21.795  25.243  1.00  0.00     0.019 A 
ATOM     18  Br  UNL A   1      37.404  21.001  25.001  1.00  0.00    -0.051 Br
BRANCH  13  19
ATOM     19  O   UNL A   1      31.896  23.430  25.774  1.00  0.00    -0.495 OA
ATOM     20  C   UNL A   1      31.231  22.951  26.950  1.00  0.00     0.278 C 
ENDBRANCH  13  19
ENDBRANCH   9  12
ENDBRANCH   7   9
ENDBRANCH   6   7
ENDBRANCH   3   6
ENDBRANCH   1   2
BRANCH   1  21
ATOM     21  C   UNL A   1      31.733  28.559  25.392  1.00  0.00     0.042 C 
BRANCH  21  22
ATOM     22  C   UNL A   1      32.913  29.519  25.316  1.00  0.00     0.118 C 
BRANCH  22  23
ATOM     23  N   UNL A   1      32.577  30.842  25.819  1.00  0.00    -0.352 N 
ATOM     24  C   UNL A   1      33.053  31.541  26.905  1.00  0.00     0.251 C 
ATOM     25  H   UNL A   1      31.895  31.319  25.294  1.00  0.00     0.163 HD
ATOM     26  O   UNL A   1      32.458  32.564  27.245  1.00  0.00    -0.269 OA
BRANCH  24  27
ATOM     27  C   UNL A   1      34.244  31.098  27.677  1.00  0.00     0.039 A 
ATOM     28  C   UNL A   1      35.260  32.031  27.929  1.00  0.00     0.014 A 
ATOM     29  C   UNL A   1      34.425  29.774  28.083  1.00  0.00     0.014 A 
ATOM     30  C   UNL A   1      36.422  31.647  28.613  1.00  0.00     0.010 A 
ATOM     31  C   UNL A   1      35.546  29.412  28.834  1.00  0.00     0.010 A 
ATOM     32  C   UNL A   1      36.570  30.336  29.088  1.00  0.00    -0.014 A 
BRANCH  32  33
ATOM     33  C   UNL A   1      37.794  29.905  29.818  1.00  0.00     0.031 A 
ATOM     34  C   UNL A   1      38.085  30.435  31.199  1.00  0.00     0.074 A 
ATOM     35  C   UNL A   1      38.688  29.097  29.215  1.00  0.00     0.049 A 
ATOM     36  N   UNL A   1      39.123  30.216  31.965  1.00  0.00    -0.248 NA
ATOM     37  C   UNL A   1      37.094  31.352  31.785  1.00  0.00     0.031 C 
ATOM     38  C   UNL A   1      38.571  28.574  27.853  1.00  0.00     0.029 A 
ATOM     39  N   UNL A   1      39.887  28.594  29.661  1.00  0.00    -0.354 N 
ATOM     40  C   UNL A   1      38.932  30.998  33.099  1.00  0.00     0.074 A 
ATOM     41  C   UNL A   1      37.692  31.718  32.909  1.00  0.00     0.031 C 
ATOM     42  C   UNL A   1      39.653  27.826  27.575  1.00  0.00     0.029 A 
ATOM     43  C   UNL A   1      40.549  27.830  28.728  1.00  0.00     0.049 A 
ATOM     44  H   UNL A   1      40.240  28.767  30.564  1.00  0.00     0.167 HD
ATOM     45  C   UNL A   1      39.697  31.086  34.213  1.00  0.00     0.034 A 
ATOM     46  C   UNL A   1      41.739  27.200  28.792  1.00  0.00     0.034 A 
ATOM     47  C   UNL A   1      40.890  30.316  34.439  1.00  0.00     0.049 A 
ATOM     48  C   UNL A   1      42.532  27.249  30.071  1.00  0.00     0.074 A 
ATOM     49  C   UNL A   1      41.674  30.258  35.579  1.00  0.00     0.029 A 
ATOM     50  N   UNL A   1      41.469  29.464  33.512  1.00  0.00    -0.354 N 
ATOM     51  N   UNL A   1      42.245  27.859  31.195  1.00  0.00    -0.248 NA
ATOM     52  C   UNL A   1      43.791  26.491  30.106  1.00  0.00     0.031 C 
ATOM     53  C   UNL A   1      42.728  29.368  35.339  1.00  0.00     0.029 A 
ATOM     54  C   UNL A   1      42.599  28.873  34.052  1.00  0.00     0.049 A 
ATOM     55  H   UNL A   1      41.125  29.301  32.604  1.00  0.00     0.167 HD
ATOM     56  C   UNL A   1      43.270  27.536  32.078  1.00  0.00     0.074 A 
ATOM     57  C   UNL A   1      44.173  26.657  31.366  1.00  0.00     0.031 C 
ATOM     58  C   UNL A   1      43.455  27.949  33.356  1.00  0.00     0.034 A 
BRANCH  45  59
ATOM     59  C   UNL A   1      39.221  31.994  35.315  1.00  0.00     0.023 A 
ATOM     60  C   UNL A   1      38.258  31.519  36.229  1.00  0.00     0.012 A 
ATOM     61  C   UNL A   1      39.756  33.286  35.484  1.00  0.00     0.148 A 
ATOM     62  C   UNL A   1      37.811  32.325  37.274  1.00  0.00     0.002 A 
ATOM     63  C   UNL A   1      39.331  34.071  36.551  1.00  0.00     0.091 A 
ATOM     64  F   UNL A   1      40.651  33.733  34.592  1.00  0.00    -0.205 F 
ATOM     65  C   UNL A   1      38.353  33.596  37.441  1.00  0.00     0.022 A 
BRANCH  63  66
ATOM     66  S   UNL A   1      40.027  35.693  36.884  1.00  0.00     0.127 S 
ATOM     67  O   UNL A   1      39.655  36.429  35.676  1.00  0.00    -0.237 OA
ATOM     68  O   UNL A   1      39.309  36.104  38.091  1.00  0.00    -0.237 OA
ATOM     69  O   UNL A   1      41.454  35.475  37.079  1.00  0.00    -0.744 OA
ENDBRANCH  63  66
ENDBRANCH  45  59
BRANCH  46  70
ATOM     70  C   UNL A   1      42.202  26.384  27.633  1.00  0.00     0.023 A 
ATOM     71  C   UNL A   1      43.098  26.955  26.709  1.00  0.00     0.012 A 
ATOM     72  C   UNL A   1      41.814  25.040  27.472  1.00  0.00     0.148 A 
ATOM     73  C   UNL A   1      43.581  26.210  25.632  1.00  0.00     0.002 A 
ATOM     74  C   UNL A   1      42.341  24.287  26.428  1.00  0.00     0.091 A 
ATOM     75  F   UNL A   1      40.945  24.517  28.349  1.00  0.00    -0.205 F 
ATOM     76  C   UNL A   1      43.213  24.873  25.499  1.00  0.00     0.022 A 
BRANCH  74  77
ATOM     77  S   UNL A   1      42.033  22.522  26.281  1.00  0.00     0.127 S 
ATOM     78  O   UNL A   1      42.735  22.194  25.044  1.00  0.00    -0.237 OA
ATOM     79  O   UNL A   1      42.649  21.995  27.499  1.00  0.00    -0.237 OA
ATOM     80  O   UNL A   1      40.582  22.385  26.251  1.00  0.00    -0.744 OA
ENDBRANCH  74  77
ENDBRANCH  46  70
BRANCH  58  81
ATOM     81  C   UNL A   1      44.672  27.445  34.085  1.00  0.00     0.023 A 
ATOM     82  C   UNL A   1      45.865  28.192  34.036  1.00  0.00     0.012 A 
ATOM     83  C   UNL A   1      44.614  26.285  34.883  1.00  0.00     0.148 A 
ATOM     84  C   UNL A   1      46.988  27.780  34.752  1.00  0.00     0.002 A 
ATOM     85  C   UNL A   1      45.726  25.902  35.624  1.00  0.00     0.091 A 
ATOM     86  F   UNL A   1      43.477  25.574  34.900  1.00  0.00    -0.205 F 
ATOM     87  C   UNL A   1      46.916  26.644  35.554  1.00  0.00     0.022 A 
BRANCH  85  88
ATOM     88  S   UNL A   1      45.682  24.499  36.746  1.00  0.00     0.127 S 
ATOM     89  O   UNL A   1      45.414  23.392  35.830  1.00  0.00    -0.237 OA
ATOM     90  O   UNL A   1      47.030  24.504  37.316  1.00  0.00    -0.237 OA
ATOM     91  O   UNL A   1      44.627  24.798  37.704  1.00  0.00    -0.744 OA
ENDBRANCH  85  88
ENDBRANCH  58  81
ENDBRANCH  32  33
ENDBRANCH  24  27
ENDBRANCH  22  23
ENDBRANCH  21  22
ENDBRANCH   1  21
TORSDOF 17
ENDMDL
