MODEL 1
REMARK VINA RESULT:     -12.6      0.000      0.000
REMARK SMILES CCn1ccc2cc(S(=O)(=O)N3CCC[C@@H](C(=O)NCCCNC(=O)c4ccc(-c5c6nc(c(-c7cccc(S(=O)(=O)[O-])c7F)c7ccc([nH]7)c(-c7cccc(S(=O)(=O)[O-])c7F)c7nc(c(-c8cccc(S(=O)(=O)[O-])c8F)c8ccc5[nH]8)C=C7)C=C6)cc4)C3)ccc21
REMARK SMILES IDX 21 1 20 2 19 3 17 4 18 5 16 7 12 8 13 9 89 10 14 11 15 12
REMARK SMILES IDX 9 13 10 14 11 15 8 16 3 17 4 18 92 19 5 20 6 21 91 22 7 23
REMARK SMILES IDX 90 24 2 25 1 26 22 27 23 28 24 29 25 31 26 32 27 33 88 34
REMARK SMILES IDX 28 35 87 36 29 37 30 38 31 39 81 40 32 41 86 42 80 43 82 44
REMARK SMILES IDX 33 45 85 46 79 47 78 48 34 50 66 51 46 52 65 53 47 54 50 55
REMARK SMILES IDX 64 56 83 57 48 58 49 59 63 61 84 62 51 63 35 64 36 65 44 66
REMARK SMILES IDX 37 67 39 68 45 69 38 70 40 71 41 72 42 73 43 74 67 75 68 76
REMARK SMILES IDX 76 77 69 78 71 79 77 80 70 81 72 82 73 83 74 84 75 85 52 86
REMARK SMILES IDX 53 87 61 88 54 89 56 90 62 91 55 92 57 93 58 94 59 95 60 96
REMARK H PARENT 19 6 23 30 82 49 50 60
REMARK Flexibility Score: inf
ROOT
ATOM      1  C   UNL A   1      32.911  30.462  27.187  1.00  0.00     0.042 C 
ENDROOT
BRANCH   1   2
ATOM      2  C   UNL A   1      32.895  29.898  25.774  1.00  0.00     0.117 C 
BRANCH   2   3
ATOM      3  N   UNL A   1      31.616  30.067  25.103  1.00  0.00    -0.356 N 
ATOM      4  C   UNL A   1      30.976  29.259  24.215  1.00  0.00     0.224 C 
ATOM      5  O   UNL A   1      29.861  29.610  23.824  1.00  0.00    -0.275 OA
ATOM      6  H   UNL A   1      31.137  30.897  25.328  1.00  0.00     0.163 HD
BRANCH   4   7
ATOM      7  C   UNL A   1      31.627  27.961  23.749  1.00  0.00     0.093 C 
ATOM      8  N   UNL A   1      31.775  25.523  24.340  1.00  0.00    -0.197 NA
ATOM      9  C   UNL A   1      31.434  25.102  22.964  1.00  0.00     0.102 C 
ATOM     10  C   UNL A   1      31.374  26.879  24.792  1.00  0.00     0.116 C 
ATOM     11  C   UNL A   1      31.661  26.217  21.952  1.00  0.00     0.018 C 
ATOM     12  C   UNL A   1      31.033  27.526  22.403  1.00  0.00     0.016 C 
BRANCH   8  13
ATOM     13  S   UNL A   1      31.691  24.308  25.546  1.00  0.00     0.243 S 
ATOM     14  O   UNL A   1      30.634  23.401  25.166  1.00  0.00    -0.207 OA
ATOM     15  O   UNL A   1      31.705  24.968  26.839  1.00  0.00    -0.207 OA
BRANCH  13  16
ATOM     16  C   UNL A   1      33.209  23.373  25.447  1.00  0.00     0.083 A 
ATOM     17  N   UNL A   1      36.941  21.606  25.299  1.00  0.00    -0.348 N 
ATOM     18  C   UNL A   1      37.764  22.648  25.634  1.00  0.00     0.087 A 
ATOM     19  C   UNL A   1      35.625  22.027  25.321  1.00  0.00     0.048 A 
ATOM     20  C   UNL A   1      36.976  23.754  25.873  1.00  0.00     0.028 A 
ATOM     21  C   UNL A   1      35.623  23.379  25.669  1.00  0.00     0.001 A 
ATOM     22  C   UNL A   1      34.448  21.322  25.055  1.00  0.00     0.028 A 
ATOM     23  C   UNL A   1      34.395  24.065  25.745  1.00  0.00     0.032 A 
ATOM     24  C   UNL A   1      33.245  22.021  25.110  1.00  0.00     0.024 A 
BRANCH  17  25
ATOM     25  C   UNL A   1      37.324  20.253  24.932  1.00  0.00     0.119 C 
ATOM     26  C   UNL A   1      38.726  19.811  25.310  1.00  0.00     0.027 C 
ENDBRANCH  17  25
ENDBRANCH  13  16
ENDBRANCH   8  13
ENDBRANCH   4   7
ENDBRANCH   2   3
ENDBRANCH   1   2
BRANCH   1  27
ATOM     27  C   UNL A   1      34.080  31.391  27.507  1.00  0.00     0.118 C 
BRANCH  27  28
ATOM     28  N   UNL A   1      34.218  31.744  28.904  1.00  0.00    -0.352 N 
ATOM     29  C   UNL A   1      35.265  31.720  29.787  1.00  0.00     0.251 C 
ATOM     30  H   UNL A   1      33.382  32.070  29.305  1.00  0.00     0.163 HD
ATOM     31  O   UNL A   1      35.111  32.388  30.813  1.00  0.00    -0.269 OA
BRANCH  29  32
ATOM     32  C   UNL A   1      36.485  30.885  29.641  1.00  0.00     0.039 A 
ATOM     33  C   UNL A   1      36.540  29.500  29.800  1.00  0.00     0.014 A 
ATOM     34  C   UNL A   1      37.688  31.590  29.449  1.00  0.00     0.014 A 
ATOM     35  C   UNL A   1      37.766  28.862  29.931  1.00  0.00     0.010 A 
ATOM     36  C   UNL A   1      38.917  30.954  29.548  1.00  0.00     0.010 A 
ATOM     37  C   UNL A   1      38.950  29.601  29.862  1.00  0.00    -0.014 A 
BRANCH  37  38
ATOM     38  C   UNL A   1      40.210  28.883  30.007  1.00  0.00     0.031 A 
ATOM     39  C   UNL A   1      40.726  28.880  31.402  1.00  0.00     0.074 A 
ATOM     40  C   UNL A   1      40.807  28.224  28.992  1.00  0.00     0.049 A 
ATOM     41  N   UNL A   1      41.768  29.492  31.862  1.00  0.00    -0.248 NA
ATOM     42  C   UNL A   1      39.880  28.273  32.444  1.00  0.00     0.031 C 
ATOM     43  C   UNL A   1      40.259  27.951  27.658  1.00  0.00     0.029 A 
ATOM     44  N   UNL A   1      41.995  27.552  28.974  1.00  0.00    -0.354 N 
ATOM     45  C   UNL A   1      41.843  29.132  33.207  1.00  0.00     0.074 A 
ATOM     46  C   UNL A   1      40.573  28.549  33.550  1.00  0.00     0.031 C 
ATOM     47  C   UNL A   1      40.985  26.972  27.068  1.00  0.00     0.029 A 
ATOM     48  C   UNL A   1      42.126  26.661  27.907  1.00  0.00     0.049 A 
ATOM     49  H   UNL A   1      42.696  27.685  29.652  1.00  0.00     0.167 HD
ATOM     50  C   UNL A   1      43.035  29.075  33.860  1.00  0.00     0.034 A 
ATOM     51  C   UNL A   1      43.076  25.700  27.784  1.00  0.00     0.034 A 
ATOM     52  C   UNL A   1      44.075  29.737  33.125  1.00  0.00     0.049 A 
ATOM     53  C   UNL A   1      44.214  26.130  28.624  1.00  0.00     0.074 A 
ATOM     54  C   UNL A   1      44.411  31.034  32.808  1.00  0.00     0.029 A 
ATOM     55  N   UNL A   1      44.735  28.915  32.252  1.00  0.00    -0.354 N 
ATOM     56  N   UNL A   1      44.931  27.190  28.383  1.00  0.00    -0.248 NA
ATOM     57  C   UNL A   1      44.378  25.546  29.948  1.00  0.00     0.031 C 
ATOM     58  C   UNL A   1      45.070  30.962  31.544  1.00  0.00     0.029 A 
ATOM     59  C   UNL A   1      45.152  29.623  31.160  1.00  0.00     0.049 A 
ATOM     60  H   UNL A   1      44.887  27.952  32.391  1.00  0.00     0.167 HD
ATOM     61  C   UNL A   1      45.272  27.654  29.639  1.00  0.00     0.074 A 
ATOM     62  C   UNL A   1      45.075  26.521  30.535  1.00  0.00     0.031 C 
ATOM     63  C   UNL A   1      45.373  28.992  29.879  1.00  0.00     0.034 A 
BRANCH  50  64
ATOM     64  C   UNL A   1      43.370  28.028  34.899  1.00  0.00     0.023 A 
ATOM     65  C   UNL A   1      43.871  28.461  36.145  1.00  0.00     0.012 A 
ATOM     66  C   UNL A   1      43.490  26.650  34.601  1.00  0.00     0.148 A 
ATOM     67  C   UNL A   1      44.453  27.564  37.050  1.00  0.00     0.002 A 
ATOM     68  C   UNL A   1      43.999  25.752  35.532  1.00  0.00     0.091 A 
ATOM     69  F   UNL A   1      43.247  26.219  33.359  1.00  0.00    -0.205 F 
ATOM     70  C   UNL A   1      44.501  26.206  36.752  1.00  0.00     0.022 A 
BRANCH  68  71
ATOM     71  S   UNL A   1      44.062  23.987  35.201  1.00  0.00     0.127 S 
ATOM     72  O   UNL A   1      44.651  23.480  36.436  1.00  0.00    -0.237 OA
ATOM     73  O   UNL A   1      42.646  23.670  35.011  1.00  0.00    -0.237 OA
ATOM     74  O   UNL A   1      44.871  23.848  33.997  1.00  0.00    -0.744 OA
ENDBRANCH  68  71
ENDBRANCH  50  64
BRANCH  51  75
ATOM     75  C   UNL A   1      43.005  24.307  27.263  1.00  0.00     0.023 A 
ATOM     76  C   UNL A   1      41.744  23.667  27.221  1.00  0.00     0.012 A 
ATOM     77  C   UNL A   1      44.050  23.752  26.494  1.00  0.00     0.148 A 
ATOM     78  C   UNL A   1      41.500  22.592  26.358  1.00  0.00     0.002 A 
ATOM     79  C   UNL A   1      43.804  22.675  25.643  1.00  0.00     0.091 A 
ATOM     80  F   UNL A   1      45.254  24.335  26.514  1.00  0.00    -0.205 F 
ATOM     81  C   UNL A   1      42.524  22.111  25.551  1.00  0.00     0.022 A 
BRANCH  79  82
ATOM     82  S   UNL A   1      45.077  22.005  24.565  1.00  0.00     0.127 S 
ATOM     83  O   UNL A   1      46.104  21.590  25.523  1.00  0.00    -0.237 OA
ATOM     84  O   UNL A   1      44.373  20.906  23.911  1.00  0.00    -0.237 OA
ATOM     85  O   UNL A   1      45.480  23.107  23.702  1.00  0.00    -0.744 OA
ENDBRANCH  79  82
ENDBRANCH  51  75
BRANCH  63  86
ATOM     86  C   UNL A   1      45.538  29.894  28.690  1.00  0.00     0.023 A 
ATOM     87  C   UNL A   1      44.449  30.406  27.957  1.00  0.00     0.012 A 
ATOM     88  C   UNL A   1      46.836  30.335  28.393  1.00  0.00     0.148 A 
ATOM     89  C   UNL A   1      44.659  31.344  26.941  1.00  0.00     0.002 A 
ATOM     90  C   UNL A   1      47.037  31.291  27.410  1.00  0.00     0.091 A 
ATOM     91  F   UNL A   1      47.852  29.830  29.111  1.00  0.00    -0.205 F 
ATOM     92  C   UNL A   1      45.951  31.797  26.677  1.00  0.00     0.022 A 
BRANCH  90  93
ATOM     93  S   UNL A   1      48.660  31.984  27.088  1.00  0.00     0.127 S 
ATOM     94  O   UNL A   1      48.373  32.965  26.044  1.00  0.00    -0.237 OA
ATOM     95  O   UNL A   1      49.014  32.555  28.388  1.00  0.00    -0.237 OA
ATOM     96  O   UNL A   1      49.503  30.868  26.675  1.00  0.00    -0.744 OA
ENDBRANCH  90  93
ENDBRANCH  63  86
ENDBRANCH  37  38
ENDBRANCH  29  32
ENDBRANCH  27  28
ENDBRANCH   1  27
TORSDOF 16
ENDMDL
MODEL 2
REMARK VINA RESULT:     -12.6      1.739      2.330
REMARK SMILES CCn1ccc2cc(S(=O)(=O)N3CCC[C@@H](C(=O)NCCCNC(=O)c4ccc(-c5c6nc(c(-c7cccc(S(=O)(=O)[O-])c7F)c7ccc([nH]7)c(-c7cccc(S(=O)(=O)[O-])c7F)c7nc(c(-c8cccc(S(=O)(=O)[O-])c8F)c8ccc5[nH]8)C=C7)C=C6)cc4)C3)ccc21
REMARK SMILES IDX 21 1 20 2 19 3 17 4 18 5 16 7 12 8 13 9 89 10 14 11 15 12
REMARK SMILES IDX 9 13 10 14 11 15 8 16 3 17 4 18 92 19 5 20 6 21 91 22 7 23
REMARK SMILES IDX 90 24 2 25 1 26 22 27 23 28 24 29 25 31 26 32 27 33 88 34
REMARK SMILES IDX 28 35 87 36 29 37 30 38 31 39 81 40 32 41 86 42 80 43 82 44
REMARK SMILES IDX 33 45 85 46 79 47 78 48 34 50 66 51 46 52 65 53 47 54 50 55
REMARK SMILES IDX 64 56 83 57 48 58 49 59 63 61 84 62 51 63 35 64 36 65 44 66
REMARK SMILES IDX 37 67 39 68 45 69 38 70 40 71 41 72 42 73 43 74 67 75 68 76
REMARK SMILES IDX 76 77 69 78 71 79 77 80 70 81 72 82 73 83 74 84 75 85 52 86
REMARK SMILES IDX 53 87 61 88 54 89 56 90 62 91 55 92 57 93 58 94 59 95 60 96
REMARK H PARENT 19 6 23 30 82 49 50 60
REMARK Flexibility Score: inf
ROOT
ATOM      1  C   UNL A   1      34.074  31.006  27.158  1.00  0.00     0.042 C 
ENDROOT
BRANCH   1   2
ATOM      2  C   UNL A   1      34.429  29.569  27.510  1.00  0.00     0.117 C 
BRANCH   2   3
ATOM      3  N   UNL A   1      33.271  28.757  27.848  1.00  0.00    -0.356 N 
ATOM      4  C   UNL A   1      32.405  28.081  27.043  1.00  0.00     0.224 C 
ATOM      5  O   UNL A   1      31.521  27.417  27.587  1.00  0.00    -0.275 OA
ATOM      6  H   UNL A   1      33.083  28.684  28.811  1.00  0.00     0.163 HD
BRANCH   4   7
ATOM      7  C   UNL A   1      32.557  28.144  25.528  1.00  0.00     0.093 C 
ATOM      8  N   UNL A   1      31.964  26.868  23.445  1.00  0.00    -0.197 NA
ATOM      9  C   UNL A   1      31.381  28.064  22.801  1.00  0.00     0.102 C 
ATOM     10  C   UNL A   1      32.066  26.833  24.927  1.00  0.00     0.116 C 
ATOM     11  C   UNL A   1      31.860  29.355  23.449  1.00  0.00     0.018 C 
ATOM     12  C   UNL A   1      31.733  29.309  24.962  1.00  0.00     0.016 C 
BRANCH   8  13
ATOM     13  S   UNL A   1      31.604  25.360  22.713  1.00  0.00     0.243 S 
ATOM     14  O   UNL A   1      31.836  25.507  21.296  1.00  0.00    -0.207 OA
ATOM     15  O   UNL A   1      30.329  24.908  23.237  1.00  0.00    -0.207 OA
BRANCH  13  16
ATOM     16  C   UNL A   1      32.826  24.196  23.299  1.00  0.00     0.083 A 
ATOM     17  N   UNL A   1      35.303  21.212  24.725  1.00  0.00    -0.348 N 
ATOM     18  C   UNL A   1      34.427  20.176  24.907  1.00  0.00     0.087 A 
ATOM     19  C   UNL A   1      34.628  22.308  24.221  1.00  0.00     0.048 A 
ATOM     20  C   UNL A   1      33.174  20.603  24.520  1.00  0.00     0.028 A 
ATOM     21  C   UNL A   1      33.284  21.952  24.094  1.00  0.00     0.001 A 
ATOM     22  C   UNL A   1      35.101  23.578  23.879  1.00  0.00     0.028 A 
ATOM     23  C   UNL A   1      32.366  22.907  23.614  1.00  0.00     0.032 A 
ATOM     24  C   UNL A   1      34.176  24.517  23.431  1.00  0.00     0.024 A 
BRANCH  17  25
ATOM     25  C   UNL A   1      36.724  21.238  25.026  1.00  0.00     0.119 C 
ATOM     26  C   UNL A   1      37.505  19.965  24.755  1.00  0.00     0.027 C 
ENDBRANCH  17  25
ENDBRANCH  13  16
ENDBRANCH   8  13
ENDBRANCH   4   7
ENDBRANCH   2   3
ENDBRANCH   1   2
BRANCH   1  27
ATOM     27  C   UNL A   1      34.806  32.076  27.963  1.00  0.00     0.118 C 
BRANCH  27  28
ATOM     28  N   UNL A   1      34.454  32.138  29.365  1.00  0.00    -0.352 N 
ATOM     29  C   UNL A   1      35.172  32.038  30.527  1.00  0.00     0.251 C 
ATOM     30  H   UNL A   1      33.493  32.282  29.517  1.00  0.00     0.163 HD
ATOM     31  O   UNL A   1      34.605  32.453  31.541  1.00  0.00    -0.269 OA
BRANCH  29  32
ATOM     32  C   UNL A   1      36.502  31.386  30.654  1.00  0.00     0.039 A 
ATOM     33  C   UNL A   1      37.724  32.052  30.738  1.00  0.00     0.014 A 
ATOM     34  C   UNL A   1      36.504  29.981  30.555  1.00  0.00     0.014 A 
ATOM     35  C   UNL A   1      38.912  31.356  30.559  1.00  0.00     0.010 A 
ATOM     36  C   UNL A   1      37.689  29.275  30.407  1.00  0.00     0.010 A 
ATOM     37  C   UNL A   1      38.886  29.977  30.337  1.00  0.00    -0.014 A 
BRANCH  37  38
ATOM     38  C   UNL A   1      40.160  29.293  30.155  1.00  0.00     0.031 A 
ATOM     39  C   UNL A   1      40.877  29.038  31.434  1.00  0.00     0.074 A 
ATOM     40  C   UNL A   1      40.608  28.869  28.955  1.00  0.00     0.049 A 
ATOM     41  N   UNL A   1      41.969  29.589  31.853  1.00  0.00    -0.248 NA
ATOM     42  C   UNL A   1      40.199  28.207  32.444  1.00  0.00     0.031 C 
ATOM     43  C   UNL A   1      39.872  28.840  27.685  1.00  0.00     0.029 A 
ATOM     44  N   UNL A   1      41.786  28.260  28.634  1.00  0.00    -0.354 N 
ATOM     45  C   UNL A   1      42.245  28.976  33.074  1.00  0.00     0.074 A 
ATOM     46  C   UNL A   1      41.046  28.289  33.472  1.00  0.00     0.031 C 
ATOM     47  C   UNL A   1      40.512  28.024  26.815  1.00  0.00     0.029 A 
ATOM     48  C   UNL A   1      41.768  27.600  27.404  1.00  0.00     0.049 A 
ATOM     49  H   UNL A   1      42.578  28.285  29.218  1.00  0.00     0.167 HD
ATOM     50  C   UNL A   1      43.521  28.840  33.526  1.00  0.00     0.034 A 
ATOM     51  C   UNL A   1      42.698  26.718  26.959  1.00  0.00     0.034 A 
ATOM     52  C   UNL A   1      44.435  29.672  32.797  1.00  0.00     0.049 A 
ATOM     53  C   UNL A   1      43.943  27.020  27.697  1.00  0.00     0.074 A 
ATOM     54  C   UNL A   1      44.708  31.017  32.699  1.00  0.00     0.029 A 
ATOM     55  N   UNL A   1      44.966  29.061  31.692  1.00  0.00    -0.354 N 
ATOM     56  N   UNL A   1      44.606  28.133  27.570  1.00  0.00    -0.248 NA
ATOM     57  C   UNL A   1      44.306  26.195  28.841  1.00  0.00     0.031 C 
ATOM     58  C   UNL A   1      45.174  31.219  31.365  1.00  0.00     0.029 A 
ATOM     59  C   UNL A   1      45.211  29.984  30.715  1.00  0.00     0.049 A 
ATOM     60  H   UNL A   1      45.147  28.096  31.614  1.00  0.00     0.167 HD
ATOM     61  C   UNL A   1      45.125  28.356  28.832  1.00  0.00     0.074 A 
ATOM     62  C   UNL A   1      45.073  27.063  29.504  1.00  0.00     0.031 C 
ATOM     63  C   UNL A   1      45.247  29.624  29.316  1.00  0.00     0.034 A 
BRANCH  50  64
ATOM     64  C   UNL A   1      44.016  27.624  34.278  1.00  0.00     0.023 A 
ATOM     65  C   UNL A   1      44.814  27.827  35.423  1.00  0.00     0.012 A 
ATOM     66  C   UNL A   1      43.976  26.313  33.746  1.00  0.00     0.148 A 
ATOM     67  C   UNL A   1      45.528  26.774  36.013  1.00  0.00     0.002 A 
ATOM     68  C   UNL A   1      44.624  25.258  34.376  1.00  0.00     0.091 A 
ATOM     69  F   UNL A   1      43.430  26.104  32.544  1.00  0.00    -0.205 F 
ATOM     70  C   UNL A   1      45.419  25.486  35.501  1.00  0.00     0.022 A 
BRANCH  68  71
ATOM     71  S   UNL A   1      44.497  23.573  33.765  1.00  0.00     0.127 S 
ATOM     72  O   UNL A   1      43.151  23.207  34.196  1.00  0.00    -0.237 OA
ATOM     73  O   UNL A   1      44.656  23.769  32.323  1.00  0.00    -0.237 OA
ATOM     74  O   UNL A   1      45.594  22.850  34.393  1.00  0.00    -0.744 OA
ENDBRANCH  68  71
ENDBRANCH  50  64
BRANCH  51  75
ATOM     75  C   UNL A   1      42.565  25.452  26.186  1.00  0.00     0.023 A 
ATOM     76  C   UNL A   1      43.512  25.180  25.170  1.00  0.00     0.012 A 
ATOM     77  C   UNL A   1      41.779  24.379  26.657  1.00  0.00     0.148 A 
ATOM     78  C   UNL A   1      43.750  23.874  24.726  1.00  0.00     0.002 A 
ATOM     79  C   UNL A   1      42.014  23.081  26.204  1.00  0.00     0.091 A 
ATOM     80  F   UNL A   1      40.875  24.606  27.617  1.00  0.00    -0.205 F 
ATOM     81  C   UNL A   1      43.017  22.821  25.261  1.00  0.00     0.022 A 
BRANCH  79  82
ATOM     82  S   UNL A   1      41.110  21.669  26.855  1.00  0.00     0.127 S 
ATOM     83  O   UNL A   1      39.721  22.038  26.577  1.00  0.00    -0.237 OA
ATOM     84  O   UNL A   1      41.627  20.576  26.037  1.00  0.00    -0.237 OA
ATOM     85  O   UNL A   1      41.439  21.614  28.273  1.00  0.00    -0.744 OA
ENDBRANCH  79  82
ENDBRANCH  51  75
BRANCH  63  86
ATOM     86  C   UNL A   1      45.227  30.746  28.319  1.00  0.00     0.023 A 
ATOM     87  C   UNL A   1      44.036  31.346  27.861  1.00  0.00     0.012 A 
ATOM     88  C   UNL A   1      46.462  31.290  27.938  1.00  0.00     0.148 A 
ATOM     89  C   UNL A   1      44.085  32.472  27.032  1.00  0.00     0.002 A 
ATOM     90  C   UNL A   1      46.506  32.427  27.146  1.00  0.00     0.091 A 
ATOM     91  F   UNL A   1      47.577  30.698  28.392  1.00  0.00    -0.205 F 
ATOM     92  C   UNL A   1      45.318  33.020  26.686  1.00  0.00     0.022 A 
BRANCH  90  93
ATOM     93  S   UNL A   1      48.056  33.236  26.745  1.00  0.00     0.127 S 
ATOM     94  O   UNL A   1      47.660  34.138  25.666  1.00  0.00    -0.237 OA
ATOM     95  O   UNL A   1      48.394  33.897  28.006  1.00  0.00    -0.237 OA
ATOM     96  O   UNL A   1      48.979  32.176  26.359  1.00  0.00    -0.744 OA
ENDBRANCH  90  93
ENDBRANCH  63  86
ENDBRANCH  37  38
ENDBRANCH  29  32
ENDBRANCH  27  28
ENDBRANCH   1  27
TORSDOF 16
ENDMDL
MODEL 3
REMARK VINA RESULT:     -12.5      2.672      8.115
REMARK SMILES CCn1ccc2cc(S(=O)(=O)N3CCC[C@@H](C(=O)NCCCNC(=O)c4ccc(-c5c6nc(c(-c7cccc(S(=O)(=O)[O-])c7F)c7ccc([nH]7)c(-c7cccc(S(=O)(=O)[O-])c7F)c7nc(c(-c8cccc(S(=O)(=O)[O-])c8F)c8ccc5[nH]8)C=C7)C=C6)cc4)C3)ccc21
REMARK SMILES IDX 21 1 20 2 19 3 17 4 18 5 16 7 12 8 13 9 89 10 14 11 15 12
REMARK SMILES IDX 9 13 10 14 11 15 8 16 3 17 4 18 92 19 5 20 6 21 91 22 7 23
REMARK SMILES IDX 90 24 2 25 1 26 22 27 23 28 24 29 25 31 26 32 27 33 88 34
REMARK SMILES IDX 28 35 87 36 29 37 30 38 31 39 81 40 32 41 86 42 80 43 82 44
REMARK SMILES IDX 33 45 85 46 79 47 78 48 34 50 66 51 46 52 65 53 47 54 50 55
REMARK SMILES IDX 64 56 83 57 48 58 49 59 63 61 84 62 51 63 35 64 36 65 44 66
REMARK SMILES IDX 37 67 39 68 45 69 38 70 40 71 41 72 42 73 43 74 67 75 68 76
REMARK SMILES IDX 76 77 69 78 71 79 77 80 70 81 72 82 73 83 74 84 75 85 52 86
REMARK SMILES IDX 53 87 61 88 54 89 56 90 62 91 55 92 57 93 58 94 59 95 60 96
REMARK H PARENT 19 6 23 30 82 49 50 60
REMARK Flexibility Score: inf
ROOT
ATOM      1  C   UNL A   1      38.644  21.296  25.634  1.00  0.00     0.042 C 
ENDROOT
BRANCH   1   2
ATOM      2  C   UNL A   1      37.247  21.892  25.709  1.00  0.00     0.117 C 
BRANCH   2   3
ATOM      3  N   UNL A   1      36.837  22.556  24.482  1.00  0.00    -0.356 N 
ATOM      4  C   UNL A   1      35.610  22.652  23.902  1.00  0.00     0.224 C 
ATOM      5  O   UNL A   1      35.517  23.322  22.871  1.00  0.00    -0.275 OA
ATOM      6  H   UNL A   1      37.564  23.007  23.993  1.00  0.00     0.163 HD
BRANCH   4   7
ATOM      7  C   UNL A   1      34.406  21.964  24.533  1.00  0.00     0.093 C 
ATOM      8  N   UNL A   1      32.294  22.479  25.795  1.00  0.00    -0.197 NA
ATOM      9  C   UNL A   1      31.468  21.675  24.869  1.00  0.00     0.102 C 
ATOM     10  C   UNL A   1      33.604  22.993  25.321  1.00  0.00     0.116 C 
ATOM     11  C   UNL A   1      32.302  20.685  24.069  1.00  0.00     0.018 C 
ATOM     12  C   UNL A   1      33.519  21.347  23.443  1.00  0.00     0.016 C 
BRANCH   8  13
ATOM     13  S   UNL A   1      31.446  23.533  26.848  1.00  0.00     0.243 S 
ATOM     14  O   UNL A   1      32.329  23.837  27.950  1.00  0.00    -0.207 OA
ATOM     15  O   UNL A   1      30.123  22.976  27.059  1.00  0.00    -0.207 OA
BRANCH  13  16
ATOM     16  C   UNL A   1      31.208  25.066  25.964  1.00  0.00     0.083 A 
ATOM     17  N   UNL A   1      30.871  28.818  24.267  1.00  0.00    -0.348 N 
ATOM     18  C   UNL A   1      31.570  29.595  25.151  1.00  0.00     0.087 A 
ATOM     19  C   UNL A   1      30.901  27.500  24.682  1.00  0.00     0.048 A 
ATOM     20  C   UNL A   1      32.056  28.776  26.148  1.00  0.00     0.028 A 
ATOM     21  C   UNL A   1      31.633  27.450  25.870  1.00  0.00     0.001 A 
ATOM     22  C   UNL A   1      30.335  26.360  24.104  1.00  0.00     0.028 A 
ATOM     23  C   UNL A   1      31.801  26.212  26.519  1.00  0.00     0.032 A 
ATOM     24  C   UNL A   1      30.489  25.148  24.772  1.00  0.00     0.024 A 
BRANCH  17  25
ATOM     25  C   UNL A   1      30.153  29.249  23.079  1.00  0.00     0.119 C 
ATOM     26  C   UNL A   1      29.210  30.428  23.237  1.00  0.00     0.027 C 
ENDBRANCH  17  25
ENDBRANCH  13  16
ENDBRANCH   8  13
ENDBRANCH   4   7
ENDBRANCH   2   3
ENDBRANCH   1   2
BRANCH   1  27
ATOM     27  C   UNL A   1      38.704  19.771  25.601  1.00  0.00     0.118 C 
BRANCH  27  28
ATOM     28  N   UNL A   1      40.013  19.214  25.335  1.00  0.00    -0.352 N 
ATOM     29  C   UNL A   1      41.247  19.380  25.907  1.00  0.00     0.251 C 
ATOM     30  H   UNL A   1      40.019  18.581  24.583  1.00  0.00     0.163 HD
ATOM     31  O   UNL A   1      42.081  18.512  25.635  1.00  0.00    -0.269 OA
BRANCH  29  32
ATOM     32  C   UNL A   1      41.659  20.554  26.719  1.00  0.00     0.039 A 
ATOM     33  C   UNL A   1      41.405  20.726  28.079  1.00  0.00     0.014 A 
ATOM     34  C   UNL A   1      42.243  21.617  26.003  1.00  0.00     0.014 A 
ATOM     35  C   UNL A   1      41.571  21.972  28.668  1.00  0.00     0.010 A 
ATOM     36  C   UNL A   1      42.441  22.857  26.593  1.00  0.00     0.010 A 
ATOM     37  C   UNL A   1      42.034  23.048  27.907  1.00  0.00    -0.014 A 
BRANCH  37  38
ATOM     38  C   UNL A   1      42.190  24.335  28.573  1.00  0.00     0.031 A 
ATOM     39  C   UNL A   1      41.081  25.283  28.283  1.00  0.00     0.074 A 
ATOM     40  C   UNL A   1      43.200  24.610  29.425  1.00  0.00     0.049 A 
ATOM     41  N   UNL A   1      41.131  26.370  27.583  1.00  0.00    -0.248 NA
ATOM     42  C   UNL A   1      39.717  24.879  28.665  1.00  0.00     0.031 C 
ATOM     43  C   UNL A   1      44.188  23.674  29.973  1.00  0.00     0.029 A 
ATOM     44  N   UNL A   1      43.490  25.772  30.080  1.00  0.00    -0.354 N 
ATOM     45  C   UNL A   1      39.849  26.913  27.655  1.00  0.00     0.074 A 
ATOM     46  C   UNL A   1      38.989  25.877  28.161  1.00  0.00     0.031 C 
ATOM     47  C   UNL A   1      44.788  24.234  31.049  1.00  0.00     0.029 A 
ATOM     48  C   UNL A   1      44.344  25.609  31.172  1.00  0.00     0.049 A 
ATOM     49  H   UNL A   1      43.130  26.646  29.805  1.00  0.00     0.167 HD
ATOM     50  C   UNL A   1      39.643  28.255  27.568  1.00  0.00     0.034 A 
ATOM     51  C   UNL A   1      44.593  26.534  32.134  1.00  0.00     0.034 A 
ATOM     52  C   UNL A   1      40.801  28.940  27.068  1.00  0.00     0.049 A 
ATOM     53  C   UNL A   1      44.290  27.851  31.532  1.00  0.00     0.074 A 
ATOM     54  C   UNL A   1      41.458  29.052  25.864  1.00  0.00     0.029 A 
ATOM     55  N   UNL A   1      41.669  29.332  28.051  1.00  0.00    -0.354 N 
ATOM     56  N   UNL A   1      44.962  28.365  30.542  1.00  0.00    -0.248 NA
ATOM     57  C   UNL A   1      43.015  28.488  31.827  1.00  0.00     0.031 C 
ATOM     58  C   UNL A   1      42.831  29.259  26.194  1.00  0.00     0.029 A 
ATOM     59  C   UNL A   1      42.953  29.309  27.583  1.00  0.00     0.049 A 
ATOM     60  H   UNL A   1      41.406  29.595  28.963  1.00  0.00     0.167 HD
ATOM     61  C   UNL A   1      44.012  29.067  29.825  1.00  0.00     0.074 A 
ATOM     62  C   UNL A   1      42.901  29.264  30.748  1.00  0.00     0.031 C 
ATOM     63  C   UNL A   1      44.085  29.140  28.466  1.00  0.00     0.034 A 
BRANCH  50  64
ATOM     64  C   UNL A   1      38.597  28.994  28.375  1.00  0.00     0.023 A 
ATOM     65  C   UNL A   1      37.792  29.943  27.712  1.00  0.00     0.012 A 
ATOM     66  C   UNL A   1      38.575  29.007  29.789  1.00  0.00     0.148 A 
ATOM     67  C   UNL A   1      36.998  30.853  28.424  1.00  0.00     0.002 A 
ATOM     68  C   UNL A   1      37.730  29.859  30.490  1.00  0.00     0.091 A 
ATOM     69  F   UNL A   1      39.478  28.295  30.471  1.00  0.00    -0.205 F 
ATOM     70  C   UNL A   1      36.952  30.799  29.813  1.00  0.00     0.022 A 
BRANCH  68  71
ATOM     71  S   UNL A   1      37.621  29.813  32.283  1.00  0.00     0.127 S 
ATOM     72  O   UNL A   1      38.932  30.328  32.668  1.00  0.00    -0.237 OA
ATOM     73  O   UNL A   1      36.499  30.719  32.535  1.00  0.00    -0.237 OA
ATOM     74  O   UNL A   1      37.352  28.422  32.619  1.00  0.00    -0.744 OA
ENDBRANCH  68  71
ENDBRANCH  50  64
BRANCH  51  75
ATOM     75  C   UNL A   1      44.779  26.400  33.605  1.00  0.00     0.023 A 
ATOM     76  C   UNL A   1      45.974  26.896  34.180  1.00  0.00     0.012 A 
ATOM     77  C   UNL A   1      43.693  26.142  34.466  1.00  0.00     0.148 A 
ATOM     78  C   UNL A   1      46.044  27.231  35.537  1.00  0.00     0.002 A 
ATOM     79  C   UNL A   1      43.772  26.469  35.819  1.00  0.00     0.091 A 
ATOM     80  F   UNL A   1      42.550  25.672  33.951  1.00  0.00    -0.205 F 
ATOM     81  C   UNL A   1      44.935  27.040  36.352  1.00  0.00     0.022 A 
BRANCH  79  82
ATOM     82  S   UNL A   1      42.375  26.257  36.932  1.00  0.00     0.127 S 
ATOM     83  O   UNL A   1      42.031  24.848  36.729  1.00  0.00    -0.237 OA
ATOM     84  O   UNL A   1      42.973  26.559  38.229  1.00  0.00    -0.237 OA
ATOM     85  O   UNL A   1      41.358  27.190  36.466  1.00  0.00    -0.744 OA
ENDBRANCH  79  82
ENDBRANCH  51  75
BRANCH  63  86
ATOM     86  C   UNL A   1      45.409  28.834  27.830  1.00  0.00     0.023 A 
ATOM     87  C   UNL A   1      46.477  29.754  27.797  1.00  0.00     0.012 A 
ATOM     88  C   UNL A   1      45.614  27.525  27.367  1.00  0.00     0.148 A 
ATOM     89  C   UNL A   1      47.729  29.367  27.307  1.00  0.00     0.002 A 
ATOM     90  C   UNL A   1      46.865  27.136  26.916  1.00  0.00     0.091 A 
ATOM     91  F   UNL A   1      44.579  26.673  27.414  1.00  0.00    -0.205 F 
ATOM     92  C   UNL A   1      47.926  28.055  26.879  1.00  0.00     0.022 A 
BRANCH  90  93
ATOM     93  S   UNL A   1      47.209  25.441  26.442  1.00  0.00     0.127 S 
ATOM     94  O   UNL A   1      46.277  25.236  25.336  1.00  0.00    -0.237 OA
ATOM     95  O   UNL A   1      48.619  25.509  26.054  1.00  0.00    -0.237 OA
ATOM     96  O   UNL A   1      46.954  24.628  27.626  1.00  0.00    -0.744 OA
ENDBRANCH  90  93
ENDBRANCH  63  86
ENDBRANCH  37  38
ENDBRANCH  29  32
ENDBRANCH  27  28
ENDBRANCH   1  27
TORSDOF 16
ENDMDL
