MODEL 1
REMARK VINA RESULT:     -12.7      0.000      0.000
REMARK SMILES CC(C)(C(=O)NCCCNC(=O)c1ccc(-c2c3nc(c(-c4cccc(S(=O)(=O)[O-])c4F)c4ccc([nH]4)c(-c4cccc(S(=O)(=O)[O-])c4F)c4nc(c(-c5cccc(S(=O)(=O)[O-])c5F)c5ccc2[nH]5)C=C4)C=C3)cc1)c1ccc(NS(=O)(=O)c2c(F)cc(F)cc2F)cc1
REMARK SMILES IDX 7 1 6 2 4 3 5 4 2 6 1 7 3 8 76 9 77 10 94 11 78 12 93 13
REMARK SMILES IDX 79 14 80 15 81 17 82 18 83 19 84 20 85 21 91 22 86 23 87 24
REMARK SMILES IDX 90 25 92 26 88 27 89 28 8 29 9 30 10 31 11 32 12 34 13 35
REMARK SMILES IDX 14 36 75 37 15 38 74 39 16 40 17 41 18 42 68 43 19 44 73 45
REMARK SMILES IDX 67 46 69 47 20 48 72 49 66 50 65 51 21 53 53 54 33 55 52 56
REMARK SMILES IDX 34 57 37 58 51 59 70 60 35 61 36 62 50 64 71 65 38 66 22 67
REMARK SMILES IDX 23 68 31 69 24 70 26 71 32 72 25 73 27 74 28 75 29 76 30 77
REMARK SMILES IDX 54 78 55 79 63 80 56 81 58 82 64 83 57 84 59 85 60 86 61 87
REMARK SMILES IDX 62 88 39 89 40 90 48 91 41 92 43 93 49 94 42 95 44 96 45 97
REMARK SMILES IDX 46 98 47 99
REMARK H PARENT 6 5 80 16 10 33 69 52 37 63
REMARK Flexibility Score: inf
ROOT
ATOM      1  C   UNL A   1      31.550  30.811  25.773  1.00  0.00     0.117 C 
ENDROOT
BRANCH   1   2
ATOM      2  N   UNL A   1      31.566  29.599  26.569  1.00  0.00    -0.355 N 
ATOM      3  C   UNL A   1      31.643  28.276  26.267  1.00  0.00     0.230 C 
ATOM      4  O   UNL A   1      31.433  27.532  27.233  1.00  0.00    -0.274 OA
ATOM      5  H   UNL A   1      31.508  29.771  27.537  1.00  0.00     0.163 HD
BRANCH   3   6
ATOM      6  C   UNL A   1      31.973  27.722  24.837  1.00  0.00     0.068 C 
ATOM      7  C   UNL A   1      30.667  27.721  24.014  1.00  0.00     0.026 C 
ATOM      8  C   UNL A   1      33.040  28.582  24.131  1.00  0.00     0.026 C 
BRANCH   6   9
ATOM      9  C   UNL A   1      32.584  26.290  24.942  1.00  0.00    -0.033 A 
ATOM     10  C   UNL A   1      33.905  26.046  25.346  1.00  0.00     0.007 A 
ATOM     11  C   UNL A   1      31.796  25.168  24.625  1.00  0.00     0.007 A 
ATOM     12  C   UNL A   1      34.450  24.755  25.313  1.00  0.00     0.027 A 
ATOM     13  C   UNL A   1      32.357  23.892  24.535  1.00  0.00     0.027 A 
ATOM     14  C   UNL A   1      33.710  23.695  24.798  1.00  0.00     0.049 A 
BRANCH  14  15
ATOM     15  N   UNL A   1      34.242  22.411  24.485  1.00  0.00    -0.279 N 
ATOM     16  H   UNL A   1      34.372  22.196  23.532  1.00  0.00     0.180 HD
BRANCH  15  17
ATOM     17  S   UNL A   1      34.664  21.236  25.603  1.00  0.00     0.267 S 
ATOM     18  O   UNL A   1      36.110  21.281  25.713  1.00  0.00    -0.201 OA
ATOM     19  O   UNL A   1      33.823  21.456  26.758  1.00  0.00    -0.201 OA
BRANCH  17  20
ATOM     20  C   UNL A   1      34.208  19.682  24.929  1.00  0.00     0.159 A 
ATOM     21  C   UNL A   1      35.164  18.720  24.626  1.00  0.00     0.149 A 
ATOM     22  C   UNL A   1      32.858  19.371  24.803  1.00  0.00     0.149 A 
ATOM     23  F   UNL A   1      36.472  19.000  24.681  1.00  0.00    -0.205 F 
ATOM     24  C   UNL A   1      34.778  17.429  24.275  1.00  0.00     0.080 A 
ATOM     25  C   UNL A   1      32.458  18.090  24.437  1.00  0.00     0.080 A 
ATOM     26  F   UNL A   1      31.906  20.285  25.025  1.00  0.00    -0.205 F 
ATOM     27  C   UNL A   1      33.424  17.124  24.195  1.00  0.00     0.129 A 
ATOM     28  F   UNL A   1      33.044  15.881  23.876  1.00  0.00    -0.207 F 
ENDBRANCH  17  20
ENDBRANCH  15  17
ENDBRANCH  14  15
ENDBRANCH   6   9
ENDBRANCH   3   6
ENDBRANCH   1   2
BRANCH   1  29
ATOM     29  C   UNL A   1      31.398  32.058  26.642  1.00  0.00     0.042 C 
BRANCH  29  30
ATOM     30  C   UNL A   1      32.720  32.636  27.144  1.00  0.00     0.118 C 
BRANCH  30  31
ATOM     31  N   UNL A   1      32.577  33.996  27.646  1.00  0.00    -0.352 N 
ATOM     32  C   UNL A   1      33.205  34.627  28.692  1.00  0.00     0.251 C 
ATOM     33  H   UNL A   1      31.928  34.551  27.157  1.00  0.00     0.163 HD
ATOM     34  O   UNL A   1      32.776  35.710  29.083  1.00  0.00    -0.269 OA
BRANCH  32  35
ATOM     35  C   UNL A   1      34.380  34.016  29.353  1.00  0.00     0.039 A 
ATOM     36  C   UNL A   1      35.660  34.470  29.014  1.00  0.00     0.014 A 
ATOM     37  C   UNL A   1      34.233  32.967  30.264  1.00  0.00     0.014 A 
ATOM     38  C   UNL A   1      36.784  33.911  29.631  1.00  0.00     0.010 A 
ATOM     39  C   UNL A   1      35.346  32.461  30.928  1.00  0.00     0.010 A 
ATOM     40  C   UNL A   1      36.634  32.920  30.613  1.00  0.00    -0.014 A 
BRANCH  40  41
ATOM     41  C   UNL A   1      37.801  32.335  31.321  1.00  0.00     0.031 A 
ATOM     42  C   UNL A   1      38.560  31.189  30.703  1.00  0.00     0.074 A 
ATOM     43  C   UNL A   1      38.111  32.754  32.563  1.00  0.00     0.049 A 
ATOM     44  N   UNL A   1      39.517  30.462  31.215  1.00  0.00    -0.248 NA
ATOM     45  C   UNL A   1      38.165  30.788  29.342  1.00  0.00     0.031 C 
ATOM     46  C   UNL A   1      37.406  33.805  33.301  1.00  0.00     0.029 A 
ATOM     47  N   UNL A   1      39.075  32.323  33.440  1.00  0.00    -0.354 N 
ATOM     48  C   UNL A   1      39.803  29.487  30.266  1.00  0.00     0.074 A 
ATOM     49  C   UNL A   1      38.904  29.705  29.154  1.00  0.00     0.031 C 
ATOM     50  C   UNL A   1      37.957  33.933  34.518  1.00  0.00     0.029 A 
ATOM     51  C   UNL A   1      39.035  32.959  34.659  1.00  0.00     0.049 A 
ATOM     52  H   UNL A   1      39.732  31.626  33.217  1.00  0.00     0.167 HD
ATOM     53  C   UNL A   1      40.747  28.518  30.301  1.00  0.00     0.034 A 
ATOM     54  C   UNL A   1      39.780  32.774  35.767  1.00  0.00     0.034 A 
ATOM     55  C   UNL A   1      41.691  28.352  31.373  1.00  0.00     0.049 A 
ATOM     56  C   UNL A   1      40.876  31.744  35.750  1.00  0.00     0.074 A 
ATOM     57  C   UNL A   1      42.747  27.463  31.459  1.00  0.00     0.029 A 
ATOM     58  N   UNL A   1      41.699  29.099  32.541  1.00  0.00    -0.354 N 
ATOM     59  N   UNL A   1      41.227  30.931  34.782  1.00  0.00    -0.248 NA
ATOM     60  C   UNL A   1      41.701  31.627  36.962  1.00  0.00     0.031 C 
ATOM     61  C   UNL A   1      43.398  27.676  32.680  1.00  0.00     0.029 A 
ATOM     62  C   UNL A   1      42.745  28.697  33.353  1.00  0.00     0.049 A 
ATOM     63  H   UNL A   1      41.055  29.811  32.760  1.00  0.00     0.167 HD
ATOM     64  C   UNL A   1      42.332  30.232  35.255  1.00  0.00     0.074 A 
ATOM     65  C   UNL A   1      42.603  30.728  36.588  1.00  0.00     0.031 C 
ATOM     66  C   UNL A   1      43.043  29.250  34.648  1.00  0.00     0.034 A 
BRANCH  53  67
ATOM     67  C   UNL A   1      40.856  27.606  29.109  1.00  0.00     0.023 A 
ATOM     68  C   UNL A   1      40.059  26.445  29.056  1.00  0.00     0.012 A 
ATOM     69  C   UNL A   1      41.700  27.915  28.026  1.00  0.00     0.148 A 
ATOM     70  C   UNL A   1      40.121  25.589  27.959  1.00  0.00     0.002 A 
ATOM     71  C   UNL A   1      41.730  27.075  26.917  1.00  0.00     0.091 A 
ATOM     72  F   UNL A   1      42.472  29.009  28.104  1.00  0.00    -0.205 F 
ATOM     73  C   UNL A   1      40.949  25.908  26.886  1.00  0.00     0.022 A 
BRANCH  71  74
ATOM     74  S   UNL A   1      42.715  27.443  25.460  1.00  0.00     0.127 S 
ATOM     75  O   UNL A   1      42.461  26.270  24.626  1.00  0.00    -0.237 OA
ATOM     76  O   UNL A   1      42.104  28.681  24.973  1.00  0.00    -0.237 OA
ATOM     77  O   UNL A   1      44.082  27.596  25.938  1.00  0.00    -0.744 OA
ENDBRANCH  71  74
ENDBRANCH  53  67
BRANCH  54  78
ATOM     78  C   UNL A   1      39.567  33.649  36.955  1.00  0.00     0.023 A 
ATOM     79  C   UNL A   1      39.994  34.990  36.899  1.00  0.00     0.012 A 
ATOM     80  C   UNL A   1      38.909  33.184  38.109  1.00  0.00     0.148 A 
ATOM     81  C   UNL A   1      39.791  35.846  37.982  1.00  0.00     0.002 A 
ATOM     82  C   UNL A   1      38.665  34.057  39.164  1.00  0.00     0.091 A 
ATOM     83  F   UNL A   1      38.526  31.901  38.152  1.00  0.00    -0.205 F 
ATOM     84  C   UNL A   1      39.117  35.384  39.109  1.00  0.00     0.022 A 
BRANCH  82  85
ATOM     85  S   UNL A   1      37.684  33.572  40.590  1.00  0.00     0.127 S 
ATOM     86  O   UNL A   1      37.542  34.838  41.303  1.00  0.00    -0.237 OA
ATOM     87  O   UNL A   1      36.456  33.075  39.966  1.00  0.00    -0.237 OA
ATOM     88  O   UNL A   1      38.467  32.542  41.261  1.00  0.00    -0.744 OA
ENDBRANCH  82  85
ENDBRANCH  54  78
BRANCH  66  89
ATOM     89  C   UNL A   1      44.204  28.661  35.402  1.00  0.00     0.023 A 
ATOM     90  C   UNL A   1      45.495  29.187  35.204  1.00  0.00     0.012 A 
ATOM     91  C   UNL A   1      44.005  27.654  36.365  1.00  0.00     0.148 A 
ATOM     92  C   UNL A   1      46.576  28.704  35.940  1.00  0.00     0.002 A 
ATOM     93  C   UNL A   1      45.080  27.205  37.123  1.00  0.00     0.091 A 
ATOM     94  F   UNL A   1      42.772  27.150  36.522  1.00  0.00    -0.205 F 
ATOM     95  C   UNL A   1      46.367  27.723  36.907  1.00  0.00     0.022 A 
BRANCH  93  96
ATOM     96  S   UNL A   1      44.876  26.007  38.447  1.00  0.00     0.127 S 
ATOM     97  O   UNL A   1      44.392  24.835  37.719  1.00  0.00    -0.237 OA
ATOM     98  O   UNL A   1      46.237  25.879  38.972  1.00  0.00    -0.237 OA
ATOM     99  O   UNL A   1      43.930  26.608  39.379  1.00  0.00    -0.744 OA
ENDBRANCH  93  96
ENDBRANCH  66  89
ENDBRANCH  40  41
ENDBRANCH  32  35
ENDBRANCH  30  31
ENDBRANCH  29  30
ENDBRANCH   1  29
TORSDOF 17
ENDMDL
MODEL 2
REMARK VINA RESULT:     -12.6      1.349      2.117
REMARK SMILES CC(C)(C(=O)NCCCNC(=O)c1ccc(-c2c3nc(c(-c4cccc(S(=O)(=O)[O-])c4F)c4ccc([nH]4)c(-c4cccc(S(=O)(=O)[O-])c4F)c4nc(c(-c5cccc(S(=O)(=O)[O-])c5F)c5ccc2[nH]5)C=C4)C=C3)cc1)c1ccc(NS(=O)(=O)c2c(F)cc(F)cc2F)cc1
REMARK SMILES IDX 7 1 6 2 4 3 5 4 2 6 1 7 3 8 76 9 77 10 94 11 78 12 93 13
REMARK SMILES IDX 79 14 80 15 81 17 82 18 83 19 84 20 85 21 91 22 86 23 87 24
REMARK SMILES IDX 90 25 92 26 88 27 89 28 8 29 9 30 10 31 11 32 12 34 13 35
REMARK SMILES IDX 14 36 75 37 15 38 74 39 16 40 17 41 18 42 68 43 19 44 73 45
REMARK SMILES IDX 67 46 69 47 20 48 72 49 66 50 65 51 21 53 53 54 33 55 52 56
REMARK SMILES IDX 34 57 37 58 51 59 70 60 35 61 36 62 50 64 71 65 38 66 22 67
REMARK SMILES IDX 23 68 31 69 24 70 26 71 32 72 25 73 27 74 28 75 29 76 30 77
REMARK SMILES IDX 54 78 55 79 63 80 56 81 58 82 64 83 57 84 59 85 60 86 61 87
REMARK SMILES IDX 62 88 39 89 40 90 48 91 41 92 43 93 49 94 42 95 44 96 45 97
REMARK SMILES IDX 46 98 47 99
REMARK H PARENT 6 5 80 16 10 33 69 52 37 63
REMARK Flexibility Score: inf
ROOT
ATOM      1  C   UNL A   1      31.151  31.181  26.501  1.00  0.00     0.117 C 
ENDROOT
BRANCH   1   2
ATOM      2  N   UNL A   1      31.702  30.465  25.366  1.00  0.00    -0.355 N 
ATOM      3  C   UNL A   1      32.426  29.322  25.237  1.00  0.00     0.230 C 
ATOM      4  O   UNL A   1      32.874  29.143  24.097  1.00  0.00    -0.274 OA
ATOM      5  H   UNL A   1      31.511  30.901  24.504  1.00  0.00     0.163 HD
BRANCH   3   6
ATOM      6  C   UNL A   1      32.677  28.307  26.406  1.00  0.00     0.068 C 
ATOM      7  C   UNL A   1      34.097  28.557  26.956  1.00  0.00     0.026 C 
ATOM      8  C   UNL A   1      31.637  28.475  27.531  1.00  0.00     0.026 C 
BRANCH   6   9
ATOM      9  C   UNL A   1      32.513  26.843  25.891  1.00  0.00    -0.033 A 
ATOM     10  C   UNL A   1      31.302  26.332  25.399  1.00  0.00     0.007 A 
ATOM     11  C   UNL A   1      33.615  25.968  25.908  1.00  0.00     0.007 A 
ATOM     12  C   UNL A   1      31.168  24.979  25.059  1.00  0.00     0.027 A 
ATOM     13  C   UNL A   1      33.464  24.608  25.626  1.00  0.00     0.027 A 
ATOM     14  C   UNL A   1      32.218  24.093  25.281  1.00  0.00     0.049 A 
BRANCH  14  15
ATOM     15  N   UNL A   1      32.109  22.673  25.212  1.00  0.00    -0.279 N 
ATOM     16  H   UNL A   1      31.670  22.217  25.966  1.00  0.00     0.180 HD
BRANCH  15  17
ATOM     17  S   UNL A   1      32.668  21.717  23.954  1.00  0.00     0.267 S 
ATOM     18  O   UNL A   1      32.128  20.391  24.182  1.00  0.00    -0.201 OA
ATOM     19  O   UNL A   1      32.377  22.440  22.737  1.00  0.00    -0.201 OA
BRANCH  17  20
ATOM     20  C   UNL A   1      34.415  21.636  24.094  1.00  0.00     0.159 A 
ATOM     21  C   UNL A   1      35.229  22.606  23.522  1.00  0.00     0.149 A 
ATOM     22  C   UNL A   1      34.983  20.644  24.887  1.00  0.00     0.149 A 
ATOM     23  F   UNL A   1      34.726  23.542  22.707  1.00  0.00    -0.205 F 
ATOM     24  C   UNL A   1      36.593  22.634  23.802  1.00  0.00     0.080 A 
ATOM     25  C   UNL A   1      36.347  20.651  25.161  1.00  0.00     0.080 A 
ATOM     26  F   UNL A   1      34.245  19.657  25.407  1.00  0.00    -0.205 F 
ATOM     27  C   UNL A   1      37.137  21.660  24.631  1.00  0.00     0.129 A 
ATOM     28  F   UNL A   1      38.443  21.692  24.919  1.00  0.00    -0.207 F 
ENDBRANCH  17  20
ENDBRANCH  15  17
ENDBRANCH  14  15
ENDBRANCH   6   9
ENDBRANCH   3   6
ENDBRANCH   1   2
BRANCH   1  29
ATOM     29  C   UNL A   1      31.520  32.663  26.470  1.00  0.00     0.042 C 
BRANCH  29  30
ATOM     30  C   UNL A   1      32.594  33.062  27.480  1.00  0.00     0.118 C 
BRANCH  30  31
ATOM     31  N   UNL A   1      32.476  34.454  27.896  1.00  0.00    -0.352 N 
ATOM     32  C   UNL A   1      33.120  35.138  28.897  1.00  0.00     0.251 C 
ATOM     33  H   UNL A   1      31.834  34.988  27.375  1.00  0.00     0.163 HD
ATOM     34  O   UNL A   1      32.711  36.251  29.221  1.00  0.00    -0.269 OA
BRANCH  32  35
ATOM     35  C   UNL A   1      34.288  34.551  29.591  1.00  0.00     0.039 A 
ATOM     36  C   UNL A   1      34.099  33.935  30.833  1.00  0.00     0.014 A 
ATOM     37  C   UNL A   1      35.573  34.649  29.052  1.00  0.00     0.014 A 
ATOM     38  C   UNL A   1      35.188  33.368  31.504  1.00  0.00     0.010 A 
ATOM     39  C   UNL A   1      36.643  34.024  29.686  1.00  0.00     0.010 A 
ATOM     40  C   UNL A   1      36.465  33.385  30.922  1.00  0.00    -0.014 A 
BRANCH  40  41
ATOM     41  C   UNL A   1      37.636  32.755  31.583  1.00  0.00     0.031 A 
ATOM     42  C   UNL A   1      38.354  31.612  30.915  1.00  0.00     0.074 A 
ATOM     43  C   UNL A   1      37.986  33.132  32.829  1.00  0.00     0.049 A 
ATOM     44  N   UNL A   1      39.307  30.850  31.381  1.00  0.00    -0.248 NA
ATOM     45  C   UNL A   1      37.916  31.259  29.553  1.00  0.00     0.031 C 
ATOM     46  C   UNL A   1      37.323  34.176  33.614  1.00  0.00     0.029 A 
ATOM     47  N   UNL A   1      38.962  32.656  33.668  1.00  0.00    -0.354 N 
ATOM     48  C   UNL A   1      39.547  29.897  30.397  1.00  0.00     0.074 A 
ATOM     49  C   UNL A   1      38.626  30.167  29.315  1.00  0.00     0.031 C 
ATOM     50  C   UNL A   1      37.907  34.257  34.820  1.00  0.00     0.029 A 
ATOM     51  C   UNL A   1      38.967  33.256  34.906  1.00  0.00     0.049 A 
ATOM     52  H   UNL A   1      39.597  31.951  33.409  1.00  0.00     0.167 HD
ATOM     53  C   UNL A   1      40.471  28.908  30.381  1.00  0.00     0.034 A 
ATOM     54  C   UNL A   1      39.734  33.024  35.989  1.00  0.00     0.034 A 
ATOM     55  C   UNL A   1      41.437  28.690  31.424  1.00  0.00     0.049 A 
ATOM     56  C   UNL A   1      40.806  31.971  35.914  1.00  0.00     0.074 A 
ATOM     57  C   UNL A   1      42.476  27.777  31.458  1.00  0.00     0.029 A 
ATOM     58  N   UNL A   1      41.491  29.403  32.611  1.00  0.00    -0.354 N 
ATOM     59  N   UNL A   1      41.116  31.180  34.915  1.00  0.00    -0.248 NA
ATOM     60  C   UNL A   1      41.659  31.802  37.101  1.00  0.00     0.031 C 
ATOM     61  C   UNL A   1      43.161  27.941  32.666  1.00  0.00     0.029 A 
ATOM     62  C   UNL A   1      42.548  28.956  33.384  1.00  0.00     0.049 A 
ATOM     63  H   UNL A   1      40.868  30.122  32.867  1.00  0.00     0.167 HD
ATOM     64  C   UNL A   1      42.216  30.443  35.339  1.00  0.00     0.074 A 
ATOM     65  C   UNL A   1      42.531  30.895  36.678  1.00  0.00     0.031 C 
ATOM     66  C   UNL A   1      42.890  29.464  34.686  1.00  0.00     0.034 A 
BRANCH  53  67
ATOM     67  C   UNL A   1      40.530  28.028  29.161  1.00  0.00     0.023 A 
ATOM     68  C   UNL A   1      39.618  26.961  29.038  1.00  0.00     0.012 A 
ATOM     69  C   UNL A   1      41.443  28.281  28.121  1.00  0.00     0.148 A 
ATOM     70  C   UNL A   1      39.633  26.139  27.913  1.00  0.00     0.002 A 
ATOM     71  C   UNL A   1      41.428  27.479  26.984  1.00  0.00     0.091 A 
ATOM     72  F   UNL A   1      42.322  29.283  28.265  1.00  0.00    -0.205 F 
ATOM     73  C   UNL A   1      40.530  26.403  26.883  1.00  0.00     0.022 A 
BRANCH  71  74
ATOM     74  S   UNL A   1      42.502  27.787  25.577  1.00  0.00     0.127 S 
ATOM     75  O   UNL A   1      42.272  26.597  24.762  1.00  0.00    -0.237 OA
ATOM     76  O   UNL A   1      41.945  29.022  25.022  1.00  0.00    -0.237 OA
ATOM     77  O   UNL A   1      43.842  27.928  26.129  1.00  0.00    -0.744 OA
ENDBRANCH  71  74
ENDBRANCH  53  67
BRANCH  54  78
ATOM     78  C   UNL A   1      39.571  33.868  37.205  1.00  0.00     0.023 A 
ATOM     79  C   UNL A   1      40.058  35.189  37.189  1.00  0.00     0.012 A 
ATOM     80  C   UNL A   1      38.900  33.396  38.350  1.00  0.00     0.148 A 
ATOM     81  C   UNL A   1      39.902  36.018  38.301  1.00  0.00     0.002 A 
ATOM     82  C   UNL A   1      38.704  34.245  39.435  1.00  0.00     0.091 A 
ATOM     83  F   UNL A   1      38.459  32.131  38.355  1.00  0.00    -0.205 F 
ATOM     84  C   UNL A   1      39.216  35.551  39.418  1.00  0.00     0.022 A 
BRANCH  82  85
ATOM     85  S   UNL A   1      37.713  33.759  40.853  1.00  0.00     0.127 S 
ATOM     86  O   UNL A   1      38.613  32.848  41.552  1.00  0.00    -0.237 OA
ATOM     87  O   UNL A   1      37.486  35.040  41.525  1.00  0.00    -0.237 OA
ATOM     88  O   UNL A   1      36.506  33.165  40.291  1.00  0.00    -0.744 OA
ENDBRANCH  82  85
ENDBRANCH  54  78
BRANCH  66  89
ATOM     89  C   UNL A   1      44.056  28.830  35.394  1.00  0.00     0.023 A 
ATOM     90  C   UNL A   1      45.350  29.354  35.203  1.00  0.00     0.012 A 
ATOM     91  C   UNL A   1      43.862  27.778  36.310  1.00  0.00     0.148 A 
ATOM     92  C   UNL A   1      46.436  28.826  35.898  1.00  0.00     0.002 A 
ATOM     93  C   UNL A   1      44.944  27.283  37.029  1.00  0.00     0.091 A 
ATOM     94  F   UNL A   1      42.626  27.278  36.460  1.00  0.00    -0.205 F 
ATOM     95  C   UNL A   1      46.232  27.801  36.820  1.00  0.00     0.022 A 
BRANCH  93  96
ATOM     96  S   UNL A   1      44.747  26.025  38.295  1.00  0.00     0.127 S 
ATOM     97  O   UNL A   1      46.112  25.890  38.799  1.00  0.00    -0.237 OA
ATOM     98  O   UNL A   1      43.813  26.657  39.229  1.00  0.00    -0.237 OA
ATOM     99  O   UNL A   1      44.208  24.857  37.609  1.00  0.00    -0.744 OA
ENDBRANCH  93  96
ENDBRANCH  66  89
ENDBRANCH  40  41
ENDBRANCH  32  35
ENDBRANCH  30  31
ENDBRANCH  29  30
ENDBRANCH   1  29
TORSDOF 17
ENDMDL
MODEL 3
REMARK VINA RESULT:     -12.4      2.119      7.817
REMARK SMILES CC(C)(C(=O)NCCCNC(=O)c1ccc(-c2c3nc(c(-c4cccc(S(=O)(=O)[O-])c4F)c4ccc([nH]4)c(-c4cccc(S(=O)(=O)[O-])c4F)c4nc(c(-c5cccc(S(=O)(=O)[O-])c5F)c5ccc2[nH]5)C=C4)C=C3)cc1)c1ccc(NS(=O)(=O)c2c(F)cc(F)cc2F)cc1
REMARK SMILES IDX 7 1 6 2 4 3 5 4 2 6 1 7 3 8 76 9 77 10 94 11 78 12 93 13
REMARK SMILES IDX 79 14 80 15 81 17 82 18 83 19 84 20 85 21 91 22 86 23 87 24
REMARK SMILES IDX 90 25 92 26 88 27 89 28 8 29 9 30 10 31 11 32 12 34 13 35
REMARK SMILES IDX 14 36 75 37 15 38 74 39 16 40 17 41 18 42 68 43 19 44 73 45
REMARK SMILES IDX 67 46 69 47 20 48 72 49 66 50 65 51 21 53 53 54 33 55 52 56
REMARK SMILES IDX 34 57 37 58 51 59 70 60 35 61 36 62 50 64 71 65 38 66 22 67
REMARK SMILES IDX 23 68 31 69 24 70 26 71 32 72 25 73 27 74 28 75 29 76 30 77
REMARK SMILES IDX 54 78 55 79 63 80 56 81 58 82 64 83 57 84 59 85 60 86 61 87
REMARK SMILES IDX 62 88 39 89 40 90 48 91 41 92 43 93 49 94 42 95 44 96 45 97
REMARK SMILES IDX 46 98 47 99
REMARK H PARENT 6 5 80 16 10 33 69 52 37 63
REMARK Flexibility Score: inf
ROOT
ATOM      1  C   UNL A   1      33.785  29.928  27.169  1.00  0.00     0.117 C 
ENDROOT
BRANCH   1   2
ATOM      2  N   UNL A   1      32.760  29.055  27.707  1.00  0.00    -0.355 N 
ATOM      3  C   UNL A   1      31.971  28.087  27.169  1.00  0.00     0.230 C 
ATOM      4  O   UNL A   1      31.075  27.698  27.928  1.00  0.00    -0.274 OA
ATOM      5  H   UNL A   1      32.602  29.191  28.669  1.00  0.00     0.163 HD
BRANCH   3   6
ATOM      6  C   UNL A   1      32.163  27.501  25.727  1.00  0.00     0.068 C 
ATOM      7  C   UNL A   1      31.261  28.301  24.764  1.00  0.00     0.026 C 
ATOM      8  C   UNL A   1      33.633  27.594  25.272  1.00  0.00     0.026 C 
BRANCH   6   9
ATOM      9  C   UNL A   1      31.810  25.982  25.713  1.00  0.00    -0.033 A 
ATOM     10  C   UNL A   1      32.165  25.100  26.745  1.00  0.00     0.007 A 
ATOM     11  C   UNL A   1      31.099  25.439  24.626  1.00  0.00     0.007 A 
ATOM     12  C   UNL A   1      31.933  23.722  26.637  1.00  0.00     0.027 A 
ATOM     13  C   UNL A   1      30.922  24.060  24.493  1.00  0.00     0.027 A 
ATOM     14  C   UNL A   1      31.414  23.188  25.461  1.00  0.00     0.049 A 
BRANCH  14  15
ATOM     15  N   UNL A   1      31.374  21.798  25.149  1.00  0.00    -0.279 N 
ATOM     16  H   UNL A   1      30.632  21.272  25.526  1.00  0.00     0.180 HD
BRANCH  15  17
ATOM     17  S   UNL A   1      32.487  20.986  24.194  1.00  0.00     0.267 S 
ATOM     18  O   UNL A   1      32.598  19.650  24.747  1.00  0.00    -0.201 OA
ATOM     19  O   UNL A   1      32.071  21.191  22.825  1.00  0.00    -0.201 OA
BRANCH  17  20
ATOM     20  C   UNL A   1      34.031  21.795  24.385  1.00  0.00     0.159 A 
ATOM     21  C   UNL A   1      34.497  22.692  23.430  1.00  0.00     0.149 A 
ATOM     22  C   UNL A   1      34.745  21.619  25.565  1.00  0.00     0.149 A 
ATOM     23  F   UNL A   1      33.868  22.848  22.259  1.00  0.00    -0.205 F 
ATOM     24  C   UNL A   1      35.625  23.468  23.685  1.00  0.00     0.080 A 
ATOM     25  C   UNL A   1      35.883  22.374  25.825  1.00  0.00     0.080 A 
ATOM     26  F   UNL A   1      34.366  20.721  26.483  1.00  0.00    -0.205 F 
ATOM     27  C   UNL A   1      36.302  23.308  24.888  1.00  0.00     0.129 A 
ATOM     28  F   UNL A   1      37.376  24.063  25.148  1.00  0.00    -0.207 F 
ENDBRANCH  17  20
ENDBRANCH  15  17
ENDBRANCH  14  15
ENDBRANCH   6   9
ENDBRANCH   3   6
ENDBRANCH   1   2
BRANCH   1  29
ATOM     29  C   UNL A   1      33.183  31.142  26.465  1.00  0.00     0.042 C 
BRANCH  29  30
ATOM     30  C   UNL A   1      32.188  31.929  27.315  1.00  0.00     0.118 C 
BRANCH  30  31
ATOM     31  N   UNL A   1      32.518  33.346  27.390  1.00  0.00    -0.352 N 
ATOM     32  C   UNL A   1      33.521  33.989  28.073  1.00  0.00     0.251 C 
ATOM     33  H   UNL A   1      31.928  33.937  26.867  1.00  0.00     0.163 HD
ATOM     34  O   UNL A   1      33.487  35.213  28.176  1.00  0.00    -0.269 OA
BRANCH  32  35
ATOM     35  C   UNL A   1      34.632  33.228  28.687  1.00  0.00     0.039 A 
ATOM     36  C   UNL A   1      35.903  33.295  28.105  1.00  0.00     0.014 A 
ATOM     37  C   UNL A   1      34.419  32.409  29.799  1.00  0.00     0.014 A 
ATOM     38  C   UNL A   1      36.969  32.588  28.673  1.00  0.00     0.010 A 
ATOM     39  C   UNL A   1      35.493  31.763  30.403  1.00  0.00     0.010 A 
ATOM     40  C   UNL A   1      36.777  31.837  29.842  1.00  0.00    -0.014 A 
BRANCH  40  41
ATOM     41  C   UNL A   1      37.893  31.109  30.498  1.00  0.00     0.031 A 
ATOM     42  C   UNL A   1      38.286  31.449  31.912  1.00  0.00     0.074 A 
ATOM     43  C   UNL A   1      38.624  30.225  29.791  1.00  0.00     0.049 A 
ATOM     44  N   UNL A   1      39.306  31.024  32.610  1.00  0.00    -0.248 NA
ATOM     45  C   UNL A   1      37.438  32.423  32.621  1.00  0.00     0.031 C 
ATOM     46  C   UNL A   1      38.391  29.863  28.391  1.00  0.00     0.029 A 
ATOM     47  N   UNL A   1      39.734  29.497  30.142  1.00  0.00    -0.354 N 
ATOM     48  C   UNL A   1      39.254  31.714  33.816  1.00  0.00     0.074 A 
ATOM     49  C   UNL A   1      38.112  32.600  33.747  1.00  0.00     0.031 C 
ATOM     50  C   UNL A   1      39.331  28.988  28.001  1.00  0.00     0.029 A 
ATOM     51  C   UNL A   1      40.248  28.744  29.111  1.00  0.00     0.049 A 
ATOM     52  H   UNL A   1      40.125  29.512  31.044  1.00  0.00     0.167 HD
ATOM     53  C   UNL A   1      40.063  31.600  34.896  1.00  0.00     0.034 A 
ATOM     54  C   UNL A   1      41.337  27.952  29.064  1.00  0.00     0.034 A 
ATOM     55  C   UNL A   1      41.150  30.663  34.992  1.00  0.00     0.049 A 
ATOM     56  C   UNL A   1      42.173  27.782  30.304  1.00  0.00     0.074 A 
ATOM     57  C   UNL A   1      41.968  30.402  36.077  1.00  0.00     0.029 A 
ATOM     58  N   UNL A   1      41.563  29.826  33.967  1.00  0.00    -0.354 N 
ATOM     59  N   UNL A   1      42.017  28.332  31.484  1.00  0.00    -0.248 NA
ATOM     60  C   UNL A   1      43.312  26.856  30.218  1.00  0.00     0.031 C 
ATOM     61  C   UNL A   1      42.874  29.402  35.709  1.00  0.00     0.029 A 
ATOM     62  C   UNL A   1      42.620  29.041  34.395  1.00  0.00     0.049 A 
ATOM     63  H   UNL A   1      41.163  29.793  33.068  1.00  0.00     0.167 HD
ATOM     64  C   UNL A   1      43.016  27.796  32.288  1.00  0.00     0.074 A 
ATOM     65  C   UNL A   1      43.760  26.863  31.467  1.00  0.00     0.031 C 
ATOM     66  C   UNL A   1      43.305  28.068  33.585  1.00  0.00     0.034 A 
BRANCH  53  67
ATOM     67  C   UNL A   1      39.756  32.460  36.092  1.00  0.00     0.023 A 
ATOM     68  C   UNL A   1      40.416  33.697  36.236  1.00  0.00     0.012 A 
ATOM     69  C   UNL A   1      38.791  32.076  37.041  1.00  0.00     0.148 A 
ATOM     70  C   UNL A   1      40.142  34.526  37.322  1.00  0.00     0.002 A 
ATOM     71  C   UNL A   1      38.495  32.925  38.102  1.00  0.00     0.091 A 
ATOM     72  F   UNL A   1      38.192  30.884  36.903  1.00  0.00    -0.205 F 
ATOM     73  C   UNL A   1      39.176  34.146  38.249  1.00  0.00     0.022 A 
BRANCH  71  74
ATOM     74  S   UNL A   1      37.216  32.548  39.306  1.00  0.00     0.127 S 
ATOM     75  O   UNL A   1      37.605  31.208  39.742  1.00  0.00    -0.237 OA
ATOM     76  O   UNL A   1      37.412  33.595  40.310  1.00  0.00    -0.237 OA
ATOM     77  O   UNL A   1      35.956  32.638  38.583  1.00  0.00    -0.744 OA
ENDBRANCH  71  74
ENDBRANCH  53  67
BRANCH  54  78
ATOM     78  C   UNL A   1      41.645  27.192  27.821  1.00  0.00     0.023 A 
ATOM     79  C   UNL A   1      42.192  27.878  26.719  1.00  0.00     0.012 A 
ATOM     80  C   UNL A   1      41.449  25.801  27.735  1.00  0.00     0.148 A 
ATOM     81  C   UNL A   1      42.516  27.197  25.546  1.00  0.00     0.002 A 
ATOM     82  C   UNL A   1      41.822  25.120  26.580  1.00  0.00     0.091 A 
ATOM     83  F   UNL A   1      40.911  25.166  28.786  1.00  0.00    -0.205 F 
ATOM     84  C   UNL A   1      42.342  25.817  25.479  1.00  0.00     0.022 A 
BRANCH  82  85
ATOM     85  S   UNL A   1      41.755  23.327  26.471  1.00  0.00     0.127 S 
ATOM     86  O   UNL A   1      40.318  23.081  26.430  1.00  0.00    -0.237 OA
ATOM     87  O   UNL A   1      42.462  23.067  25.215  1.00  0.00    -0.237 OA
ATOM     88  O   UNL A   1      42.455  22.845  27.655  1.00  0.00    -0.744 OA
ENDBRANCH  82  85
ENDBRANCH  54  78
BRANCH  66  89
ATOM     89  C   UNL A   1      44.457  27.332  34.213  1.00  0.00     0.023 A 
ATOM     90  C   UNL A   1      45.760  27.852  34.088  1.00  0.00     0.012 A 
ATOM     91  C   UNL A   1      44.241  26.182  34.996  1.00  0.00     0.148 A 
ATOM     92  C   UNL A   1      46.835  27.225  34.717  1.00  0.00     0.002 A 
ATOM     93  C   UNL A   1      45.311  25.585  35.652  1.00  0.00     0.091 A 
ATOM     94  F   UNL A   1      42.996  25.690  35.084  1.00  0.00    -0.205 F 
ATOM     95  C   UNL A   1      46.609  26.100  35.508  1.00  0.00     0.022 A 
BRANCH  93  96
ATOM     96  S   UNL A   1      45.087  24.187  36.758  1.00  0.00     0.127 S 
ATOM     97  O   UNL A   1      44.449  23.209  35.880  1.00  0.00    -0.237 OA
ATOM     98  O   UNL A   1      46.463  23.859  37.137  1.00  0.00    -0.237 OA
ATOM     99  O   UNL A   1      44.266  24.682  37.856  1.00  0.00    -0.744 OA
ENDBRANCH  93  96
ENDBRANCH  66  89
ENDBRANCH  40  41
ENDBRANCH  32  35
ENDBRANCH  30  31
ENDBRANCH  29  30
ENDBRANCH   1  29
TORSDOF 17
ENDMDL
