MODEL 1
REMARK VINA RESULT:     -13.1      0.000      0.000
REMARK SMILES O=C(NCCCNC(=O)c1ccc(-c2c3nc(c(-c4cccc(S(=O)(=O)[O-])c4F)c4ccc([nH]4)c(-c4cccc(S(=O)(=O)[O-])c4F)c4nc(c(-c5cccc(S(=O)(=O)[O-])c5F)c5ccc2[nH]5)C=C4)C=C3)cc1)C1=Cc2c(ccc(Cl)c2Cl)O[C@H]1C(F)(F)F
REMARK SMILES IDX 6 1 5 2 4 3 3 4 1 5 2 6 73 8 74 9 84 10 75 11 83 12 76 13
REMARK SMILES IDX 81 14 77 15 79 16 82 17 78 18 80 19 85 20 86 21 87 22 88 23
REMARK SMILES IDX 7 24 8 25 9 27 10 28 11 29 72 30 12 31 71 32 13 33 14 34
REMARK SMILES IDX 15 35 65 36 16 37 70 38 64 39 66 40 17 41 69 42 63 43 62 44
REMARK SMILES IDX 18 46 50 47 30 48 49 49 31 50 34 51 48 52 67 53 32 54 33 55
REMARK SMILES IDX 47 57 68 58 35 59 19 60 20 61 28 62 21 63 23 64 29 65 22 66
REMARK SMILES IDX 24 67 25 68 26 69 27 70 51 71 52 72 60 73 53 74 55 75 61 76
REMARK SMILES IDX 54 77 56 78 57 79 58 80 59 81 36 82 37 83 45 84 38 85 40 86
REMARK SMILES IDX 46 87 39 88 41 89 42 90 43 91 44 92
REMARK H PARENT 3 7 7 26 66 45 34 56
REMARK Flexibility Score: inf
ROOT
ATOM      1  C   UNL A   1      32.731  29.272  25.401  1.00  0.00     0.118 C 
ENDROOT
BRANCH   1   2
ATOM      2  C   UNL A   1      33.521  29.310  24.110  1.00  0.00     0.042 C 
BRANCH   2   3
ATOM      3  C   UNL A   1      32.741  28.955  22.867  1.00  0.00     0.118 C 
BRANCH   3   4
ATOM      4  N   UNL A   1      33.259  27.916  22.008  1.00  0.00    -0.352 N 
ATOM      5  O   UNL A   1      33.649  25.770  21.411  1.00  0.00    -0.270 OA
ATOM      6  C   UNL A   1      33.148  26.562  22.204  1.00  0.00     0.251 C 
ATOM      7  H   UNL A   1      33.740  28.208  21.199  1.00  0.00     0.163 HD
BRANCH   6   8
ATOM      8  C   UNL A   1      32.458  26.035  23.418  1.00  0.00     0.067 C 
ATOM      9  C   UNL A   1      33.200  25.592  24.450  1.00  0.00     0.027 C 
ATOM     10  C   UNL A   1      31.065  25.502  23.199  1.00  0.00     0.314 C 
ATOM     11  C   UNL A   1      33.175  24.105  24.519  1.00  0.00     0.037 A 
ATOM     12  O   UNL A   1      30.920  24.095  23.577  1.00  0.00    -0.475 OA
ATOM     13  C   UNL A   1      32.046  23.437  24.009  1.00  0.00     0.129 A 
ATOM     14  C   UNL A   1      34.329  23.373  24.858  1.00  0.00     0.070 A 
ATOM     15  C   UNL A   1      32.090  22.065  23.769  1.00  0.00     0.049 A 
ATOM     16  C   UNL A   1      34.377  22.000  24.579  1.00  0.00     0.060 A 
ATOM     17  Cl  UNL A   1      35.712  24.203  25.506  1.00  0.00    -0.082 Cl
ATOM     18  C   UNL A   1      33.268  21.357  24.016  1.00  0.00     0.026 A 
ATOM     19  Cl  UNL A   1      35.801  21.055  24.833  1.00  0.00    -0.083 Cl
BRANCH  10  20
ATOM     20  C   UNL A   1      30.002  26.359  23.913  1.00  0.00     0.429 C 
ATOM     21  F   UNL A   1      30.108  26.314  25.264  1.00  0.00    -0.167 F 
ATOM     22  F   UNL A   1      30.098  27.661  23.552  1.00  0.00    -0.167 F 
ATOM     23  F   UNL A   1      28.742  25.956  23.617  1.00  0.00    -0.167 F 
ENDBRANCH  10  20
ENDBRANCH   6   8
ENDBRANCH   3   4
ENDBRANCH   2   3
ENDBRANCH   1   2
BRANCH   1  24
ATOM     24  N   UNL A   1      32.405  30.583  25.963  1.00  0.00    -0.352 N 
ATOM     25  C   UNL A   1      33.050  31.368  26.893  1.00  0.00     0.251 C 
ATOM     26  H   UNL A   1      31.572  30.975  25.613  1.00  0.00     0.163 HD
ATOM     27  O   UNL A   1      32.540  32.437  27.226  1.00  0.00    -0.269 OA
BRANCH  25  28
ATOM     28  C   UNL A   1      34.320  30.939  27.521  1.00  0.00     0.039 A 
ATOM     29  C   UNL A   1      35.312  31.890  27.785  1.00  0.00     0.014 A 
ATOM     30  C   UNL A   1      34.548  29.607  27.855  1.00  0.00     0.014 A 
ATOM     31  C   UNL A   1      36.481  31.512  28.455  1.00  0.00     0.010 A 
ATOM     32  C   UNL A   1      35.625  29.267  28.661  1.00  0.00     0.010 A 
ATOM     33  C   UNL A   1      36.627  30.203  28.940  1.00  0.00    -0.014 A 
BRANCH  33  34
ATOM     34  C   UNL A   1      37.828  29.766  29.696  1.00  0.00     0.031 A 
ATOM     35  C   UNL A   1      38.066  30.286  31.094  1.00  0.00     0.074 A 
ATOM     36  C   UNL A   1      38.755  28.991  29.097  1.00  0.00     0.049 A 
ATOM     37  N   UNL A   1      39.093  30.099  31.882  1.00  0.00    -0.248 NA
ATOM     38  C   UNL A   1      37.038  31.176  31.663  1.00  0.00     0.031 C 
ATOM     39  C   UNL A   1      38.695  28.510  27.715  1.00  0.00     0.029 A 
ATOM     40  N   UNL A   1      39.945  28.492  29.567  1.00  0.00    -0.354 N 
ATOM     41  C   UNL A   1      38.860  30.889  33.002  1.00  0.00     0.074 A 
ATOM     42  C   UNL A   1      37.625  31.601  32.771  1.00  0.00     0.031 C 
ATOM     43  C   UNL A   1      39.785  27.771  27.456  1.00  0.00     0.029 A 
ATOM     44  C   UNL A   1      40.640  27.754  28.638  1.00  0.00     0.049 A 
ATOM     45  H   UNL A   1      40.269  28.649  30.484  1.00  0.00     0.167 HD
ATOM     46  C   UNL A   1      39.584  30.985  34.142  1.00  0.00     0.034 A 
ATOM     47  C   UNL A   1      41.833  27.134  28.729  1.00  0.00     0.034 A 
ATOM     48  C   UNL A   1      40.772  30.218  34.395  1.00  0.00     0.049 A 
ATOM     49  C   UNL A   1      42.576  27.183  30.036  1.00  0.00     0.074 A 
ATOM     50  C   UNL A   1      41.519  30.147  35.556  1.00  0.00     0.029 A 
ATOM     51  N   UNL A   1      41.384  29.387  33.469  1.00  0.00    -0.354 N 
ATOM     52  N   UNL A   1      42.254  27.805  31.145  1.00  0.00    -0.248 NA
ATOM     53  C   UNL A   1      43.824  26.411  30.120  1.00  0.00     0.031 C 
ATOM     54  C   UNL A   1      42.604  29.295  35.322  1.00  0.00     0.029 A 
ATOM     55  C   UNL A   1      42.508  28.806  34.028  1.00  0.00     0.049 A 
ATOM     56  H   UNL A   1      41.067  29.235  32.551  1.00  0.00     0.167 HD
ATOM     57  C   UNL A   1      43.238  27.471  32.068  1.00  0.00     0.074 A 
ATOM     58  C   UNL A   1      44.154  26.575  31.394  1.00  0.00     0.031 C 
ATOM     59  C   UNL A   1      43.380  27.879  33.354  1.00  0.00     0.034 A 
BRANCH  46  60
ATOM     60  C   UNL A   1      39.080  31.913  35.218  1.00  0.00     0.023 A 
ATOM     61  C   UNL A   1      39.211  33.310  35.061  1.00  0.00     0.012 A 
ATOM     62  C   UNL A   1      38.441  31.408  36.368  1.00  0.00     0.148 A 
ATOM     63  C   UNL A   1      38.760  34.184  36.050  1.00  0.00     0.002 A 
ATOM     64  C   UNL A   1      37.945  32.287  37.323  1.00  0.00     0.091 A 
ATOM     65  F   UNL A   1      38.343  30.079  36.513  1.00  0.00    -0.205 F 
ATOM     66  C   UNL A   1      38.119  33.673  37.174  1.00  0.00     0.022 A 
BRANCH  64  67
ATOM     67  S   UNL A   1      37.028  31.735  38.764  1.00  0.00     0.127 S 
ATOM     68  O   UNL A   1      38.009  31.931  39.831  1.00  0.00    -0.237 OA
ATOM     69  O   UNL A   1      35.905  32.673  38.789  1.00  0.00    -0.237 OA
ATOM     70  O   UNL A   1      36.659  30.351  38.502  1.00  0.00    -0.744 OA
ENDBRANCH  64  67
ENDBRANCH  46  60
BRANCH  47  71
ATOM     71  C   UNL A   1      42.357  26.355  27.571  1.00  0.00     0.023 A 
ATOM     72  C   UNL A   1      43.224  26.976  26.652  1.00  0.00     0.012 A 
ATOM     73  C   UNL A   1      42.030  24.996  27.396  1.00  0.00     0.148 A 
ATOM     74  C   UNL A   1      43.731  26.269  25.560  1.00  0.00     0.002 A 
ATOM     75  C   UNL A   1      42.584  24.282  26.340  1.00  0.00     0.091 A 
ATOM     76  F   UNL A   1      41.198  24.425  28.277  1.00  0.00    -0.205 F 
ATOM     77  C   UNL A   1      43.419  24.920  25.410  1.00  0.00     0.022 A 
BRANCH  75  78
ATOM     78  S   UNL A   1      42.351  22.511  26.147  1.00  0.00     0.127 S 
ATOM     79  O   UNL A   1      43.042  22.254  24.886  1.00  0.00    -0.237 OA
ATOM     80  O   UNL A   1      43.023  21.988  27.337  1.00  0.00    -0.237 OA
ATOM     81  O   UNL A   1      40.909  22.303  26.132  1.00  0.00    -0.744 OA
ENDBRANCH  75  78
ENDBRANCH  47  71
BRANCH  59  82
ATOM     82  C   UNL A   1      44.543  27.328  34.135  1.00  0.00     0.023 A 
ATOM     83  C   UNL A   1      45.780  28.000  34.129  1.00  0.00     0.012 A 
ATOM     84  C   UNL A   1      44.384  26.175  34.930  1.00  0.00     0.148 A 
ATOM     85  C   UNL A   1      46.854  27.512  34.872  1.00  0.00     0.002 A 
ATOM     86  C   UNL A   1      45.442  25.726  35.709  1.00  0.00     0.091 A 
ATOM     87  F   UNL A   1      43.203  25.539  34.907  1.00  0.00    -0.205 F 
ATOM     88  C   UNL A   1      46.682  26.383  35.670  1.00  0.00     0.022 A 
BRANCH  86  89
ATOM     89  S   UNL A   1      45.277  24.345  36.845  1.00  0.00     0.127 S 
ATOM     90  O   UNL A   1      44.237  24.828  37.752  1.00  0.00    -0.237 OA
ATOM     91  O   UNL A   1      44.858  23.261  35.957  1.00  0.00    -0.237 OA
ATOM     92  O   UNL A   1      46.593  24.158  37.444  1.00  0.00    -0.744 OA
ENDBRANCH  86  89
ENDBRANCH  59  82
ENDBRANCH  33  34
ENDBRANCH  25  28
ENDBRANCH   1  24
TORSDOF 14
ENDMDL
MODEL 2
REMARK VINA RESULT:     -13.0      1.279      1.631
REMARK SMILES O=C(NCCCNC(=O)c1ccc(-c2c3nc(c(-c4cccc(S(=O)(=O)[O-])c4F)c4ccc([nH]4)c(-c4cccc(S(=O)(=O)[O-])c4F)c4nc(c(-c5cccc(S(=O)(=O)[O-])c5F)c5ccc2[nH]5)C=C4)C=C3)cc1)C1=Cc2c(ccc(Cl)c2Cl)O[C@H]1C(F)(F)F
REMARK SMILES IDX 6 1 5 2 4 3 3 4 1 5 2 6 73 8 74 9 84 10 75 11 83 12 76 13
REMARK SMILES IDX 81 14 77 15 79 16 82 17 78 18 80 19 85 20 86 21 87 22 88 23
REMARK SMILES IDX 7 24 8 25 9 27 10 28 11 29 72 30 12 31 71 32 13 33 14 34
REMARK SMILES IDX 15 35 65 36 16 37 70 38 64 39 66 40 17 41 69 42 63 43 62 44
REMARK SMILES IDX 18 46 50 47 30 48 49 49 31 50 34 51 48 52 67 53 32 54 33 55
REMARK SMILES IDX 47 57 68 58 35 59 19 60 20 61 28 62 21 63 23 64 29 65 22 66
REMARK SMILES IDX 24 67 25 68 26 69 27 70 51 71 52 72 60 73 53 74 55 75 61 76
REMARK SMILES IDX 54 77 56 78 57 79 58 80 59 81 36 82 37 83 45 84 38 85 40 86
REMARK SMILES IDX 46 87 39 88 41 89 42 90 43 91 44 92
REMARK H PARENT 3 7 7 26 66 45 34 56
REMARK Flexibility Score: inf
ROOT
ATOM      1  C   UNL A   1      32.684  29.366  25.631  1.00  0.00     0.118 C 
ENDROOT
BRANCH   1   2
ATOM      2  C   UNL A   1      33.501  29.336  24.356  1.00  0.00     0.042 C 
BRANCH   2   3
ATOM      3  C   UNL A   1      32.718  29.060  23.095  1.00  0.00     0.118 C 
BRANCH   3   4
ATOM      4  N   UNL A   1      33.220  28.059  22.184  1.00  0.00    -0.352 N 
ATOM      5  O   UNL A   1      33.572  25.941  21.473  1.00  0.00    -0.270 OA
ATOM      6  C   UNL A   1      33.082  26.698  22.306  1.00  0.00     0.251 C 
ATOM      7  H   UNL A   1      33.710  28.385  21.394  1.00  0.00     0.163 HD
BRANCH   6   8
ATOM      8  C   UNL A   1      32.376  26.120  23.487  1.00  0.00     0.067 C 
ATOM      9  C   UNL A   1      33.104  25.636  24.510  1.00  0.00     0.027 C 
ATOM     10  C   UNL A   1      30.988  25.594  23.225  1.00  0.00     0.314 C 
ATOM     11  C   UNL A   1      33.082  24.147  24.517  1.00  0.00     0.037 A 
ATOM     12  O   UNL A   1      30.841  24.173  23.543  1.00  0.00    -0.475 OA
ATOM     13  C   UNL A   1      31.962  23.499  23.963  1.00  0.00     0.129 A 
ATOM     14  C   UNL A   1      34.233  23.404  24.841  1.00  0.00     0.070 A 
ATOM     15  C   UNL A   1      32.013  22.138  23.667  1.00  0.00     0.049 A 
ATOM     16  C   UNL A   1      34.288  22.044  24.506  1.00  0.00     0.060 A 
ATOM     17  Cl  UNL A   1      35.604  24.209  25.543  1.00  0.00    -0.082 Cl
ATOM     18  C   UNL A   1      33.189  21.423  23.901  1.00  0.00     0.026 A 
ATOM     19  Cl  UNL A   1      35.711  21.092  24.741  1.00  0.00    -0.083 Cl
BRANCH  10  20
ATOM     20  C   UNL A   1      29.912  26.419  23.959  1.00  0.00     0.429 C 
ATOM     21  F   UNL A   1      29.962  27.740  23.658  1.00  0.00    -0.167 F 
ATOM     22  F   UNL A   1      28.667  25.988  23.647  1.00  0.00    -0.167 F 
ATOM     23  F   UNL A   1      30.038  26.331  25.307  1.00  0.00    -0.167 F 
ENDBRANCH  10  20
ENDBRANCH   6   8
ENDBRANCH   3   4
ENDBRANCH   2   3
ENDBRANCH   1   2
BRANCH   1  24
ATOM     24  N   UNL A   1      32.417  30.703  26.160  1.00  0.00    -0.352 N 
ATOM     25  C   UNL A   1      33.116  31.496  27.044  1.00  0.00     0.251 C 
ATOM     26  H   UNL A   1      31.585  31.110  25.825  1.00  0.00     0.163 HD
ATOM     27  O   UNL A   1      32.650  32.590  27.359  1.00  0.00    -0.269 OA
BRANCH  25  28
ATOM     28  C   UNL A   1      34.393  31.046  27.645  1.00  0.00     0.039 A 
ATOM     29  C   UNL A   1      35.421  31.973  27.847  1.00  0.00     0.014 A 
ATOM     30  C   UNL A   1      34.590  29.719  28.014  1.00  0.00     0.014 A 
ATOM     31  C   UNL A   1      36.599  31.579  28.491  1.00  0.00     0.010 A 
ATOM     32  C   UNL A   1      35.682  29.370  28.796  1.00  0.00     0.010 A 
ATOM     33  C   UNL A   1      36.721  30.282  29.013  1.00  0.00    -0.014 A 
BRANCH  33  34
ATOM     34  C   UNL A   1      37.932  29.830  29.744  1.00  0.00     0.031 A 
ATOM     35  C   UNL A   1      38.187  30.320  31.150  1.00  0.00     0.074 A 
ATOM     36  C   UNL A   1      38.852  29.070  29.117  1.00  0.00     0.049 A 
ATOM     37  N   UNL A   1      39.224  30.118  31.920  1.00  0.00    -0.248 NA
ATOM     38  C   UNL A   1      37.164  31.196  31.751  1.00  0.00     0.031 C 
ATOM     39  C   UNL A   1      38.775  28.620  27.725  1.00  0.00     0.029 A 
ATOM     40  N   UNL A   1      40.049  28.564  29.561  1.00  0.00    -0.354 N 
ATOM     41  C   UNL A   1      39.004  30.883  33.061  1.00  0.00     0.074 A 
ATOM     42  C   UNL A   1      37.765  31.598  32.861  1.00  0.00     0.031 C 
ATOM     43  C   UNL A   1      39.864  27.888  27.436  1.00  0.00     0.029 A 
ATOM     44  C   UNL A   1      40.733  27.847  28.607  1.00  0.00     0.049 A 
ATOM     45  H   UNL A   1      40.385  28.702  30.476  1.00  0.00     0.167 HD
ATOM     46  C   UNL A   1      39.742  30.955  34.193  1.00  0.00     0.034 A 
ATOM     47  C   UNL A   1      41.929  27.227  28.670  1.00  0.00     0.034 A 
ATOM     48  C   UNL A   1      40.934  30.185  34.415  1.00  0.00     0.049 A 
ATOM     49  C   UNL A   1      42.687  27.249  29.968  1.00  0.00     0.074 A 
ATOM     50  C   UNL A   1      41.696  30.090  35.564  1.00  0.00     0.029 A 
ATOM     51  N   UNL A   1      41.536  29.376  33.463  1.00  0.00    -0.354 N 
ATOM     52  N   UNL A   1      42.379  27.847  31.094  1.00  0.00    -0.248 NA
ATOM     53  C   UNL A   1      43.938  26.478  30.019  1.00  0.00     0.031 C 
ATOM     54  C   UNL A   1      42.779  29.246  35.298  1.00  0.00     0.029 A 
ATOM     55  C   UNL A   1      42.668  28.785  33.995  1.00  0.00     0.049 A 
ATOM     56  H   UNL A   1      41.207  29.243  32.546  1.00  0.00     0.167 HD
ATOM     57  C   UNL A   1      43.375  27.495  31.997  1.00  0.00     0.074 A 
ATOM     58  C   UNL A   1      44.284  26.614  31.292  1.00  0.00     0.031 C 
ATOM     59  C   UNL A   1      43.533  27.875  33.290  1.00  0.00     0.034 A 
BRANCH  46  60
ATOM     60  C   UNL A   1      39.250  31.859  35.295  1.00  0.00     0.023 A 
ATOM     61  C   UNL A   1      38.301  31.383  36.225  1.00  0.00     0.012 A 
ATOM     62  C   UNL A   1      39.754  33.167  35.437  1.00  0.00     0.148 A 
ATOM     63  C   UNL A   1      37.826  32.208  37.245  1.00  0.00     0.002 A 
ATOM     64  C   UNL A   1      39.317  33.965  36.488  1.00  0.00     0.091 A 
ATOM     65  F   UNL A   1      40.638  33.613  34.533  1.00  0.00    -0.205 F 
ATOM     66  C   UNL A   1      38.342  33.493  37.382  1.00  0.00     0.022 A 
BRANCH  64  67
ATOM     67  S   UNL A   1      39.982  35.602  36.803  1.00  0.00     0.127 S 
ATOM     68  O   UNL A   1      41.419  35.332  36.854  1.00  0.00    -0.237 OA
ATOM     69  O   UNL A   1      39.544  36.343  35.618  1.00  0.00    -0.237 OA
ATOM     70  O   UNL A   1      39.385  36.046  38.053  1.00  0.00    -0.744 OA
ENDBRANCH  64  67
ENDBRANCH  46  60
BRANCH  47  71
ATOM     71  C   UNL A   1      42.439  26.475  27.488  1.00  0.00     0.023 A 
ATOM     72  C   UNL A   1      43.249  27.133  26.543  1.00  0.00     0.012 A 
ATOM     73  C   UNL A   1      42.157  25.106  27.315  1.00  0.00     0.148 A 
ATOM     74  C   UNL A   1      43.742  26.452  25.429  1.00  0.00     0.002 A 
ATOM     75  C   UNL A   1      42.698  24.419  26.235  1.00  0.00     0.091 A 
ATOM     76  F   UNL A   1      41.378  24.499  28.221  1.00  0.00    -0.205 F 
ATOM     77  C   UNL A   1      43.475  25.093  25.281  1.00  0.00     0.022 A 
BRANCH  75  78
ATOM     78  S   UNL A   1      42.523  22.642  26.038  1.00  0.00     0.127 S 
ATOM     79  O   UNL A   1      43.213  22.140  27.223  1.00  0.00    -0.237 OA
ATOM     80  O   UNL A   1      41.069  22.479  26.055  1.00  0.00    -0.237 OA
ATOM     81  O   UNL A   1      43.148  22.324  24.761  1.00  0.00    -0.744 OA
ENDBRANCH  75  78
ENDBRANCH  47  71
BRANCH  59  82
ATOM     82  C   UNL A   1      44.706  27.308  34.044  1.00  0.00     0.023 A 
ATOM     83  C   UNL A   1      45.940  27.985  34.041  1.00  0.00     0.012 A 
ATOM     84  C   UNL A   1      44.560  26.136  34.812  1.00  0.00     0.148 A 
ATOM     85  C   UNL A   1      47.025  27.483  34.759  1.00  0.00     0.002 A 
ATOM     86  C   UNL A   1      45.629  25.671  35.568  1.00  0.00     0.091 A 
ATOM     87  F   UNL A   1      43.381  25.497  34.787  1.00  0.00    -0.205 F 
ATOM     88  C   UNL A   1      46.865  26.334  35.531  1.00  0.00     0.022 A 
BRANCH  86  89
ATOM     89  S   UNL A   1      45.481  24.262  36.671  1.00  0.00     0.127 S 
ATOM     90  O   UNL A   1      46.827  24.185  37.237  1.00  0.00    -0.237 OA
ATOM     91  O   UNL A   1      44.450  24.708  37.608  1.00  0.00    -0.237 OA
ATOM     92  O   UNL A   1      45.089  23.136  35.833  1.00  0.00    -0.744 OA
ENDBRANCH  86  89
ENDBRANCH  59  82
ENDBRANCH  33  34
ENDBRANCH  25  28
ENDBRANCH   1  24
TORSDOF 14
ENDMDL
MODEL 3
REMARK VINA RESULT:     -12.8      5.389     10.021
REMARK SMILES O=C(NCCCNC(=O)c1ccc(-c2c3nc(c(-c4cccc(S(=O)(=O)[O-])c4F)c4ccc([nH]4)c(-c4cccc(S(=O)(=O)[O-])c4F)c4nc(c(-c5cccc(S(=O)(=O)[O-])c5F)c5ccc2[nH]5)C=C4)C=C3)cc1)C1=Cc2c(ccc(Cl)c2Cl)O[C@H]1C(F)(F)F
REMARK SMILES IDX 6 1 5 2 4 3 3 4 1 5 2 6 73 8 74 9 84 10 75 11 83 12 76 13
REMARK SMILES IDX 81 14 77 15 79 16 82 17 78 18 80 19 85 20 86 21 87 22 88 23
REMARK SMILES IDX 7 24 8 25 9 27 10 28 11 29 72 30 12 31 71 32 13 33 14 34
REMARK SMILES IDX 15 35 65 36 16 37 70 38 64 39 66 40 17 41 69 42 63 43 62 44
REMARK SMILES IDX 18 46 50 47 30 48 49 49 31 50 34 51 48 52 67 53 32 54 33 55
REMARK SMILES IDX 47 57 68 58 35 59 19 60 20 61 28 62 21 63 23 64 29 65 22 66
REMARK SMILES IDX 24 67 25 68 26 69 27 70 51 71 52 72 60 73 53 74 55 75 61 76
REMARK SMILES IDX 54 77 56 78 57 79 58 80 59 81 36 82 37 83 45 84 38 85 40 86
REMARK SMILES IDX 46 87 39 88 41 89 42 90 43 91 44 92
REMARK H PARENT 3 7 7 26 66 45 34 56
REMARK Flexibility Score: inf
ROOT
ATOM      1  C   UNL A   1      35.974  21.976  25.602  1.00  0.00     0.118 C 
ENDROOT
BRANCH   1   2
ATOM      2  C   UNL A   1      35.212  21.933  26.909  1.00  0.00     0.042 C 
BRANCH   2   3
ATOM      3  C   UNL A   1      33.837  21.315  26.833  1.00  0.00     0.118 C 
BRANCH   3   4
ATOM      4  N   UNL A   1      32.717  22.072  27.340  1.00  0.00    -0.352 N 
ATOM      5  O   UNL A   1      31.126  23.677  27.237  1.00  0.00    -0.270 OA
ATOM      6  C   UNL A   1      32.058  23.089  26.695  1.00  0.00     0.251 C 
ATOM      7  H   UNL A   1      32.392  21.836  28.239  1.00  0.00     0.163 HD
BRANCH   6   8
ATOM      8  C   UNL A   1      32.503  23.528  25.339  1.00  0.00     0.067 C 
ATOM      9  C   UNL A   1      33.219  24.662  25.223  1.00  0.00     0.027 C 
ATOM     10  C   UNL A   1      31.669  23.033  24.186  1.00  0.00     0.314 C 
ATOM     11  C   UNL A   1      32.385  25.756  24.652  1.00  0.00     0.037 A 
ATOM     12  O   UNL A   1      31.090  24.115  23.387  1.00  0.00    -0.475 OA
ATOM     13  C   UNL A   1      31.316  25.403  23.808  1.00  0.00     0.129 A 
ATOM     14  C   UNL A   1      32.503  27.080  25.119  1.00  0.00     0.070 A 
ATOM     15  C   UNL A   1      30.331  26.338  23.492  1.00  0.00     0.049 A 
ATOM     16  C   UNL A   1      31.490  28.003  24.826  1.00  0.00     0.060 A 
ATOM     17  Cl  UNL A   1      33.838  27.512  26.144  1.00  0.00    -0.082 Cl
ATOM     18  C   UNL A   1      30.399  27.623  24.035  1.00  0.00     0.026 A 
ATOM     19  Cl  UNL A   1      31.484  29.605  25.474  1.00  0.00    -0.083 Cl
BRANCH  10  20
ATOM     20  C   UNL A   1      32.455  22.064  23.282  1.00  0.00     0.429 C 
ATOM     21  F   UNL A   1      33.498  22.658  22.651  1.00  0.00    -0.167 F 
ATOM     22  F   UNL A   1      32.961  21.029  23.994  1.00  0.00    -0.167 F 
ATOM     23  F   UNL A   1      31.676  21.533  22.308  1.00  0.00    -0.167 F 
ENDBRANCH  10  20
ENDBRANCH   6   8
ENDBRANCH   3   4
ENDBRANCH   2   3
ENDBRANCH   1   2
BRANCH   1  24
ATOM     24  N   UNL A   1      37.067  21.011  25.493  1.00  0.00    -0.352 N 
ATOM     25  C   UNL A   1      38.414  21.117  25.761  1.00  0.00     0.251 C 
ATOM     26  H   UNL A   1      36.790  20.123  25.168  1.00  0.00     0.163 HD
ATOM     27  O   UNL A   1      39.141  20.147  25.550  1.00  0.00    -0.269 OA
BRANCH  25  28
ATOM     28  C   UNL A   1      39.007  22.378  26.262  1.00  0.00     0.039 A 
ATOM     29  C   UNL A   1      40.100  22.323  27.136  1.00  0.00     0.014 A 
ATOM     30  C   UNL A   1      38.500  23.616  25.883  1.00  0.00     0.014 A 
ATOM     31  C   UNL A   1      40.722  23.506  27.549  1.00  0.00     0.010 A 
ATOM     32  C   UNL A   1      39.215  24.774  26.157  1.00  0.00     0.010 A 
ATOM     33  C   UNL A   1      40.311  24.743  27.025  1.00  0.00    -0.014 A 
BRANCH  33  34
ATOM     34  C   UNL A   1      40.970  26.021  27.398  1.00  0.00     0.031 A 
ATOM     35  C   UNL A   1      42.410  26.264  27.014  1.00  0.00     0.074 A 
ATOM     36  C   UNL A   1      40.316  26.915  28.166  1.00  0.00     0.049 A 
ATOM     37  N   UNL A   1      43.190  27.267  27.321  1.00  0.00    -0.248 NA
ATOM     38  C   UNL A   1      43.080  25.215  26.223  1.00  0.00     0.031 C 
ATOM     39  C   UNL A   1      38.959  26.751  28.692  1.00  0.00     0.029 A 
ATOM     40  N   UNL A   1      40.716  28.132  28.661  1.00  0.00    -0.354 N 
ATOM     41  C   UNL A   1      44.444  26.943  26.815  1.00  0.00     0.074 A 
ATOM     42  C   UNL A   1      44.338  25.627  26.231  1.00  0.00     0.031 C 
ATOM     43  C   UNL A   1      38.632  27.832  29.418  1.00  0.00     0.029 A 
ATOM     44  C   UNL A   1      39.765  28.751  29.439  1.00  0.00     0.049 A 
ATOM     45  H   UNL A   1      41.600  28.524  28.477  1.00  0.00     0.167 HD
ATOM     46  C   UNL A   1      45.574  27.688  26.798  1.00  0.00     0.034 A 
ATOM     47  C   UNL A   1      39.805  29.926  30.098  1.00  0.00     0.034 A 
ATOM     48  C   UNL A   1      45.652  29.025  27.315  1.00  0.00     0.049 A 
ATOM     49  C   UNL A   1      41.041  30.775  29.990  1.00  0.00     0.074 A 
ATOM     50  C   UNL A   1      46.708  29.914  27.248  1.00  0.00     0.029 A 
ATOM     51  N   UNL A   1      44.628  29.666  27.996  1.00  0.00    -0.354 N 
ATOM     52  N   UNL A   1      42.165  30.519  29.364  1.00  0.00    -0.248 NA
ATOM     53  C   UNL A   1      41.002  32.091  30.643  1.00  0.00     0.031 C 
ATOM     54  C   UNL A   1      46.333  31.085  27.916  1.00  0.00     0.029 A 
ATOM     55  C   UNL A   1      45.030  30.937  28.365  1.00  0.00     0.049 A 
ATOM     56  H   UNL A   1      43.746  29.274  28.189  1.00  0.00     0.167 HD
ATOM     57  C   UNL A   1      42.952  31.655  29.516  1.00  0.00     0.074 A 
ATOM     58  C   UNL A   1      42.167  32.607  30.274  1.00  0.00     0.031 C 
ATOM     59  C   UNL A   1      44.215  31.886  29.078  1.00  0.00     0.034 A 
BRANCH  46  60
ATOM     60  C   UNL A   1      46.799  27.089  26.154  1.00  0.00     0.023 A 
ATOM     61  C   UNL A   1      46.957  27.147  24.753  1.00  0.00     0.012 A 
ATOM     62  C   UNL A   1      47.814  26.504  26.936  1.00  0.00     0.148 A 
ATOM     63  C   UNL A   1      48.079  26.590  24.138  1.00  0.00     0.002 A 
ATOM     64  C   UNL A   1      48.954  26.000  26.322  1.00  0.00     0.091 A 
ATOM     65  F   UNL A   1      47.640  26.437  28.264  1.00  0.00    -0.205 F 
ATOM     66  C   UNL A   1      49.080  26.027  24.923  1.00  0.00     0.022 A 
BRANCH  64  67
ATOM     67  S   UNL A   1      50.340  25.333  27.248  1.00  0.00     0.127 S 
ATOM     68  O   UNL A   1      51.290  25.028  26.178  1.00  0.00    -0.237 OA
ATOM     69  O   UNL A   1      50.717  26.467  28.093  1.00  0.00    -0.237 OA
ATOM     70  O   UNL A   1      49.823  24.180  27.972  1.00  0.00    -0.744 OA
ENDBRANCH  64  67
ENDBRANCH  46  60
BRANCH  47  71
ATOM     71  C   UNL A   1      38.608  30.396  30.853  1.00  0.00     0.023 A 
ATOM     72  C   UNL A   1      38.511  30.135  32.233  1.00  0.00     0.012 A 
ATOM     73  C   UNL A   1      37.585  31.129  30.220  1.00  0.00     0.148 A 
ATOM     74  C   UNL A   1      37.403  30.566  32.964  1.00  0.00     0.002 A 
ATOM     75  C   UNL A   1      36.513  31.605  30.964  1.00  0.00     0.091 A 
ATOM     76  F   UNL A   1      37.692  31.360  28.904  1.00  0.00    -0.205 F 
ATOM     77  C   UNL A   1      36.409  31.309  32.332  1.00  0.00     0.022 A 
BRANCH  75  78
ATOM     78  S   UNL A   1      35.259  32.686  30.266  1.00  0.00     0.127 S 
ATOM     79  O   UNL A   1      34.709  31.856  29.198  1.00  0.00    -0.237 OA
ATOM     80  O   UNL A   1      34.369  32.892  31.409  1.00  0.00    -0.237 OA
ATOM     81  O   UNL A   1      35.968  33.884  29.835  1.00  0.00    -0.744 OA
ENDBRANCH  75  78
ENDBRANCH  47  71
BRANCH  59  82
ATOM     82  C   UNL A   1      44.816  33.236  29.369  1.00  0.00     0.023 A 
ATOM     83  C   UNL A   1      45.485  33.464  30.586  1.00  0.00     0.012 A 
ATOM     84  C   UNL A   1      44.773  34.257  28.400  1.00  0.00     0.148 A 
ATOM     85  C   UNL A   1      46.069  34.702  30.852  1.00  0.00     0.002 A 
ATOM     86  C   UNL A   1      45.404  35.470  28.649  1.00  0.00     0.091 A 
ATOM     87  F   UNL A   1      44.115  34.026  27.254  1.00  0.00    -0.205 F 
ATOM     88  C   UNL A   1      46.038  35.699  29.880  1.00  0.00     0.022 A 
BRANCH  86  89
ATOM     89  S   UNL A   1      45.504  36.770  27.415  1.00  0.00     0.127 S 
ATOM     90  O   UNL A   1      44.114  37.216  27.338  1.00  0.00    -0.237 OA
ATOM     91  O   UNL A   1      46.418  37.724  28.043  1.00  0.00    -0.237 OA
ATOM     92  O   UNL A   1      46.027  36.139  26.209  1.00  0.00    -0.744 OA
ENDBRANCH  86  89
ENDBRANCH  59  82
ENDBRANCH  33  34
ENDBRANCH  25  28
ENDBRANCH   1  24
TORSDOF 14
ENDMDL
