MODEL 1
REMARK VINA RESULT:     -13.0      0.000      0.000
REMARK SMILES Cc1sc(NC(=O)[C@@H]2[C@@H](C(=O)NCCCNC(=O)c3ccc(-c4c5nc(c(-c6cccc(S(=O)(=O)[O-])c6F)c6ccc([nH]6)c(-c6cccc(S(=O)(=O)[O-])c6F)c6nc(c(-c7cccc(S(=O)(=O)[O-])c7F)c7ccc4[nH]7)C=C6)C=C5)cc3)[C@@H]3C=C[C@H]2C3)c(C#N)c1C
REMARK SMILES IDX 14 1 13 2 12 3 10 4 11 5 9 7 8 8 85 9 82 10 84 11 86 12
REMARK SMILES IDX 83 13 6 14 5 15 7 17 4 18 1 19 2 20 3 21 90 22 87 23 91 24
REMARK SMILES IDX 88 25 89 26 15 27 16 28 17 29 18 31 19 32 20 33 81 34 21 35
REMARK SMILES IDX 80 36 22 37 23 38 24 39 74 40 25 41 79 42 73 43 75 44 26 45
REMARK SMILES IDX 78 46 72 47 71 48 27 50 59 51 39 52 58 53 40 54 43 55 57 56
REMARK SMILES IDX 76 57 41 58 42 59 56 61 77 62 44 63 28 64 29 65 37 66 30 67
REMARK SMILES IDX 32 68 38 69 31 70 33 71 34 72 35 73 36 74 60 75 61 76 69 77
REMARK SMILES IDX 62 78 64 79 70 80 63 81 65 82 66 83 67 84 68 85 45 86 46 87
REMARK SMILES IDX 54 88 47 89 49 90 55 91 48 92 50 93 51 94 52 95 53 96
REMARK H PARENT 12 6 5 16 16 30 75 49 43 60
REMARK Flexibility Score: inf
ROOT
ATOM      1  C   UNL A   1      37.838  19.882  25.126  1.00  0.00     0.042 C 
ENDROOT
BRANCH   1   2
ATOM      2  C   UNL A   1      36.939  21.038  24.721  1.00  0.00     0.117 C 
BRANCH   2   3
ATOM      3  N   UNL A   1      35.855  21.283  25.656  1.00  0.00    -0.356 N 
ATOM      4  C   UNL A   1      34.568  20.844  25.604  1.00  0.00     0.224 C 
ATOM      5  O   UNL A   1      33.815  21.152  26.524  1.00  0.00    -0.275 OA
ATOM      6  H   UNL A   1      36.083  21.842  26.434  1.00  0.00     0.163 HD
BRANCH   4   7
ATOM      7  C   UNL A   1      34.147  19.977  24.427  1.00  0.00     0.098 C 
ATOM      8  C   UNL A   1      32.616  20.095  24.121  1.00  0.00     0.099 C 
ATOM      9  C   UNL A   1      32.141  18.620  24.213  1.00  0.00     0.025 C 
ATOM     10  C   UNL A   1      34.278  18.476  24.812  1.00  0.00     0.025 C 
ATOM     11  C   UNL A   1      32.849  17.775  23.172  1.00  0.00    -0.027 C 
ATOM     12  C   UNL A   1      32.919  18.173  25.447  1.00  0.00     0.017 C 
ATOM     13  C   UNL A   1      34.136  17.687  23.536  1.00  0.00    -0.027 C 
BRANCH   8  14
ATOM     14  C   UNL A   1      32.227  20.726  22.801  1.00  0.00     0.229 C 
ATOM     15  N   UNL A   1      31.997  22.071  22.667  1.00  0.00    -0.316 N 
ATOM     16  H   UNL A   1      31.673  22.321  21.771  1.00  0.00     0.170 HD
ATOM     17  O   UNL A   1      32.044  20.029  21.796  1.00  0.00    -0.274 OA
BRANCH  15  18
ATOM     18  C   UNL A   1      32.122  23.161  23.523  1.00  0.00     0.113 A 
ATOM     19  C   UNL A   1      31.043  25.870  26.151  1.00  0.00     0.057 C 
ATOM     20  C   UNL A   1      31.741  24.989  25.169  1.00  0.00     0.008 A 
ATOM     21  S   UNL A   1      30.816  23.816  24.374  1.00  0.00    -0.122 S 
ATOM     22  C   UNL A   1      33.070  24.930  24.785  1.00  0.00    -0.017 A 
ATOM     23  C   UNL A   1      33.278  23.863  23.826  1.00  0.00     0.090 A 
ATOM     24  C   UNL A   1      34.157  25.821  25.293  1.00  0.00     0.047 C 
BRANCH  23  25
ATOM     25  C   UNL A   1      34.555  23.562  23.232  1.00  0.00     0.103 C 
ATOM     26  N   UNL A   1      35.577  23.283  22.775  1.00  0.00    -0.192 NA
ENDBRANCH  23  25
ENDBRANCH  15  18
ENDBRANCH   8  14
ENDBRANCH   4   7
ENDBRANCH   2   3
ENDBRANCH   1   2
BRANCH   1  27
ATOM     27  C   UNL A   1      39.125  20.360  25.753  1.00  0.00     0.118 C 
BRANCH  27  28
ATOM     28  N   UNL A   1      40.176  19.333  25.814  1.00  0.00    -0.352 N 
ATOM     29  C   UNL A   1      41.539  19.536  25.978  1.00  0.00     0.251 C 
ATOM     30  H   UNL A   1      39.880  18.397  25.729  1.00  0.00     0.163 HD
ATOM     31  O   UNL A   1      42.350  18.652  25.731  1.00  0.00    -0.269 OA
BRANCH  29  32
ATOM     32  C   UNL A   1      41.968  20.845  26.500  1.00  0.00     0.039 A 
ATOM     33  C   UNL A   1      42.316  21.929  25.694  1.00  0.00     0.014 A 
ATOM     34  C   UNL A   1      41.892  20.983  27.880  1.00  0.00     0.014 A 
ATOM     35  C   UNL A   1      42.567  23.149  26.320  1.00  0.00     0.010 A 
ATOM     36  C   UNL A   1      41.755  22.227  28.403  1.00  0.00     0.010 A 
ATOM     37  C   UNL A   1      42.282  23.279  27.691  1.00  0.00    -0.014 A 
BRANCH  37  38
ATOM     38  C   UNL A   1      42.372  24.529  28.426  1.00  0.00     0.031 A 
ATOM     39  C   UNL A   1      41.166  25.368  28.216  1.00  0.00     0.074 A 
ATOM     40  C   UNL A   1      43.339  24.763  29.351  1.00  0.00     0.049 A 
ATOM     41  N   UNL A   1      41.082  26.408  27.459  1.00  0.00    -0.248 NA
ATOM     42  C   UNL A   1      39.856  24.861  28.666  1.00  0.00     0.031 C 
ATOM     43  C   UNL A   1      44.392  23.861  29.852  1.00  0.00     0.029 A 
ATOM     44  N   UNL A   1      43.538  25.857  30.130  1.00  0.00    -0.354 N 
ATOM     45  C   UNL A   1      39.777  26.864  27.605  1.00  0.00     0.074 A 
ATOM     46  C   UNL A   1      39.025  25.756  28.124  1.00  0.00     0.031 C 
ATOM     47  C   UNL A   1      44.914  24.351  31.004  1.00  0.00     0.029 A 
ATOM     48  C   UNL A   1      44.366  25.672  31.239  1.00  0.00     0.049 A 
ATOM     49  H   UNL A   1      43.124  26.728  29.925  1.00  0.00     0.167 HD
ATOM     50  C   UNL A   1      39.516  28.201  27.579  1.00  0.00     0.034 A 
ATOM     51  C   UNL A   1      44.560  26.539  32.274  1.00  0.00     0.034 A 
ATOM     52  C   UNL A   1      40.661  28.927  27.082  1.00  0.00     0.049 A 
ATOM     53  C   UNL A   1      44.128  27.872  31.792  1.00  0.00     0.074 A 
ATOM     54  C   UNL A   1      41.380  28.930  25.905  1.00  0.00     0.029 A 
ATOM     55  N   UNL A   1      41.488  29.464  28.041  1.00  0.00    -0.354 N 
ATOM     56  N   UNL A   1      44.734  28.496  30.820  1.00  0.00    -0.248 NA
ATOM     57  C   UNL A   1      42.739  28.235  32.015  1.00  0.00     0.031 C 
ATOM     58  C   UNL A   1      42.744  29.011  26.315  1.00  0.00     0.029 A 
ATOM     59  C   UNL A   1      42.782  29.175  27.701  1.00  0.00     0.049 A 
ATOM     60  H   UNL A   1      41.199  29.968  28.836  1.00  0.00     0.167 HD
ATOM     61  C   UNL A   1      43.696  28.946  30.015  1.00  0.00     0.074 A 
ATOM     62  C   UNL A   1      42.488  28.812  30.836  1.00  0.00     0.031 C 
ATOM     63  C   UNL A   1      43.854  29.064  28.665  1.00  0.00     0.034 A 
BRANCH  50  64
ATOM     64  C   UNL A   1      38.451  28.904  28.390  1.00  0.00     0.023 A 
ATOM     65  C   UNL A   1      37.628  29.817  27.693  1.00  0.00     0.012 A 
ATOM     66  C   UNL A   1      38.408  28.952  29.802  1.00  0.00     0.148 A 
ATOM     67  C   UNL A   1      36.860  30.775  28.362  1.00  0.00     0.002 A 
ATOM     68  C   UNL A   1      37.596  29.865  30.466  1.00  0.00     0.091 A 
ATOM     69  F   UNL A   1      39.238  28.200  30.527  1.00  0.00    -0.205 F 
ATOM     70  C   UNL A   1      36.845  30.800  29.750  1.00  0.00     0.022 A 
BRANCH  68  71
ATOM     71  S   UNL A   1      37.512  29.937  32.261  1.00  0.00     0.127 S 
ATOM     72  O   UNL A   1      36.450  30.919  32.463  1.00  0.00    -0.237 OA
ATOM     73  O   UNL A   1      37.153  28.558  32.592  1.00  0.00    -0.237 OA
ATOM     74  O   UNL A   1      38.841  30.336  32.705  1.00  0.00    -0.744 OA
ENDBRANCH  68  71
ENDBRANCH  50  64
BRANCH  51  75
ATOM     75  C   UNL A   1      44.708  26.262  33.733  1.00  0.00     0.023 A 
ATOM     76  C   UNL A   1      45.952  26.429  34.383  1.00  0.00     0.012 A 
ATOM     77  C   UNL A   1      43.559  26.138  34.545  1.00  0.00     0.148 A 
ATOM     78  C   UNL A   1      46.042  26.488  35.785  1.00  0.00     0.002 A 
ATOM     79  C   UNL A   1      43.652  26.198  35.935  1.00  0.00     0.091 A 
ATOM     80  F   UNL A   1      42.363  26.054  33.948  1.00  0.00    -0.205 F 
ATOM     81  C   UNL A   1      44.891  26.381  36.560  1.00  0.00     0.022 A 
BRANCH  79  82
ATOM     82  S   UNL A   1      42.202  26.110  36.997  1.00  0.00     0.127 S 
ATOM     83  O   UNL A   1      42.792  26.282  38.324  1.00  0.00    -0.237 OA
ATOM     84  O   UNL A   1      41.411  27.245  36.527  1.00  0.00    -0.237 OA
ATOM     85  O   UNL A   1      41.616  24.797  36.762  1.00  0.00    -0.744 OA
ENDBRANCH  79  82
ENDBRANCH  51  75
BRANCH  63  86
ATOM     86  C   UNL A   1      45.238  28.915  28.088  1.00  0.00     0.023 A 
ATOM     87  C   UNL A   1      46.249  29.895  28.202  1.00  0.00     0.012 A 
ATOM     88  C   UNL A   1      45.574  27.643  27.609  1.00  0.00     0.148 A 
ATOM     89  C   UNL A   1      47.570  29.599  27.839  1.00  0.00     0.002 A 
ATOM     90  C   UNL A   1      46.890  27.338  27.301  1.00  0.00     0.091 A 
ATOM     91  F   UNL A   1      44.595  26.731  27.517  1.00  0.00    -0.205 F 
ATOM     92  C   UNL A   1      47.892  28.314  27.405  1.00  0.00     0.022 A 
BRANCH  90  93
ATOM     93  S   UNL A   1      47.375  25.665  26.879  1.00  0.00     0.127 S 
ATOM     94  O   UNL A   1      46.598  25.421  25.666  1.00  0.00    -0.237 OA
ATOM     95  O   UNL A   1      48.817  25.806  26.668  1.00  0.00    -0.237 OA
ATOM     96  O   UNL A   1      47.018  24.836  28.024  1.00  0.00    -0.744 OA
ENDBRANCH  90  93
ENDBRANCH  63  86
ENDBRANCH  37  38
ENDBRANCH  29  32
ENDBRANCH  27  28
ENDBRANCH   1  27
TORSDOF 16
ENDMDL
MODEL 2
REMARK VINA RESULT:     -12.9      4.566      9.820
REMARK SMILES Cc1sc(NC(=O)[C@@H]2[C@@H](C(=O)NCCCNC(=O)c3ccc(-c4c5nc(c(-c6cccc(S(=O)(=O)[O-])c6F)c6ccc([nH]6)c(-c6cccc(S(=O)(=O)[O-])c6F)c6nc(c(-c7cccc(S(=O)(=O)[O-])c7F)c7ccc4[nH]7)C=C6)C=C5)cc3)[C@@H]3C=C[C@H]2C3)c(C#N)c1C
REMARK SMILES IDX 14 1 13 2 12 3 10 4 11 5 9 7 8 8 85 9 82 10 84 11 86 12
REMARK SMILES IDX 83 13 6 14 5 15 7 17 4 18 1 19 2 20 3 21 90 22 87 23 91 24
REMARK SMILES IDX 88 25 89 26 15 27 16 28 17 29 18 31 19 32 20 33 81 34 21 35
REMARK SMILES IDX 80 36 22 37 23 38 24 39 74 40 25 41 79 42 73 43 75 44 26 45
REMARK SMILES IDX 78 46 72 47 71 48 27 50 59 51 39 52 58 53 40 54 43 55 57 56
REMARK SMILES IDX 76 57 41 58 42 59 56 61 77 62 44 63 28 64 29 65 37 66 30 67
REMARK SMILES IDX 32 68 38 69 31 70 33 71 34 72 35 73 36 74 60 75 61 76 69 77
REMARK SMILES IDX 62 78 64 79 70 80 63 81 65 82 66 83 67 84 68 85 45 86 46 87
REMARK SMILES IDX 54 88 47 89 49 90 55 91 48 92 50 93 51 94 52 95 53 96
REMARK H PARENT 12 6 5 16 16 30 75 49 43 60
REMARK Flexibility Score: inf
ROOT
ATOM      1  C   UNL A   1      31.577  31.851  26.455  1.00  0.00     0.042 C 
ENDROOT
BRANCH   1   2
ATOM      2  C   UNL A   1      31.662  30.336  26.390  1.00  0.00     0.117 C 
BRANCH   2   3
ATOM      3  N   UNL A   1      32.240  29.842  25.152  1.00  0.00    -0.356 N 
ATOM      4  C   UNL A   1      31.608  29.382  24.038  1.00  0.00     0.224 C 
ATOM      5  O   UNL A   1      32.298  29.032  23.084  1.00  0.00    -0.275 OA
ATOM      6  H   UNL A   1      33.224  29.838  25.115  1.00  0.00     0.163 HD
BRANCH   4   7
ATOM      7  C   UNL A   1      30.086  29.358  24.030  1.00  0.00     0.098 C 
ATOM      8  C   UNL A   1      29.517  28.259  23.070  1.00  0.00     0.099 C 
ATOM      9  C   UNL A   1      28.607  29.083  22.119  1.00  0.00     0.025 C 
ATOM     10  C   UNL A   1      29.547  30.661  23.374  1.00  0.00     0.025 C 
ATOM     11  C   UNL A   1      27.501  29.758  22.906  1.00  0.00    -0.027 C 
ATOM     12  C   UNL A   1      29.504  30.296  21.889  1.00  0.00     0.017 C 
ATOM     13  C   UNL A   1      28.068  30.710  23.659  1.00  0.00    -0.027 C 
BRANCH   8  14
ATOM     14  C   UNL A   1      28.763  27.113  23.710  1.00  0.00     0.229 C 
ATOM     15  N   UNL A   1      29.379  25.950  24.097  1.00  0.00    -0.316 N 
ATOM     16  H   UNL A   1      28.747  25.268  24.421  1.00  0.00     0.170 HD
ATOM     17  O   UNL A   1      27.536  27.166  23.855  1.00  0.00    -0.274 OA
BRANCH  15  18
ATOM     18  C   UNL A   1      30.704  25.526  24.130  1.00  0.00     0.113 A 
ATOM     19  C   UNL A   1      34.014  23.820  22.887  1.00  0.00     0.057 C 
ATOM     20  C   UNL A   1      32.931  24.536  23.624  1.00  0.00     0.008 A 
ATOM     21  S   UNL A   1      31.393  24.569  22.919  1.00  0.00    -0.122 S 
ATOM     22  C   UNL A   1      32.953  25.234  24.820  1.00  0.00    -0.017 A 
ATOM     23  C   UNL A   1      31.650  25.803  25.103  1.00  0.00     0.090 A 
ATOM     24  C   UNL A   1      34.149  25.403  25.700  1.00  0.00     0.047 C 
BRANCH  23  25
ATOM     25  C   UNL A   1      31.355  26.574  26.284  1.00  0.00     0.103 C 
ATOM     26  N   UNL A   1      31.152  27.216  27.220  1.00  0.00    -0.192 NA
ENDBRANCH  23  25
ENDBRANCH  15  18
ENDBRANCH   8  14
ENDBRANCH   4   7
ENDBRANCH   2   3
ENDBRANCH   1   2
BRANCH   1  27
ATOM     27  C   UNL A   1      32.713  32.446  27.250  1.00  0.00     0.118 C 
BRANCH  27  28
ATOM     28  N   UNL A   1      32.498  33.848  27.641  1.00  0.00    -0.352 N 
ATOM     29  C   UNL A   1      33.135  34.543  28.659  1.00  0.00     0.251 C 
ATOM     30  H   UNL A   1      31.826  34.349  27.123  1.00  0.00     0.163 HD
ATOM     31  O   UNL A   1      32.689  35.601  29.086  1.00  0.00    -0.269 OA
BRANCH  29  32
ATOM     32  C   UNL A   1      34.393  33.977  29.177  1.00  0.00     0.039 A 
ATOM     33  C   UNL A   1      34.458  33.016  30.186  1.00  0.00     0.014 A 
ATOM     34  C   UNL A   1      35.541  34.377  28.504  1.00  0.00     0.014 A 
ATOM     35  C   UNL A   1      35.705  32.467  30.481  1.00  0.00     0.010 A 
ATOM     36  C   UNL A   1      36.629  33.569  28.536  1.00  0.00     0.010 A 
ATOM     37  C   UNL A   1      36.792  32.763  29.638  1.00  0.00    -0.014 A 
BRANCH  37  38
ATOM     38  C   UNL A   1      38.104  32.150  29.757  1.00  0.00     0.031 A 
ATOM     39  C   UNL A   1      38.126  30.797  29.150  1.00  0.00     0.074 A 
ATOM     40  C   UNL A   1      39.197  32.843  30.171  1.00  0.00     0.049 A 
ATOM     41  N   UNL A   1      38.106  29.674  29.785  1.00  0.00    -0.248 NA
ATOM     42  C   UNL A   1      37.874  30.658  27.704  1.00  0.00     0.031 C 
ATOM     43  C   UNL A   1      39.329  34.276  30.492  1.00  0.00     0.029 A 
ATOM     44  N   UNL A   1      40.481  32.423  30.307  1.00  0.00    -0.354 N 
ATOM     45  C   UNL A   1      38.165  28.694  28.800  1.00  0.00     0.074 A 
ATOM     46  C   UNL A   1      37.758  29.333  27.580  1.00  0.00     0.031 C 
ATOM     47  C   UNL A   1      40.639  34.628  30.516  1.00  0.00     0.029 A 
ATOM     48  C   UNL A   1      41.445  33.430  30.382  1.00  0.00     0.049 A 
ATOM     49  H   UNL A   1      40.717  31.468  30.351  1.00  0.00     0.167 HD
ATOM     50  C   UNL A   1      38.845  27.537  29.032  1.00  0.00     0.034 A 
ATOM     51  C   UNL A   1      42.799  33.279  30.317  1.00  0.00     0.034 A 
ATOM     52  C   UNL A   1      39.147  27.404  30.438  1.00  0.00     0.049 A 
ATOM     53  C   UNL A   1      43.078  31.857  30.630  1.00  0.00     0.074 A 
ATOM     54  C   UNL A   1      38.399  27.328  31.594  1.00  0.00     0.029 A 
ATOM     55  N   UNL A   1      40.405  27.807  30.817  1.00  0.00    -0.354 N 
ATOM     56  N   UNL A   1      42.818  31.331  31.796  1.00  0.00    -0.248 NA
ATOM     57  C   UNL A   1      43.125  30.932  29.509  1.00  0.00     0.031 C 
ATOM     58  C   UNL A   1      39.096  28.148  32.530  1.00  0.00     0.029 A 
ATOM     59  C   UNL A   1      40.287  28.580  31.941  1.00  0.00     0.049 A 
ATOM     60  H   UNL A   1      41.247  27.580  30.360  1.00  0.00     0.167 HD
ATOM     61  C   UNL A   1      42.193  30.131  31.488  1.00  0.00     0.074 A 
ATOM     62  C   UNL A   1      42.467  29.909  30.064  1.00  0.00     0.031 C 
ATOM     63  C   UNL A   1      41.238  29.604  32.309  1.00  0.00     0.034 A 
BRANCH  50  64
ATOM     64  C   UNL A   1      39.625  26.755  27.999  1.00  0.00     0.023 A 
ATOM     65  C   UNL A   1      39.450  25.352  28.005  1.00  0.00     0.012 A 
ATOM     66  C   UNL A   1      40.713  27.261  27.252  1.00  0.00     0.148 A 
ATOM     67  C   UNL A   1      40.350  24.495  27.365  1.00  0.00     0.002 A 
ATOM     68  C   UNL A   1      41.571  26.409  26.565  1.00  0.00     0.091 A 
ATOM     69  F   UNL A   1      41.009  28.561  27.289  1.00  0.00    -0.205 F 
ATOM     70  C   UNL A   1      41.412  25.023  26.645  1.00  0.00     0.022 A 
BRANCH  68  71
ATOM     71  S   UNL A   1      42.954  27.027  25.595  1.00  0.00     0.127 S 
ATOM     72  O   UNL A   1      43.811  27.587  26.636  1.00  0.00    -0.237 OA
ATOM     73  O   UNL A   1      43.450  25.797  24.977  1.00  0.00    -0.237 OA
ATOM     74  O   UNL A   1      42.384  27.984  24.656  1.00  0.00    -0.744 OA
ENDBRANCH  68  71
ENDBRANCH  50  64
BRANCH  51  75
ATOM     75  C   UNL A   1      43.821  34.129  29.640  1.00  0.00     0.023 A 
ATOM     76  C   UNL A   1      44.824  34.792  30.384  1.00  0.00     0.012 A 
ATOM     77  C   UNL A   1      44.000  34.036  28.242  1.00  0.00     0.148 A 
ATOM     78  C   UNL A   1      45.967  35.323  29.759  1.00  0.00     0.002 A 
ATOM     79  C   UNL A   1      45.135  34.562  27.626  1.00  0.00     0.091 A 
ATOM     80  F   UNL A   1      43.099  33.347  27.530  1.00  0.00    -0.205 F 
ATOM     81  C   UNL A   1      46.126  35.200  28.382  1.00  0.00     0.022 A 
BRANCH  79  82
ATOM     82  S   UNL A   1      45.426  34.402  25.858  1.00  0.00     0.127 S 
ATOM     83  O   UNL A   1      46.397  35.470  25.617  1.00  0.00    -0.237 OA
ATOM     84  O   UNL A   1      45.968  33.049  25.760  1.00  0.00    -0.237 OA
ATOM     85  O   UNL A   1      44.132  34.609  25.221  1.00  0.00    -0.744 OA
ENDBRANCH  79  82
ENDBRANCH  51  75
BRANCH  63  86
ATOM     86  C   UNL A   1      41.036  30.227  33.665  1.00  0.00     0.023 A 
ATOM     87  C   UNL A   1      41.980  30.159  34.714  1.00  0.00     0.012 A 
ATOM     88  C   UNL A   1      39.941  31.092  33.791  1.00  0.00     0.148 A 
ATOM     89  C   UNL A   1      41.824  30.945  35.863  1.00  0.00     0.002 A 
ATOM     90  C   UNL A   1      39.818  31.906  34.905  1.00  0.00     0.091 A 
ATOM     91  F   UNL A   1      39.063  31.140  32.778  1.00  0.00    -0.205 F 
ATOM     92  C   UNL A   1      40.752  31.831  35.950  1.00  0.00     0.022 A 
BRANCH  90  93
ATOM     93  S   UNL A   1      38.541  33.159  34.996  1.00  0.00     0.127 S 
ATOM     94  O   UNL A   1      37.350  32.359  35.269  1.00  0.00    -0.237 OA
ATOM     95  O   UNL A   1      38.997  33.985  36.117  1.00  0.00    -0.237 OA
ATOM     96  O   UNL A   1      38.549  33.844  33.709  1.00  0.00    -0.744 OA
ENDBRANCH  90  93
ENDBRANCH  63  86
ENDBRANCH  37  38
ENDBRANCH  29  32
ENDBRANCH  27  28
ENDBRANCH   1  27
TORSDOF 16
ENDMDL
MODEL 3
REMARK VINA RESULT:     -12.9      1.218      1.905
REMARK SMILES Cc1sc(NC(=O)[C@@H]2[C@@H](C(=O)NCCCNC(=O)c3ccc(-c4c5nc(c(-c6cccc(S(=O)(=O)[O-])c6F)c6ccc([nH]6)c(-c6cccc(S(=O)(=O)[O-])c6F)c6nc(c(-c7cccc(S(=O)(=O)[O-])c7F)c7ccc4[nH]7)C=C6)C=C5)cc3)[C@@H]3C=C[C@H]2C3)c(C#N)c1C
REMARK SMILES IDX 14 1 13 2 12 3 10 4 11 5 9 7 8 8 85 9 82 10 84 11 86 12
REMARK SMILES IDX 83 13 6 14 5 15 7 17 4 18 1 19 2 20 3 21 90 22 87 23 91 24
REMARK SMILES IDX 88 25 89 26 15 27 16 28 17 29 18 31 19 32 20 33 81 34 21 35
REMARK SMILES IDX 80 36 22 37 23 38 24 39 74 40 25 41 79 42 73 43 75 44 26 45
REMARK SMILES IDX 78 46 72 47 71 48 27 50 59 51 39 52 58 53 40 54 43 55 57 56
REMARK SMILES IDX 76 57 41 58 42 59 56 61 77 62 44 63 28 64 29 65 37 66 30 67
REMARK SMILES IDX 32 68 38 69 31 70 33 71 34 72 35 73 36 74 60 75 61 76 69 77
REMARK SMILES IDX 62 78 64 79 70 80 63 81 65 82 66 83 67 84 68 85 45 86 46 87
REMARK SMILES IDX 54 88 47 89 49 90 55 91 48 92 50 93 51 94 52 95 53 96
REMARK H PARENT 12 6 5 16 16 30 75 49 43 60
REMARK Flexibility Score: inf
ROOT
ATOM      1  C   UNL A   1      37.910  19.990  25.087  1.00  0.00     0.042 C 
ENDROOT
BRANCH   1   2
ATOM      2  C   UNL A   1      36.883  21.108  25.030  1.00  0.00     0.117 C 
BRANCH   2   3
ATOM      3  N   UNL A   1      35.879  21.025  26.076  1.00  0.00    -0.356 N 
ATOM      4  C   UNL A   1      34.537  21.234  25.990  1.00  0.00     0.224 C 
ATOM      5  O   UNL A   1      33.862  21.084  27.006  1.00  0.00    -0.275 OA
ATOM      6  H   UNL A   1      36.216  20.786  26.970  1.00  0.00     0.163 HD
BRANCH   4   7
ATOM      7  C   UNL A   1      33.950  21.611  24.638  1.00  0.00     0.098 C 
ATOM      8  C   UNL A   1      33.591  23.132  24.550  1.00  0.00     0.099 C 
ATOM      9  C   UNL A   1      32.084  23.100  24.182  1.00  0.00     0.025 C 
ATOM     10  C   UNL A   1      32.553  20.946  24.473  1.00  0.00     0.025 C 
ATOM     11  C   UNL A   1      31.884  22.408  22.849  1.00  0.00    -0.027 C 
ATOM     12  C   UNL A   1      31.615  21.978  25.102  1.00  0.00     0.017 C 
ATOM     13  C   UNL A   1      32.165  21.110  23.025  1.00  0.00    -0.027 C 
BRANCH   8  14
ATOM     14  C   UNL A   1      34.388  23.970  23.573  1.00  0.00     0.229 C 
ATOM     15  N   UNL A   1      34.159  25.310  23.393  1.00  0.00    -0.316 N 
ATOM     16  H   UNL A   1      34.698  25.700  22.667  1.00  0.00     0.170 HD
ATOM     17  O   UNL A   1      35.247  23.452  22.850  1.00  0.00    -0.274 OA
BRANCH  15  18
ATOM     18  C   UNL A   1      33.329  26.239  24.015  1.00  0.00     0.113 A 
ATOM     19  C   UNL A   1      32.067  28.709  26.792  1.00  0.00     0.057 C 
ATOM     20  C   UNL A   1      32.277  27.862  25.580  1.00  0.00     0.008 A 
ATOM     21  S   UNL A   1      33.596  26.802  25.585  1.00  0.00    -0.122 S 
ATOM     22  C   UNL A   1      31.580  27.794  24.386  1.00  0.00    -0.017 A 
ATOM     23  C   UNL A   1      32.202  26.845  23.485  1.00  0.00     0.090 A 
ATOM     24  C   UNL A   1      30.364  28.596  24.048  1.00  0.00     0.047 C 
BRANCH  23  25
ATOM     25  C   UNL A   1      31.698  26.545  22.169  1.00  0.00     0.103 C 
ATOM     26  N   UNL A   1      31.277  26.269  21.131  1.00  0.00    -0.192 NA
ENDBRANCH  23  25
ENDBRANCH  15  18
ENDBRANCH   8  14
ENDBRANCH   4   7
ENDBRANCH   2   3
ENDBRANCH   1   2
BRANCH   1  27
ATOM     27  C   UNL A   1      39.195  20.437  25.740  1.00  0.00     0.118 C 
BRANCH  27  28
ATOM     28  N   UNL A   1      40.222  19.386  25.817  1.00  0.00    -0.352 N 
ATOM     29  C   UNL A   1      41.585  19.557  26.014  1.00  0.00     0.251 C 
ATOM     30  H   UNL A   1      39.907  18.458  25.718  1.00  0.00     0.163 HD
ATOM     31  O   UNL A   1      42.382  18.657  25.779  1.00  0.00    -0.269 OA
BRANCH  29  32
ATOM     32  C   UNL A   1      42.030  20.852  26.556  1.00  0.00     0.039 A 
ATOM     33  C   UNL A   1      42.506  21.903  25.771  1.00  0.00     0.014 A 
ATOM     34  C   UNL A   1      41.835  21.020  27.921  1.00  0.00     0.014 A 
ATOM     35  C   UNL A   1      42.762  23.120  26.401  1.00  0.00     0.010 A 
ATOM     36  C   UNL A   1      41.714  22.277  28.412  1.00  0.00     0.010 A 
ATOM     37  C   UNL A   1      42.358  23.289  27.738  1.00  0.00    -0.014 A 
BRANCH  37  38
ATOM     38  C   UNL A   1      42.444  24.547  28.461  1.00  0.00     0.031 A 
ATOM     39  C   UNL A   1      41.235  25.379  28.244  1.00  0.00     0.074 A 
ATOM     40  C   UNL A   1      43.411  24.793  29.382  1.00  0.00     0.049 A 
ATOM     41  N   UNL A   1      41.147  26.412  27.478  1.00  0.00    -0.248 NA
ATOM     42  C   UNL A   1      39.928  24.872  28.700  1.00  0.00     0.031 C 
ATOM     43  C   UNL A   1      44.469  23.899  29.891  1.00  0.00     0.029 A 
ATOM     44  N   UNL A   1      43.607  25.895  30.151  1.00  0.00    -0.354 N 
ATOM     45  C   UNL A   1      39.840  26.864  27.620  1.00  0.00     0.074 A 
ATOM     46  C   UNL A   1      39.093  25.758  28.151  1.00  0.00     0.031 C 
ATOM     47  C   UNL A   1      44.990  24.401  31.037  1.00  0.00     0.029 A 
ATOM     48  C   UNL A   1      44.437  25.723  31.260  1.00  0.00     0.049 A 
ATOM     49  H   UNL A   1      43.190  26.762  29.938  1.00  0.00     0.167 HD
ATOM     50  C   UNL A   1      39.574  28.199  27.582  1.00  0.00     0.034 A 
ATOM     51  C   UNL A   1      44.629  26.600  32.288  1.00  0.00     0.034 A 
ATOM     52  C   UNL A   1      40.716  28.925  27.078  1.00  0.00     0.049 A 
ATOM     53  C   UNL A   1      44.191  27.927  31.794  1.00  0.00     0.074 A 
ATOM     54  C   UNL A   1      41.434  28.920  25.899  1.00  0.00     0.029 A 
ATOM     55  N   UNL A   1      41.542  29.474  28.030  1.00  0.00    -0.354 N 
ATOM     56  N   UNL A   1      44.794  28.544  30.814  1.00  0.00    -0.248 NA
ATOM     57  C   UNL A   1      42.801  28.288  32.015  1.00  0.00     0.031 C 
ATOM     58  C   UNL A   1      42.798  29.009  26.307  1.00  0.00     0.029 A 
ATOM     59  C   UNL A   1      42.836  29.187  27.692  1.00  0.00     0.049 A 
ATOM     60  H   UNL A   1      41.252  29.984  28.821  1.00  0.00     0.167 HD
ATOM     61  C   UNL A   1      43.754  28.983  30.007  1.00  0.00     0.074 A 
ATOM     62  C   UNL A   1      42.547  28.852  30.830  1.00  0.00     0.031 C 
ATOM     63  C   UNL A   1      43.910  29.088  28.655  1.00  0.00     0.034 A 
BRANCH  50  64
ATOM     64  C   UNL A   1      38.507  28.906  28.388  1.00  0.00     0.023 A 
ATOM     65  C   UNL A   1      37.714  29.848  27.694  1.00  0.00     0.012 A 
ATOM     66  C   UNL A   1      38.439  28.927  29.799  1.00  0.00     0.148 A 
ATOM     67  C   UNL A   1      36.952  30.807  28.368  1.00  0.00     0.002 A 
ATOM     68  C   UNL A   1      37.632  29.842  30.466  1.00  0.00     0.091 A 
ATOM     69  F   UNL A   1      39.241  28.146  30.524  1.00  0.00    -0.205 F 
ATOM     70  C   UNL A   1      36.911  30.805  29.756  1.00  0.00     0.022 A 
BRANCH  68  71
ATOM     71  S   UNL A   1      37.516  29.881  32.260  1.00  0.00     0.127 S 
ATOM     72  O   UNL A   1      36.403  30.806  32.460  1.00  0.00    -0.237 OA
ATOM     73  O   UNL A   1      37.221  28.479  32.564  1.00  0.00    -0.237 OA
ATOM     74  O   UNL A   1      38.816  30.337  32.733  1.00  0.00    -0.744 OA
ENDBRANCH  68  71
ENDBRANCH  50  64
BRANCH  51  75
ATOM     75  C   UNL A   1      44.779  26.337  33.749  1.00  0.00     0.023 A 
ATOM     76  C   UNL A   1      46.015  26.545  34.402  1.00  0.00     0.012 A 
ATOM     77  C   UNL A   1      43.631  26.186  34.558  1.00  0.00     0.148 A 
ATOM     78  C   UNL A   1      46.098  26.616  35.804  1.00  0.00     0.002 A 
ATOM     79  C   UNL A   1      43.717  26.259  35.947  1.00  0.00     0.091 A 
ATOM     80  F   UNL A   1      42.440  26.063  33.957  1.00  0.00    -0.205 F 
ATOM     81  C   UNL A   1      44.948  26.481  36.576  1.00  0.00     0.022 A 
BRANCH  79  82
ATOM     82  S   UNL A   1      42.266  26.136  37.004  1.00  0.00     0.127 S 
ATOM     83  O   UNL A   1      41.803  24.777  36.720  1.00  0.00    -0.237 OA
ATOM     84  O   UNL A   1      42.842  26.320  38.334  1.00  0.00    -0.237 OA
ATOM     85  O   UNL A   1      41.360  27.186  36.561  1.00  0.00    -0.744 OA
ENDBRANCH  79  82
ENDBRANCH  51  75
BRANCH  63  86
ATOM     86  C   UNL A   1      45.293  28.939  28.079  1.00  0.00     0.023 A 
ATOM     87  C   UNL A   1      46.297  29.930  28.170  1.00  0.00     0.012 A 
ATOM     88  C   UNL A   1      45.639  27.660  27.624  1.00  0.00     0.148 A 
ATOM     89  C   UNL A   1      47.620  29.637  27.811  1.00  0.00     0.002 A 
ATOM     90  C   UNL A   1      46.957  27.360  27.320  1.00  0.00     0.091 A 
ATOM     91  F   UNL A   1      44.667  26.739  27.552  1.00  0.00    -0.205 F 
ATOM     92  C   UNL A   1      47.951  28.346  27.402  1.00  0.00     0.022 A 
BRANCH  90  93
ATOM     93  S   UNL A   1      47.455  25.683  26.929  1.00  0.00     0.127 S 
ATOM     94  O   UNL A   1      47.165  24.983  28.178  1.00  0.00    -0.237 OA
ATOM     95  O   UNL A   1      46.565  25.348  25.815  1.00  0.00    -0.237 OA
ATOM     96  O   UNL A   1      48.865  25.751  26.567  1.00  0.00    -0.744 OA
ENDBRANCH  90  93
ENDBRANCH  63  86
ENDBRANCH  37  38
ENDBRANCH  29  32
ENDBRANCH  27  28
ENDBRANCH   1  27
TORSDOF 16
ENDMDL
