MODEL 1
REMARK VINA RESULT:     -13.6      0.000      0.000
REMARK SMILES Cc1ccc(-c2cn3c(n2)sc2cc(C(=O)NCCCNC(=O)c4ccc(-c5c6nc(c(-c7cccc(S(=O)(=O)[O-])c7F)c7ccc([nH]7)c(-c7cccc(S(=O)(=O)[O-])c7F)c7nc(c(-c8cccc(S(=O)(=O)[O-])c8F)c8ccc5[nH]8)C=C7)C=C6)cc4)ccc23)cc1
REMARK SMILES IDX 20 1 19 2 18 3 17 4 15 5 16 6 14 8 6 9 7 10 10 11 8 12 9 13
REMARK SMILES IDX 89 14 11 15 12 16 88 17 13 18 87 19 5 20 1 21 2 22 3 23
REMARK SMILES IDX 91 24 4 25 90 26 21 27 22 28 23 30 24 31 25 32 86 33 26 34
REMARK SMILES IDX 85 35 27 36 28 37 29 38 79 39 30 40 84 41 78 42 80 43 31 44
REMARK SMILES IDX 83 45 77 46 76 47 32 49 64 50 44 51 63 52 45 53 48 54 62 55
REMARK SMILES IDX 81 56 46 57 47 58 61 60 82 61 49 62 33 63 34 64 42 65 35 66
REMARK SMILES IDX 37 67 43 68 36 69 38 70 39 71 40 72 41 73 65 74 66 75 74 76
REMARK SMILES IDX 67 77 69 78 75 79 68 80 70 81 71 82 72 83 73 84 50 85 51 86
REMARK SMILES IDX 59 87 52 88 54 89 60 90 53 91 55 92 56 93 57 94 58 95
REMARK H PARENT 17 7 21 29 80 48 48 59
REMARK Flexibility Score: inf
ROOT
ATOM      1  C   UNL A   1      34.332  30.615  27.445  1.00  0.00     0.118 C 
ENDROOT
BRANCH   1   2
ATOM      2  C   UNL A   1      32.910  31.140  27.568  1.00  0.00     0.042 C 
BRANCH   2   3
ATOM      3  C   UNL A   1      31.974  30.764  26.423  1.00  0.00     0.118 C 
BRANCH   3   4
ATOM      4  N   UNL A   1      32.702  30.372  25.208  1.00  0.00    -0.352 N 
ATOM      5  C   UNL A   1      32.672  29.177  24.512  1.00  0.00     0.251 C 
ATOM      6  O   UNL A   1      33.210  29.047  23.420  1.00  0.00    -0.269 OA
ATOM      7  H   UNL A   1      33.297  31.061  24.834  1.00  0.00     0.163 HD
BRANCH   5   8
ATOM      8  C   UNL A   1      31.867  28.062  25.061  1.00  0.00     0.041 A 
ATOM      9  C   UNL A   1      33.551  22.880  25.223  1.00  0.00     0.090 A 
ATOM     10  C   UNL A   1      32.914  23.544  26.262  1.00  0.00     0.123 A 
ATOM     11  N   UNL A   1      32.751  22.857  24.085  1.00  0.00    -0.219 NA
ATOM     12  N   UNL A   1      31.887  24.186  25.633  1.00  0.00    -0.290 N 
ATOM     13  C   UNL A   1      31.741  23.635  24.390  1.00  0.00     0.195 A 
ATOM     14  C   UNL A   1      31.426  25.499  25.785  1.00  0.00     0.065 A 
ATOM     15  S   UNL A   1      30.702  24.596  23.367  1.00  0.00    -0.096 S 
ATOM     16  C   UNL A   1      30.919  25.947  24.553  1.00  0.00     0.056 A 
ATOM     17  C   UNL A   1      31.914  26.351  26.767  1.00  0.00     0.029 A 
ATOM     18  C   UNL A   1      31.096  27.271  24.198  1.00  0.00     0.035 A 
ATOM     19  C   UNL A   1      32.165  27.661  26.376  1.00  0.00     0.016 A 
BRANCH   9  20
ATOM     20  C   UNL A   1      34.958  22.488  25.234  1.00  0.00     0.002 A 
ATOM     21  C   UNL A   1      39.096  21.279  25.636  1.00  0.00     0.044 C 
ATOM     22  C   UNL A   1      37.666  21.710  25.496  1.00  0.00    -0.051 A 
ATOM     23  C   UNL A   1      36.690  20.774  25.144  1.00  0.00     0.004 A 
ATOM     24  C   UNL A   1      37.281  23.034  25.727  1.00  0.00     0.004 A 
ATOM     25  C   UNL A   1      35.353  21.160  25.012  1.00  0.00     0.010 A 
ATOM     26  C   UNL A   1      35.939  23.419  25.596  1.00  0.00     0.010 A 
ENDBRANCH   9  20
ENDBRANCH   5   8
ENDBRANCH   3   4
ENDBRANCH   2   3
ENDBRANCH   1   2
BRANCH   1  27
ATOM     27  N   UNL A   1      35.336  31.597  27.856  1.00  0.00    -0.352 N 
ATOM     28  C   UNL A   1      36.620  31.396  28.337  1.00  0.00     0.251 C 
ATOM     29  H   UNL A   1      35.059  32.538  27.778  1.00  0.00     0.163 HD
ATOM     30  O   UNL A   1      37.289  32.351  28.723  1.00  0.00    -0.269 OA
BRANCH  28  31
ATOM     31  C   UNL A   1      37.205  30.042  28.243  1.00  0.00     0.039 A 
ATOM     32  C   UNL A   1      37.193  29.264  29.405  1.00  0.00     0.014 A 
ATOM     33  C   UNL A   1      38.053  29.735  27.186  1.00  0.00     0.014 A 
ATOM     34  C   UNL A   1      38.242  28.384  29.641  1.00  0.00     0.010 A 
ATOM     35  C   UNL A   1      39.155  28.959  27.463  1.00  0.00     0.010 A 
ATOM     36  C   UNL A   1      39.282  28.350  28.720  1.00  0.00    -0.014 A 
BRANCH  36  37
ATOM     37  C   UNL A   1      40.570  27.724  28.952  1.00  0.00     0.031 A 
ATOM     38  C   UNL A   1      40.696  26.271  28.743  1.00  0.00     0.074 A 
ATOM     39  C   UNL A   1      41.656  28.507  29.132  1.00  0.00     0.049 A 
ATOM     40  N   UNL A   1      41.734  25.581  29.065  1.00  0.00    -0.248 NA
ATOM     41  C   UNL A   1      39.606  25.466  28.202  1.00  0.00     0.031 C 
ATOM     42  C   UNL A   1      43.050  28.138  28.913  1.00  0.00     0.029 A 
ATOM     43  N   UNL A   1      41.725  29.750  29.771  1.00  0.00    -0.354 N 
ATOM     44  C   UNL A   1      41.574  24.326  28.518  1.00  0.00     0.074 A 
ATOM     45  C   UNL A   1      40.193  24.270  28.116  1.00  0.00     0.031 C 
ATOM     46  C   UNL A   1      43.830  28.961  29.630  1.00  0.00     0.029 A 
ATOM     47  C   UNL A   1      42.950  29.759  30.464  1.00  0.00     0.049 A 
ATOM     48  H   UNL A   1      41.056  30.471  29.741  1.00  0.00     0.167 HD
ATOM     49  C   UNL A   1      42.681  23.554  28.346  1.00  0.00     0.034 A 
ATOM     50  C   UNL A   1      43.057  29.882  31.819  1.00  0.00     0.034 A 
ATOM     51  C   UNL A   1      43.821  24.126  29.080  1.00  0.00     0.049 A 
ATOM     52  C   UNL A   1      43.761  28.704  32.471  1.00  0.00     0.074 A 
ATOM     53  C   UNL A   1      44.920  24.877  28.698  1.00  0.00     0.029 A 
ATOM     54  N   UNL A   1      43.763  24.193  30.469  1.00  0.00    -0.354 N 
ATOM     55  N   UNL A   1      44.074  27.601  31.849  1.00  0.00    -0.248 NA
ATOM     56  C   UNL A   1      44.153  28.669  33.878  1.00  0.00     0.031 C 
ATOM     57  C   UNL A   1      45.452  25.492  29.866  1.00  0.00     0.029 A 
ATOM     58  C   UNL A   1      44.707  25.081  30.960  1.00  0.00     0.049 A 
ATOM     59  H   UNL A   1      43.136  23.679  31.027  1.00  0.00     0.167 HD
ATOM     60  C   UNL A   1      44.563  26.680  32.740  1.00  0.00     0.074 A 
ATOM     61  C   UNL A   1      44.666  27.429  33.982  1.00  0.00     0.031 C 
ATOM     62  C   UNL A   1      44.775  25.371  32.393  1.00  0.00     0.034 A 
BRANCH  49  63
ATOM     63  C   UNL A   1      42.833  22.410  27.347  1.00  0.00     0.023 A 
ATOM     64  C   UNL A   1      42.134  21.215  27.636  1.00  0.00     0.012 A 
ATOM     65  C   UNL A   1      43.687  22.357  26.216  1.00  0.00     0.148 A 
ATOM     66  C   UNL A   1      42.303  20.039  26.893  1.00  0.00     0.002 A 
ATOM     67  C   UNL A   1      43.838  21.192  25.456  1.00  0.00     0.091 A 
ATOM     68  F   UNL A   1      44.410  23.416  25.863  1.00  0.00    -0.205 F 
ATOM     69  C   UNL A   1      43.158  20.025  25.802  1.00  0.00     0.022 A 
BRANCH  67  70
ATOM     70  S   UNL A   1      44.931  21.105  24.020  1.00  0.00     0.127 S 
ATOM     71  O   UNL A   1      46.251  21.252  24.632  1.00  0.00    -0.237 OA
ATOM     72  O   UNL A   1      44.649  19.770  23.494  1.00  0.00    -0.237 OA
ATOM     73  O   UNL A   1      44.545  22.198  23.135  1.00  0.00    -0.744 OA
ENDBRANCH  67  70
ENDBRANCH  49  63
BRANCH  50  74
ATOM     74  C   UNL A   1      41.983  30.715  32.432  1.00  0.00     0.023 A 
ATOM     75  C   UNL A   1      41.910  32.062  32.004  1.00  0.00     0.012 A 
ATOM     76  C   UNL A   1      40.858  30.136  33.047  1.00  0.00     0.148 A 
ATOM     77  C   UNL A   1      40.710  32.772  32.062  1.00  0.00     0.002 A 
ATOM     78  C   UNL A   1      39.662  30.851  33.100  1.00  0.00     0.091 A 
ATOM     79  F   UNL A   1      40.948  28.872  33.481  1.00  0.00    -0.205 F 
ATOM     80  C   UNL A   1      39.577  32.152  32.575  1.00  0.00     0.022 A 
BRANCH  78  81
ATOM     81  S   UNL A   1      38.131  30.115  33.692  1.00  0.00     0.127 S 
ATOM     82  O   UNL A   1      38.324  30.163  35.138  1.00  0.00    -0.237 OA
ATOM     83  O   UNL A   1      37.124  31.040  33.174  1.00  0.00    -0.237 OA
ATOM     84  O   UNL A   1      38.092  28.791  33.091  1.00  0.00    -0.744 OA
ENDBRANCH  78  81
ENDBRANCH  50  74
BRANCH  62  85
ATOM     85  C   UNL A   1      45.045  24.233  33.367  1.00  0.00     0.023 A 
ATOM     86  C   UNL A   1      44.110  23.206  33.608  1.00  0.00     0.012 A 
ATOM     87  C   UNL A   1      46.323  24.071  33.965  1.00  0.00     0.148 A 
ATOM     88  C   UNL A   1      44.396  22.116  34.439  1.00  0.00     0.002 A 
ATOM     89  C   UNL A   1      46.641  22.926  34.694  1.00  0.00     0.091 A 
ATOM     90  F   UNL A   1      47.246  25.036  33.845  1.00  0.00    -0.205 F 
ATOM     91  C   UNL A   1      45.670  21.962  34.963  1.00  0.00     0.022 A 
BRANCH  89  92
ATOM     92  S   UNL A   1      48.344  22.579  35.160  1.00  0.00     0.127 S 
ATOM     93  O   UNL A   1      48.509  23.401  36.356  1.00  0.00    -0.237 OA
ATOM     94  O   UNL A   1      48.317  21.136  35.414  1.00  0.00    -0.237 OA
ATOM     95  O   UNL A   1      49.131  22.962  33.996  1.00  0.00    -0.744 OA
ENDBRANCH  89  92
ENDBRANCH  62  85
ENDBRANCH  36  37
ENDBRANCH  28  31
ENDBRANCH   1  27
TORSDOF 14
ENDMDL
MODEL 2
REMARK VINA RESULT:     -13.6      4.175     10.002
REMARK SMILES Cc1ccc(-c2cn3c(n2)sc2cc(C(=O)NCCCNC(=O)c4ccc(-c5c6nc(c(-c7cccc(S(=O)(=O)[O-])c7F)c7ccc([nH]7)c(-c7cccc(S(=O)(=O)[O-])c7F)c7nc(c(-c8cccc(S(=O)(=O)[O-])c8F)c8ccc5[nH]8)C=C7)C=C6)cc4)ccc23)cc1
REMARK SMILES IDX 20 1 19 2 18 3 17 4 15 5 16 6 14 8 6 9 7 10 10 11 8 12 9 13
REMARK SMILES IDX 89 14 11 15 12 16 88 17 13 18 87 19 5 20 1 21 2 22 3 23
REMARK SMILES IDX 91 24 4 25 90 26 21 27 22 28 23 30 24 31 25 32 86 33 26 34
REMARK SMILES IDX 85 35 27 36 28 37 29 38 79 39 30 40 84 41 78 42 80 43 31 44
REMARK SMILES IDX 83 45 77 46 76 47 32 49 64 50 44 51 63 52 45 53 48 54 62 55
REMARK SMILES IDX 81 56 46 57 47 58 61 60 82 61 49 62 33 63 34 64 42 65 35 66
REMARK SMILES IDX 37 67 43 68 36 69 38 70 39 71 40 72 41 73 65 74 66 75 74 76
REMARK SMILES IDX 67 77 69 78 75 79 68 80 70 81 71 82 72 83 73 84 50 85 51 86
REMARK SMILES IDX 59 87 52 88 54 89 60 90 53 91 55 92 56 93 57 94 58 95
REMARK H PARENT 17 7 21 29 80 48 48 59
REMARK Flexibility Score: inf
ROOT
ATOM      1  C   UNL A   1      38.662  22.256  25.769  1.00  0.00     0.118 C 
ENDROOT
BRANCH   1   2
ATOM      2  C   UNL A   1      38.213  20.855  25.386  1.00  0.00     0.042 C 
BRANCH   2   3
ATOM      3  C   UNL A   1      36.828  20.764  24.752  1.00  0.00     0.118 C 
BRANCH   3   4
ATOM      4  N   UNL A   1      35.751  20.771  25.751  1.00  0.00    -0.352 N 
ATOM      5  C   UNL A   1      34.463  21.266  25.653  1.00  0.00     0.251 C 
ATOM      6  O   UNL A   1      33.619  21.056  26.516  1.00  0.00    -0.269 OA
ATOM      7  H   UNL A   1      35.979  20.362  26.618  1.00  0.00     0.163 HD
BRANCH   5   8
ATOM      8  C   UNL A   1      34.072  21.971  24.412  1.00  0.00     0.041 A 
ATOM      9  C   UNL A   1      32.408  27.161  24.253  1.00  0.00     0.090 A 
ATOM     10  C   UNL A   1      33.307  26.584  23.366  1.00  0.00     0.123 A 
ATOM     11  N   UNL A   1      31.187  26.496  24.223  1.00  0.00    -0.219 NA
ATOM     12  N   UNL A   1      32.717  25.392  23.062  1.00  0.00    -0.290 N 
ATOM     13  C   UNL A   1      31.413  25.450  23.466  1.00  0.00     0.195 A 
ATOM     14  C   UNL A   1      33.279  24.112  22.971  1.00  0.00     0.065 A 
ATOM     15  S   UNL A   1      30.653  23.877  23.452  1.00  0.00    -0.096 S 
ATOM     16  C   UNL A   1      32.315  23.165  23.354  1.00  0.00     0.056 A 
ATOM     17  C   UNL A   1      34.648  23.892  23.063  1.00  0.00     0.029 A 
ATOM     18  C   UNL A   1      32.720  22.040  24.048  1.00  0.00     0.035 A 
ATOM     19  C   UNL A   1      35.046  22.804  23.831  1.00  0.00     0.016 A 
BRANCH   9  20
ATOM     20  C   UNL A   1      32.767  28.155  25.262  1.00  0.00     0.002 A 
ATOM     21  C   UNL A   1      34.063  31.249  27.998  1.00  0.00     0.044 C 
ATOM     22  C   UNL A   1      33.622  30.169  27.056  1.00  0.00    -0.051 A 
ATOM     23  C   UNL A   1      32.461  30.341  26.298  1.00  0.00     0.004 A 
ATOM     24  C   UNL A   1      34.359  28.991  26.906  1.00  0.00     0.004 A 
ATOM     25  C   UNL A   1      32.038  29.344  25.413  1.00  0.00     0.010 A 
ATOM     26  C   UNL A   1      33.936  27.993  26.017  1.00  0.00     0.010 A 
ENDBRANCH   9  20
ENDBRANCH   5   8
ENDBRANCH   3   4
ENDBRANCH   2   3
ENDBRANCH   1   2
BRANCH   1  27
ATOM     27  N   UNL A   1      40.081  22.319  26.122  1.00  0.00    -0.352 N 
ATOM     28  C   UNL A   1      40.848  23.409  26.498  1.00  0.00     0.251 C 
ATOM     29  H   UNL A   1      40.560  21.459  26.088  1.00  0.00     0.163 HD
ATOM     30  O   UNL A   1      42.058  23.282  26.667  1.00  0.00    -0.269 OA
BRANCH  28  31
ATOM     31  C   UNL A   1      40.160  24.677  26.823  1.00  0.00     0.039 A 
ATOM     32  C   UNL A   1      40.588  25.823  26.143  1.00  0.00     0.014 A 
ATOM     33  C   UNL A   1      39.427  24.776  27.999  1.00  0.00     0.014 A 
ATOM     34  C   UNL A   1      40.562  27.047  26.799  1.00  0.00     0.010 A 
ATOM     35  C   UNL A   1      39.509  25.958  28.698  1.00  0.00     0.010 A 
ATOM     36  C   UNL A   1      40.147  27.067  28.125  1.00  0.00    -0.014 A 
BRANCH  36  37
ATOM     37  C   UNL A   1      40.335  28.183  29.032  1.00  0.00     0.031 A 
ATOM     38  C   UNL A   1      39.413  29.328  28.944  1.00  0.00     0.074 A 
ATOM     39  C   UNL A   1      41.194  28.048  30.066  1.00  0.00     0.049 A 
ATOM     40  N   UNL A   1      39.572  30.436  29.579  1.00  0.00    -0.248 NA
ATOM     41  C   UNL A   1      38.254  29.326  28.057  1.00  0.00     0.031 C 
ATOM     42  C   UNL A   1      41.192  28.804  31.313  1.00  0.00     0.029 A 
ATOM     43  N   UNL A   1      42.397  27.333  30.100  1.00  0.00    -0.354 N 
ATOM     44  C   UNL A   1      38.412  31.164  29.425  1.00  0.00     0.074 A 
ATOM     45  C   UNL A   1      37.693  30.496  28.372  1.00  0.00     0.031 C 
ATOM     46  C   UNL A   1      42.418  28.745  31.854  1.00  0.00     0.029 A 
ATOM     47  C   UNL A   1      43.281  28.102  30.879  1.00  0.00     0.049 A 
ATOM     48  H   UNL A   1      42.586  26.469  29.668  1.00  0.00     0.167 HD
ATOM     49  C   UNL A   1      38.151  32.156  30.319  1.00  0.00     0.034 A 
ATOM     50  C   UNL A   1      44.455  28.619  30.413  1.00  0.00     0.034 A 
ATOM     51  C   UNL A   1      39.351  32.450  31.119  1.00  0.00     0.049 A 
ATOM     52  C   UNL A   1      44.522  30.133  30.516  1.00  0.00     0.074 A 
ATOM     53  C   UNL A   1      39.749  32.108  32.400  1.00  0.00     0.029 A 
ATOM     54  N   UNL A   1      40.477  32.963  30.481  1.00  0.00    -0.354 N 
ATOM     55  N   UNL A   1      43.511  30.892  30.839  1.00  0.00    -0.248 NA
ATOM     56  C   UNL A   1      45.726  30.914  30.246  1.00  0.00     0.031 C 
ATOM     57  C   UNL A   1      41.155  32.311  32.486  1.00  0.00     0.029 A 
ATOM     58  C   UNL A   1      41.603  32.818  31.277  1.00  0.00     0.049 A 
ATOM     59  H   UNL A   1      40.475  33.372  29.586  1.00  0.00     0.167 HD
ATOM     60  C   UNL A   1      43.850  32.213  30.701  1.00  0.00     0.074 A 
ATOM     61  C   UNL A   1      45.273  32.171  30.405  1.00  0.00     0.031 C 
ATOM     62  C   UNL A   1      42.919  33.216  30.776  1.00  0.00     0.034 A 
BRANCH  49  63
ATOM     63  C   UNL A   1      36.775  32.725  30.656  1.00  0.00     0.023 A 
ATOM     64  C   UNL A   1      36.146  32.221  31.818  1.00  0.00     0.012 A 
ATOM     65  C   UNL A   1      35.994  33.617  29.879  1.00  0.00     0.148 A 
ATOM     66  C   UNL A   1      34.825  32.538  32.162  1.00  0.00     0.002 A 
ATOM     67  C   UNL A   1      34.684  33.956  30.233  1.00  0.00     0.091 A 
ATOM     68  F   UNL A   1      36.477  34.136  28.753  1.00  0.00    -0.205 F 
ATOM     69  C   UNL A   1      34.090  33.404  31.367  1.00  0.00     0.022 A 
BRANCH  67  70
ATOM     70  S   UNL A   1      33.672  35.082  29.247  1.00  0.00     0.127 S 
ATOM     71  O   UNL A   1      33.311  36.105  30.228  1.00  0.00    -0.237 OA
ATOM     72  O   UNL A   1      34.613  35.527  28.220  1.00  0.00    -0.237 OA
ATOM     73  O   UNL A   1      32.550  34.300  28.742  1.00  0.00    -0.744 OA
ENDBRANCH  67  70
ENDBRANCH  49  63
BRANCH  50  74
ATOM     74  C   UNL A   1      45.108  27.777  29.369  1.00  0.00     0.023 A 
ATOM     75  C   UNL A   1      45.627  26.533  29.799  1.00  0.00     0.012 A 
ATOM     76  C   UNL A   1      44.859  27.973  27.999  1.00  0.00     0.148 A 
ATOM     77  C   UNL A   1      45.765  25.466  28.911  1.00  0.00     0.002 A 
ATOM     78  C   UNL A   1      44.999  26.901  27.118  1.00  0.00     0.091 A 
ATOM     79  F   UNL A   1      44.402  29.166  27.597  1.00  0.00    -0.205 F 
ATOM     80  C   UNL A   1      45.415  25.640  27.578  1.00  0.00     0.022 A 
BRANCH  78  81
ATOM     81  S   UNL A   1      44.516  27.014  25.388  1.00  0.00     0.127 S 
ATOM     82  O   UNL A   1      45.781  27.370  24.754  1.00  0.00    -0.237 OA
ATOM     83  O   UNL A   1      44.049  25.657  25.110  1.00  0.00    -0.237 OA
ATOM     84  O   UNL A   1      43.470  28.024  25.354  1.00  0.00    -0.744 OA
ENDBRANCH  78  81
ENDBRANCH  50  74
BRANCH  62  85
ATOM     85  C   UNL A   1      43.149  34.665  30.366  1.00  0.00     0.023 A 
ATOM     86  C   UNL A   1      43.486  35.669  31.295  1.00  0.00     0.012 A 
ATOM     87  C   UNL A   1      43.185  35.039  28.997  1.00  0.00     0.148 A 
ATOM     88  C   UNL A   1      43.781  36.981  30.903  1.00  0.00     0.002 A 
ATOM     89  C   UNL A   1      43.594  36.314  28.606  1.00  0.00     0.091 A 
ATOM     90  F   UNL A   1      42.809  34.165  28.052  1.00  0.00    -0.205 F 
ATOM     91  C   UNL A   1      43.859  37.299  29.556  1.00  0.00     0.022 A 
BRANCH  89  92
ATOM     92  S   UNL A   1      43.954  36.672  26.879  1.00  0.00     0.127 S 
ATOM     93  O   UNL A   1      44.952  35.656  26.556  1.00  0.00    -0.237 OA
ATOM     94  O   UNL A   1      42.653  36.473  26.234  1.00  0.00    -0.237 OA
ATOM     95  O   UNL A   1      44.411  38.055  26.876  1.00  0.00    -0.744 OA
ENDBRANCH  89  92
ENDBRANCH  62  85
ENDBRANCH  36  37
ENDBRANCH  28  31
ENDBRANCH   1  27
TORSDOF 14
ENDMDL
MODEL 3
REMARK VINA RESULT:     -13.6      4.144     10.546
REMARK SMILES Cc1ccc(-c2cn3c(n2)sc2cc(C(=O)NCCCNC(=O)c4ccc(-c5c6nc(c(-c7cccc(S(=O)(=O)[O-])c7F)c7ccc([nH]7)c(-c7cccc(S(=O)(=O)[O-])c7F)c7nc(c(-c8cccc(S(=O)(=O)[O-])c8F)c8ccc5[nH]8)C=C7)C=C6)cc4)ccc23)cc1
REMARK SMILES IDX 20 1 19 2 18 3 17 4 15 5 16 6 14 8 6 9 7 10 10 11 8 12 9 13
REMARK SMILES IDX 89 14 11 15 12 16 88 17 13 18 87 19 5 20 1 21 2 22 3 23
REMARK SMILES IDX 91 24 4 25 90 26 21 27 22 28 23 30 24 31 25 32 86 33 26 34
REMARK SMILES IDX 85 35 27 36 28 37 29 38 79 39 30 40 84 41 78 42 80 43 31 44
REMARK SMILES IDX 83 45 77 46 76 47 32 49 64 50 44 51 63 52 45 53 48 54 62 55
REMARK SMILES IDX 81 56 46 57 47 58 61 60 82 61 49 62 33 63 34 64 42 65 35 66
REMARK SMILES IDX 37 67 43 68 36 69 38 70 39 71 40 72 41 73 65 74 66 75 74 76
REMARK SMILES IDX 67 77 69 78 75 79 68 80 70 81 71 82 72 83 73 84 50 85 51 86
REMARK SMILES IDX 59 87 52 88 54 89 60 90 53 91 55 92 56 93 57 94 58 95
REMARK H PARENT 17 7 21 29 80 48 48 59
REMARK Flexibility Score: inf
ROOT
ATOM      1  C   UNL A   1      38.567  22.621  26.304  1.00  0.00     0.118 C 
ENDROOT
BRANCH   1   2
ATOM      2  C   UNL A   1      38.518  21.417  25.375  1.00  0.00     0.042 C 
BRANCH   2   3
ATOM      3  C   UNL A   1      37.132  21.050  24.855  1.00  0.00     0.118 C 
BRANCH   3   4
ATOM      4  N   UNL A   1      36.105  21.106  25.905  1.00  0.00    -0.352 N 
ATOM      5  C   UNL A   1      34.805  21.575  25.840  1.00  0.00     0.251 C 
ATOM      6  O   UNL A   1      34.008  21.410  26.755  1.00  0.00    -0.269 OA
ATOM      7  H   UNL A   1      36.382  20.758  26.783  1.00  0.00     0.163 HD
BRANCH   5   8
ATOM      8  C   UNL A   1      34.342  22.194  24.578  1.00  0.00     0.041 A 
ATOM      9  C   UNL A   1      32.215  27.202  24.241  1.00  0.00     0.090 A 
ATOM     10  C   UNL A   1      33.155  26.675  23.366  1.00  0.00     0.123 A 
ATOM     11  N   UNL A   1      31.059  26.430  24.251  1.00  0.00    -0.219 NA
ATOM     12  N   UNL A   1      32.672  25.423  23.115  1.00  0.00    -0.290 N 
ATOM     13  C   UNL A   1      31.371  25.379  23.532  1.00  0.00     0.195 A 
ATOM     14  C   UNL A   1      33.347  24.197  23.066  1.00  0.00     0.065 A 
ATOM     15  S   UNL A   1      30.757  23.746  23.587  1.00  0.00    -0.096 S 
ATOM     16  C   UNL A   1      32.475  23.183  23.496  1.00  0.00     0.056 A 
ATOM     17  C   UNL A   1      34.731  24.105  23.150  1.00  0.00     0.029 A 
ATOM     18  C   UNL A   1      32.986  22.127  24.227  1.00  0.00     0.035 A 
ATOM     19  C   UNL A   1      35.231  23.088  23.954  1.00  0.00     0.016 A 
BRANCH   9  20
ATOM     20  C   UNL A   1      32.491  28.263  25.207  1.00  0.00     0.002 A 
ATOM     21  C   UNL A   1      33.527  31.565  27.808  1.00  0.00     0.044 C 
ATOM     22  C   UNL A   1      33.176  30.414  26.913  1.00  0.00    -0.051 A 
ATOM     23  C   UNL A   1      32.002  30.455  26.157  1.00  0.00     0.004 A 
ATOM     24  C   UNL A   1      34.012  29.298  26.804  1.00  0.00     0.004 A 
ATOM     25  C   UNL A   1      31.663  29.391  25.315  1.00  0.00     0.010 A 
ATOM     26  C   UNL A   1      33.672  28.233  25.959  1.00  0.00     0.010 A 
ENDBRANCH   9  20
ENDBRANCH   5   8
ENDBRANCH   3   4
ENDBRANCH   2   3
ENDBRANCH   1   2
BRANCH   1  27
ATOM     27  N   UNL A   1      39.760  22.634  27.151  1.00  0.00    -0.352 N 
ATOM     28  C   UNL A   1      40.423  23.709  27.722  1.00  0.00     0.251 C 
ATOM     29  H   UNL A   1      40.148  21.751  27.343  1.00  0.00     0.163 HD
ATOM     30  O   UNL A   1      41.474  23.530  28.332  1.00  0.00    -0.269 OA
BRANCH  28  31
ATOM     31  C   UNL A   1      39.768  25.034  27.701  1.00  0.00     0.039 A 
ATOM     32  C   UNL A   1      40.275  25.977  26.800  1.00  0.00     0.014 A 
ATOM     33  C   UNL A   1      38.977  25.424  28.774  1.00  0.00     0.014 A 
ATOM     34  C   UNL A   1      40.262  27.322  27.150  1.00  0.00     0.010 A 
ATOM     35  C   UNL A   1      39.067  26.735  29.183  1.00  0.00     0.010 A 
ATOM     36  C   UNL A   1      39.777  27.662  28.407  1.00  0.00    -0.014 A 
BRANCH  36  37
ATOM     37  C   UNL A   1      39.960  28.955  29.039  1.00  0.00     0.031 A 
ATOM     38  C   UNL A   1      38.982  30.021  28.762  1.00  0.00     0.074 A 
ATOM     39  C   UNL A   1      40.876  29.078  30.025  1.00  0.00     0.049 A 
ATOM     40  N   UNL A   1      39.121  31.245  29.133  1.00  0.00    -0.248 NA
ATOM     41  C   UNL A   1      37.780  29.786  27.968  1.00  0.00     0.031 C 
ATOM     42  C   UNL A   1      40.902  30.087  31.078  1.00  0.00     0.029 A 
ATOM     43  N   UNL A   1      42.111  28.428  30.140  1.00  0.00    -0.354 N 
ATOM     44  C   UNL A   1      37.923  31.882  28.895  1.00  0.00     0.074 A 
ATOM     45  C   UNL A   1      37.182  30.976  28.056  1.00  0.00     0.031 C 
ATOM     46  C   UNL A   1      42.156  30.189  31.544  1.00  0.00     0.029 A 
ATOM     47  C   UNL A   1      42.997  29.379  30.680  1.00  0.00     0.049 A 
ATOM     48  H   UNL A   1      42.318  27.498  29.894  1.00  0.00     0.167 HD
ATOM     49  C   UNL A   1      37.662  33.036  29.568  1.00  0.00     0.034 A 
ATOM     50  C   UNL A   1      44.120  29.822  30.044  1.00  0.00     0.034 A 
ATOM     51  C   UNL A   1      38.886  33.538  30.213  1.00  0.00     0.049 A 
ATOM     52  C   UNL A   1      44.121  31.324  29.814  1.00  0.00     0.074 A 
ATOM     53  C   UNL A   1      39.364  33.497  31.511  1.00  0.00     0.029 A 
ATOM     54  N   UNL A   1      39.953  33.937  29.413  1.00  0.00    -0.354 N 
ATOM     55  N   UNL A   1      43.095  32.100  30.026  1.00  0.00    -0.248 NA
ATOM     56  C   UNL A   1      45.273  32.067  29.310  1.00  0.00     0.031 C 
ATOM     57  C   UNL A   1      40.762  33.762  31.467  1.00  0.00     0.029 A 
ATOM     58  C   UNL A   1      41.124  34.008  30.152  1.00  0.00     0.049 A 
ATOM     59  H   UNL A   1      39.886  34.142  28.453  1.00  0.00     0.167 HD
ATOM     60  C   UNL A   1      43.364  33.370  29.586  1.00  0.00     0.074 A 
ATOM     61  C   UNL A   1      44.771  33.312  29.221  1.00  0.00     0.031 C 
ATOM     62  C   UNL A   1      42.393  34.333  29.499  1.00  0.00     0.034 A 
BRANCH  49  63
ATOM     63  C   UNL A   1      36.280  33.616  29.856  1.00  0.00     0.023 A 
ATOM     64  C   UNL A   1      35.603  34.217  28.769  1.00  0.00     0.012 A 
ATOM     65  C   UNL A   1      35.636  33.731  31.114  1.00  0.00     0.148 A 
ATOM     66  C   UNL A   1      34.402  34.922  28.922  1.00  0.00     0.002 A 
ATOM     67  C   UNL A   1      34.423  34.413  31.265  1.00  0.00     0.091 A 
ATOM     68  F   UNL A   1      36.192  33.222  32.209  1.00  0.00    -0.205 F 
ATOM     69  C   UNL A   1      33.811  35.024  30.172  1.00  0.00     0.022 A 
BRANCH  67  70
ATOM     70  S   UNL A   1      33.596  34.578  32.862  1.00  0.00     0.127 S 
ATOM     71  O   UNL A   1      32.376  35.300  32.501  1.00  0.00    -0.237 OA
ATOM     72  O   UNL A   1      33.385  33.184  33.250  1.00  0.00    -0.237 OA
ATOM     73  O   UNL A   1      34.506  35.318  33.729  1.00  0.00    -0.744 OA
ENDBRANCH  67  70
ENDBRANCH  49  63
BRANCH  50  74
ATOM     74  C   UNL A   1      44.757  28.796  29.169  1.00  0.00     0.023 A 
ATOM     75  C   UNL A   1      45.259  27.641  29.817  1.00  0.00     0.012 A 
ATOM     76  C   UNL A   1      44.507  28.745  27.786  1.00  0.00     0.148 A 
ATOM     77  C   UNL A   1      45.378  26.430  29.135  1.00  0.00     0.002 A 
ATOM     78  C   UNL A   1      44.628  27.530  27.113  1.00  0.00     0.091 A 
ATOM     79  F   UNL A   1      44.067  29.853  27.176  1.00  0.00    -0.205 F 
ATOM     80  C   UNL A   1      45.027  26.366  27.793  1.00  0.00     0.022 A 
BRANCH  78  81
ATOM     81  S   UNL A   1      44.142  27.337  25.391  1.00  0.00     0.127 S 
ATOM     82  O   UNL A   1      45.342  27.790  24.696  1.00  0.00    -0.237 OA
ATOM     83  O   UNL A   1      43.886  25.900  25.303  1.00  0.00    -0.237 OA
ATOM     84  O   UNL A   1      42.957  28.165  25.239  1.00  0.00    -0.744 OA
ENDBRANCH  78  81
ENDBRANCH  50  74
BRANCH  62  85
ATOM     85  C   UNL A   1      42.533  35.664  28.773  1.00  0.00     0.023 A 
ATOM     86  C   UNL A   1      41.929  35.911  27.524  1.00  0.00     0.012 A 
ATOM     87  C   UNL A   1      43.155  36.775  29.401  1.00  0.00     0.148 A 
ATOM     88  C   UNL A   1      41.989  37.163  26.900  1.00  0.00     0.002 A 
ATOM     89  C   UNL A   1      43.109  38.047  28.830  1.00  0.00     0.091 A 
ATOM     90  F   UNL A   1      43.814  36.611  30.556  1.00  0.00    -0.205 F 
ATOM     91  C   UNL A   1      42.558  38.239  27.564  1.00  0.00     0.022 A 
BRANCH  89  92
ATOM     92  S   UNL A   1      43.602  39.496  29.778  1.00  0.00     0.127 S 
ATOM     93  O   UNL A   1      44.937  39.768  29.251  1.00  0.00    -0.237 OA
ATOM     94  O   UNL A   1      42.588  40.483  29.401  1.00  0.00    -0.237 OA
ATOM     95  O   UNL A   1      43.528  39.071  31.168  1.00  0.00    -0.744 OA
ENDBRANCH  89  92
ENDBRANCH  62  85
ENDBRANCH  36  37
ENDBRANCH  28  31
ENDBRANCH   1  27
TORSDOF 14
ENDMDL
