MODEL 1
REMARK VINA RESULT:     -11.7      0.000      0.000
REMARK SMILES CCC[C@H](CNC(=O)N1C[C@H]2CCC[N@H+]2C[C@@H]1C)C(=O)NCCCNC(=O)c1ccc(-c2c3nc(c(-c4cccc(S(=O)(=O)[O-])c4F)c4ccc([nH]4)c(-c4cccc(S(=O)(=O)[O-])c4F)c4nc(c(-c5cccc(S(=O)(=O)[O-])c5F)c5ccc2[nH]5)C=C4)C=C3)cc1
REMARK SMILES IDX 23 1 22 2 21 3 19 4 20 5 4 7 3 8 2 9 1 10 5 11 6 12 7 13
REMARK SMILES IDX 8 15 9 16 10 17 17 18 11 19 16 20 18 21 12 22 15 23 13 24
REMARK SMILES IDX 14 25 24 27 25 28 26 29 27 31 28 32 29 33 90 34 30 35 89 36
REMARK SMILES IDX 31 37 32 38 33 39 83 40 34 41 88 42 82 43 84 44 35 45 87 46
REMARK SMILES IDX 81 47 80 48 36 50 68 51 48 52 67 53 49 54 52 55 66 56 85 57
REMARK SMILES IDX 50 58 51 59 65 61 86 62 53 63 37 64 38 65 46 66 39 67 41 68
REMARK SMILES IDX 47 69 40 70 42 71 43 72 44 73 45 74 69 75 70 76 78 77 71 78
REMARK SMILES IDX 73 79 79 80 72 81 74 82 75 83 76 84 77 85 54 86 55 87 63 88
REMARK SMILES IDX 56 89 58 90 64 91 57 92 59 93 60 94 61 95 62 96
REMARK H PARENT 21 6 6 14 15 26 25 30 84 49 52 60
REMARK Flexibility Score: inf
ROOT
ATOM      1  C   UNL A   1      32.996  28.261  27.029  1.00  0.00     0.042 C 
ENDROOT
BRANCH   1   2
ATOM      2  C   UNL A   1      31.673  28.092  26.311  1.00  0.00     0.117 C 
BRANCH   2   3
ATOM      3  N   UNL A   1      31.016  26.840  26.640  1.00  0.00    -0.356 N 
ATOM      4  C   UNL A   1      30.395  25.946  25.826  1.00  0.00     0.224 C 
ATOM      5  O   UNL A   1      29.963  24.905  26.326  1.00  0.00    -0.275 OA
ATOM      6  H   UNL A   1      31.023  26.602  27.596  1.00  0.00     0.163 HD
BRANCH   4   7
ATOM      7  C   UNL A   1      30.184  26.244  24.353  1.00  0.00     0.097 C 
BRANCH   7   8
ATOM      8  C   UNL A   1      28.813  26.796  23.902  1.00  0.00     0.015 C 
BRANCH   8   9
ATOM      9  C   UNL A   1      28.665  28.139  23.167  1.00  0.00    -0.003 C 
ATOM     10  C   UNL A   1      29.887  28.718  22.474  1.00  0.00     0.004 C 
ENDBRANCH   8   9
ENDBRANCH   7   8
BRANCH   7  11
ATOM     11  C   UNL A   1      30.747  25.016  23.609  1.00  0.00     0.131 C 
BRANCH  11  12
ATOM     12  N   UNL A   1      31.470  25.265  22.388  1.00  0.00    -0.337 N 
ATOM     13  C   UNL A   1      32.709  24.860  22.027  1.00  0.00     0.318 C 
ATOM     14  H   UNL A   1      30.994  25.807  21.719  1.00  0.00     0.165 HD
ATOM     15  O   UNL A   1      33.231  25.458  21.084  1.00  0.00    -0.249 OA
BRANCH  13  16
ATOM     16  N   UNL A   1      33.368  23.905  22.755  1.00  0.00    -0.311 N 
ATOM     17  C   UNL A   1      32.918  22.534  22.565  1.00  0.00     0.186 C 
ATOM     18  C   UNL A   1      34.447  24.098  23.768  1.00  0.00     0.139 C 
ATOM     19  C   UNL A   1      32.622  21.815  23.883  1.00  0.00     0.204 C 
ATOM     20  C   UNL A   1      34.797  22.778  24.534  1.00  0.00     0.287 C 
ATOM     21  C   UNL A   1      34.157  25.235  24.749  1.00  0.00     0.037 C 
ATOM     22  C   UNL A   1      32.433  20.316  23.658  1.00  0.00     0.073 C 
ATOM     23  N   UNL A   1      33.655  21.943  24.932  1.00  0.00    -0.329 N 
ATOM     24  C   UNL A   1      32.905  19.700  24.956  1.00  0.00     0.068 C 
ATOM     25  C   UNL A   1      34.067  20.596  25.344  1.00  0.00     0.262 C 
ATOM     26  H   UNL A   1      33.247  22.438  25.726  1.00  0.00     0.348 HD
ENDBRANCH  13  16
ENDBRANCH  11  12
ENDBRANCH   7  11
ENDBRANCH   4   7
ENDBRANCH   2   3
ENDBRANCH   1   2
BRANCH   1  27
ATOM     27  C   UNL A   1      33.915  29.256  26.338  1.00  0.00     0.118 C 
BRANCH  27  28
ATOM     28  N   UNL A   1      33.840  30.589  26.929  1.00  0.00    -0.352 N 
ATOM     29  C   UNL A   1      34.620  31.158  27.903  1.00  0.00     0.251 C 
ATOM     30  H   UNL A   1      33.124  31.165  26.575  1.00  0.00     0.163 HD
ATOM     31  O   UNL A   1      34.276  32.216  28.424  1.00  0.00    -0.269 OA
BRANCH  29  32
ATOM     32  C   UNL A   1      35.863  30.485  28.324  1.00  0.00     0.039 A 
ATOM     33  C   UNL A   1      37.026  30.660  27.572  1.00  0.00     0.014 A 
ATOM     34  C   UNL A   1      35.879  29.693  29.475  1.00  0.00     0.014 A 
ATOM     35  C   UNL A   1      38.219  30.086  28.013  1.00  0.00     0.010 A 
ATOM     36  C   UNL A   1      37.087  29.223  29.971  1.00  0.00     0.010 A 
ATOM     37  C   UNL A   1      38.266  29.393  29.234  1.00  0.00    -0.014 A 
BRANCH  37  38
ATOM     38  C   UNL A   1      39.533  28.820  29.753  1.00  0.00     0.031 A 
ATOM     39  C   UNL A   1      40.251  29.495  30.893  1.00  0.00     0.074 A 
ATOM     40  C   UNL A   1      40.081  27.750  29.141  1.00  0.00     0.049 A 
ATOM     41  N   UNL A   1      41.394  29.183  31.443  1.00  0.00    -0.248 NA
ATOM     42  C   UNL A   1      39.625  30.700  31.467  1.00  0.00     0.031 C 
ATOM     43  C   UNL A   1      39.530  27.070  27.966  1.00  0.00     0.029 A 
ATOM     44  N   UNL A   1      41.239  27.065  29.405  1.00  0.00    -0.354 N 
ATOM     45  C   UNL A   1      41.648  30.174  32.384  1.00  0.00     0.074 A 
ATOM     46  C   UNL A   1      40.556  31.117  32.314  1.00  0.00     0.031 C 
ATOM     47  C   UNL A   1      40.348  26.064  27.614  1.00  0.00     0.029 A 
ATOM     48  C   UNL A   1      41.495  26.048  28.515  1.00  0.00     0.049 A 
ATOM     49  H   UNL A   1      41.833  27.281  30.161  1.00  0.00     0.167 HD
ATOM     50  C   UNL A   1      42.683  30.275  33.248  1.00  0.00     0.034 A 
ATOM     51  C   UNL A   1      42.543  25.204  28.428  1.00  0.00     0.034 A 
ATOM     52  C   UNL A   1      43.730  29.299  33.361  1.00  0.00     0.049 A 
ATOM     53  C   UNL A   1      43.637  25.297  29.457  1.00  0.00     0.074 A 
ATOM     54  C   UNL A   1      44.755  29.245  34.288  1.00  0.00     0.029 A 
ATOM     55  N   UNL A   1      43.893  28.214  32.518  1.00  0.00    -0.354 N 
ATOM     56  N   UNL A   1      43.760  26.133  30.458  1.00  0.00    -0.248 NA
ATOM     57  C   UNL A   1      44.715  24.301  29.372  1.00  0.00     0.031 C 
ATOM     58  C   UNL A   1      45.561  28.145  33.982  1.00  0.00     0.029 A 
ATOM     59  C   UNL A   1      45.011  27.490  32.893  1.00  0.00     0.049 A 
ATOM     60  H   UNL A   1      43.302  27.989  31.763  1.00  0.00     0.167 HD
ATOM     61  C   UNL A   1      44.901  25.739  31.147  1.00  0.00     0.074 A 
ATOM     62  C   UNL A   1      45.420  24.574  30.461  1.00  0.00     0.031 C 
ATOM     63  C   UNL A   1      45.478  26.297  32.239  1.00  0.00     0.034 A 
BRANCH  50  64
ATOM     64  C   UNL A   1      42.723  31.458  34.179  1.00  0.00     0.023 A 
ATOM     65  C   UNL A   1      43.311  32.666  33.756  1.00  0.00     0.012 A 
ATOM     66  C   UNL A   1      42.081  31.399  35.432  1.00  0.00     0.148 A 
ATOM     67  C   UNL A   1      43.278  33.794  34.574  1.00  0.00     0.002 A 
ATOM     68  C   UNL A   1      42.010  32.541  36.221  1.00  0.00     0.091 A 
ATOM     69  F   UNL A   1      41.548  30.233  35.823  1.00  0.00    -0.205 F 
ATOM     70  C   UNL A   1      42.616  33.735  35.798  1.00  0.00     0.022 A 
BRANCH  68  71
ATOM     71  S   UNL A   1      41.105  32.594  37.770  1.00  0.00     0.127 S 
ATOM     72  O   UNL A   1      41.068  34.031  38.040  1.00  0.00    -0.237 OA
ATOM     73  O   UNL A   1      39.818  32.010  37.392  1.00  0.00    -0.237 OA
ATOM     74  O   UNL A   1      41.878  31.806  38.720  1.00  0.00    -0.744 OA
ENDBRANCH  68  71
ENDBRANCH  50  64
BRANCH  51  75
ATOM     75  C   UNL A   1      42.594  24.170  27.356  1.00  0.00     0.023 A 
ATOM     76  C   UNL A   1      43.445  24.352  26.248  1.00  0.00     0.012 A 
ATOM     77  C   UNL A   1      41.793  23.014  27.421  1.00  0.00     0.148 A 
ATOM     78  C   UNL A   1      43.456  23.431  25.199  1.00  0.00     0.002 A 
ATOM     79  C   UNL A   1      41.854  22.071  26.403  1.00  0.00     0.091 A 
ATOM     80  F   UNL A   1      40.982  22.861  28.478  1.00  0.00    -0.205 F 
ATOM     81  C   UNL A   1      42.667  22.287  25.280  1.00  0.00     0.022 A 
BRANCH  79  82
ATOM     82  S   UNL A   1      40.975  20.508  26.496  1.00  0.00     0.127 S 
ATOM     83  O   UNL A   1      41.739  19.679  25.568  1.00  0.00    -0.237 OA
ATOM     84  O   UNL A   1      41.129  20.156  27.908  1.00  0.00    -0.237 OA
ATOM     85  O   UNL A   1      39.605  20.810  26.103  1.00  0.00    -0.744 OA
ENDBRANCH  79  82
ENDBRANCH  51  75
BRANCH  63  86
ATOM     86  C   UNL A   1      46.698  25.624  32.807  1.00  0.00     0.023 A 
ATOM     87  C   UNL A   1      46.571  24.701  33.863  1.00  0.00     0.012 A 
ATOM     88  C   UNL A   1      47.966  25.860  32.241  1.00  0.00     0.148 A 
ATOM     89  C   UNL A   1      47.696  24.055  34.376  1.00  0.00     0.002 A 
ATOM     90  C   UNL A   1      49.072  25.170  32.719  1.00  0.00     0.091 A 
ATOM     91  F   UNL A   1      48.068  26.755  31.247  1.00  0.00    -0.205 F 
ATOM     92  C   UNL A   1      48.942  24.280  33.797  1.00  0.00     0.022 A 
BRANCH  90  93
ATOM     93  S   UNL A   1      50.695  25.320  31.963  1.00  0.00     0.127 S 
ATOM     94  O   UNL A   1      51.495  24.423  32.794  1.00  0.00    -0.237 OA
ATOM     95  O   UNL A   1      50.449  24.835  30.604  1.00  0.00    -0.237 OA
ATOM     96  O   UNL A   1      51.047  26.731  32.045  1.00  0.00    -0.744 OA
ENDBRANCH  90  93
ENDBRANCH  63  86
ENDBRANCH  37  38
ENDBRANCH  29  32
ENDBRANCH  27  28
ENDBRANCH   1  27
TORSDOF 18
ENDMDL
MODEL 2
REMARK VINA RESULT:     -11.7      3.522      8.608
REMARK SMILES CCC[C@H](CNC(=O)N1C[C@H]2CCC[N@H+]2C[C@@H]1C)C(=O)NCCCNC(=O)c1ccc(-c2c3nc(c(-c4cccc(S(=O)(=O)[O-])c4F)c4ccc([nH]4)c(-c4cccc(S(=O)(=O)[O-])c4F)c4nc(c(-c5cccc(S(=O)(=O)[O-])c5F)c5ccc2[nH]5)C=C4)C=C3)cc1
REMARK SMILES IDX 23 1 22 2 21 3 19 4 20 5 4 7 3 8 2 9 1 10 5 11 6 12 7 13
REMARK SMILES IDX 8 15 9 16 10 17 17 18 11 19 16 20 18 21 12 22 15 23 13 24
REMARK SMILES IDX 14 25 24 27 25 28 26 29 27 31 28 32 29 33 90 34 30 35 89 36
REMARK SMILES IDX 31 37 32 38 33 39 83 40 34 41 88 42 82 43 84 44 35 45 87 46
REMARK SMILES IDX 81 47 80 48 36 50 68 51 48 52 67 53 49 54 52 55 66 56 85 57
REMARK SMILES IDX 50 58 51 59 65 61 86 62 53 63 37 64 38 65 46 66 39 67 41 68
REMARK SMILES IDX 47 69 40 70 42 71 43 72 44 73 45 74 69 75 70 76 78 77 71 78
REMARK SMILES IDX 73 79 79 80 72 81 74 82 75 83 76 84 77 85 54 86 55 87 63 88
REMARK SMILES IDX 56 89 58 90 64 91 57 92 59 93 60 94 61 95 62 96
REMARK H PARENT 21 6 6 14 15 26 25 30 84 49 52 60
REMARK Flexibility Score: inf
ROOT
ATOM      1  C   UNL A   1      31.260  32.182  26.556  1.00  0.00     0.042 C 
ENDROOT
BRANCH   1   2
ATOM      2  C   UNL A   1      31.402  30.839  25.870  1.00  0.00     0.117 C 
BRANCH   2   3
ATOM      3  N   UNL A   1      31.945  29.819  26.749  1.00  0.00    -0.356 N 
ATOM      4  C   UNL A   1      32.256  28.522  26.485  1.00  0.00     0.224 C 
ATOM      5  O   UNL A   1      32.776  27.853  27.380  1.00  0.00    -0.275 OA
ATOM      6  H   UNL A   1      32.117  30.110  27.673  1.00  0.00     0.163 HD
BRANCH   4   7
ATOM      7  C   UNL A   1      31.917  27.894  25.145  1.00  0.00     0.097 C 
BRANCH   7   8
ATOM      8  C   UNL A   1      30.722  26.917  25.070  1.00  0.00     0.015 C 
BRANCH   8   9
ATOM      9  C   UNL A   1      29.663  26.992  23.960  1.00  0.00    -0.003 C 
ATOM     10  C   UNL A   1      29.840  28.032  22.865  1.00  0.00     0.004 C 
ENDBRANCH   8   9
ENDBRANCH   7   8
BRANCH   7  11
ATOM     11  C   UNL A   1      33.268  27.426  24.567  1.00  0.00     0.131 C 
BRANCH  11  12
ATOM     12  N   UNL A   1      33.260  26.903  23.225  1.00  0.00    -0.337 N 
ATOM     13  C   UNL A   1      33.491  25.642  22.794  1.00  0.00     0.318 C 
ATOM     14  H   UNL A   1      33.057  27.558  22.518  1.00  0.00     0.165 HD
ATOM     15  O   UNL A   1      33.745  25.508  21.595  1.00  0.00    -0.249 OA
BRANCH  13  16
ATOM     16  N   UNL A   1      33.538  24.602  23.682  1.00  0.00    -0.311 N 
ATOM     17  C   UNL A   1      34.865  24.103  24.013  1.00  0.00     0.186 C 
ATOM     18  C   UNL A   1      32.397  23.869  24.307  1.00  0.00     0.139 C 
ATOM     19  C   UNL A   1      34.987  22.586  23.861  1.00  0.00     0.204 C 
ATOM     20  C   UNL A   1      32.859  22.604  25.106  1.00  0.00     0.287 C 
ATOM     21  C   UNL A   1      31.293  23.510  23.311  1.00  0.00     0.037 C 
ATOM     22  C   UNL A   1      36.286  22.077  24.482  1.00  0.00     0.073 C 
ATOM     23  N   UNL A   1      33.903  21.788  24.471  1.00  0.00    -0.329 N 
ATOM     24  C   UNL A   1      35.938  20.676  24.935  1.00  0.00     0.068 C 
ATOM     25  C   UNL A   1      34.503  20.827  25.405  1.00  0.00     0.262 C 
ATOM     26  H   UNL A   1      33.414  21.289  23.728  1.00  0.00     0.348 HD
ENDBRANCH  13  16
ENDBRANCH  11  12
ENDBRANCH   7  11
ENDBRANCH   4   7
ENDBRANCH   2   3
ENDBRANCH   1   2
BRANCH   1  27
ATOM     27  C   UNL A   1      32.582  32.709  27.091  1.00  0.00     0.118 C 
BRANCH  27  28
ATOM     28  N   UNL A   1      32.477  34.074  27.596  1.00  0.00    -0.352 N 
ATOM     29  C   UNL A   1      33.153  34.679  28.626  1.00  0.00     0.251 C 
ATOM     30  H   UNL A   1      31.826  34.646  27.129  1.00  0.00     0.163 HD
ATOM     31  O   UNL A   1      32.780  35.772  29.044  1.00  0.00    -0.269 OA
BRANCH  29  32
ATOM     32  C   UNL A   1      34.316  34.002  29.229  1.00  0.00     0.039 A 
ATOM     33  C   UNL A   1      35.604  34.421  28.890  1.00  0.00     0.014 A 
ATOM     34  C   UNL A   1      34.130  32.963  30.144  1.00  0.00     0.014 A 
ATOM     35  C   UNL A   1      36.702  33.834  29.518  1.00  0.00     0.010 A 
ATOM     36  C   UNL A   1      35.214  32.463  30.849  1.00  0.00     0.010 A 
ATOM     37  C   UNL A   1      36.515  32.875  30.528  1.00  0.00    -0.014 A 
BRANCH  37  38
ATOM     38  C   UNL A   1      37.663  32.274  31.250  1.00  0.00     0.031 A 
ATOM     39  C   UNL A   1      38.434  31.140  30.623  1.00  0.00     0.074 A 
ATOM     40  C   UNL A   1      37.954  32.685  32.501  1.00  0.00     0.049 A 
ATOM     41  N   UNL A   1      39.425  30.448  31.119  1.00  0.00    -0.248 NA
ATOM     42  C   UNL A   1      38.015  30.700  29.280  1.00  0.00     0.031 C 
ATOM     43  C   UNL A   1      37.218  33.705  33.252  1.00  0.00     0.029 A 
ATOM     44  N   UNL A   1      38.928  32.273  33.374  1.00  0.00    -0.354 N 
ATOM     45  C   UNL A   1      39.711  29.465  30.179  1.00  0.00     0.074 A 
ATOM     46  C   UNL A   1      38.772  29.628  29.093  1.00  0.00     0.031 C 
ATOM     47  C   UNL A   1      37.769  33.841  34.470  1.00  0.00     0.029 A 
ATOM     48  C   UNL A   1      38.874  32.898  34.599  1.00  0.00     0.049 A 
ATOM     49  H   UNL A   1      39.604  31.593  33.147  1.00  0.00     0.167 HD
ATOM     50  C   UNL A   1      40.685  28.528  30.205  1.00  0.00     0.034 A 
ATOM     51  C   UNL A   1      39.624  32.721  35.705  1.00  0.00     0.034 A 
ATOM     52  C   UNL A   1      41.659  28.413  31.254  1.00  0.00     0.049 A 
ATOM     53  C   UNL A   1      40.751  31.725  35.667  1.00  0.00     0.074 A 
ATOM     54  C   UNL A   1      42.761  27.580  31.313  1.00  0.00     0.029 A 
ATOM     55  N   UNL A   1      41.645  29.145  32.428  1.00  0.00    -0.354 N 
ATOM     56  N   UNL A   1      41.119  30.933  34.691  1.00  0.00    -0.248 NA
ATOM     57  C   UNL A   1      41.594  31.629  36.868  1.00  0.00     0.031 C 
ATOM     58  C   UNL A   1      43.394  27.783  32.542  1.00  0.00     0.029 A 
ATOM     59  C   UNL A   1      42.711  28.774  33.228  1.00  0.00     0.049 A 
ATOM     60  H   UNL A   1      40.976  29.830  32.661  1.00  0.00     0.167 HD
ATOM     61  C   UNL A   1      42.260  30.278  35.141  1.00  0.00     0.074 A 
ATOM     62  C   UNL A   1      42.535  30.784  36.470  1.00  0.00     0.031 C 
ATOM     63  C   UNL A   1      43.006  29.332  34.520  1.00  0.00     0.034 A 
BRANCH  50  64
ATOM     64  C   UNL A   1      40.787  27.571  29.046  1.00  0.00     0.023 A 
ATOM     65  C   UNL A   1      39.896  26.483  28.953  1.00  0.00     0.012 A 
ATOM     66  C   UNL A   1      41.696  27.816  27.998  1.00  0.00     0.148 A 
ATOM     67  C   UNL A   1      39.922  25.641  27.842  1.00  0.00     0.002 A 
ATOM     68  C   UNL A   1      41.682  27.001  26.874  1.00  0.00     0.091 A 
ATOM     69  F   UNL A   1      42.548  28.843  28.119  1.00  0.00    -0.205 F 
ATOM     70  C   UNL A   1      40.804  25.908  26.799  1.00  0.00     0.022 A 
BRANCH  68  71
ATOM     71  S   UNL A   1      42.714  27.312  25.437  1.00  0.00     0.127 S 
ATOM     72  O   UNL A   1      44.026  27.506  26.053  1.00  0.00    -0.237 OA
ATOM     73  O   UNL A   1      42.570  26.068  24.683  1.00  0.00    -0.237 OA
ATOM     74  O   UNL A   1      42.157  28.490  24.786  1.00  0.00    -0.744 OA
ENDBRANCH  68  71
ENDBRANCH  50  64
BRANCH  51  75
ATOM     75  C   UNL A   1      39.367  33.531  36.929  1.00  0.00     0.023 A 
ATOM     76  C   UNL A   1      39.858  34.850  37.011  1.00  0.00     0.012 A 
ATOM     77  C   UNL A   1      38.653  32.997  38.019  1.00  0.00     0.148 A 
ATOM     78  C   UNL A   1      39.690  35.601  38.176  1.00  0.00     0.002 A 
ATOM     79  C   UNL A   1      38.437  33.773  39.152  1.00  0.00     0.091 A 
ATOM     80  F   UNL A   1      38.202  31.739  37.928  1.00  0.00    -0.205 F 
ATOM     81  C   UNL A   1      38.974  35.066  39.243  1.00  0.00     0.022 A 
BRANCH  79  82
ATOM     82  S   UNL A   1      37.409  33.208  40.511  1.00  0.00     0.127 S 
ATOM     83  O   UNL A   1      38.194  32.093  41.036  1.00  0.00    -0.237 OA
ATOM     84  O   UNL A   1      37.366  34.391  41.372  1.00  0.00    -0.237 OA
ATOM     85  O   UNL A   1      36.128  32.860  39.910  1.00  0.00    -0.744 OA
ENDBRANCH  79  82
ENDBRANCH  51  75
BRANCH  63  86
ATOM     86  C   UNL A   1      44.230  28.826  35.234  1.00  0.00     0.023 A 
ATOM     87  C   UNL A   1      45.480  29.438  35.019  1.00  0.00     0.012 A 
ATOM     88  C   UNL A   1      44.122  27.781  36.173  1.00  0.00     0.148 A 
ATOM     89  C   UNL A   1      46.613  28.989  35.698  1.00  0.00     0.002 A 
ATOM     90  C   UNL A   1      45.242  27.378  36.887  1.00  0.00     0.091 A 
ATOM     91  F   UNL A   1      42.926  27.200  36.350  1.00  0.00    -0.205 F 
ATOM     92  C   UNL A   1      46.492  27.969  36.639  1.00  0.00     0.022 A 
BRANCH  90  93
ATOM     93  S   UNL A   1      45.155  26.146  38.191  1.00  0.00     0.127 S 
ATOM     94  O   UNL A   1      44.787  24.946  37.443  1.00  0.00    -0.237 OA
ATOM     95  O   UNL A   1      46.524  26.147  38.709  1.00  0.00    -0.237 OA
ATOM     96  O   UNL A   1      44.154  26.628  39.133  1.00  0.00    -0.744 OA
ENDBRANCH  90  93
ENDBRANCH  63  86
ENDBRANCH  37  38
ENDBRANCH  29  32
ENDBRANCH  27  28
ENDBRANCH   1  27
TORSDOF 18
ENDMDL
MODEL 3
REMARK VINA RESULT:     -11.5      4.279      9.570
REMARK SMILES CCC[C@H](CNC(=O)N1C[C@H]2CCC[N@H+]2C[C@@H]1C)C(=O)NCCCNC(=O)c1ccc(-c2c3nc(c(-c4cccc(S(=O)(=O)[O-])c4F)c4ccc([nH]4)c(-c4cccc(S(=O)(=O)[O-])c4F)c4nc(c(-c5cccc(S(=O)(=O)[O-])c5F)c5ccc2[nH]5)C=C4)C=C3)cc1
REMARK SMILES IDX 23 1 22 2 21 3 19 4 20 5 4 7 3 8 2 9 1 10 5 11 6 12 7 13
REMARK SMILES IDX 8 15 9 16 10 17 17 18 11 19 16 20 18 21 12 22 15 23 13 24
REMARK SMILES IDX 14 25 24 27 25 28 26 29 27 31 28 32 29 33 90 34 30 35 89 36
REMARK SMILES IDX 31 37 32 38 33 39 83 40 34 41 88 42 82 43 84 44 35 45 87 46
REMARK SMILES IDX 81 47 80 48 36 50 68 51 48 52 67 53 49 54 52 55 66 56 85 57
REMARK SMILES IDX 50 58 51 59 65 61 86 62 53 63 37 64 38 65 46 66 39 67 41 68
REMARK SMILES IDX 47 69 40 70 42 71 43 72 44 73 45 74 69 75 70 76 78 77 71 78
REMARK SMILES IDX 73 79 79 80 72 81 74 82 75 83 76 84 77 85 54 86 55 87 63 88
REMARK SMILES IDX 56 89 58 90 64 91 57 92 59 93 60 94 61 95 62 96
REMARK H PARENT 21 6 6 14 15 26 25 30 84 49 52 60
REMARK Flexibility Score: inf
ROOT
ATOM      1  C   UNL A   1      35.700  23.249  25.899  1.00  0.00     0.042 C 
ENDROOT
BRANCH   1   2
ATOM      2  C   UNL A   1      34.804  24.446  25.654  1.00  0.00     0.117 C 
BRANCH   2   3
ATOM      3  N   UNL A   1      34.581  24.696  24.242  1.00  0.00    -0.356 N 
ATOM      4  C   UNL A   1      33.618  24.207  23.416  1.00  0.00     0.224 C 
ATOM      5  O   UNL A   1      33.584  24.617  22.254  1.00  0.00    -0.275 OA
ATOM      6  H   UNL A   1      35.222  25.312  23.819  1.00  0.00     0.163 HD
BRANCH   4   7
ATOM      7  C   UNL A   1      32.647  23.142  23.892  1.00  0.00     0.097 C 
BRANCH   7   8
ATOM      8  C   UNL A   1      32.931  21.668  23.522  1.00  0.00     0.015 C 
BRANCH   8   9
ATOM      9  C   UNL A   1      33.163  20.581  24.583  1.00  0.00    -0.003 C 
ATOM     10  C   UNL A   1      32.644  19.180  24.304  1.00  0.00     0.004 C 
ENDBRANCH   8   9
ENDBRANCH   7   8
BRANCH   7  11
ATOM     11  C   UNL A   1      31.246  23.706  23.581  1.00  0.00     0.131 C 
BRANCH  11  12
ATOM     12  N   UNL A   1      30.374  23.950  24.701  1.00  0.00    -0.337 N 
ATOM     13  C   UNL A   1      30.334  25.008  25.542  1.00  0.00     0.318 C 
ATOM     14  H   UNL A   1      29.711  23.245  24.881  1.00  0.00     0.165 HD
ATOM     15  O   UNL A   1      29.728  24.845  26.604  1.00  0.00    -0.249 OA
BRANCH  13  16
ATOM     16  N   UNL A   1      31.026  26.153  25.253  1.00  0.00    -0.311 N 
ATOM     17  C   UNL A   1      31.973  26.600  26.264  1.00  0.00     0.186 C 
ATOM     18  C   UNL A   1      30.887  27.039  24.059  1.00  0.00     0.139 C 
ATOM     19  C   UNL A   1      31.792  28.072  26.642  1.00  0.00     0.204 C 
ATOM     20  C   UNL A   1      31.707  28.366  24.195  1.00  0.00     0.287 C 
ATOM     21  C   UNL A   1      29.432  27.335  23.694  1.00  0.00     0.037 C 
ATOM     22  C   UNL A   1      32.968  28.571  27.479  1.00  0.00     0.073 C 
ATOM     23  N   UNL A   1      31.665  29.016  25.512  1.00  0.00    -0.329 N 
ATOM     24  C   UNL A   1      33.054  30.040  27.130  1.00  0.00     0.068 C 
ATOM     25  C   UNL A   1      32.697  30.051  25.655  1.00  0.00     0.262 C 
ATOM     26  H   UNL A   1      30.740  29.443  25.552  1.00  0.00     0.348 HD
ENDBRANCH  13  16
ENDBRANCH  11  12
ENDBRANCH   7  11
ENDBRANCH   4   7
ENDBRANCH   2   3
ENDBRANCH   1   2
BRANCH   1  27
ATOM     27  C   UNL A   1      37.069  23.400  25.255  1.00  0.00     0.118 C 
BRANCH  27  28
ATOM     28  N   UNL A   1      38.049  22.463  25.796  1.00  0.00    -0.352 N 
ATOM     29  C   UNL A   1      39.223  22.712  26.460  1.00  0.00     0.251 C 
ATOM     30  H   UNL A   1      37.835  21.511  25.665  1.00  0.00     0.163 HD
ATOM     31  O   UNL A   1      40.023  21.800  26.653  1.00  0.00    -0.269 OA
BRANCH  29  32
ATOM     32  C   UNL A   1      39.518  24.080  26.926  1.00  0.00     0.039 A 
ATOM     33  C   UNL A   1      39.261  24.421  28.256  1.00  0.00     0.014 A 
ATOM     34  C   UNL A   1      40.065  25.020  26.049  1.00  0.00     0.014 A 
ATOM     35  C   UNL A   1      39.612  25.691  28.716  1.00  0.00     0.010 A 
ATOM     36  C   UNL A   1      40.517  26.237  26.538  1.00  0.00     0.010 A 
ATOM     37  C   UNL A   1      40.275  26.596  27.871  1.00  0.00    -0.014 A 
BRANCH  37  38
ATOM     38  C   UNL A   1      40.707  27.931  28.350  1.00  0.00     0.031 A 
ATOM     39  C   UNL A   1      42.175  28.237  28.502  1.00  0.00     0.074 A 
ATOM     40  C   UNL A   1      39.782  28.835  28.735  1.00  0.00     0.049 A 
ATOM     41  N   UNL A   1      42.747  29.318  28.960  1.00  0.00    -0.248 NA
ATOM     42  C   UNL A   1      43.128  27.176  28.125  1.00  0.00     0.031 C 
ATOM     43  C   UNL A   1      38.332  28.619  28.729  1.00  0.00     0.029 A 
ATOM     44  N   UNL A   1      39.924  30.104  29.234  1.00  0.00    -0.354 N 
ATOM     45  C   UNL A   1      44.111  29.052  28.977  1.00  0.00     0.074 A 
ATOM     46  C   UNL A   1      44.285  27.695  28.510  1.00  0.00     0.031 C 
ATOM     47  C   UNL A   1      37.720  29.719  29.197  1.00  0.00     0.029 A 
ATOM     48  C   UNL A   1      38.731  30.703  29.567  1.00  0.00     0.049 A 
ATOM     49  H   UNL A   1      40.797  30.545  29.344  1.00  0.00     0.167 HD
ATOM     50  C   UNL A   1      45.129  29.871  29.323  1.00  0.00     0.034 A 
ATOM     51  C   UNL A   1      38.482  31.907  30.121  1.00  0.00     0.034 A 
ATOM     52  C   UNL A   1      44.955  31.240  29.721  1.00  0.00     0.049 A 
ATOM     53  C   UNL A   1      39.638  32.823  30.418  1.00  0.00     0.074 A 
ATOM     54  C   UNL A   1      45.929  32.190  29.971  1.00  0.00     0.029 A 
ATOM     55  N   UNL A   1      43.733  31.852  29.934  1.00  0.00    -0.354 N 
ATOM     56  N   UNL A   1      40.921  32.615  30.249  1.00  0.00    -0.248 NA
ATOM     57  C   UNL A   1      39.311  34.158  30.941  1.00  0.00     0.031 C 
ATOM     58  C   UNL A   1      45.294  33.368  30.372  1.00  0.00     0.029 A 
ATOM     59  C   UNL A   1      43.925  33.164  30.328  1.00  0.00     0.049 A 
ATOM     60  H   UNL A   1      42.855  31.418  29.822  1.00  0.00     0.167 HD
ATOM     61  C   UNL A   1      41.549  33.803  30.601  1.00  0.00     0.074 A 
ATOM     62  C   UNL A   1      40.504  34.735  30.972  1.00  0.00     0.031 C 
ATOM     63  C   UNL A   1      42.873  34.096  30.631  1.00  0.00     0.034 A 
BRANCH  50  64
ATOM     64  C   UNL A   1      46.534  29.335  29.249  1.00  0.00     0.023 A 
ATOM     65  C   UNL A   1      47.092  28.668  30.358  1.00  0.00     0.012 A 
ATOM     66  C   UNL A   1      47.258  29.400  28.042  1.00  0.00     0.148 A 
ATOM     67  C   UNL A   1      48.358  28.091  30.273  1.00  0.00     0.002 A 
ATOM     68  C   UNL A   1      48.498  28.781  27.951  1.00  0.00     0.091 A 
ATOM     69  F   UNL A   1      46.717  30.058  27.007  1.00  0.00    -0.205 F 
ATOM     70  C   UNL A   1      49.053  28.135  29.068  1.00  0.00     0.022 A 
BRANCH  68  71
ATOM     71  S   UNL A   1      49.433  28.702  26.420  1.00  0.00     0.127 S 
ATOM     72  O   UNL A   1      49.923  30.075  26.304  1.00  0.00    -0.237 OA
ATOM     73  O   UNL A   1      50.460  27.712  26.741  1.00  0.00    -0.237 OA
ATOM     74  O   UNL A   1      48.490  28.292  25.389  1.00  0.00    -0.744 OA
ENDBRANCH  68  71
ENDBRANCH  50  64
BRANCH  51  75
ATOM     75  C   UNL A   1      37.081  32.339  30.393  1.00  0.00     0.023 A 
ATOM     76  C   UNL A   1      36.501  32.079  31.651  1.00  0.00     0.012 A 
ATOM     77  C   UNL A   1      36.316  32.991  29.407  1.00  0.00     0.148 A 
ATOM     78  C   UNL A   1      35.169  32.411  31.903  1.00  0.00     0.002 A 
ATOM     79  C   UNL A   1      35.010  33.373  29.686  1.00  0.00     0.091 A 
ATOM     80  F   UNL A   1      36.880  33.221  28.214  1.00  0.00    -0.205 F 
ATOM     81  C   UNL A   1      34.426  33.065  30.924  1.00  0.00     0.022 A 
BRANCH  79  82
ATOM     82  S   UNL A   1      34.032  34.340  28.531  1.00  0.00     0.127 S 
ATOM     83  O   UNL A   1      33.905  33.419  27.404  1.00  0.00    -0.237 OA
ATOM     84  O   UNL A   1      32.800  34.563  29.287  1.00  0.00    -0.237 OA
ATOM     85  O   UNL A   1      34.808  35.548  28.282  1.00  0.00    -0.744 OA
ENDBRANCH  79  82
ENDBRANCH  51  75
BRANCH  63  86
ATOM     86  C   UNL A   1      43.271  35.496  31.014  1.00  0.00     0.023 A 
ATOM     87  C   UNL A   1      43.556  35.809  32.357  1.00  0.00     0.012 A 
ATOM     88  C   UNL A   1      43.429  36.485  30.022  1.00  0.00     0.148 A 
ATOM     89  C   UNL A   1      43.951  37.099  32.713  1.00  0.00     0.002 A 
ATOM     90  C   UNL A   1      43.878  37.750  30.377  1.00  0.00     0.091 A 
ATOM     91  F   UNL A   1      43.136  36.170  28.752  1.00  0.00    -0.205 F 
ATOM     92  C   UNL A   1      44.123  38.063  31.724  1.00  0.00     0.022 A 
BRANCH  90  93
ATOM     93  S   UNL A   1      44.227  39.019  29.156  1.00  0.00     0.127 S 
ATOM     94  O   UNL A   1      42.941  39.134  28.469  1.00  0.00    -0.237 OA
ATOM     95  O   UNL A   1      44.575  40.167  29.994  1.00  0.00    -0.237 OA
ATOM     96  O   UNL A   1      45.325  38.507  28.347  1.00  0.00    -0.744 OA
ENDBRANCH  90  93
ENDBRANCH  63  86
ENDBRANCH  37  38
ENDBRANCH  29  32
ENDBRANCH  27  28
ENDBRANCH   1  27
TORSDOF 18
ENDMDL
