MODEL 1
REMARK VINA RESULT:     -13.4      0.000      0.000
REMARK SMILES Cc1ccc(-c2cc(Cl)ccc2Cl)c(C(=O)NCCCNC(=O)c2ccc(-c3c4nc(c(-c5cccc(S(=O)(=O)[O-])c5F)c5ccc([nH]5)c(-c5cccc(S(=O)(=O)[O-])c5F)c5nc(c(-c6cccc(S(=O)(=O)[O-])c6F)c6ccc3[nH]6)C=C5)C=C4)cc2)c1
REMARK SMILES IDX 20 1 19 2 18 3 17 4 15 5 16 6 14 8 1 9 2 10 3 11 87 12 4 13
REMARK SMILES IDX 5 14 6 15 7 16 12 17 8 18 11 19 13 20 9 21 10 22 21 23 22 24
REMARK SMILES IDX 23 26 24 27 25 28 86 29 26 30 85 31 27 32 28 33 29 34 79 35
REMARK SMILES IDX 30 36 84 37 78 38 80 39 31 40 83 41 77 42 76 43 32 45 64 46
REMARK SMILES IDX 44 47 63 48 45 49 48 50 62 51 81 52 46 53 47 54 61 56 82 57
REMARK SMILES IDX 49 58 33 59 34 60 42 61 35 62 37 63 43 64 36 65 38 66 39 67
REMARK SMILES IDX 40 68 41 69 65 70 66 71 74 72 67 73 69 74 75 75 68 76 70 77
REMARK SMILES IDX 71 78 72 79 73 80 50 81 51 82 59 83 52 84 54 85 60 86 53 87
REMARK SMILES IDX 55 88 56 89 57 90 58 91
REMARK H PARENT 17 7 21 25 80 44 48 55
REMARK Flexibility Score: inf
ROOT
ATOM      1  C   UNL A   1      33.777  30.608  26.946  1.00  0.00     0.118 C 
ENDROOT
BRANCH   1   2
ATOM      2  C   UNL A   1      32.433  30.021  27.326  1.00  0.00     0.042 C 
BRANCH   2   3
ATOM      3  C   UNL A   1      32.111  28.714  26.603  1.00  0.00     0.118 C 
BRANCH   3   4
ATOM      4  N   UNL A   1      32.618  28.715  25.241  1.00  0.00    -0.352 N 
ATOM      5  C   UNL A   1      32.044  28.770  23.993  1.00  0.00     0.251 C 
ATOM      6  O   UNL A   1      32.856  28.830  23.069  1.00  0.00    -0.269 OA
ATOM      7  H   UNL A   1      33.600  28.665  25.204  1.00  0.00     0.163 HD
BRANCH   5   8
ATOM      8  C   UNL A   1      30.556  28.757  23.703  1.00  0.00     0.047 A 
ATOM      9  C   UNL A   1      27.754  31.299  23.073  1.00  0.00     0.044 C 
ATOM     10  C   UNL A   1      28.454  29.982  23.247  1.00  0.00    -0.050 A 
ATOM     11  C   UNL A   1      27.764  28.785  23.140  1.00  0.00     0.004 A 
ATOM     12  C   UNL A   1      29.827  29.945  23.523  1.00  0.00     0.018 A 
ATOM     13  C   UNL A   1      28.441  27.583  23.339  1.00  0.00     0.010 A 
ATOM     14  C   UNL A   1      29.829  27.538  23.626  1.00  0.00    -0.004 A 
BRANCH  14  15
ATOM     15  C   UNL A   1      30.415  26.195  23.842  1.00  0.00     0.003 A 
ATOM     16  C   UNL A   1      30.167  25.519  25.055  1.00  0.00     0.030 A 
ATOM     17  C   UNL A   1      31.203  25.542  22.873  1.00  0.00     0.049 A 
ATOM     18  C   UNL A   1      30.727  24.266  25.304  1.00  0.00     0.041 A 
ATOM     19  C   UNL A   1      31.741  24.273  23.120  1.00  0.00     0.023 A 
ATOM     20  Cl  UNL A   1      31.545  26.260  21.334  1.00  0.00    -0.084 Cl
ATOM     21  Cl  UNL A   1      30.447  23.485  26.811  1.00  0.00    -0.084 Cl
ATOM     22  C   UNL A   1      31.510  23.639  24.340  1.00  0.00     0.022 A 
ENDBRANCH  14  15
ENDBRANCH   5   8
ENDBRANCH   3   4
ENDBRANCH   2   3
ENDBRANCH   1   2
BRANCH   1  23
ATOM     23  N   UNL A   1      34.282  31.556  27.927  1.00  0.00    -0.352 N 
ATOM     24  C   UNL A   1      35.244  31.375  28.903  1.00  0.00     0.251 C 
ATOM     25  H   UNL A   1      33.881  32.454  27.892  1.00  0.00     0.163 HD
ATOM     26  O   UNL A   1      35.400  32.253  29.749  1.00  0.00    -0.269 OA
BRANCH  24  27
ATOM     27  C   UNL A   1      36.164  30.217  28.815  1.00  0.00     0.039 A 
ATOM     28  C   UNL A   1      36.453  29.538  30.005  1.00  0.00     0.014 A 
ATOM     29  C   UNL A   1      36.929  29.985  27.676  1.00  0.00     0.014 A 
ATOM     30  C   UNL A   1      37.665  28.866  30.133  1.00  0.00     0.010 A 
ATOM     31  C   UNL A   1      38.168  29.407  27.823  1.00  0.00     0.010 A 
ATOM     32  C   UNL A   1      38.563  28.928  29.075  1.00  0.00    -0.014 A 
BRANCH  32  33
ATOM     33  C   UNL A   1      39.967  28.562  29.158  1.00  0.00     0.031 A 
ATOM     34  C   UNL A   1      40.367  27.166  28.925  1.00  0.00     0.074 A 
ATOM     35  C   UNL A   1      40.874  29.562  29.217  1.00  0.00     0.049 A 
ATOM     36  N   UNL A   1      41.548  26.700  29.134  1.00  0.00    -0.248 NA
ATOM     37  C   UNL A   1      39.419  26.166  28.455  1.00  0.00     0.031 C 
ATOM     38  C   UNL A   1      42.290  29.502  28.883  1.00  0.00     0.029 A 
ATOM     39  N   UNL A   1      40.721  30.821  29.814  1.00  0.00    -0.354 N 
ATOM     40  C   UNL A   1      41.601  25.443  28.567  1.00  0.00     0.074 A 
ATOM     41  C   UNL A   1      40.230  25.124  28.254  1.00  0.00     0.031 C 
ATOM     42  C   UNL A   1      42.923  30.507  29.510  1.00  0.00     0.029 A 
ATOM     43  C   UNL A   1      41.958  31.089  30.429  1.00  0.00     0.049 A 
ATOM     44  H   UNL A   1      39.921  31.395  29.804  1.00  0.00     0.167 HD
ATOM     45  C   UNL A   1      42.824  24.902  28.297  1.00  0.00     0.034 A 
ATOM     46  C   UNL A   1      42.119  31.173  31.785  1.00  0.00     0.034 A 
ATOM     47  C   UNL A   1      43.892  25.733  28.881  1.00  0.00     0.049 A 
ATOM     48  C   UNL A   1      43.160  30.203  32.328  1.00  0.00     0.074 A 
ATOM     49  C   UNL A   1      44.727  26.709  28.362  1.00  0.00     0.029 A 
ATOM     50  N   UNL A   1      43.999  25.822  30.264  1.00  0.00    -0.354 N 
ATOM     51  N   UNL A   1      43.668  29.214  31.645  1.00  0.00    -0.248 NA
ATOM     52  C   UNL A   1      43.688  30.256  33.688  1.00  0.00     0.031 C 
ATOM     53  C   UNL A   1      45.252  27.459  29.452  1.00  0.00     0.029 A 
ATOM     54  C   UNL A   1      44.770  26.914  30.630  1.00  0.00     0.049 A 
ATOM     55  H   UNL A   1      43.582  25.194  30.898  1.00  0.00     0.167 HD
ATOM     56  C   UNL A   1      44.463  28.444  32.452  1.00  0.00     0.074 A 
ATOM     57  C   UNL A   1      44.506  29.187  33.701  1.00  0.00     0.031 C 
ATOM     58  C   UNL A   1      44.958  27.234  32.043  1.00  0.00     0.034 A 
BRANCH  45  59
ATOM     59  C   UNL A   1      43.105  23.804  27.274  1.00  0.00     0.023 A 
ATOM     60  C   UNL A   1      43.810  24.177  26.105  1.00  0.00     0.012 A 
ATOM     61  C   UNL A   1      42.664  22.460  27.311  1.00  0.00     0.148 A 
ATOM     62  C   UNL A   1      43.979  23.316  25.014  1.00  0.00     0.002 A 
ATOM     63  C   UNL A   1      42.787  21.611  26.205  1.00  0.00     0.091 A 
ATOM     64  F   UNL A   1      42.181  21.945  28.440  1.00  0.00    -0.205 F 
ATOM     65  C   UNL A   1      43.440  22.040  25.050  1.00  0.00     0.022 A 
BRANCH  63  66
ATOM     66  S   UNL A   1      42.067  19.957  26.169  1.00  0.00     0.127 S 
ATOM     67  O   UNL A   1      42.516  19.398  27.447  1.00  0.00    -0.237 OA
ATOM     68  O   UNL A   1      40.634  20.239  26.101  1.00  0.00    -0.237 OA
ATOM     69  O   UNL A   1      42.625  19.289  24.999  1.00  0.00    -0.744 OA
ENDBRANCH  63  66
ENDBRANCH  45  59
BRANCH  46  70
ATOM     70  C   UNL A   1      40.883  31.598  32.514  1.00  0.00     0.023 A 
ATOM     71  C   UNL A   1      40.030  30.570  32.986  1.00  0.00     0.012 A 
ATOM     72  C   UNL A   1      40.761  32.883  33.070  1.00  0.00     0.148 A 
ATOM     73  C   UNL A   1      39.205  30.772  34.093  1.00  0.00     0.002 A 
ATOM     74  C   UNL A   1      39.921  33.083  34.166  1.00  0.00     0.091 A 
ATOM     75  F   UNL A   1      41.509  33.875  32.572  1.00  0.00    -0.205 F 
ATOM     76  C   UNL A   1      39.182  32.019  34.709  1.00  0.00     0.022 A 
BRANCH  74  77
ATOM     77  S   UNL A   1      39.844  34.671  35.007  1.00  0.00     0.127 S 
ATOM     78  O   UNL A   1      38.664  35.271  34.394  1.00  0.00    -0.237 OA
ATOM     79  O   UNL A   1      39.679  34.283  36.408  1.00  0.00    -0.237 OA
ATOM     80  O   UNL A   1      41.123  35.302  34.715  1.00  0.00    -0.744 OA
ENDBRANCH  74  77
ENDBRANCH  46  70
BRANCH  58  81
ATOM     81  C   UNL A   1      45.637  26.209  32.935  1.00  0.00     0.023 A 
ATOM     82  C   UNL A   1      47.002  26.285  33.268  1.00  0.00     0.012 A 
ATOM     83  C   UNL A   1      44.874  25.217  33.609  1.00  0.00     0.148 A 
ATOM     84  C   UNL A   1      47.596  25.397  34.173  1.00  0.00     0.002 A 
ATOM     85  C   UNL A   1      45.444  24.415  34.594  1.00  0.00     0.091 A 
ATOM     86  F   UNL A   1      43.585  25.031  33.287  1.00  0.00    -0.205 F 
ATOM     87  C   UNL A   1      46.812  24.479  34.857  1.00  0.00     0.022 A 
BRANCH  85  88
ATOM     88  S   UNL A   1      44.412  23.404  35.669  1.00  0.00     0.127 S 
ATOM     89  O   UNL A   1      44.017  22.316  34.779  1.00  0.00    -0.237 OA
ATOM     90  O   UNL A   1      45.344  23.015  36.729  1.00  0.00    -0.237 OA
ATOM     91  O   UNL A   1      43.348  24.296  36.112  1.00  0.00    -0.744 OA
ENDBRANCH  85  88
ENDBRANCH  58  81
ENDBRANCH  32  33
ENDBRANCH  24  27
ENDBRANCH   1  23
TORSDOF 14
ENDMDL
MODEL 2
REMARK VINA RESULT:     -13.3      4.169      9.961
REMARK SMILES Cc1ccc(-c2cc(Cl)ccc2Cl)c(C(=O)NCCCNC(=O)c2ccc(-c3c4nc(c(-c5cccc(S(=O)(=O)[O-])c5F)c5ccc([nH]5)c(-c5cccc(S(=O)(=O)[O-])c5F)c5nc(c(-c6cccc(S(=O)(=O)[O-])c6F)c6ccc3[nH]6)C=C5)C=C4)cc2)c1
REMARK SMILES IDX 20 1 19 2 18 3 17 4 15 5 16 6 14 8 1 9 2 10 3 11 87 12 4 13
REMARK SMILES IDX 5 14 6 15 7 16 12 17 8 18 11 19 13 20 9 21 10 22 21 23 22 24
REMARK SMILES IDX 23 26 24 27 25 28 86 29 26 30 85 31 27 32 28 33 29 34 79 35
REMARK SMILES IDX 30 36 84 37 78 38 80 39 31 40 83 41 77 42 76 43 32 45 64 46
REMARK SMILES IDX 44 47 63 48 45 49 48 50 62 51 81 52 46 53 47 54 61 56 82 57
REMARK SMILES IDX 49 58 33 59 34 60 42 61 35 62 37 63 43 64 36 65 38 66 39 67
REMARK SMILES IDX 40 68 41 69 65 70 66 71 74 72 67 73 69 74 75 75 68 76 70 77
REMARK SMILES IDX 71 78 72 79 73 80 50 81 51 82 59 83 52 84 54 85 60 86 53 87
REMARK SMILES IDX 55 88 56 89 57 90 58 91
REMARK H PARENT 17 7 21 25 80 44 48 55
REMARK Flexibility Score: inf
ROOT
ATOM      1  C   UNL A   1      38.513  22.204  26.247  1.00  0.00     0.118 C 
ENDROOT
BRANCH   1   2
ATOM      2  C   UNL A   1      38.144  21.448  24.987  1.00  0.00     0.042 C 
BRANCH   2   3
ATOM      3  C   UNL A   1      36.840  21.925  24.349  1.00  0.00     0.118 C 
BRANCH   3   4
ATOM      4  N   UNL A   1      35.808  22.157  25.344  1.00  0.00    -0.352 N 
ATOM      5  C   UNL A   1      34.563  21.628  25.592  1.00  0.00     0.251 C 
ATOM      6  O   UNL A   1      34.029  22.058  26.615  1.00  0.00    -0.269 OA
ATOM      7  H   UNL A   1      36.058  22.855  25.991  1.00  0.00     0.163 HD
BRANCH   5   8
ATOM      8  C   UNL A   1      33.848  20.607  24.728  1.00  0.00     0.047 A 
ATOM      9  C   UNL A   1      34.054  16.848  23.998  1.00  0.00     0.044 C 
ATOM     10  C   UNL A   1      33.586  18.274  23.945  1.00  0.00    -0.050 A 
ATOM     11  C   UNL A   1      32.527  18.650  23.136  1.00  0.00     0.004 A 
ATOM     12  C   UNL A   1      34.222  19.253  24.722  1.00  0.00     0.018 A 
ATOM     13  C   UNL A   1      32.140  19.989  23.089  1.00  0.00     0.010 A 
ATOM     14  C   UNL A   1      32.783  20.987  23.866  1.00  0.00    -0.004 A 
BRANCH  14  15
ATOM     15  C   UNL A   1      32.290  22.372  23.699  1.00  0.00     0.003 A 
ATOM     16  C   UNL A   1      32.738  23.139  22.603  1.00  0.00     0.030 A 
ATOM     17  C   UNL A   1      31.366  22.965  24.583  1.00  0.00     0.049 A 
ATOM     18  C   UNL A   1      32.317  24.458  22.430  1.00  0.00     0.041 A 
ATOM     19  C   UNL A   1      30.929  24.282  24.390  1.00  0.00     0.023 A 
ATOM     20  Cl  UNL A   1      30.721  22.109  25.943  1.00  0.00    -0.084 Cl
ATOM     21  Cl  UNL A   1      32.918  25.385  21.111  1.00  0.00    -0.084 Cl
ATOM     22  C   UNL A   1      31.412  25.031  23.318  1.00  0.00     0.022 A 
ENDBRANCH  14  15
ENDBRANCH   5   8
ENDBRANCH   3   4
ENDBRANCH   2   3
ENDBRANCH   1   2
BRANCH   1  23
ATOM     23  N   UNL A   1      39.950  22.303  26.450  1.00  0.00    -0.352 N 
ATOM     24  C   UNL A   1      40.737  23.430  26.593  1.00  0.00     0.251 C 
ATOM     25  H   UNL A   1      40.431  21.446  26.492  1.00  0.00     0.163 HD
ATOM     26  O   UNL A   1      41.960  23.303  26.577  1.00  0.00    -0.269 OA
BRANCH  24  27
ATOM     27  C   UNL A   1      40.101  24.730  26.916  1.00  0.00     0.039 A 
ATOM     28  C   UNL A   1      40.560  25.856  26.223  1.00  0.00     0.014 A 
ATOM     29  C   UNL A   1      39.300  24.881  28.044  1.00  0.00     0.014 A 
ATOM     30  C   UNL A   1      40.465  27.111  26.818  1.00  0.00     0.010 A 
ATOM     31  C   UNL A   1      39.288  26.100  28.681  1.00  0.00     0.010 A 
ATOM     32  C   UNL A   1      39.946  27.189  28.105  1.00  0.00    -0.014 A 
BRANCH  32  33
ATOM     33  C   UNL A   1      40.065  28.344  28.977  1.00  0.00     0.031 A 
ATOM     34  C   UNL A   1      39.212  29.519  28.744  1.00  0.00     0.074 A 
ATOM     35  C   UNL A   1      40.790  28.204  30.109  1.00  0.00     0.049 A 
ATOM     36  N   UNL A   1      39.347  30.650  29.343  1.00  0.00    -0.248 NA
ATOM     37  C   UNL A   1      38.136  29.502  27.763  1.00  0.00     0.031 C 
ATOM     38  C   UNL A   1      40.721  29.014  31.317  1.00  0.00     0.029 A 
ATOM     39  N   UNL A   1      41.918  27.398  30.308  1.00  0.00    -0.354 N 
ATOM     40  C   UNL A   1      38.227  31.404  29.055  1.00  0.00     0.074 A 
ATOM     41  C   UNL A   1      37.565  30.687  27.993  1.00  0.00     0.031 C 
ATOM     42  C   UNL A   1      41.877  28.884  31.988  1.00  0.00     0.029 A 
ATOM     43  C   UNL A   1      42.783  28.165  31.108  1.00  0.00     0.049 A 
ATOM     44  H   UNL A   1      42.072  26.488  29.963  1.00  0.00     0.167 HD
ATOM     45  C   UNL A   1      37.928  32.461  29.865  1.00  0.00     0.034 A 
ATOM     46  C   UNL A   1      43.990  28.639  30.669  1.00  0.00     0.034 A 
ATOM     47  C   UNL A   1      39.032  32.710  30.809  1.00  0.00     0.049 A 
ATOM     48  C   UNL A   1      44.117  30.153  30.779  1.00  0.00     0.074 A 
ATOM     49  C   UNL A   1      39.248  32.358  32.131  1.00  0.00     0.029 A 
ATOM     50  N   UNL A   1      40.254  33.156  30.317  1.00  0.00    -0.354 N 
ATOM     51  N   UNL A   1      43.118  30.958  31.017  1.00  0.00    -0.248 NA
ATOM     52  C   UNL A   1      45.373  30.877  30.605  1.00  0.00     0.031 C 
ATOM     53  C   UNL A   1      40.640  32.493  32.396  1.00  0.00     0.029 A 
ATOM     54  C   UNL A   1      41.260  32.965  31.252  1.00  0.00     0.049 A 
ATOM     55  H   UNL A   1      40.387  33.554  29.426  1.00  0.00     0.167 HD
ATOM     56  C   UNL A   1      43.528  32.261  30.913  1.00  0.00     0.074 A 
ATOM     57  C   UNL A   1      44.967  32.155  30.735  1.00  0.00     0.031 C 
ATOM     58  C   UNL A   1      42.641  33.304  30.916  1.00  0.00     0.034 A 
BRANCH  45  59
ATOM     59  C   UNL A   1      36.550  33.095  30.027  1.00  0.00     0.023 A 
ATOM     60  C   UNL A   1      35.993  33.728  28.891  1.00  0.00     0.012 A 
ATOM     61  C   UNL A   1      35.788  33.206  31.215  1.00  0.00     0.148 A 
ATOM     62  C   UNL A   1      34.823  34.495  28.946  1.00  0.00     0.002 A 
ATOM     63  C   UNL A   1      34.645  34.013  31.287  1.00  0.00     0.091 A 
ATOM     64  F   UNL A   1      36.105  32.479  32.284  1.00  0.00    -0.205 F 
ATOM     65  C   UNL A   1      34.164  34.665  30.154  1.00  0.00     0.022 A 
BRANCH  63  66
ATOM     66  S   UNL A   1      33.770  34.313  32.836  1.00  0.00     0.127 S 
ATOM     67  O   UNL A   1      33.324  32.967  33.204  1.00  0.00    -0.237 OA
ATOM     68  O   UNL A   1      34.822  34.858  33.692  1.00  0.00    -0.237 OA
ATOM     69  O   UNL A   1      32.683  35.234  32.524  1.00  0.00    -0.744 OA
ENDBRANCH  63  66
ENDBRANCH  45  59
BRANCH  46  70
ATOM     70  C   UNL A   1      44.609  27.805  29.592  1.00  0.00     0.023 A 
ATOM     71  C   UNL A   1      45.004  26.491  29.943  1.00  0.00     0.012 A 
ATOM     72  C   UNL A   1      44.443  28.118  28.231  1.00  0.00     0.148 A 
ATOM     73  C   UNL A   1      45.061  25.478  28.985  1.00  0.00     0.002 A 
ATOM     74  C   UNL A   1      44.521  27.103  27.277  1.00  0.00     0.091 A 
ATOM     75  F   UNL A   1      44.149  29.379  27.891  1.00  0.00    -0.205 F 
ATOM     76  C   UNL A   1      44.779  25.777  27.656  1.00  0.00     0.022 A 
BRANCH  74  77
ATOM     77  S   UNL A   1      44.167  27.424  25.542  1.00  0.00     0.127 S 
ATOM     78  O   UNL A   1      43.134  28.449  25.638  1.00  0.00    -0.237 OA
ATOM     79  O   UNL A   1      45.456  27.895  25.035  1.00  0.00    -0.237 OA
ATOM     80  O   UNL A   1      43.757  26.134  25.007  1.00  0.00    -0.744 OA
ENDBRANCH  74  77
ENDBRANCH  46  70
BRANCH  58  81
ATOM     81  C   UNL A   1      42.970  34.746  30.568  1.00  0.00     0.023 A 
ATOM     82  C   UNL A   1      43.439  35.665  31.526  1.00  0.00     0.012 A 
ATOM     83  C   UNL A   1      42.974  35.182  29.216  1.00  0.00     0.148 A 
ATOM     84  C   UNL A   1      43.838  36.961  31.177  1.00  0.00     0.002 A 
ATOM     85  C   UNL A   1      43.483  36.429  28.861  1.00  0.00     0.091 A 
ATOM     86  F   UNL A   1      42.467  34.391  28.257  1.00  0.00    -0.205 F 
ATOM     87  C   UNL A   1      43.886  37.335  29.842  1.00  0.00     0.022 A 
BRANCH  85  88
ATOM     88  S   UNL A   1      43.794  36.840  27.137  1.00  0.00     0.127 S 
ATOM     89  O   UNL A   1      44.549  35.678  26.676  1.00  0.00    -0.237 OA
ATOM     90  O   UNL A   1      42.442  36.944  26.586  1.00  0.00    -0.237 OA
ATOM     91  O   UNL A   1      44.517  38.105  27.179  1.00  0.00    -0.744 OA
ENDBRANCH  85  88
ENDBRANCH  58  81
ENDBRANCH  32  33
ENDBRANCH  24  27
ENDBRANCH   1  23
TORSDOF 14
ENDMDL
MODEL 3
REMARK VINA RESULT:     -13.3      4.210      9.676
REMARK SMILES Cc1ccc(-c2cc(Cl)ccc2Cl)c(C(=O)NCCCNC(=O)c2ccc(-c3c4nc(c(-c5cccc(S(=O)(=O)[O-])c5F)c5ccc([nH]5)c(-c5cccc(S(=O)(=O)[O-])c5F)c5nc(c(-c6cccc(S(=O)(=O)[O-])c6F)c6ccc3[nH]6)C=C5)C=C4)cc2)c1
REMARK SMILES IDX 20 1 19 2 18 3 17 4 15 5 16 6 14 8 1 9 2 10 3 11 87 12 4 13
REMARK SMILES IDX 5 14 6 15 7 16 12 17 8 18 11 19 13 20 9 21 10 22 21 23 22 24
REMARK SMILES IDX 23 26 24 27 25 28 86 29 26 30 85 31 27 32 28 33 29 34 79 35
REMARK SMILES IDX 30 36 84 37 78 38 80 39 31 40 83 41 77 42 76 43 32 45 64 46
REMARK SMILES IDX 44 47 63 48 45 49 48 50 62 51 81 52 46 53 47 54 61 56 82 57
REMARK SMILES IDX 49 58 33 59 34 60 42 61 35 62 37 63 43 64 36 65 38 66 39 67
REMARK SMILES IDX 40 68 41 69 65 70 66 71 74 72 67 73 69 74 75 75 68 76 70 77
REMARK SMILES IDX 71 78 72 79 73 80 50 81 51 82 59 83 52 84 54 85 60 86 53 87
REMARK SMILES IDX 55 88 56 89 57 90 58 91
REMARK H PARENT 17 7 21 25 80 44 48 55
REMARK Flexibility Score: inf
ROOT
ATOM      1  C   UNL A   1      38.295  22.319  25.659  1.00  0.00     0.118 C 
ENDROOT
BRANCH   1   2
ATOM      2  C   UNL A   1      37.596  21.004  25.383  1.00  0.00     0.042 C 
BRANCH   2   3
ATOM      3  C   UNL A   1      36.076  21.128  25.289  1.00  0.00     0.118 C 
BRANCH   3   4
ATOM      4  N   UNL A   1      35.667  21.811  24.073  1.00  0.00    -0.352 N 
ATOM      5  C   UNL A   1      34.579  22.567  23.705  1.00  0.00     0.251 C 
ATOM      6  O   UNL A   1      34.658  23.044  22.572  1.00  0.00    -0.269 OA
ATOM      7  H   UNL A   1      36.321  21.711  23.345  1.00  0.00     0.163 HD
BRANCH   5   8
ATOM      8  C   UNL A   1      33.355  22.830  24.560  1.00  0.00     0.047 A 
ATOM      9  C   UNL A   1      31.859  25.725  26.582  1.00  0.00     0.044 C 
ATOM     10  C   UNL A   1      32.014  24.366  25.964  1.00  0.00    -0.050 A 
ATOM     11  C   UNL A   1      31.063  23.377  26.161  1.00  0.00     0.004 A 
ATOM     12  C   UNL A   1      33.133  24.076  25.171  1.00  0.00     0.018 A 
ATOM     13  C   UNL A   1      31.256  22.117  25.597  1.00  0.00     0.010 A 
ATOM     14  C   UNL A   1      32.390  21.813  24.800  1.00  0.00    -0.004 A 
BRANCH  14  15
ATOM     15  C   UNL A   1      32.483  20.428  24.286  1.00  0.00     0.003 A 
ATOM     16  C   UNL A   1      32.814  19.382  25.173  1.00  0.00     0.030 A 
ATOM     17  C   UNL A   1      32.234  20.095  22.939  1.00  0.00     0.049 A 
ATOM     18  C   UNL A   1      32.939  18.069  24.718  1.00  0.00     0.041 A 
ATOM     19  C   UNL A   1      32.336  18.771  22.495  1.00  0.00     0.023 A 
ATOM     20  Cl  UNL A   1      31.785  21.290  21.768  1.00  0.00    -0.084 Cl
ATOM     21  Cl  UNL A   1      33.392  16.821  25.812  1.00  0.00    -0.084 Cl
ATOM     22  C   UNL A   1      32.699  17.759  23.383  1.00  0.00     0.022 A 
ENDBRANCH  14  15
ENDBRANCH   5   8
ENDBRANCH   3   4
ENDBRANCH   2   3
ENDBRANCH   1   2
BRANCH   1  23
ATOM     23  N   UNL A   1      39.593  22.152  26.293  1.00  0.00    -0.352 N 
ATOM     24  C   UNL A   1      40.466  23.113  26.765  1.00  0.00     0.251 C 
ATOM     25  H   UNL A   1      39.894  21.221  26.400  1.00  0.00     0.163 HD
ATOM     26  O   UNL A   1      41.596  22.769  27.106  1.00  0.00    -0.269 OA
BRANCH  24  27
ATOM     27  C   UNL A   1      39.977  24.493  26.997  1.00  0.00     0.039 A 
ATOM     28  C   UNL A   1      40.660  25.531  26.351  1.00  0.00     0.014 A 
ATOM     29  C   UNL A   1      39.078  24.778  28.020  1.00  0.00     0.014 A 
ATOM     30  C   UNL A   1      40.666  26.802  26.918  1.00  0.00     0.010 A 
ATOM     31  C   UNL A   1      39.156  26.005  28.639  1.00  0.00     0.010 A 
ATOM     32  C   UNL A   1      40.017  26.982  28.133  1.00  0.00    -0.014 A 
BRANCH  32  33
ATOM     33  C   UNL A   1      40.188  28.134  29.001  1.00  0.00     0.031 A 
ATOM     34  C   UNL A   1      39.344  29.322  28.803  1.00  0.00     0.074 A 
ATOM     35  C   UNL A   1      40.955  27.981  30.103  1.00  0.00     0.049 A 
ATOM     36  N   UNL A   1      39.520  30.450  29.397  1.00  0.00    -0.248 NA
ATOM     37  C   UNL A   1      38.230  29.323  27.865  1.00  0.00     0.031 C 
ATOM     38  C   UNL A   1      40.946  28.790  31.314  1.00  0.00     0.029 A 
ATOM     39  N   UNL A   1      42.078  27.157  30.256  1.00  0.00    -0.354 N 
ATOM     40  C   UNL A   1      38.401  31.221  29.155  1.00  0.00     0.074 A 
ATOM     41  C   UNL A   1      37.687  30.516  28.119  1.00  0.00     0.031 C 
ATOM     42  C   UNL A   1      42.126  28.642  31.938  1.00  0.00     0.029 A 
ATOM     43  C   UNL A   1      42.986  27.911  31.022  1.00  0.00     0.049 A 
ATOM     44  H   UNL A   1      42.204  26.246  29.904  1.00  0.00     0.167 HD
ATOM     45  C   UNL A   1      38.151  32.281  29.976  1.00  0.00     0.034 A 
ATOM     46  C   UNL A   1      44.181  28.367  30.536  1.00  0.00     0.034 A 
ATOM     47  C   UNL A   1      39.294  32.513  30.876  1.00  0.00     0.049 A 
ATOM     48  C   UNL A   1      44.335  29.878  30.643  1.00  0.00     0.074 A 
ATOM     49  C   UNL A   1      39.558  32.155  32.188  1.00  0.00     0.029 A 
ATOM     50  N   UNL A   1      40.503  32.940  30.337  1.00  0.00    -0.354 N 
ATOM     51  N   UNL A   1      43.358  30.698  30.920  1.00  0.00    -0.248 NA
ATOM     52  C   UNL A   1      45.594  30.584  30.420  1.00  0.00     0.031 C 
ATOM     53  C   UNL A   1      40.961  32.268  32.399  1.00  0.00     0.029 A 
ATOM     54  C   UNL A   1      41.543  32.732  31.231  1.00  0.00     0.049 A 
ATOM     55  H   UNL A   1      40.606  33.337  29.442  1.00  0.00     0.167 HD
ATOM     56  C   UNL A   1      43.784  31.995  30.801  1.00  0.00     0.074 A 
ATOM     57  C   UNL A   1      45.213  31.867  30.566  1.00  0.00     0.031 C 
ATOM     58  C   UNL A   1      42.913  33.051  30.841  1.00  0.00     0.034 A 
BRANCH  45  59
ATOM     59  C   UNL A   1      36.790  32.936  30.194  1.00  0.00     0.023 A 
ATOM     60  C   UNL A   1      36.148  33.482  29.058  1.00  0.00     0.012 A 
ATOM     61  C   UNL A   1      36.121  33.144  31.424  1.00  0.00     0.148 A 
ATOM     62  C   UNL A   1      34.987  34.261  29.143  1.00  0.00     0.002 A 
ATOM     63  C   UNL A   1      34.989  33.962  31.521  1.00  0.00     0.091 A 
ATOM     64  F   UNL A   1      36.519  32.500  32.519  1.00  0.00    -0.205 F 
ATOM     65  C   UNL A   1      34.422  34.528  30.380  1.00  0.00     0.022 A 
BRANCH  63  66
ATOM     66  S   UNL A   1      34.235  34.388  33.104  1.00  0.00     0.127 S 
ATOM     67  O   UNL A   1      35.177  35.375  33.638  1.00  0.00    -0.237 OA
ATOM     68  O   UNL A   1      32.944  34.939  32.699  1.00  0.00    -0.237 OA
ATOM     69  O   UNL A   1      34.169  33.152  33.875  1.00  0.00    -0.744 OA
ENDBRANCH  63  66
ENDBRANCH  45  59
BRANCH  46  70
ATOM     70  C   UNL A   1      44.744  27.525  29.434  1.00  0.00     0.023 A 
ATOM     71  C   UNL A   1      45.085  26.188  29.757  1.00  0.00     0.012 A 
ATOM     72  C   UNL A   1      44.570  27.869  28.082  1.00  0.00     0.148 A 
ATOM     73  C   UNL A   1      45.081  25.191  28.780  1.00  0.00     0.002 A 
ATOM     74  C   UNL A   1      44.586  26.869  27.109  1.00  0.00     0.091 A 
ATOM     75  F   UNL A   1      44.328  29.148  27.768  1.00  0.00    -0.205 F 
ATOM     76  C   UNL A   1      44.790  25.526  27.462  1.00  0.00     0.022 A 
BRANCH  74  77
ATOM     77  S   UNL A   1      44.219  27.236  25.387  1.00  0.00     0.127 S 
ATOM     78  O   UNL A   1      45.536  27.607  24.880  1.00  0.00    -0.237 OA
ATOM     79  O   UNL A   1      43.707  25.959  24.890  1.00  0.00    -0.237 OA
ATOM     80  O   UNL A   1      43.220  28.293  25.442  1.00  0.00    -0.744 OA
ENDBRANCH  74  77
ENDBRANCH  46  70
BRANCH  58  81
ATOM     81  C   UNL A   1      43.250  34.489  30.482  1.00  0.00     0.023 A 
ATOM     82  C   UNL A   1      43.751  35.405  31.426  1.00  0.00     0.012 A 
ATOM     83  C   UNL A   1      43.230  34.921  29.128  1.00  0.00     0.148 A 
ATOM     84  C   UNL A   1      44.157  36.695  31.064  1.00  0.00     0.002 A 
ATOM     85  C   UNL A   1      43.744  36.161  28.759  1.00  0.00     0.091 A 
ATOM     86  F   UNL A   1      42.693  34.133  28.183  1.00  0.00    -0.205 F 
ATOM     87  C   UNL A   1      44.179  37.065  29.728  1.00  0.00     0.022 A 
BRANCH  85  88
ATOM     88  S   UNL A   1      44.021  36.564  27.026  1.00  0.00     0.127 S 
ATOM     89  O   UNL A   1      44.789  35.412  26.563  1.00  0.00    -0.237 OA
ATOM     90  O   UNL A   1      42.659  36.639  26.496  1.00  0.00    -0.237 OA
ATOM     91  O   UNL A   1      44.722  37.842  27.048  1.00  0.00    -0.744 OA
ENDBRANCH  85  88
ENDBRANCH  58  81
ENDBRANCH  32  33
ENDBRANCH  24  27
ENDBRANCH   1  23
TORSDOF 14
ENDMDL
