MODEL 1
REMARK VINA RESULT:     -11.4      0.000      0.000
REMARK SMILES C[C@H]([NH2+]CC1(O)CCCC1)[C@H](C)C(=O)NCCCNC(=O)c1ccc(-c2c3nc(c(-c4cccc(S(=O)(=O)[O-])c4F)c4ccc([nH]4)c(-c4cccc(S(=O)(=O)[O-])c4F)c4nc(c(-c5cccc(S(=O)(=O)[O-])c5F)c5ccc2[nH]5)C=C4)C=C3)cc1
REMARK SMILES IDX 16 1 15 2 13 3 14 4 11 6 12 7 2 8 1 9 3 10 4 13 5 14 7 15
REMARK SMILES IDX 10 16 8 17 9 18 6 19 17 21 18 22 19 23 20 24 21 26 22 27
REMARK SMILES IDX 23 28 84 29 24 30 83 31 25 32 26 33 27 34 77 35 28 36 82 37
REMARK SMILES IDX 76 38 78 39 29 40 81 41 75 42 74 43 30 45 62 46 42 47 61 48
REMARK SMILES IDX 43 49 46 50 60 51 79 52 44 53 45 54 59 56 80 57 47 58 31 59
REMARK SMILES IDX 32 60 40 61 33 62 35 63 41 64 34 65 36 66 37 67 38 68 39 69
REMARK SMILES IDX 63 70 64 71 72 72 65 73 67 74 73 75 66 76 68 77 69 78 70 79
REMARK SMILES IDX 71 80 48 81 49 82 57 83 50 84 52 85 58 86 51 87 53 88 54 89
REMARK SMILES IDX 55 90 56 91
REMARK H PARENT 15 5 3 11 3 12 6 20 19 25 78 44 46 55
REMARK Flexibility Score: inf
ROOT
ATOM      1  C   UNL A   1      32.389  28.236  26.978  1.00  0.00     0.117 C 
ENDROOT
BRANCH   1   2
ATOM      2  N   UNL A   1      31.463  27.130  27.106  1.00  0.00    -0.356 N 
ATOM      3  C   UNL A   1      30.956  26.298  26.153  1.00  0.00     0.228 C 
ATOM      4  O   UNL A   1      30.333  25.307  26.547  1.00  0.00    -0.275 OA
ATOM      5  H   UNL A   1      31.151  26.950  28.023  1.00  0.00     0.163 HD
BRANCH   3   6
ATOM      6  C   UNL A   1      31.140  26.538  24.656  1.00  0.00     0.133 C 
ATOM      7  C   UNL A   1      31.665  25.301  23.918  1.00  0.00     0.024 C 
BRANCH   6   8
ATOM      8  C   UNL A   1      30.002  27.279  23.880  1.00  0.00     0.191 C 
ATOM      9  C   UNL A   1      28.676  26.512  24.003  1.00  0.00     0.076 C 
BRANCH   8  10
ATOM     10  N   UNL A   1      30.210  27.748  22.499  1.00  0.00    -0.341 N 
ATOM     11  H   UNL A   1      29.395  27.474  21.950  1.00  0.00     0.346 HD
ATOM     12  H   UNL A   1      31.084  27.320  22.192  1.00  0.00     0.346 HD
BRANCH  10  13
ATOM     13  C   UNL A   1      30.399  29.198  22.331  1.00  0.00     0.296 C 
BRANCH  13  14
ATOM     14  C   UNL A   1      29.110  30.073  22.289  1.00  0.00     0.113 C 
ATOM     15  C   UNL A   1      29.286  31.286  21.361  1.00  0.00     0.041 C 
ATOM     16  C   UNL A   1      28.662  30.739  23.591  1.00  0.00     0.041 C 
ATOM     17  C   UNL A   1      28.150  32.238  21.730  1.00  0.00     0.003 C 
ATOM     18  C   UNL A   1      27.706  31.845  23.140  1.00  0.00     0.003 C 
BRANCH  14  19
ATOM     19  O   UNL A   1      28.039  29.255  21.790  1.00  0.00    -0.384 OA
ATOM     20  H   UNL A   1      27.719  29.617  20.948  1.00  0.00     0.211 HD
ENDBRANCH  14  19
ENDBRANCH  13  14
ENDBRANCH  10  13
ENDBRANCH   8  10
ENDBRANCH   6   8
ENDBRANCH   3   6
ENDBRANCH   1   2
BRANCH   1  21
ATOM     21  C   UNL A   1      31.722  29.600  26.926  1.00  0.00     0.042 C 
BRANCH  21  22
ATOM     22  C   UNL A   1      32.591  30.706  26.340  1.00  0.00     0.118 C 
BRANCH  22  23
ATOM     23  N   UNL A   1      32.596  31.943  27.114  1.00  0.00    -0.352 N 
ATOM     24  C   UNL A   1      33.595  32.511  27.877  1.00  0.00     0.251 C 
ATOM     25  H   UNL A   1      31.754  32.452  27.089  1.00  0.00     0.163 HD
ATOM     26  O   UNL A   1      33.378  33.526  28.515  1.00  0.00    -0.269 OA
BRANCH  24  27
ATOM     27  C   UNL A   1      34.904  31.844  28.005  1.00  0.00     0.039 A 
ATOM     28  C   UNL A   1      36.028  32.668  28.119  1.00  0.00     0.014 A 
ATOM     29  C   UNL A   1      35.016  30.461  28.134  1.00  0.00     0.014 A 
ATOM     30  C   UNL A   1      37.230  32.122  28.547  1.00  0.00     0.010 A 
ATOM     31  C   UNL A   1      36.184  29.931  28.657  1.00  0.00     0.010 A 
ATOM     32  C   UNL A   1      37.276  30.772  28.915  1.00  0.00    -0.014 A 
BRANCH  32  33
ATOM     33  C   UNL A   1      38.414  30.249  29.693  1.00  0.00     0.031 A 
ATOM     34  C   UNL A   1      38.633  30.715  31.095  1.00  0.00     0.074 A 
ATOM     35  C   UNL A   1      39.291  29.439  29.065  1.00  0.00     0.049 A 
ATOM     36  N   UNL A   1      39.602  30.415  31.915  1.00  0.00    -0.248 NA
ATOM     37  C   UNL A   1      37.653  31.670  31.640  1.00  0.00     0.031 C 
ATOM     38  C   UNL A   1      39.200  29.020  27.660  1.00  0.00     0.029 A 
ATOM     39  N   UNL A   1      40.435  28.834  29.509  1.00  0.00    -0.354 N 
ATOM     40  C   UNL A   1      39.368  31.162  33.060  1.00  0.00     0.074 A 
ATOM     41  C   UNL A   1      38.187  31.961  32.818  1.00  0.00     0.031 C 
ATOM     42  C   UNL A   1      40.227  28.208  27.370  1.00  0.00     0.029 A 
ATOM     43  C   UNL A   1      41.063  28.066  28.554  1.00  0.00     0.049 A 
ATOM     44  H   UNL A   1      40.779  28.937  30.427  1.00  0.00     0.167 HD
ATOM     45  C   UNL A   1      40.061  31.153  34.222  1.00  0.00     0.034 A 
ATOM     46  C   UNL A   1      42.181  27.321  28.638  1.00  0.00     0.034 A 
ATOM     47  C   UNL A   1      41.211  30.321  34.443  1.00  0.00     0.049 A 
ATOM     48  C   UNL A   1      42.880  27.263  29.969  1.00  0.00     0.074 A 
ATOM     49  C   UNL A   1      41.980  30.192  35.583  1.00  0.00     0.029 A 
ATOM     50  N   UNL A   1      41.748  29.462  33.493  1.00  0.00    -0.354 N 
ATOM     51  N   UNL A   1      42.570  27.878  31.086  1.00  0.00    -0.248 NA
ATOM     52  C   UNL A   1      44.052  26.385  30.069  1.00  0.00     0.031 C 
ATOM     53  C   UNL A   1      42.980  29.247  35.324  1.00  0.00     0.029 A 
ATOM     54  C   UNL A   1      42.829  28.785  34.023  1.00  0.00     0.049 A 
ATOM     55  H   UNL A   1      41.409  29.352  32.576  1.00  0.00     0.167 HD
ATOM     56  C   UNL A   1      43.486  27.439  32.030  1.00  0.00     0.074 A 
ATOM     57  C   UNL A   1      44.350  26.487  31.357  1.00  0.00     0.031 C 
ATOM     58  C   UNL A   1      43.621  27.800  33.330  1.00  0.00     0.034 A 
BRANCH  45  59
ATOM     59  C   UNL A   1      39.540  32.017  35.337  1.00  0.00     0.023 A 
ATOM     60  C   UNL A   1      38.533  31.508  36.185  1.00  0.00     0.012 A 
ATOM     61  C   UNL A   1      40.024  33.321  35.547  1.00  0.00     0.148 A 
ATOM     62  C   UNL A   1      37.986  32.296  37.195  1.00  0.00     0.002 A 
ATOM     63  C   UNL A   1      39.500  34.090  36.582  1.00  0.00     0.091 A 
ATOM     64  F   UNL A   1      40.963  33.797  34.717  1.00  0.00    -0.205 F 
ATOM     65  C   UNL A   1      38.474  33.584  37.398  1.00  0.00     0.022 A 
BRANCH  63  66
ATOM     66  S   UNL A   1      40.091  35.743  36.960  1.00  0.00     0.127 S 
ATOM     67  O   UNL A   1      39.661  36.488  35.777  1.00  0.00    -0.237 OA
ATOM     68  O   UNL A   1      39.354  36.061  38.183  1.00  0.00    -0.237 OA
ATOM     69  O   UNL A   1      41.532  35.622  37.133  1.00  0.00    -0.744 OA
ENDBRANCH  63  66
ENDBRANCH  45  59
BRANCH  46  70
ATOM     70  C   UNL A   1      42.626  26.495  27.478  1.00  0.00     0.023 A 
ATOM     71  C   UNL A   1      43.498  27.064  26.529  1.00  0.00     0.012 A 
ATOM     72  C   UNL A   1      42.243  25.148  27.330  1.00  0.00     0.148 A 
ATOM     73  C   UNL A   1      43.954  26.319  25.440  1.00  0.00     0.002 A 
ATOM     74  C   UNL A   1      42.742  24.396  26.269  1.00  0.00     0.091 A 
ATOM     75  F   UNL A   1      41.404  24.619  28.233  1.00  0.00    -0.205 F 
ATOM     76  C   UNL A   1      43.585  24.983  25.315  1.00  0.00     0.022 A 
BRANCH  74  77
ATOM     77  S   UNL A   1      42.417  22.633  26.129  1.00  0.00     0.127 S 
ATOM     78  O   UNL A   1      43.031  22.114  27.347  1.00  0.00    -0.237 OA
ATOM     79  O   UNL A   1      40.954  22.582  26.106  1.00  0.00    -0.237 OA
ATOM     80  O   UNL A   1      43.041  22.235  24.873  1.00  0.00    -0.744 OA
ENDBRANCH  74  77
ENDBRANCH  46  70
BRANCH  58  81
ATOM     81  C   UNL A   1      44.722  27.144  34.112  1.00  0.00     0.023 A 
ATOM     82  C   UNL A   1      46.016  27.699  34.083  1.00  0.00     0.012 A 
ATOM     83  C   UNL A   1      44.452  26.040  34.941  1.00  0.00     0.148 A 
ATOM     84  C   UNL A   1      47.034  27.151  34.860  1.00  0.00     0.002 A 
ATOM     85  C   UNL A   1      45.462  25.526  35.745  1.00  0.00     0.091 A 
ATOM     86  F   UNL A   1      43.220  25.514  34.928  1.00  0.00    -0.205 F 
ATOM     87  C   UNL A   1      46.754  26.075  35.700  1.00  0.00     0.022 A 
BRANCH  85  88
ATOM     88  S   UNL A   1      45.159  24.204  36.921  1.00  0.00     0.127 S 
ATOM     89  O   UNL A   1      44.186  24.823  37.820  1.00  0.00    -0.237 OA
ATOM     90  O   UNL A   1      44.616  23.145  36.070  1.00  0.00    -0.237 OA
ATOM     91  O   UNL A   1      46.454  23.894  37.511  1.00  0.00    -0.744 OA
ENDBRANCH  85  88
ENDBRANCH  58  81
ENDBRANCH  32  33
ENDBRANCH  24  27
ENDBRANCH  22  23
ENDBRANCH  21  22
ENDBRANCH   1  21
TORSDOF 18
ENDMDL
MODEL 2
REMARK VINA RESULT:     -11.4      2.368      8.210
REMARK SMILES C[C@H]([NH2+]CC1(O)CCCC1)[C@H](C)C(=O)NCCCNC(=O)c1ccc(-c2c3nc(c(-c4cccc(S(=O)(=O)[O-])c4F)c4ccc([nH]4)c(-c4cccc(S(=O)(=O)[O-])c4F)c4nc(c(-c5cccc(S(=O)(=O)[O-])c5F)c5ccc2[nH]5)C=C4)C=C3)cc1
REMARK SMILES IDX 16 1 15 2 13 3 14 4 11 6 12 7 2 8 1 9 3 10 4 13 5 14 7 15
REMARK SMILES IDX 10 16 8 17 9 18 6 19 17 21 18 22 19 23 20 24 21 26 22 27
REMARK SMILES IDX 23 28 84 29 24 30 83 31 25 32 26 33 27 34 77 35 28 36 82 37
REMARK SMILES IDX 76 38 78 39 29 40 81 41 75 42 74 43 30 45 62 46 42 47 61 48
REMARK SMILES IDX 43 49 46 50 60 51 79 52 44 53 45 54 59 56 80 57 47 58 31 59
REMARK SMILES IDX 32 60 40 61 33 62 35 63 41 64 34 65 36 66 37 67 38 68 39 69
REMARK SMILES IDX 63 70 64 71 72 72 65 73 67 74 73 75 66 76 68 77 69 78 70 79
REMARK SMILES IDX 71 80 48 81 49 82 57 83 50 84 52 85 58 86 51 87 53 88 54 89
REMARK SMILES IDX 55 90 56 91
REMARK H PARENT 15 5 3 11 3 12 6 20 19 25 78 44 46 55
REMARK Flexibility Score: inf
ROOT
ATOM      1  C   UNL A   1      33.091  29.108  27.308  1.00  0.00     0.117 C 
ENDROOT
BRANCH   1   2
ATOM      2  N   UNL A   1      31.978  28.181  27.320  1.00  0.00    -0.356 N 
ATOM      3  C   UNL A   1      31.724  27.108  26.520  1.00  0.00     0.228 C 
ATOM      4  O   UNL A   1      30.801  26.360  26.861  1.00  0.00    -0.275 OA
ATOM      5  H   UNL A   1      31.300  28.353  28.014  1.00  0.00     0.163 HD
BRANCH   3   6
ATOM      6  C   UNL A   1      32.530  26.801  25.260  1.00  0.00     0.133 C 
ATOM      7  C   UNL A   1      33.695  25.839  25.522  1.00  0.00     0.024 C 
BRANCH   6   8
ATOM      8  C   UNL A   1      31.750  26.475  23.944  1.00  0.00     0.191 C 
ATOM      9  C   UNL A   1      32.701  26.477  22.737  1.00  0.00     0.076 C 
BRANCH   8  10
ATOM     10  N   UNL A   1      30.490  27.167  23.620  1.00  0.00    -0.341 N 
ATOM     11  H   UNL A   1      30.264  27.785  24.400  1.00  0.00     0.346 HD
ATOM     12  H   UNL A   1      29.804  26.428  23.460  1.00  0.00     0.346 HD
BRANCH  10  13
ATOM     13  C   UNL A   1      30.495  27.976  22.391  1.00  0.00     0.296 C 
BRANCH  13  14
ATOM     14  C   UNL A   1      29.670  29.297  22.417  1.00  0.00     0.113 C 
ATOM     15  C   UNL A   1      30.026  30.157  23.640  1.00  0.00     0.041 C 
ATOM     16  C   UNL A   1      28.149  29.182  22.548  1.00  0.00     0.041 C 
ATOM     17  C   UNL A   1      28.891  31.172  23.758  1.00  0.00     0.003 C 
ATOM     18  C   UNL A   1      27.703  30.573  23.002  1.00  0.00     0.003 C 
BRANCH  14  19
ATOM     19  O   UNL A   1      29.980  30.034  21.222  1.00  0.00    -0.384 OA
ATOM     20  H   UNL A   1      30.509  29.479  20.627  1.00  0.00     0.211 HD
ENDBRANCH  14  19
ENDBRANCH  13  14
ENDBRANCH  10  13
ENDBRANCH   8  10
ENDBRANCH   6   8
ENDBRANCH   3   6
ENDBRANCH   1   2
BRANCH   1  21
ATOM     21  C   UNL A   1      32.717  30.522  26.898  1.00  0.00     0.042 C 
BRANCH  21  22
ATOM     22  C   UNL A   1      33.568  31.612  27.537  1.00  0.00     0.118 C 
BRANCH  22  23
ATOM     23  N   UNL A   1      32.920  32.917  27.611  1.00  0.00    -0.352 N 
ATOM     24  C   UNL A   1      33.229  34.022  28.377  1.00  0.00     0.251 C 
ATOM     25  H   UNL A   1      32.140  33.027  27.020  1.00  0.00     0.163 HD
ATOM     26  O   UNL A   1      32.514  35.007  28.349  1.00  0.00    -0.269 OA
BRANCH  24  27
ATOM     27  C   UNL A   1      34.370  33.984  29.311  1.00  0.00     0.039 A 
ATOM     28  C   UNL A   1      34.126  33.476  30.591  1.00  0.00     0.014 A 
ATOM     29  C   UNL A   1      35.662  34.317  28.909  1.00  0.00     0.014 A 
ATOM     30  C   UNL A   1      35.199  33.127  31.399  1.00  0.00     0.010 A 
ATOM     31  C   UNL A   1      36.732  33.878  29.670  1.00  0.00     0.010 A 
ATOM     32  C   UNL A   1      36.500  33.233  30.893  1.00  0.00    -0.014 A 
BRANCH  32  33
ATOM     33  C   UNL A   1      37.622  32.557  31.571  1.00  0.00     0.031 A 
ATOM     34  C   UNL A   1      38.314  31.414  30.903  1.00  0.00     0.074 A 
ATOM     35  C   UNL A   1      37.917  32.931  32.832  1.00  0.00     0.049 A 
ATOM     36  N   UNL A   1      39.277  30.662  31.359  1.00  0.00    -0.248 NA
ATOM     37  C   UNL A   1      37.840  31.043  29.559  1.00  0.00     0.031 C 
ATOM     38  C   UNL A   1      37.215  33.974  33.592  1.00  0.00     0.029 A 
ATOM     39  N   UNL A   1      38.865  32.476  33.708  1.00  0.00    -0.354 N 
ATOM     40  C   UNL A   1      39.508  29.713  30.374  1.00  0.00     0.074 A 
ATOM     41  C   UNL A   1      38.559  29.957  29.310  1.00  0.00     0.031 C 
ATOM     42  C   UNL A   1      37.774  34.095  34.805  1.00  0.00     0.029 A 
ATOM     43  C   UNL A   1      38.856  33.126  34.922  1.00  0.00     0.049 A 
ATOM     44  H   UNL A   1      39.496  31.751  33.491  1.00  0.00     0.167 HD
ATOM     45  C   UNL A   1      40.454  28.746  30.348  1.00  0.00     0.034 A 
ATOM     46  C   UNL A   1      39.646  32.961  36.000  1.00  0.00     0.034 A 
ATOM     47  C   UNL A   1      41.406  28.552  31.407  1.00  0.00     0.049 A 
ATOM     48  C   UNL A   1      40.744  31.938  35.907  1.00  0.00     0.074 A 
ATOM     49  C   UNL A   1      42.434  27.633  31.489  1.00  0.00     0.029 A 
ATOM     50  N   UNL A   1      41.446  29.309  32.570  1.00  0.00    -0.354 N 
ATOM     51  N   UNL A   1      41.033  31.132  34.912  1.00  0.00    -0.248 NA
ATOM     52  C   UNL A   1      41.647  31.823  37.058  1.00  0.00     0.031 C 
ATOM     53  C   UNL A   1      43.102  27.841  32.701  1.00  0.00     0.029 A 
ATOM     54  C   UNL A   1      42.492  28.893  33.371  1.00  0.00     0.049 A 
ATOM     55  H   UNL A   1      40.821  30.036  32.792  1.00  0.00     0.167 HD
ATOM     56  C   UNL A   1      42.169  30.438  35.301  1.00  0.00     0.074 A 
ATOM     57  C   UNL A   1      42.528  30.936  36.615  1.00  0.00     0.031 C 
ATOM     58  C   UNL A   1      42.847  29.462  34.647  1.00  0.00     0.034 A 
BRANCH  45  59
ATOM     59  C   UNL A   1      40.529  27.893  29.113  1.00  0.00     0.023 A 
ATOM     60  C   UNL A   1      39.701  26.754  29.017  1.00  0.00     0.012 A 
ATOM     61  C   UNL A   1      41.411  28.195  28.059  1.00  0.00     0.148 A 
ATOM     62  C   UNL A   1      39.779  25.907  27.913  1.00  0.00     0.002 A 
ATOM     63  C   UNL A   1      41.458  27.365  26.943  1.00  0.00     0.091 A 
ATOM     64  F   UNL A   1      42.208  29.265  28.179  1.00  0.00    -0.205 F 
ATOM     65  C   UNL A   1      40.652  26.216  26.874  1.00  0.00     0.022 A 
BRANCH  63  66
ATOM     66  S   UNL A   1      42.512  27.699  25.528  1.00  0.00     0.127 S 
ATOM     67  O   UNL A   1      41.940  28.945  25.021  1.00  0.00    -0.237 OA
ATOM     68  O   UNL A   1      43.828  27.840  26.152  1.00  0.00    -0.237 OA
ATOM     69  O   UNL A   1      42.378  26.545  24.649  1.00  0.00    -0.744 OA
ENDBRANCH  63  66
ENDBRANCH  45  59
BRANCH  46  70
ATOM     70  C   UNL A   1      39.499  33.854  37.185  1.00  0.00     0.023 A 
ATOM     71  C   UNL A   1      39.959  35.184  37.101  1.00  0.00     0.012 A 
ATOM     72  C   UNL A   1      38.868  33.426  38.369  1.00  0.00     0.148 A 
ATOM     73  C   UNL A   1      39.823  36.058  38.181  1.00  0.00     0.002 A 
ATOM     74  C   UNL A   1      38.690  34.318  39.424  1.00  0.00     0.091 A 
ATOM     75  F   UNL A   1      38.443  32.157  38.444  1.00  0.00    -0.205 F 
ATOM     76  C   UNL A   1      39.179  35.629  39.338  1.00  0.00     0.022 A 
BRANCH  74  77
ATOM     77  S   UNL A   1      37.746  33.871  40.888  1.00  0.00     0.127 S 
ATOM     78  O   UNL A   1      36.565  33.241  40.305  1.00  0.00    -0.237 OA
ATOM     79  O   UNL A   1      38.654  32.956  41.582  1.00  0.00    -0.237 OA
ATOM     80  O   UNL A   1      37.525  35.129  41.591  1.00  0.00    -0.744 OA
ENDBRANCH  74  77
ENDBRANCH  46  70
BRANCH  58  81
ATOM     81  C   UNL A   1      44.055  28.893  35.330  1.00  0.00     0.023 A 
ATOM     82  C   UNL A   1      45.309  29.504  35.141  1.00  0.00     0.012 A 
ATOM     83  C   UNL A   1      43.930  27.815  36.227  1.00  0.00     0.148 A 
ATOM     84  C   UNL A   1      46.430  29.038  35.824  1.00  0.00     0.002 A 
ATOM     85  C   UNL A   1      45.043  27.383  36.937  1.00  0.00     0.091 A 
ATOM     86  F   UNL A   1      42.731  27.233  36.367  1.00  0.00    -0.205 F 
ATOM     87  C   UNL A   1      46.294  27.988  36.731  1.00  0.00     0.022 A 
BRANCH  85  88
ATOM     88  S   UNL A   1      44.933  26.103  38.190  1.00  0.00     0.127 S 
ATOM     89  O   UNL A   1      43.772  26.543  38.963  1.00  0.00    -0.237 OA
ATOM     90  O   UNL A   1      44.711  24.899  37.388  1.00  0.00    -0.237 OA
ATOM     91  O   UNL A   1      46.207  26.128  38.895  1.00  0.00    -0.744 OA
ENDBRANCH  85  88
ENDBRANCH  58  81
ENDBRANCH  32  33
ENDBRANCH  24  27
ENDBRANCH  22  23
ENDBRANCH  21  22
ENDBRANCH   1  21
TORSDOF 18
ENDMDL
MODEL 3
REMARK VINA RESULT:     -11.1      5.341      8.214
REMARK SMILES C[C@H]([NH2+]CC1(O)CCCC1)[C@H](C)C(=O)NCCCNC(=O)c1ccc(-c2c3nc(c(-c4cccc(S(=O)(=O)[O-])c4F)c4ccc([nH]4)c(-c4cccc(S(=O)(=O)[O-])c4F)c4nc(c(-c5cccc(S(=O)(=O)[O-])c5F)c5ccc2[nH]5)C=C4)C=C3)cc1
REMARK SMILES IDX 16 1 15 2 13 3 14 4 11 6 12 7 2 8 1 9 3 10 4 13 5 14 7 15
REMARK SMILES IDX 10 16 8 17 9 18 6 19 17 21 18 22 19 23 20 24 21 26 22 27
REMARK SMILES IDX 23 28 84 29 24 30 83 31 25 32 26 33 27 34 77 35 28 36 82 37
REMARK SMILES IDX 76 38 78 39 29 40 81 41 75 42 74 43 30 45 62 46 42 47 61 48
REMARK SMILES IDX 43 49 46 50 60 51 79 52 44 53 45 54 59 56 80 57 47 58 31 59
REMARK SMILES IDX 32 60 40 61 33 62 35 63 41 64 34 65 36 66 37 67 38 68 39 69
REMARK SMILES IDX 63 70 64 71 72 72 65 73 67 74 73 75 66 76 68 77 69 78 70 79
REMARK SMILES IDX 71 80 48 81 49 82 57 83 50 84 52 85 58 86 51 87 53 88 54 89
REMARK SMILES IDX 55 90 56 91
REMARK H PARENT 15 5 3 11 3 12 6 20 19 25 78 44 46 55
REMARK Flexibility Score: inf
ROOT
ATOM      1  C   UNL A   1      35.094  21.069  25.451  1.00  0.00     0.117 C 
ENDROOT
BRANCH   1   2
ATOM      2  N   UNL A   1      33.972  20.177  25.656  1.00  0.00    -0.356 N 
ATOM      3  C   UNL A   1      32.924  19.887  24.834  1.00  0.00     0.228 C 
ATOM      4  O   UNL A   1      32.198  18.942  25.163  1.00  0.00    -0.275 OA
ATOM      5  H   UNL A   1      33.965  19.708  26.522  1.00  0.00     0.163 HD
BRANCH   3   6
ATOM      6  C   UNL A   1      32.634  20.661  23.551  1.00  0.00     0.133 C 
ATOM      7  C   UNL A   1      32.069  19.772  22.438  1.00  0.00     0.024 C 
BRANCH   6   8
ATOM      8  C   UNL A   1      31.902  22.039  23.666  1.00  0.00     0.191 C 
ATOM      9  C   UNL A   1      32.567  23.083  22.756  1.00  0.00     0.076 C 
BRANCH   8  10
ATOM     10  N   UNL A   1      31.583  22.617  24.982  1.00  0.00    -0.341 N 
ATOM     11  H   UNL A   1      32.458  22.732  25.494  1.00  0.00     0.346 HD
ATOM     12  H   UNL A   1      30.928  21.967  25.417  1.00  0.00     0.346 HD
BRANCH  10  13
ATOM     13  C   UNL A   1      30.896  23.919  24.967  1.00  0.00     0.296 C 
BRANCH  13  14
ATOM     14  C   UNL A   1      31.439  25.010  25.937  1.00  0.00     0.113 C 
ATOM     15  C   UNL A   1      30.586  26.287  25.881  1.00  0.00     0.041 C 
ATOM     16  C   UNL A   1      32.842  25.561  25.672  1.00  0.00     0.041 C 
ATOM     17  C   UNL A   1      31.442  27.369  26.536  1.00  0.00     0.003 C 
ATOM     18  C   UNL A   1      32.887  26.873  26.458  1.00  0.00     0.003 C 
BRANCH  14  19
ATOM     19  O   UNL A   1      31.392  24.476  27.271  1.00  0.00    -0.384 OA
ATOM     20  H   UNL A   1      31.734  23.568  27.269  1.00  0.00     0.211 HD
ENDBRANCH  14  19
ENDBRANCH  13  14
ENDBRANCH  10  13
ENDBRANCH   8  10
ENDBRANCH   6   8
ENDBRANCH   3   6
ENDBRANCH   1   2
BRANCH   1  21
ATOM     21  C   UNL A   1      36.378  20.366  25.044  1.00  0.00     0.042 C 
BRANCH  21  22
ATOM     22  C   UNL A   1      37.645  21.181  25.275  1.00  0.00     0.118 C 
BRANCH  22  23
ATOM     23  N   UNL A   1      38.840  20.379  25.520  1.00  0.00    -0.352 N 
ATOM     24  C   UNL A   1      39.972  20.671  26.253  1.00  0.00     0.251 C 
ATOM     25  H   UNL A   1      38.838  19.491  25.096  1.00  0.00     0.163 HD
ATOM     26  O   UNL A   1      40.905  19.887  26.278  1.00  0.00    -0.269 OA
BRANCH  24  27
ATOM     27  C   UNL A   1      40.103  21.973  26.932  1.00  0.00     0.039 A 
ATOM     28  C   UNL A   1      41.048  22.061  27.960  1.00  0.00     0.014 A 
ATOM     29  C   UNL A   1      39.415  23.104  26.496  1.00  0.00     0.014 A 
ATOM     30  C   UNL A   1      41.436  23.310  28.421  1.00  0.00     0.010 A 
ATOM     31  C   UNL A   1      39.872  24.353  26.881  1.00  0.00     0.010 A 
ATOM     32  C   UNL A   1      40.921  24.458  27.805  1.00  0.00    -0.014 A 
BRANCH  32  33
ATOM     33  C   UNL A   1      41.560  25.770  28.019  1.00  0.00     0.031 A 
ATOM     34  C   UNL A   1      40.796  26.869  28.682  1.00  0.00     0.074 A 
ATOM     35  C   UNL A   1      42.791  25.966  27.506  1.00  0.00     0.049 A 
ATOM     36  N   UNL A   1      41.163  28.100  28.907  1.00  0.00    -0.248 NA
ATOM     37  C   UNL A   1      39.425  26.556  29.121  1.00  0.00     0.031 C 
ATOM     38  C   UNL A   1      43.563  24.968  26.753  1.00  0.00     0.029 A 
ATOM     39  N   UNL A   1      43.608  27.064  27.519  1.00  0.00    -0.354 N 
ATOM     40  C   UNL A   1      40.064  28.718  29.487  1.00  0.00     0.074 A 
ATOM     41  C   UNL A   1      39.001  27.738  29.544  1.00  0.00     0.031 C 
ATOM     42  C   UNL A   1      44.747  25.491  26.403  1.00  0.00     0.029 A 
ATOM     43  C   UNL A   1      44.812  26.866  26.881  1.00  0.00     0.049 A 
ATOM     44  H   UNL A   1      43.359  27.916  27.945  1.00  0.00     0.167 HD
ATOM     45  C   UNL A   1      39.968  29.982  29.960  1.00  0.00     0.034 A 
ATOM     46  C   UNL A   1      45.855  27.702  26.718  1.00  0.00     0.034 A 
ATOM     47  C   UNL A   1      41.055  30.920  29.919  1.00  0.00     0.049 A 
ATOM     48  C   UNL A   1      45.750  29.072  27.331  1.00  0.00     0.074 A 
ATOM     49  C   UNL A   1      41.098  32.216  30.394  1.00  0.00     0.029 A 
ATOM     50  N   UNL A   1      42.303  30.647  29.375  1.00  0.00    -0.354 N 
ATOM     51  N   UNL A   1      44.747  29.600  27.993  1.00  0.00    -0.248 NA
ATOM     52  C   UNL A   1      46.923  29.946  27.214  1.00  0.00     0.031 C 
ATOM     53  C   UNL A   1      42.378  32.725  30.143  1.00  0.00     0.029 A 
ATOM     54  C   UNL A   1      43.132  31.742  29.516  1.00  0.00     0.049 A 
ATOM     55  H   UNL A   1      42.559  29.796  28.951  1.00  0.00     0.167 HD
ATOM     56  C   UNL A   1      45.177  30.854  28.401  1.00  0.00     0.074 A 
ATOM     57  C   UNL A   1      46.542  30.997  27.929  1.00  0.00     0.031 C 
ATOM     58  C   UNL A   1      44.505  31.814  29.084  1.00  0.00     0.034 A 
BRANCH  45  59
ATOM     59  C   UNL A   1      38.670  30.372  30.611  1.00  0.00     0.023 A 
ATOM     60  C   UNL A   1      38.411  29.948  31.932  1.00  0.00     0.012 A 
ATOM     61  C   UNL A   1      37.705  31.138  29.931  1.00  0.00     0.148 A 
ATOM     62  C   UNL A   1      37.197  30.243  32.551  1.00  0.00     0.002 A 
ATOM     63  C   UNL A   1      36.511  31.461  30.568  1.00  0.00     0.091 A 
ATOM     64  F   UNL A   1      37.957  31.511  28.668  1.00  0.00    -0.205 F 
ATOM     65  C   UNL A   1      36.251  31.005  31.871  1.00  0.00     0.022 A 
BRANCH  63  66
ATOM     66  S   UNL A   1      35.244  32.477  29.801  1.00  0.00     0.127 S 
ATOM     67  O   UNL A   1      36.040  33.566  29.237  1.00  0.00    -0.237 OA
ATOM     68  O   UNL A   1      34.674  31.563  28.811  1.00  0.00    -0.237 OA
ATOM     69  O   UNL A   1      34.333  32.857  30.872  1.00  0.00    -0.744 OA
ENDBRANCH  63  66
ENDBRANCH  45  59
BRANCH  46  70
ATOM     70  C   UNL A   1      47.104  27.229  26.057  1.00  0.00     0.023 A 
ATOM     71  C   UNL A   1      47.303  27.509  24.690  1.00  0.00     0.012 A 
ATOM     72  C   UNL A   1      48.117  26.557  26.767  1.00  0.00     0.148 A 
ATOM     73  C   UNL A   1      48.468  27.102  24.038  1.00  0.00     0.002 A 
ATOM     74  C   UNL A   1      49.299  26.199  26.123  1.00  0.00     0.091 A 
ATOM     75  F   UNL A   1      47.915  26.286  28.065  1.00  0.00    -0.205 F 
ATOM     76  C   UNL A   1      49.470  26.456  24.756  1.00  0.00     0.022 A 
BRANCH  74  77
ATOM     77  S   UNL A   1      50.686  25.490  27.022  1.00  0.00     0.127 S 
ATOM     78  O   UNL A   1      50.071  24.330  27.661  1.00  0.00    -0.237 OA
ATOM     79  O   UNL A   1      51.630  25.174  25.949  1.00  0.00    -0.237 OA
ATOM     80  O   UNL A   1      51.138  26.551  27.913  1.00  0.00    -0.744 OA
ENDBRANCH  74  77
ENDBRANCH  46  70
BRANCH  58  81
ATOM     81  C   UNL A   1      45.244  33.085  29.383  1.00  0.00     0.023 A 
ATOM     82  C   UNL A   1      45.980  33.192  30.578  1.00  0.00     0.012 A 
ATOM     83  C   UNL A   1      45.283  34.130  28.441  1.00  0.00     0.148 A 
ATOM     84  C   UNL A   1      46.734  34.334  30.840  1.00  0.00     0.002 A 
ATOM     85  C   UNL A   1      46.071  35.246  28.690  1.00  0.00     0.091 A 
ATOM     86  F   UNL A   1      44.551  34.014  27.324  1.00  0.00    -0.205 F 
ATOM     87  C   UNL A   1      46.790  35.353  29.892  1.00  0.00     0.022 A 
BRANCH  85  88
ATOM     88  S   UNL A   1      46.271  36.557  27.479  1.00  0.00     0.127 S 
ATOM     89  O   UNL A   1      47.243  37.426  28.140  1.00  0.00    -0.237 OA
ATOM     90  O   UNL A   1      46.789  35.834  26.318  1.00  0.00    -0.237 OA
ATOM     91  O   UNL A   1      44.943  37.126  27.289  1.00  0.00    -0.744 OA
ENDBRANCH  85  88
ENDBRANCH  58  81
ENDBRANCH  32  33
ENDBRANCH  24  27
ENDBRANCH  22  23
ENDBRANCH  21  22
ENDBRANCH   1  21
TORSDOF 18
ENDMDL
