MODEL 1
REMARK VINA RESULT:     -12.8      0.000      0.000
REMARK SMILES O=C(NCCCNC(=O)[C@@H]1CCC[C@@H](C(=O)N2CCN3C(=O)NC[C@@H]3C2)C1)c1ccc(-c2c3nc(c(-c4cccc(S(=O)(=O)[O-])c4F)c4ccc([nH]4)c(-c4cccc(S(=O)(=O)[O-])c4F)c4nc(c(-c5cccc(S(=O)(=O)[O-])c5F)c5ccc2[nH]5)C=C4)C=C3)cc1
REMARK SMILES IDX 4 1 3 2 1 3 2 4 28 6 29 7 90 8 30 9 89 10 31 11 32 12 33 13
REMARK SMILES IDX 83 14 34 15 88 16 82 17 84 18 35 19 87 20 81 21 80 22 36 24
REMARK SMILES IDX 68 25 48 26 67 27 49 28 52 29 66 30 85 31 50 32 51 33 65 35
REMARK SMILES IDX 86 36 53 37 37 38 38 39 46 40 39 41 41 42 47 43 40 44 42 45
REMARK SMILES IDX 43 46 44 47 45 48 69 49 70 50 78 51 71 52 73 53 79 54 72 55
REMARK SMILES IDX 74 56 75 57 76 58 77 59 54 60 55 61 63 62 56 63 58 64 64 65
REMARK SMILES IDX 57 66 59 67 60 68 61 69 62 70 5 71 6 72 7 73 8 74 9 76 10 77
REMARK SMILES IDX 11 78 27 79 12 80 14 81 13 82 15 83 16 84 17 85 18 86 26 87
REMARK SMILES IDX 19 88 25 89 20 90 24 91 21 92 23 93 22 94
REMARK H PARENT 3 5 84 23 52 34 7 75 23 95
REMARK Flexibility Score: inf
ROOT
ATOM      1  C   UNL A   1      32.916  32.438  27.217  1.00  0.00     0.118 C 
ENDROOT
BRANCH   1   2
ATOM      2  N   UNL A   1      32.701  33.812  27.643  1.00  0.00    -0.352 N 
ATOM      3  O   UNL A   1      32.668  35.511  29.106  1.00  0.00    -0.269 OA
ATOM      4  C   UNL A   1      33.214  34.480  28.723  1.00  0.00     0.251 C 
ATOM      5  H   UNL A   1      32.098  34.339  27.070  1.00  0.00     0.163 HD
BRANCH   4   6
ATOM      6  C   UNL A   1      34.413  33.962  29.412  1.00  0.00     0.039 A 
ATOM      7  C   UNL A   1      34.293  33.025  30.444  1.00  0.00     0.014 A 
ATOM      8  C   UNL A   1      35.675  34.370  28.976  1.00  0.00     0.014 A 
ATOM      9  C   UNL A   1      35.427  32.574  31.111  1.00  0.00     0.010 A 
ATOM     10  C   UNL A   1      36.815  33.856  29.593  1.00  0.00     0.010 A 
ATOM     11  C   UNL A   1      36.699  32.967  30.675  1.00  0.00    -0.014 A 
BRANCH  11  12
ATOM     12  C   UNL A   1      37.913  32.390  31.299  1.00  0.00     0.031 A 
ATOM     13  C   UNL A   1      38.633  31.246  30.653  1.00  0.00     0.074 A 
ATOM     14  C   UNL A   1      38.313  32.861  32.496  1.00  0.00     0.049 A 
ATOM     15  N   UNL A   1      39.643  30.548  31.104  1.00  0.00    -0.248 NA
ATOM     16  C   UNL A   1      38.148  30.819  29.331  1.00  0.00     0.031 C 
ATOM     17  C   UNL A   1      37.664  33.949  33.230  1.00  0.00     0.029 A 
ATOM     18  N   UNL A   1      39.333  32.461  33.320  1.00  0.00    -0.354 N 
ATOM     19  C   UNL A   1      39.883  29.568  30.150  1.00  0.00     0.074 A 
ATOM     20  C   UNL A   1      38.910  29.760  29.095  1.00  0.00     0.031 C 
ATOM     21  C   UNL A   1      38.286  34.117  34.405  1.00  0.00     0.029 A 
ATOM     22  C   UNL A   1      39.335  33.112  34.532  1.00  0.00     0.049 A 
ATOM     23  H   UNL A   1      39.997  31.779  33.072  1.00  0.00     0.167 HD
ATOM     24  C   UNL A   1      40.829  28.600  30.157  1.00  0.00     0.034 A 
ATOM     25  C   UNL A   1      40.063  32.894  35.644  1.00  0.00     0.034 A 
ATOM     26  C   UNL A   1      41.790  28.425  31.213  1.00  0.00     0.049 A 
ATOM     27  C   UNL A   1      41.099  31.809  35.634  1.00  0.00     0.074 A 
ATOM     28  C   UNL A   1      42.838  27.523  31.282  1.00  0.00     0.029 A 
ATOM     29  N   UNL A   1      41.804  29.146  32.398  1.00  0.00    -0.354 N 
ATOM     30  N   UNL A   1      41.399  30.970  34.673  1.00  0.00    -0.248 NA
ATOM     31  C   UNL A   1      41.919  31.659  36.843  1.00  0.00     0.031 C 
ATOM     32  C   UNL A   1      43.451  27.665  32.531  1.00  0.00     0.029 A 
ATOM     33  C   UNL A   1      42.824  28.694  33.216  1.00  0.00     0.049 A 
ATOM     34  H   UNL A   1      41.179  29.872  32.625  1.00  0.00     0.167 HD
ATOM     35  C   UNL A   1      42.466  30.215  35.144  1.00  0.00     0.074 A 
ATOM     36  C   UNL A   1      42.763  30.700  36.477  1.00  0.00     0.031 C 
ATOM     37  C   UNL A   1      43.138  29.215  34.524  1.00  0.00     0.034 A 
BRANCH  24  38
ATOM     38  C   UNL A   1      40.860  27.648  28.988  1.00  0.00     0.023 A 
ATOM     39  C   UNL A   1      39.972  26.554  28.941  1.00  0.00     0.012 A 
ATOM     40  C   UNL A   1      41.758  27.851  27.921  1.00  0.00     0.148 A 
ATOM     41  C   UNL A   1      40.015  25.647  27.882  1.00  0.00     0.002 A 
ATOM     42  C   UNL A   1      41.760  26.973  26.844  1.00  0.00     0.091 A 
ATOM     43  F   UNL A   1      42.609  28.885  27.988  1.00  0.00    -0.205 F 
ATOM     44  C   UNL A   1      40.903  25.861  26.831  1.00  0.00     0.022 A 
BRANCH  42  45
ATOM     45  S   UNL A   1      42.809  27.214  25.407  1.00  0.00     0.127 S 
ATOM     46  O   UNL A   1      44.117  27.415  26.029  1.00  0.00    -0.237 OA
ATOM     47  O   UNL A   1      42.659  25.942  24.699  1.00  0.00    -0.237 OA
ATOM     48  O   UNL A   1      42.265  28.366  24.702  1.00  0.00    -0.744 OA
ENDBRANCH  42  45
ENDBRANCH  24  38
BRANCH  25  49
ATOM     49  C   UNL A   1      39.822  33.740  36.843  1.00  0.00     0.023 A 
ATOM     50  C   UNL A   1      40.193  35.098  36.826  1.00  0.00     0.012 A 
ATOM     51  C   UNL A   1      39.141  33.223  37.965  1.00  0.00     0.148 A 
ATOM     52  C   UNL A   1      39.902  35.923  37.913  1.00  0.00     0.002 A 
ATOM     53  C   UNL A   1      38.804  34.064  39.016  1.00  0.00     0.091 A 
ATOM     54  F   UNL A   1      38.798  31.928  37.954  1.00  0.00    -0.205 F 
ATOM     55  C   UNL A   1      39.198  35.411  39.000  1.00  0.00     0.022 A 
BRANCH  53  56
ATOM     56  S   UNL A   1      37.778  33.532  40.391  1.00  0.00     0.127 S 
ATOM     57  O   UNL A   1      38.609  32.496  40.999  1.00  0.00    -0.237 OA
ATOM     58  O   UNL A   1      37.661  34.765  41.169  1.00  0.00    -0.237 OA
ATOM     59  O   UNL A   1      36.531  33.068  39.800  1.00  0.00    -0.744 OA
ENDBRANCH  53  56
ENDBRANCH  25  49
BRANCH  37  60
ATOM     60  C   UNL A   1      44.311  28.603  35.241  1.00  0.00     0.023 A 
ATOM     61  C   UNL A   1      45.608  29.119  35.058  1.00  0.00     0.012 A 
ATOM     62  C   UNL A   1      44.096  27.589  36.196  1.00  0.00     0.148 A 
ATOM     63  C   UNL A   1      46.676  28.625  35.807  1.00  0.00     0.002 A 
ATOM     64  C   UNL A   1      45.153  27.139  36.976  1.00  0.00     0.091 A 
ATOM     65  F   UNL A   1      42.854  27.100  36.337  1.00  0.00    -0.205 F 
ATOM     66  C   UNL A   1      46.446  27.649  36.775  1.00  0.00     0.022 A 
BRANCH  64  67
ATOM     67  S   UNL A   1      44.931  25.967  38.317  1.00  0.00     0.127 S 
ATOM     68  O   UNL A   1      44.548  24.756  37.593  1.00  0.00    -0.237 OA
ATOM     69  O   UNL A   1      46.267  25.925  38.913  1.00  0.00    -0.237 OA
ATOM     70  O   UNL A   1      43.897  26.524  39.178  1.00  0.00    -0.744 OA
ENDBRANCH  64  67
ENDBRANCH  37  60
ENDBRANCH  11  12
ENDBRANCH   4   6
ENDBRANCH   1   2
BRANCH   1  71
ATOM     71  C   UNL A   1      31.627  31.814  26.698  1.00  0.00     0.042 C 
BRANCH  71  72
ATOM     72  C   UNL A   1      31.846  30.432  26.087  1.00  0.00     0.117 C 
BRANCH  72  73
ATOM     73  N   UNL A   1      31.038  30.261  24.895  1.00  0.00    -0.356 N 
ATOM     74  C   UNL A   1      30.959  29.234  24.009  1.00  0.00     0.223 C 
ATOM     75  H   UNL A   1      30.445  31.020  24.692  1.00  0.00     0.163 HD
ATOM     76  O   UNL A   1      30.267  29.411  23.003  1.00  0.00    -0.275 OA
BRANCH  74  77
ATOM     77  C   UNL A   1      31.613  27.879  24.269  1.00  0.00     0.079 C 
ATOM     78  C   UNL A   1      32.805  27.689  23.328  1.00  0.00     0.013 C 
ATOM     79  C   UNL A   1      30.650  26.684  24.294  1.00  0.00     0.027 C 
ATOM     80  C   UNL A   1      33.523  26.370  23.581  1.00  0.00     0.002 C 
ATOM     81  C   UNL A   1      31.343  25.315  24.409  1.00  0.00     0.079 C 
ATOM     82  C   UNL A   1      32.569  25.184  23.510  1.00  0.00     0.013 C 
BRANCH  81  83
ATOM     83  C   UNL A   1      31.621  25.067  25.888  1.00  0.00     0.225 C 
ATOM     84  O   UNL A   1      31.331  25.884  26.758  1.00  0.00    -0.275 OA
BRANCH  83  85
ATOM     85  N   UNL A   1      31.973  23.769  26.189  1.00  0.00    -0.339 N 
ATOM     86  C   UNL A   1      31.143  22.595  25.866  1.00  0.00     0.141 C 
ATOM     87  C   UNL A   1      33.322  23.493  26.681  1.00  0.00     0.146 C 
ATOM     88  C   UNL A   1      31.893  21.550  25.003  1.00  0.00     0.143 C 
ATOM     89  C   UNL A   1      34.071  22.630  25.686  1.00  0.00     0.125 C 
ATOM     90  N   UNL A   1      33.301  21.445  25.347  1.00  0.00    -0.317 N 
ATOM     91  C   UNL A   1      35.379  22.042  26.196  1.00  0.00     0.144 C 
ATOM     92  C   UNL A   1      34.140  20.365  25.134  1.00  0.00     0.317 C 
ATOM     93  N   UNL A   1      35.405  20.741  25.574  1.00  0.00    -0.336 N 
ATOM     94  O   UNL A   1      33.855  19.287  24.653  1.00  0.00    -0.249 OA
ATOM     95  H   UNL A   1      36.215  20.190  25.473  1.00  0.00     0.165 HD
ENDBRANCH  83  85
ENDBRANCH  81  83
ENDBRANCH  74  77
ENDBRANCH  72  73
ENDBRANCH  71  72
ENDBRANCH   1  71
TORSDOF 15
ENDMDL
MODEL 2
REMARK VINA RESULT:     -12.7      6.152     11.517
REMARK SMILES O=C(NCCCNC(=O)[C@@H]1CCC[C@@H](C(=O)N2CCN3C(=O)NC[C@@H]3C2)C1)c1ccc(-c2c3nc(c(-c4cccc(S(=O)(=O)[O-])c4F)c4ccc([nH]4)c(-c4cccc(S(=O)(=O)[O-])c4F)c4nc(c(-c5cccc(S(=O)(=O)[O-])c5F)c5ccc2[nH]5)C=C4)C=C3)cc1
REMARK SMILES IDX 4 1 3 2 1 3 2 4 28 6 29 7 90 8 30 9 89 10 31 11 32 12 33 13
REMARK SMILES IDX 83 14 34 15 88 16 82 17 84 18 35 19 87 20 81 21 80 22 36 24
REMARK SMILES IDX 68 25 48 26 67 27 49 28 52 29 66 30 85 31 50 32 51 33 65 35
REMARK SMILES IDX 86 36 53 37 37 38 38 39 46 40 39 41 41 42 47 43 40 44 42 45
REMARK SMILES IDX 43 46 44 47 45 48 69 49 70 50 78 51 71 52 73 53 79 54 72 55
REMARK SMILES IDX 74 56 75 57 76 58 77 59 54 60 55 61 63 62 56 63 58 64 64 65
REMARK SMILES IDX 57 66 59 67 60 68 61 69 62 70 5 71 6 72 7 73 8 74 9 76 10 77
REMARK SMILES IDX 11 78 27 79 12 80 14 81 13 82 15 83 16 84 17 85 18 86 26 87
REMARK SMILES IDX 19 88 25 89 20 90 24 91 21 92 23 93 22 94
REMARK H PARENT 3 5 84 23 52 34 7 75 23 95
REMARK Flexibility Score: inf
ROOT
ATOM      1  C   UNL A   1      38.815  20.414  25.757  1.00  0.00     0.118 C 
ENDROOT
BRANCH   1   2
ATOM      2  N   UNL A   1      39.881  19.443  25.941  1.00  0.00    -0.352 N 
ATOM      3  O   UNL A   1      41.997  18.702  25.879  1.00  0.00    -0.269 OA
ATOM      4  C   UNL A   1      41.230  19.643  26.067  1.00  0.00     0.251 C 
ATOM      5  H   UNL A   1      39.591  18.503  25.981  1.00  0.00     0.163 HD
BRANCH   4   6
ATOM      6  C   UNL A   1      41.750  20.977  26.428  1.00  0.00     0.039 A 
ATOM      7  C   UNL A   1      42.009  21.933  25.439  1.00  0.00     0.014 A 
ATOM      8  C   UNL A   1      41.916  21.298  27.776  1.00  0.00     0.014 A 
ATOM      9  C   UNL A   1      42.534  23.173  25.789  1.00  0.00     0.010 A 
ATOM     10  C   UNL A   1      42.368  22.570  28.131  1.00  0.00     0.010 A 
ATOM     11  C   UNL A   1      42.695  23.510  27.139  1.00  0.00    -0.014 A 
BRANCH  11  12
ATOM     12  C   UNL A   1      43.132  24.873  27.520  1.00  0.00     0.031 A 
ATOM     13  C   UNL A   1      42.174  25.832  28.160  1.00  0.00     0.074 A 
ATOM     14  C   UNL A   1      44.385  25.262  27.212  1.00  0.00     0.049 A 
ATOM     15  N   UNL A   1      42.349  27.092  28.463  1.00  0.00    -0.248 NA
ATOM     16  C   UNL A   1      40.839  25.311  28.492  1.00  0.00     0.031 C 
ATOM     17  C   UNL A   1      45.389  24.421  26.558  1.00  0.00     0.029 A 
ATOM     18  N   UNL A   1      45.012  26.471  27.372  1.00  0.00    -0.354 N 
ATOM     19  C   UNL A   1      41.134  27.531  28.972  1.00  0.00     0.074 A 
ATOM     20  C   UNL A   1      40.229  26.402  28.934  1.00  0.00     0.031 C 
ATOM     21  C   UNL A   1      46.499  25.143  26.353  1.00  0.00     0.029 A 
ATOM     22  C   UNL A   1      46.264  26.510  26.803  1.00  0.00     0.049 A 
ATOM     23  H   UNL A   1      44.609  27.234  27.846  1.00  0.00     0.167 HD
ATOM     24  C   UNL A   1      40.808  28.763  29.428  1.00  0.00     0.034 A 
ATOM     25  C   UNL A   1      47.111  27.540  26.615  1.00  0.00     0.034 A 
ATOM     26  C   UNL A   1      41.721  29.875  29.460  1.00  0.00     0.049 A 
ATOM     27  C   UNL A   1      46.726  28.899  27.119  1.00  0.00     0.074 A 
ATOM     28  C   UNL A   1      41.515  31.143  29.971  1.00  0.00     0.029 A 
ATOM     29  N   UNL A   1      43.005  29.859  28.934  1.00  0.00    -0.354 N 
ATOM     30  N   UNL A   1      45.619  29.271  27.714  1.00  0.00    -0.248 NA
ATOM     31  C   UNL A   1      47.714  29.974  26.959  1.00  0.00     0.031 C 
ATOM     32  C   UNL A   1      42.654  31.909  29.707  1.00  0.00     0.029 A 
ATOM     33  C   UNL A   1      43.594  31.102  29.084  1.00  0.00     0.049 A 
ATOM     34  H   UNL A   1      43.434  29.079  28.514  1.00  0.00     0.167 HD
ATOM     35  C   UNL A   1      45.787  30.612  28.032  1.00  0.00     0.074 A 
ATOM     36  C   UNL A   1      47.108  30.987  27.567  1.00  0.00     0.031 C 
ATOM     37  C   UNL A   1      44.927  31.451  28.657  1.00  0.00     0.034 A 
BRANCH  24  38
ATOM     38  C   UNL A   1      39.398  28.974  29.919  1.00  0.00     0.023 A 
ATOM     39  C   UNL A   1      39.050  28.632  31.242  1.00  0.00     0.012 A 
ATOM     40  C   UNL A   1      38.420  29.535  29.074  1.00  0.00     0.148 A 
ATOM     41  C   UNL A   1      37.741  28.790  31.697  1.00  0.00     0.002 A 
ATOM     42  C   UNL A   1      37.130  29.738  29.550  1.00  0.00     0.091 A 
ATOM     43  F   UNL A   1      38.760  29.839  27.813  1.00  0.00    -0.205 F 
ATOM     44  C   UNL A   1      36.784  29.350  30.854  1.00  0.00     0.022 A 
BRANCH  42  45
ATOM     45  S   UNL A   1      35.853  30.528  28.566  1.00  0.00     0.127 S 
ATOM     46  O   UNL A   1      35.191  29.373  27.962  1.00  0.00    -0.237 OA
ATOM     47  O   UNL A   1      35.063  31.221  29.584  1.00  0.00    -0.237 OA
ATOM     48  O   UNL A   1      36.550  31.409  27.639  1.00  0.00    -0.744 OA
ENDBRANCH  42  45
ENDBRANCH  24  38
BRANCH  25  49
ATOM     49  C   UNL A   1      48.404  27.295  25.921  1.00  0.00     0.023 A 
ATOM     50  C   UNL A   1      49.492  26.763  26.639  1.00  0.00     0.012 A 
ATOM     51  C   UNL A   1      48.526  27.501  24.532  1.00  0.00     0.148 A 
ATOM     52  C   UNL A   1      50.686  26.455  25.985  1.00  0.00     0.002 A 
ATOM     53  C   UNL A   1      49.696  27.137  23.880  1.00  0.00     0.091 A 
ATOM     54  F   UNL A   1      47.475  28.007  23.873  1.00  0.00    -0.205 F 
ATOM     55  C   UNL A   1      50.783  26.629  24.607  1.00  0.00     0.022 A 
BRANCH  53  56
ATOM     56  S   UNL A   1      49.865  27.192  22.092  1.00  0.00     0.127 S 
ATOM     57  O   UNL A   1      49.659  28.611  21.817  1.00  0.00    -0.237 OA
ATOM     58  O   UNL A   1      51.238  26.721  21.910  1.00  0.00    -0.237 OA
ATOM     59  O   UNL A   1      48.843  26.296  21.569  1.00  0.00    -0.744 OA
ENDBRANCH  53  56
ENDBRANCH  25  49
BRANCH  37  60
ATOM     60  C   UNL A   1      45.390  32.855  28.942  1.00  0.00     0.023 A 
ATOM     61  C   UNL A   1      46.182  33.129  30.073  1.00  0.00     0.012 A 
ATOM     62  C   UNL A   1      45.138  33.879  28.007  1.00  0.00     0.148 A 
ATOM     63  C   UNL A   1      46.705  34.405  30.276  1.00  0.00     0.002 A 
ATOM     64  C   UNL A   1      45.705  35.133  28.187  1.00  0.00     0.091 A 
ATOM     65  F   UNL A   1      44.364  33.597  26.948  1.00  0.00    -0.205 F 
ATOM     66  C   UNL A   1      46.481  35.401  29.327  1.00  0.00     0.022 A 
BRANCH  64  67
ATOM     67  S   UNL A   1      45.561  36.441  26.965  1.00  0.00     0.127 S 
ATOM     68  O   UNL A   1      46.317  37.522  27.596  1.00  0.00    -0.237 OA
ATOM     69  O   UNL A   1      46.209  35.843  25.798  1.00  0.00    -0.237 OA
ATOM     70  O   UNL A   1      44.135  36.695  26.808  1.00  0.00    -0.744 OA
ENDBRANCH  64  67
ENDBRANCH  37  60
ENDBRANCH  11  12
ENDBRANCH   4   6
ENDBRANCH   1   2
BRANCH   1  71
ATOM     71  C   UNL A   1      37.645  19.809  24.992  1.00  0.00     0.042 C 
BRANCH  71  72
ATOM     72  C   UNL A   1      36.423  20.726  24.962  1.00  0.00     0.117 C 
BRANCH  72  73
ATOM     73  N   UNL A   1      35.198  19.953  24.933  1.00  0.00    -0.356 N 
ATOM     74  C   UNL A   1      33.896  20.341  24.944  1.00  0.00     0.223 C 
ATOM     75  H   UNL A   1      35.332  18.978  24.900  1.00  0.00     0.163 HD
ATOM     76  O   UNL A   1      33.044  19.452  25.039  1.00  0.00    -0.275 OA
BRANCH  74  77
ATOM     77  C   UNL A   1      33.476  21.797  24.756  1.00  0.00     0.079 C 
ATOM     78  C   UNL A   1      32.716  22.282  25.992  1.00  0.00     0.013 C 
ATOM     79  C   UNL A   1      32.762  22.103  23.432  1.00  0.00     0.027 C 
ATOM     80  C   UNL A   1      32.316  23.746  25.875  1.00  0.00     0.002 C 
ATOM     81  C   UNL A   1      32.216  23.538  23.325  1.00  0.00     0.079 C 
ATOM     82  C   UNL A   1      31.527  24.016  24.600  1.00  0.00     0.013 C 
BRANCH  81  83
ATOM     83  C   UNL A   1      33.365  24.429  22.863  1.00  0.00     0.225 C 
ATOM     84  O   UNL A   1      34.456  23.976  22.529  1.00  0.00    -0.275 OA
BRANCH  83  85
ATOM     85  N   UNL A   1      33.001  25.733  22.602  1.00  0.00    -0.339 N 
ATOM     86  C   UNL A   1      31.842  26.115  21.775  1.00  0.00     0.141 C 
ATOM     87  C   UNL A   1      33.666  26.816  23.325  1.00  0.00     0.146 C 
ATOM     88  C   UNL A   1      30.846  27.031  22.528  1.00  0.00     0.143 C 
ATOM     89  C   UNL A   1      32.667  27.545  24.200  1.00  0.00     0.125 C 
ATOM     90  N   UNL A   1      31.509  27.961  23.427  1.00  0.00    -0.317 N 
ATOM     91  C   UNL A   1      33.161  28.858  24.790  1.00  0.00     0.144 C 
ATOM     92  C   UNL A   1      31.024  29.171  23.891  1.00  0.00     0.317 C 
ATOM     93  N   UNL A   1      31.977  29.682  24.766  1.00  0.00    -0.336 N 
ATOM     94  O   UNL A   1      29.971  29.707  23.608  1.00  0.00    -0.249 OA
ATOM     95  H   UNL A   1      31.860  30.500  25.300  1.00  0.00     0.165 HD
ENDBRANCH  83  85
ENDBRANCH  81  83
ENDBRANCH  74  77
ENDBRANCH  72  73
ENDBRANCH  71  72
ENDBRANCH   1  71
TORSDOF 15
ENDMDL
MODEL 3
REMARK VINA RESULT:     -12.5      1.460      1.797
REMARK SMILES O=C(NCCCNC(=O)[C@@H]1CCC[C@@H](C(=O)N2CCN3C(=O)NC[C@@H]3C2)C1)c1ccc(-c2c3nc(c(-c4cccc(S(=O)(=O)[O-])c4F)c4ccc([nH]4)c(-c4cccc(S(=O)(=O)[O-])c4F)c4nc(c(-c5cccc(S(=O)(=O)[O-])c5F)c5ccc2[nH]5)C=C4)C=C3)cc1
REMARK SMILES IDX 4 1 3 2 1 3 2 4 28 6 29 7 90 8 30 9 89 10 31 11 32 12 33 13
REMARK SMILES IDX 83 14 34 15 88 16 82 17 84 18 35 19 87 20 81 21 80 22 36 24
REMARK SMILES IDX 68 25 48 26 67 27 49 28 52 29 66 30 85 31 50 32 51 33 65 35
REMARK SMILES IDX 86 36 53 37 37 38 38 39 46 40 39 41 41 42 47 43 40 44 42 45
REMARK SMILES IDX 43 46 44 47 45 48 69 49 70 50 78 51 71 52 73 53 79 54 72 55
REMARK SMILES IDX 74 56 75 57 76 58 77 59 54 60 55 61 63 62 56 63 58 64 64 65
REMARK SMILES IDX 57 66 59 67 60 68 61 69 62 70 5 71 6 72 7 73 8 74 9 76 10 77
REMARK SMILES IDX 11 78 27 79 12 80 14 81 13 82 15 83 16 84 17 85 18 86 26 87
REMARK SMILES IDX 19 88 25 89 20 90 24 91 21 92 23 93 22 94
REMARK H PARENT 3 5 84 23 52 34 7 75 23 95
REMARK Flexibility Score: inf
ROOT
ATOM      1  C   UNL A   1      32.472  32.053  27.180  1.00  0.00     0.118 C 
ENDROOT
BRANCH   1   2
ATOM      2  N   UNL A   1      32.522  33.477  27.471  1.00  0.00    -0.352 N 
ATOM      3  O   UNL A   1      32.976  35.288  28.712  1.00  0.00    -0.269 OA
ATOM      4  C   UNL A   1      33.302  34.155  28.369  1.00  0.00     0.251 C 
ATOM      5  H   UNL A   1      31.905  34.035  26.945  1.00  0.00     0.163 HD
BRANCH   4   6
ATOM      6  C   UNL A   1      34.523  33.526  28.914  1.00  0.00     0.039 A 
ATOM      7  C   UNL A   1      35.786  34.059  28.632  1.00  0.00     0.014 A 
ATOM      8  C   UNL A   1      34.397  32.430  29.769  1.00  0.00     0.014 A 
ATOM      9  C   UNL A   1      36.929  33.435  29.119  1.00  0.00     0.010 A 
ATOM     10  C   UNL A   1      35.541  31.853  30.321  1.00  0.00     0.010 A 
ATOM     11  C   UNL A   1      36.815  32.341  29.987  1.00  0.00    -0.014 A 
BRANCH  11  12
ATOM     12  C   UNL A   1      38.025  31.755  30.610  1.00  0.00     0.031 A 
ATOM     13  C   UNL A   1      38.803  30.684  29.907  1.00  0.00     0.074 A 
ATOM     14  C   UNL A   1      38.371  32.147  31.852  1.00  0.00     0.049 A 
ATOM     15  N   UNL A   1      39.819  29.985  30.340  1.00  0.00    -0.248 NA
ATOM     16  C   UNL A   1      38.375  30.344  28.541  1.00  0.00     0.031 C 
ATOM     17  C   UNL A   1      37.664  33.157  32.641  1.00  0.00     0.029 A 
ATOM     18  N   UNL A   1      39.375  31.716  32.680  1.00  0.00    -0.354 N 
ATOM     19  C   UNL A   1      40.121  29.086  29.326  1.00  0.00     0.074 A 
ATOM     20  C   UNL A   1      39.178  29.328  28.254  1.00  0.00     0.031 C 
ATOM     21  C   UNL A   1      38.241  33.255  33.846  1.00  0.00     0.029 A 
ATOM     22  C   UNL A   1      39.317  32.274  33.935  1.00  0.00     0.049 A 
ATOM     23  H   UNL A   1      40.068  31.074  32.405  1.00  0.00     0.167 HD
ATOM     24  C   UNL A   1      41.097  28.148  29.294  1.00  0.00     0.034 A 
ATOM     25  C   UNL A   1      40.014  31.995  35.054  1.00  0.00     0.034 A 
ATOM     26  C   UNL A   1      42.028  27.922  30.368  1.00  0.00     0.049 A 
ATOM     27  C   UNL A   1      41.084  30.945  35.000  1.00  0.00     0.074 A 
ATOM     28  C   UNL A   1      43.101  27.050  30.407  1.00  0.00     0.029 A 
ATOM     29  N   UNL A   1      41.979  28.553  31.603  1.00  0.00    -0.354 N 
ATOM     30  N   UNL A   1      41.442  30.189  33.990  1.00  0.00    -0.248 NA
ATOM     31  C   UNL A   1      41.868  30.728  36.222  1.00  0.00     0.031 C 
ATOM     32  C   UNL A   1      43.667  27.115  31.684  1.00  0.00     0.029 A 
ATOM     33  C   UNL A   1      42.986  28.071  32.420  1.00  0.00     0.049 A 
ATOM     34  H   UNL A   1      41.324  29.242  31.860  1.00  0.00     0.167 HD
ATOM     35  C   UNL A   1      42.516  29.433  34.441  1.00  0.00     0.074 A 
ATOM     36  C   UNL A   1      42.753  29.825  35.817  1.00  0.00     0.031 C 
ATOM     37  C   UNL A   1      43.240  28.502  33.774  1.00  0.00     0.034 A 
BRANCH  24  38
ATOM     38  C   UNL A   1      41.197  27.287  28.060  1.00  0.00     0.023 A 
ATOM     39  C   UNL A   1      41.873  27.764  26.917  1.00  0.00     0.012 A 
ATOM     40  C   UNL A   1      40.640  25.994  28.040  1.00  0.00     0.148 A 
ATOM     41  C   UNL A   1      41.943  26.992  25.758  1.00  0.00     0.002 A 
ATOM     42  C   UNL A   1      40.758  25.209  26.898  1.00  0.00     0.091 A 
ATOM     43  F   UNL A   1      39.985  25.561  29.126  1.00  0.00    -0.205 F 
ATOM     44  C   UNL A   1      41.392  25.713  25.752  1.00  0.00     0.022 A 
BRANCH  42  45
ATOM     45  S   UNL A   1      40.154  23.520  26.824  1.00  0.00     0.127 S 
ATOM     46  O   UNL A   1      40.447  23.044  28.176  1.00  0.00    -0.237 OA
ATOM     47  O   UNL A   1      38.732  23.713  26.541  1.00  0.00    -0.237 OA
ATOM     48  O   UNL A   1      40.902  22.874  25.755  1.00  0.00    -0.744 OA
ENDBRANCH  42  45
ENDBRANCH  24  38
BRANCH  25  49
ATOM     49  C   UNL A   1      39.707  32.742  36.302  1.00  0.00     0.023 A 
ATOM     50  C   UNL A   1      40.302  33.997  36.530  1.00  0.00     0.012 A 
ATOM     51  C   UNL A   1      38.755  32.250  37.219  1.00  0.00     0.148 A 
ATOM     52  C   UNL A   1      39.963  34.744  37.659  1.00  0.00     0.002 A 
ATOM     53  C   UNL A   1      38.381  33.026  38.308  1.00  0.00     0.091 A 
ATOM     54  F   UNL A   1      38.203  31.053  36.978  1.00  0.00    -0.205 F 
ATOM     55  C   UNL A   1      38.995  34.266  38.538  1.00  0.00     0.022 A 
BRANCH  53  56
ATOM     56  S   UNL A   1      37.046  32.559  39.415  1.00  0.00     0.127 S 
ATOM     57  O   UNL A   1      35.877  32.703  38.551  1.00  0.00    -0.237 OA
ATOM     58  O   UNL A   1      37.403  31.179  39.746  1.00  0.00    -0.237 OA
ATOM     59  O   UNL A   1      37.115  33.488  40.535  1.00  0.00    -0.744 OA
ENDBRANCH  53  56
ENDBRANCH  25  49
BRANCH  37  60
ATOM     60  C   UNL A   1      44.408  27.872  34.484  1.00  0.00     0.023 A 
ATOM     61  C   UNL A   1      45.668  28.500  34.483  1.00  0.00     0.012 A 
ATOM     62  C   UNL A   1      44.212  26.712  35.260  1.00  0.00     0.148 A 
ATOM     63  C   UNL A   1      46.719  27.975  35.234  1.00  0.00     0.002 A 
ATOM     64  C   UNL A   1      45.247  26.225  36.047  1.00  0.00     0.091 A 
ATOM     65  F   UNL A   1      43.008  26.121  35.229  1.00  0.00    -0.205 F 
ATOM     66  C   UNL A   1      46.504  26.849  36.027  1.00  0.00     0.022 A 
BRANCH  64  67
ATOM     67  S   UNL A   1      45.031  24.849  37.180  1.00  0.00     0.127 S 
ATOM     68  O   UNL A   1      44.718  23.754  36.263  1.00  0.00    -0.237 OA
ATOM     69  O   UNL A   1      46.348  24.760  37.810  1.00  0.00    -0.237 OA
ATOM     70  O   UNL A   1      43.949  25.228  38.080  1.00  0.00    -0.744 OA
ENDBRANCH  64  67
ENDBRANCH  37  60
ENDBRANCH  11  12
ENDBRANCH   4   6
ENDBRANCH   1   2
BRANCH   1  71
ATOM     71  C   UNL A   1      31.386  31.738  26.159  1.00  0.00     0.042 C 
BRANCH  71  72
ATOM     72  C   UNL A   1      31.477  30.311  25.623  1.00  0.00     0.117 C 
BRANCH  72  73
ATOM     73  N   UNL A   1      30.655  30.151  24.440  1.00  0.00    -0.356 N 
ATOM     74  C   UNL A   1      30.514  29.104  23.585  1.00  0.00     0.223 C 
ATOM     75  H   UNL A   1      30.104  30.935  24.217  1.00  0.00     0.163 HD
ATOM     76  O   UNL A   1      29.827  29.290  22.576  1.00  0.00    -0.275 OA
BRANCH  74  77
ATOM     77  C   UNL A   1      31.094  27.723  23.881  1.00  0.00     0.079 C 
ATOM     78  C   UNL A   1      32.045  27.306  22.757  1.00  0.00     0.013 C 
ATOM     79  C   UNL A   1      30.062  26.648  24.247  1.00  0.00     0.027 C 
ATOM     80  C   UNL A   1      32.688  25.954  23.030  1.00  0.00     0.002 C 
ATOM     81  C   UNL A   1      30.648  25.233  24.397  1.00  0.00     0.079 C 
ATOM     82  C   UNL A   1      31.646  24.876  23.299  1.00  0.00     0.013 C 
BRANCH  81  83
ATOM     83  C   UNL A   1      31.206  25.118  25.812  1.00  0.00     0.225 C 
ATOM     84  O   UNL A   1      31.027  25.986  26.663  1.00  0.00    -0.275 OA
BRANCH  83  85
ATOM     85  N   UNL A   1      31.690  23.867  26.131  1.00  0.00    -0.339 N 
ATOM     86  C   UNL A   1      30.963  22.612  25.868  1.00  0.00     0.141 C 
ATOM     87  C   UNL A   1      33.075  23.732  26.579  1.00  0.00     0.146 C 
ATOM     88  C   UNL A   1      31.778  21.619  25.003  1.00  0.00     0.143 C 
ATOM     89  C   UNL A   1      33.866  22.916  25.578  1.00  0.00     0.125 C 
ATOM     90  N   UNL A   1      33.201  21.655  25.297  1.00  0.00    -0.317 N 
ATOM     91  C   UNL A   1      35.241  22.467  26.053  1.00  0.00     0.144 C 
ATOM     92  C   UNL A   1      34.130  20.653  25.079  1.00  0.00     0.317 C 
ATOM     93  N   UNL A   1      35.369  21.158  25.462  1.00  0.00    -0.336 N 
ATOM     94  O   UNL A   1      33.931  19.540  24.635  1.00  0.00    -0.249 OA
ATOM     95  H   UNL A   1      36.223  20.683  25.345  1.00  0.00     0.165 HD
ENDBRANCH  83  85
ENDBRANCH  81  83
ENDBRANCH  74  77
ENDBRANCH  72  73
ENDBRANCH  71  72
ENDBRANCH   1  71
TORSDOF 15
ENDMDL
