MODEL 1
REMARK VINA RESULT:     -11.3      0.000      0.000
REMARK SMILES CN(C)S(=O)(=O)c1c[nH]c(C(=O)NCCCNC(=O)c2ccc(-c3c4nc(c(-c5cccc(S(=O)(=O)[O-])c5F)c5ccc([nH]5)c(-c5cccc(S(=O)(=O)[O-])c5F)c5nc(c(-c6cccc(S(=O)(=O)[O-])c6F)c6ccc3[nH]6)C=C5)C=C4)cc2)c1
REMARK SMILES IDX 15 1 14 2 13 3 11 4 12 5 10 7 7 8 8 9 83 10 9 11 4 13 5 14
REMARK SMILES IDX 6 15 2 16 1 17 3 18 16 19 17 20 18 21 19 23 20 24 21 25
REMARK SMILES IDX 82 26 22 27 81 28 23 29 24 30 25 31 75 32 26 33 80 34 74 35
REMARK SMILES IDX 76 36 27 37 79 38 73 39 72 40 28 42 60 43 40 44 59 45 41 46
REMARK SMILES IDX 44 47 58 48 77 49 42 50 43 51 57 53 78 54 45 55 29 56 30 57
REMARK SMILES IDX 38 58 31 59 33 60 39 61 32 62 34 63 35 64 36 65 37 66 61 67
REMARK SMILES IDX 62 68 70 69 63 70 65 71 71 72 64 73 66 74 67 75 68 76 69 77
REMARK SMILES IDX 46 78 47 79 55 80 48 81 50 82 56 83 49 84 51 85 52 86 53 87
REMARK SMILES IDX 54 88
REMARK H PARENT 13 6 9 12 17 22 76 41 44 52
REMARK Flexibility Score: inf
ROOT
ATOM      1  C   UNL A   1      41.664  21.888  28.005  1.00  0.00     0.042 C 
ENDROOT
BRANCH   1   2
ATOM      2  C   UNL A   1      41.071  21.158  26.795  1.00  0.00     0.118 C 
BRANCH   2   3
ATOM      3  N   UNL A   1      41.959  20.129  26.291  1.00  0.00    -0.351 N 
ATOM      4  C   UNL A   1      43.211  20.216  25.744  1.00  0.00     0.267 C 
ATOM      5  O   UNL A   1      43.823  19.168  25.540  1.00  0.00    -0.268 OA
ATOM      6  H   UNL A   1      41.602  19.214  26.354  1.00  0.00     0.163 HD
BRANCH   4   7
ATOM      7  C   UNL A   1      43.828  21.494  25.463  1.00  0.00     0.105 A 
ATOM      8  C   UNL A   1      45.130  23.326  25.150  1.00  0.00     0.100 A 
ATOM      9  C   UNL A   1      44.003  23.475  24.374  1.00  0.00     0.104 A 
ATOM     10  C   UNL A   1      44.981  22.127  25.890  1.00  0.00     0.055 A 
ATOM     11  N   UNL A   1      43.208  22.383  24.601  1.00  0.00    -0.356 N 
ATOM     12  H   UNL A   1      42.317  22.249  24.205  1.00  0.00     0.166 HD
BRANCH   8  13
ATOM     13  S   UNL A   1      46.514  24.346  25.259  1.00  0.00     0.244 S 
ATOM     14  O   UNL A   1      47.135  24.299  23.947  1.00  0.00    -0.207 OA
ATOM     15  O   UNL A   1      47.199  23.885  26.441  1.00  0.00    -0.207 OA
BRANCH  13  16
ATOM     16  N   UNL A   1      45.966  25.938  25.540  1.00  0.00    -0.204 NA
ATOM     17  C   UNL A   1      45.878  26.283  26.972  1.00  0.00     0.124 C 
ATOM     18  C   UNL A   1      46.663  26.976  24.750  1.00  0.00     0.124 C 
ENDBRANCH  13  16
ENDBRANCH   8  13
ENDBRANCH   4   7
ENDBRANCH   2   3
ENDBRANCH   1   2
BRANCH   1  19
ATOM     19  C   UNL A   1      41.325  23.372  27.958  1.00  0.00     0.118 C 
BRANCH  19  20
ATOM     20  N   UNL A   1      40.193  23.607  27.061  1.00  0.00    -0.352 N 
ATOM     21  C   UNL A   1      39.264  24.614  27.067  1.00  0.00     0.251 C 
ATOM     22  H   UNL A   1      40.083  22.940  26.345  1.00  0.00     0.163 HD
ATOM     23  O   UNL A   1      38.203  24.456  26.466  1.00  0.00    -0.269 OA
BRANCH  21  24
ATOM     24  C   UNL A   1      39.536  25.883  27.762  1.00  0.00     0.039 A 
ATOM     25  C   UNL A   1      40.239  26.892  27.092  1.00  0.00     0.014 A 
ATOM     26  C   UNL A   1      39.171  26.038  29.102  1.00  0.00     0.014 A 
ATOM     27  C   UNL A   1      40.536  28.072  27.761  1.00  0.00     0.010 A 
ATOM     28  C   UNL A   1      39.396  27.233  29.745  1.00  0.00     0.010 A 
ATOM     29  C   UNL A   1      40.097  28.235  29.081  1.00  0.00    -0.014 A 
BRANCH  29  30
ATOM     30  C   UNL A   1      40.233  29.535  29.757  1.00  0.00     0.031 A 
ATOM     31  C   UNL A   1      38.975  30.406  29.404  1.00  0.00     0.074 A 
ATOM     32  C   UNL A   1      41.378  29.663  30.516  1.00  0.00     0.049 A 
ATOM     33  N   UNL A   1      38.869  31.668  29.108  1.00  0.00    -0.248 NA
ATOM     34  C   UNL A   1      37.653  29.732  29.200  1.00  0.00     0.031 C 
ATOM     35  C   UNL A   1      42.392  28.592  30.757  1.00  0.00     0.029 A 
ATOM     36  N   UNL A   1      41.931  30.668  31.278  1.00  0.00    -0.354 N 
ATOM     37  C   UNL A   1      37.480  31.968  28.991  1.00  0.00     0.074 A 
ATOM     38  C   UNL A   1      36.815  30.714  28.850  1.00  0.00     0.031 C 
ATOM     39  C   UNL A   1      43.446  29.046  31.480  1.00  0.00     0.029 A 
ATOM     40  C   UNL A   1      43.243  30.443  31.798  1.00  0.00     0.049 A 
ATOM     41  H   UNL A   1      41.444  31.505  31.455  1.00  0.00     0.167 HD
ATOM     42  C   UNL A   1      36.959  33.211  29.256  1.00  0.00     0.034 A 
ATOM     43  C   UNL A   1      44.095  31.357  32.381  1.00  0.00     0.034 A 
ATOM     44  C   UNL A   1      38.026  34.043  29.711  1.00  0.00     0.049 A 
ATOM     45  C   UNL A   1      43.271  32.567  32.480  1.00  0.00     0.074 A 
ATOM     46  C   UNL A   1      39.106  34.591  29.073  1.00  0.00     0.029 A 
ATOM     47  N   UNL A   1      38.266  33.959  31.065  1.00  0.00    -0.354 N 
ATOM     48  N   UNL A   1      42.261  32.706  33.288  1.00  0.00    -0.248 NA
ATOM     49  C   UNL A   1      43.454  33.607  31.463  1.00  0.00     0.031 C 
ATOM     50  C   UNL A   1      40.148  34.272  29.967  1.00  0.00     0.029 A 
ATOM     51  C   UNL A   1      39.624  33.924  31.218  1.00  0.00     0.049 A 
ATOM     52  H   UNL A   1      37.592  33.931  31.782  1.00  0.00     0.167 HD
ATOM     53  C   UNL A   1      41.495  33.629  32.625  1.00  0.00     0.074 A 
ATOM     54  C   UNL A   1      42.387  34.350  31.735  1.00  0.00     0.031 C 
ATOM     55  C   UNL A   1      40.164  33.412  32.448  1.00  0.00     0.034 A 
BRANCH  42  56
ATOM     56  C   UNL A   1      35.577  33.786  29.504  1.00  0.00     0.023 A 
ATOM     57  C   UNL A   1      34.976  34.414  28.368  1.00  0.00     0.012 A 
ATOM     58  C   UNL A   1      35.007  34.059  30.757  1.00  0.00     0.148 A 
ATOM     59  C   UNL A   1      33.979  35.382  28.480  1.00  0.00     0.002 A 
ATOM     60  C   UNL A   1      33.964  34.989  30.858  1.00  0.00     0.091 A 
ATOM     61  F   UNL A   1      35.520  33.483  31.848  1.00  0.00    -0.205 F 
ATOM     62  C   UNL A   1      33.486  35.683  29.733  1.00  0.00     0.022 A 
BRANCH  60  63
ATOM     63  S   UNL A   1      33.160  35.408  32.411  1.00  0.00     0.127 S 
ATOM     64  O   UNL A   1      32.943  34.091  33.004  1.00  0.00    -0.237 OA
ATOM     65  O   UNL A   1      34.195  36.205  33.074  1.00  0.00    -0.237 OA
ATOM     66  O   UNL A   1      31.968  36.160  32.050  1.00  0.00    -0.744 OA
ENDBRANCH  60  63
ENDBRANCH  42  56
BRANCH  43  67
ATOM     67  C   UNL A   1      45.569  31.523  32.739  1.00  0.00     0.023 A 
ATOM     68  C   UNL A   1      46.077  31.607  34.042  1.00  0.00     0.012 A 
ATOM     69  C   UNL A   1      46.562  31.466  31.701  1.00  0.00     0.148 A 
ATOM     70  C   UNL A   1      47.469  31.519  34.293  1.00  0.00     0.002 A 
ATOM     71  C   UNL A   1      47.912  31.235  31.955  1.00  0.00     0.091 A 
ATOM     72  F   UNL A   1      46.202  31.673  30.429  1.00  0.00    -0.205 F 
ATOM     73  C   UNL A   1      48.377  31.273  33.262  1.00  0.00     0.022 A 
BRANCH  71  74
ATOM     74  S   UNL A   1      49.060  30.712  30.658  1.00  0.00     0.127 S 
ATOM     75  O   UNL A   1      50.256  30.356  31.419  1.00  0.00    -0.237 OA
ATOM     76  O   UNL A   1      48.345  29.576  30.075  1.00  0.00    -0.237 OA
ATOM     77  O   UNL A   1      49.214  31.851  29.762  1.00  0.00    -0.744 OA
ENDBRANCH  71  74
ENDBRANCH  43  67
BRANCH  55  78
ATOM     78  C   UNL A   1      39.486  32.459  33.446  1.00  0.00     0.023 A 
ATOM     79  C   UNL A   1      39.032  31.231  32.926  1.00  0.00     0.012 A 
ATOM     80  C   UNL A   1      39.194  32.710  34.814  1.00  0.00     0.148 A 
ATOM     81  C   UNL A   1      38.335  30.301  33.704  1.00  0.00     0.002 A 
ATOM     82  C   UNL A   1      38.472  31.791  35.592  1.00  0.00     0.091 A 
ATOM     83  F   UNL A   1      39.616  33.847  35.361  1.00  0.00    -0.205 F 
ATOM     84  C   UNL A   1      38.054  30.578  35.036  1.00  0.00     0.022 A 
BRANCH  82  85
ATOM     85  S   UNL A   1      37.948  32.086  37.303  1.00  0.00     0.127 S 
ATOM     86  O   UNL A   1      36.959  33.156  37.150  1.00  0.00    -0.237 OA
ATOM     87  O   UNL A   1      37.378  30.797  37.683  1.00  0.00    -0.237 OA
ATOM     88  O   UNL A   1      39.143  32.488  38.038  1.00  0.00    -0.744 OA
ENDBRANCH  82  85
ENDBRANCH  55  78
ENDBRANCH  29  30
ENDBRANCH  21  24
ENDBRANCH  19  20
ENDBRANCH   1  19
TORSDOF 15
ENDMDL
MODEL 2
REMARK VINA RESULT:     -11.2      4.778     11.985
REMARK SMILES CN(C)S(=O)(=O)c1c[nH]c(C(=O)NCCCNC(=O)c2ccc(-c3c4nc(c(-c5cccc(S(=O)(=O)[O-])c5F)c5ccc([nH]5)c(-c5cccc(S(=O)(=O)[O-])c5F)c5nc(c(-c6cccc(S(=O)(=O)[O-])c6F)c6ccc3[nH]6)C=C5)C=C4)cc2)c1
REMARK SMILES IDX 15 1 14 2 13 3 11 4 12 5 10 7 7 8 8 9 83 10 9 11 4 13 5 14
REMARK SMILES IDX 6 15 2 16 1 17 3 18 16 19 17 20 18 21 19 23 20 24 21 25
REMARK SMILES IDX 82 26 22 27 81 28 23 29 24 30 25 31 75 32 26 33 80 34 74 35
REMARK SMILES IDX 76 36 27 37 79 38 73 39 72 40 28 42 60 43 40 44 59 45 41 46
REMARK SMILES IDX 44 47 58 48 77 49 42 50 43 51 57 53 78 54 45 55 29 56 30 57
REMARK SMILES IDX 38 58 31 59 33 60 39 61 32 62 34 63 35 64 36 65 37 66 61 67
REMARK SMILES IDX 62 68 70 69 63 70 65 71 71 72 64 73 66 74 67 75 68 76 69 77
REMARK SMILES IDX 46 78 47 79 55 80 48 81 50 82 56 83 49 84 51 85 52 86 53 87
REMARK SMILES IDX 54 88
REMARK H PARENT 13 6 9 12 17 22 76 41 44 52
REMARK Flexibility Score: inf
ROOT
ATOM      1  C   UNL A   1      33.973  28.643  25.654  1.00  0.00     0.042 C 
ENDROOT
BRANCH   1   2
ATOM      2  C   UNL A   1      33.398  27.252  25.362  1.00  0.00     0.118 C 
BRANCH   2   3
ATOM      3  N   UNL A   1      33.496  26.906  23.958  1.00  0.00    -0.351 N 
ATOM      4  C   UNL A   1      32.669  27.190  22.906  1.00  0.00     0.267 C 
ATOM      5  O   UNL A   1      33.064  26.915  21.773  1.00  0.00    -0.268 OA
ATOM      6  H   UNL A   1      34.293  26.379  23.722  1.00  0.00     0.163 HD
BRANCH   4   7
ATOM      7  C   UNL A   1      31.393  27.846  23.100  1.00  0.00     0.105 A 
ATOM      8  C   UNL A   1      29.582  29.199  23.282  1.00  0.00     0.100 A 
ATOM      9  C   UNL A   1      29.130  27.901  23.211  1.00  0.00     0.104 A 
ATOM     10  C   UNL A   1      30.998  29.156  23.294  1.00  0.00     0.055 A 
ATOM     11  N   UNL A   1      30.232  27.092  23.141  1.00  0.00    -0.356 N 
ATOM     12  H   UNL A   1      30.202  26.109  23.121  1.00  0.00     0.166 HD
BRANCH   8  13
ATOM     13  S   UNL A   1      28.673  30.662  23.340  1.00  0.00     0.244 S 
ATOM     14  O   UNL A   1      29.380  31.521  24.274  1.00  0.00    -0.207 OA
ATOM     15  O   UNL A   1      27.320  30.227  23.583  1.00  0.00    -0.207 OA
BRANCH  13  16
ATOM     16  N   UNL A   1      28.739  31.378  21.792  1.00  0.00    -0.204 NA
ATOM     17  C   UNL A   1      27.972  30.639  20.772  1.00  0.00     0.124 C 
ATOM     18  C   UNL A   1      28.455  32.829  21.774  1.00  0.00     0.124 C 
ENDBRANCH  13  16
ENDBRANCH   8  13
ENDBRANCH   4   7
ENDBRANCH   2   3
ENDBRANCH   1   2
BRANCH   1  19
ATOM     19  C   UNL A   1      34.922  28.595  26.844  1.00  0.00     0.118 C 
BRANCH  19  20
ATOM     20  N   UNL A   1      35.108  29.935  27.400  1.00  0.00    -0.352 N 
ATOM     21  C   UNL A   1      36.080  30.408  28.243  1.00  0.00     0.251 C 
ATOM     22  H   UNL A   1      34.433  30.598  27.126  1.00  0.00     0.163 HD
ATOM     23  O   UNL A   1      35.878  31.447  28.869  1.00  0.00    -0.269 OA
BRANCH  21  24
ATOM     24  C   UNL A   1      37.363  29.700  28.383  1.00  0.00     0.039 A 
ATOM     25  C   UNL A   1      38.305  29.782  27.349  1.00  0.00     0.014 A 
ATOM     26  C   UNL A   1      37.595  28.887  29.495  1.00  0.00     0.014 A 
ATOM     27  C   UNL A   1      39.497  29.077  27.459  1.00  0.00     0.010 A 
ATOM     28  C   UNL A   1      38.804  28.249  29.643  1.00  0.00     0.010 A 
ATOM     29  C   UNL A   1      39.739  28.326  28.616  1.00  0.00    -0.014 A 
BRANCH  29  30
ATOM     30  C   UNL A   1      41.059  27.719  28.847  1.00  0.00     0.031 A 
ATOM     31  C   UNL A   1      40.997  26.219  28.387  1.00  0.00     0.074 A 
ATOM     32  C   UNL A   1      41.996  28.581  29.378  1.00  0.00     0.049 A 
ATOM     33  N   UNL A   1      41.487  25.142  28.926  1.00  0.00    -0.248 NA
ATOM     34  C   UNL A   1      40.124  25.845  27.228  1.00  0.00     0.031 C 
ATOM     35  C   UNL A   1      41.795  30.039  29.636  1.00  0.00     0.029 A 
ATOM     36  N   UNL A   1      43.309  28.464  29.776  1.00  0.00    -0.354 N 
ATOM     37  C   UNL A   1      41.238  24.060  28.029  1.00  0.00     0.074 A 
ATOM     38  C   UNL A   1      40.231  24.516  27.129  1.00  0.00     0.031 C 
ATOM     39  C   UNL A   1      42.874  30.601  30.236  1.00  0.00     0.029 A 
ATOM     40  C   UNL A   1      43.894  29.593  30.429  1.00  0.00     0.049 A 
ATOM     41  H   UNL A   1      43.822  27.639  29.618  1.00  0.00     0.167 HD
ATOM     42  C   UNL A   1      42.050  22.955  27.949  1.00  0.00     0.034 A 
ATOM     43  C   UNL A   1      45.088  29.652  31.117  1.00  0.00     0.034 A 
ATOM     44  C   UNL A   1      43.149  23.154  28.838  1.00  0.00     0.049 A 
ATOM     45  C   UNL A   1      45.679  28.331  30.878  1.00  0.00     0.074 A 
ATOM     46  C   UNL A   1      43.240  23.168  30.204  1.00  0.00     0.029 A 
ATOM     47  N   UNL A   1      44.201  23.850  28.285  1.00  0.00    -0.354 N 
ATOM     48  N   UNL A   1      46.140  27.927  29.731  1.00  0.00    -0.248 NA
ATOM     49  C   UNL A   1      45.551  27.322  31.935  1.00  0.00     0.031 C 
ATOM     50  C   UNL A   1      43.992  24.341  30.421  1.00  0.00     0.029 A 
ATOM     51  C   UNL A   1      44.625  24.736  29.235  1.00  0.00     0.049 A 
ATOM     52  H   UNL A   1      44.574  23.732  27.382  1.00  0.00     0.167 HD
ATOM     53  C   UNL A   1      45.987  26.569  29.830  1.00  0.00     0.074 A 
ATOM     54  C   UNL A   1      45.942  26.255  31.246  1.00  0.00     0.031 C 
ATOM     55  C   UNL A   1      45.403  25.871  28.819  1.00  0.00     0.034 A 
BRANCH  42  56
ATOM     56  C   UNL A   1      42.247  21.812  26.970  1.00  0.00     0.023 A 
ATOM     57  C   UNL A   1      41.473  20.643  27.249  1.00  0.00     0.012 A 
ATOM     58  C   UNL A   1      43.315  21.669  26.070  1.00  0.00     0.148 A 
ATOM     59  C   UNL A   1      41.832  19.374  26.797  1.00  0.00     0.002 A 
ATOM     60  C   UNL A   1      43.636  20.400  25.571  1.00  0.00     0.091 A 
ATOM     61  F   UNL A   1      44.058  22.736  25.762  1.00  0.00    -0.205 F 
ATOM     62  C   UNL A   1      42.931  19.252  25.970  1.00  0.00     0.022 A 
BRANCH  60  63
ATOM     63  S   UNL A   1      44.979  20.105  24.412  1.00  0.00     0.127 S 
ATOM     64  O   UNL A   1      44.580  20.926  23.271  1.00  0.00    -0.237 OA
ATOM     65  O   UNL A   1      46.130  20.623  25.155  1.00  0.00    -0.237 OA
ATOM     66  O   UNL A   1      45.006  18.666  24.195  1.00  0.00    -0.744 OA
ENDBRANCH  60  63
ENDBRANCH  42  56
BRANCH  43  67
ATOM     67  C   UNL A   1      45.817  30.537  32.125  1.00  0.00     0.023 A 
ATOM     68  C   UNL A   1      45.244  31.080  33.282  1.00  0.00     0.012 A 
ATOM     69  C   UNL A   1      47.231  30.752  31.986  1.00  0.00     0.148 A 
ATOM     70  C   UNL A   1      46.045  31.686  34.281  1.00  0.00     0.002 A 
ATOM     71  C   UNL A   1      48.033  31.217  33.027  1.00  0.00     0.091 A 
ATOM     72  F   UNL A   1      47.821  30.537  30.805  1.00  0.00    -0.205 F 
ATOM     73  C   UNL A   1      47.438  31.700  34.183  1.00  0.00     0.022 A 
BRANCH  71  74
ATOM     74  S   UNL A   1      49.835  31.051  33.002  1.00  0.00     0.127 S 
ATOM     75  O   UNL A   1      50.019  29.656  32.606  1.00  0.00    -0.237 OA
ATOM     76  O   UNL A   1      50.205  32.031  31.980  1.00  0.00    -0.237 OA
ATOM     77  O   UNL A   1      50.295  31.379  34.345  1.00  0.00    -0.744 OA
ENDBRANCH  71  74
ENDBRANCH  43  67
BRANCH  55  78
ATOM     78  C   UNL A   1      45.447  26.518  27.425  1.00  0.00     0.023 A 
ATOM     79  C   UNL A   1      44.214  26.951  26.899  1.00  0.00     0.012 A 
ATOM     80  C   UNL A   1      46.577  26.654  26.575  1.00  0.00     0.148 A 
ATOM     81  C   UNL A   1      44.097  27.490  25.613  1.00  0.00     0.002 A 
ATOM     82  C   UNL A   1      46.460  27.171  25.274  1.00  0.00     0.091 A 
ATOM     83  F   UNL A   1      47.770  26.277  27.028  1.00  0.00    -0.205 F 
ATOM     84  C   UNL A   1      45.217  27.602  24.800  1.00  0.00     0.022 A 
BRANCH  82  85
ATOM     85  S   UNL A   1      47.824  27.262  24.082  1.00  0.00     0.127 S 
ATOM     86  O   UNL A   1      48.057  25.852  23.761  1.00  0.00    -0.237 OA
ATOM     87  O   UNL A   1      47.235  28.032  22.990  1.00  0.00    -0.237 OA
ATOM     88  O   UNL A   1      48.937  27.901  24.775  1.00  0.00    -0.744 OA
ENDBRANCH  82  85
ENDBRANCH  55  78
ENDBRANCH  29  30
ENDBRANCH  21  24
ENDBRANCH  19  20
ENDBRANCH   1  19
TORSDOF 15
ENDMDL
MODEL 3
REMARK VINA RESULT:     -11.0      4.783     11.184
REMARK SMILES CN(C)S(=O)(=O)c1c[nH]c(C(=O)NCCCNC(=O)c2ccc(-c3c4nc(c(-c5cccc(S(=O)(=O)[O-])c5F)c5ccc([nH]5)c(-c5cccc(S(=O)(=O)[O-])c5F)c5nc(c(-c6cccc(S(=O)(=O)[O-])c6F)c6ccc3[nH]6)C=C5)C=C4)cc2)c1
REMARK SMILES IDX 15 1 14 2 13 3 11 4 12 5 10 7 7 8 8 9 83 10 9 11 4 13 5 14
REMARK SMILES IDX 6 15 2 16 1 17 3 18 16 19 17 20 18 21 19 23 20 24 21 25
REMARK SMILES IDX 82 26 22 27 81 28 23 29 24 30 25 31 75 32 26 33 80 34 74 35
REMARK SMILES IDX 76 36 27 37 79 38 73 39 72 40 28 42 60 43 40 44 59 45 41 46
REMARK SMILES IDX 44 47 58 48 77 49 42 50 43 51 57 53 78 54 45 55 29 56 30 57
REMARK SMILES IDX 38 58 31 59 33 60 39 61 32 62 34 63 35 64 36 65 37 66 61 67
REMARK SMILES IDX 62 68 70 69 63 70 65 71 71 72 64 73 66 74 67 75 68 76 69 77
REMARK SMILES IDX 46 78 47 79 55 80 48 81 50 82 56 83 49 84 51 85 52 86 53 87
REMARK SMILES IDX 54 88
REMARK H PARENT 13 6 9 12 17 22 76 41 44 52
REMARK Flexibility Score: inf
ROOT
ATOM      1  C   UNL A   1      34.013  28.582  25.502  1.00  0.00     0.042 C 
ENDROOT
BRANCH   1   2
ATOM      2  C   UNL A   1      33.709  27.157  25.026  1.00  0.00     0.118 C 
BRANCH   2   3
ATOM      3  N   UNL A   1      33.760  27.042  23.582  1.00  0.00    -0.351 N 
ATOM      4  C   UNL A   1      33.695  25.943  22.769  1.00  0.00     0.267 C 
ATOM      5  O   UNL A   1      33.599  26.131  21.556  1.00  0.00    -0.268 OA
ATOM      6  H   UNL A   1      33.855  27.899  23.107  1.00  0.00     0.163 HD
BRANCH   4   7
ATOM      7  C   UNL A   1      33.682  24.601  23.308  1.00  0.00     0.105 A 
ATOM      8  C   UNL A   1      33.289  22.483  24.021  1.00  0.00     0.100 A 
ATOM      9  C   UNL A   1      34.653  22.651  23.939  1.00  0.00     0.104 A 
ATOM     10  C   UNL A   1      32.688  23.726  23.704  1.00  0.00     0.055 A 
ATOM     11  N   UNL A   1      34.879  23.943  23.546  1.00  0.00    -0.356 N 
ATOM     12  H   UNL A   1      35.769  24.349  23.446  1.00  0.00     0.166 HD
BRANCH   8  13
ATOM     13  S   UNL A   1      32.393  21.065  24.416  1.00  0.00     0.244 S 
ATOM     14  O   UNL A   1      32.183  20.375  23.156  1.00  0.00    -0.207 OA
ATOM     15  O   UNL A   1      31.291  21.555  25.208  1.00  0.00    -0.207 OA
BRANCH  13  16
ATOM     16  N   UNL A   1      33.378  20.087  25.410  1.00  0.00    -0.204 NA
ATOM     17  C   UNL A   1      33.723  20.720  26.697  1.00  0.00     0.124 C 
ATOM     18  C   UNL A   1      32.898  18.698  25.572  1.00  0.00     0.124 C 
ENDBRANCH  13  16
ENDBRANCH   8  13
ENDBRANCH   4   7
ENDBRANCH   2   3
ENDBRANCH   1   2
BRANCH   1  19
ATOM     19  C   UNL A   1      34.915  28.560  26.729  1.00  0.00     0.118 C 
BRANCH  19  20
ATOM     20  N   UNL A   1      35.114  29.917  27.238  1.00  0.00    -0.352 N 
ATOM     21  C   UNL A   1      36.092  30.411  28.061  1.00  0.00     0.251 C 
ATOM     22  H   UNL A   1      34.443  30.576  26.944  1.00  0.00     0.163 HD
ATOM     23  O   UNL A   1      35.901  31.472  28.652  1.00  0.00    -0.269 OA
BRANCH  21  24
ATOM     24  C   UNL A   1      37.370  29.697  28.221  1.00  0.00     0.039 A 
ATOM     25  C   UNL A   1      38.308  29.733  27.180  1.00  0.00     0.014 A 
ATOM     26  C   UNL A   1      37.601  28.924  29.361  1.00  0.00     0.014 A 
ATOM     27  C   UNL A   1      39.494  29.024  27.310  1.00  0.00     0.010 A 
ATOM     28  C   UNL A   1      38.805  28.281  29.527  1.00  0.00     0.010 A 
ATOM     29  C   UNL A   1      39.736  28.314  28.493  1.00  0.00    -0.014 A 
BRANCH  29  30
ATOM     30  C   UNL A   1      41.052  27.704  28.740  1.00  0.00     0.031 A 
ATOM     31  C   UNL A   1      40.991  26.202  28.287  1.00  0.00     0.074 A 
ATOM     32  C   UNL A   1      41.986  28.567  29.276  1.00  0.00     0.049 A 
ATOM     33  N   UNL A   1      41.472  25.126  28.837  1.00  0.00    -0.248 NA
ATOM     34  C   UNL A   1      40.128  25.825  27.122  1.00  0.00     0.031 C 
ATOM     35  C   UNL A   1      41.787  30.027  29.524  1.00  0.00     0.029 A 
ATOM     36  N   UNL A   1      43.295  28.449  29.687  1.00  0.00    -0.354 N 
ATOM     37  C   UNL A   1      41.230  24.040  27.943  1.00  0.00     0.074 A 
ATOM     38  C   UNL A   1      40.233  24.494  27.031  1.00  0.00     0.031 C 
ATOM     39  C   UNL A   1      42.861  30.589  30.132  1.00  0.00     0.029 A 
ATOM     40  C   UNL A   1      43.876  29.580  30.340  1.00  0.00     0.049 A 
ATOM     41  H   UNL A   1      43.807  27.621  29.538  1.00  0.00     0.167 HD
ATOM     42  C   UNL A   1      42.040  22.933  27.877  1.00  0.00     0.034 A 
ATOM     43  C   UNL A   1      45.064  29.640  31.039  1.00  0.00     0.034 A 
ATOM     44  C   UNL A   1      43.130  23.134  28.776  1.00  0.00     0.049 A 
ATOM     45  C   UNL A   1      45.653  28.315  30.813  1.00  0.00     0.074 A 
ATOM     46  C   UNL A   1      43.209  23.156  30.143  1.00  0.00     0.029 A 
ATOM     47  N   UNL A   1      44.190  23.825  28.229  1.00  0.00    -0.354 N 
ATOM     48  N   UNL A   1      46.125  27.904  29.673  1.00  0.00    -0.248 NA
ATOM     49  C   UNL A   1      45.513  27.312  31.874  1.00  0.00     0.031 C 
ATOM     50  C   UNL A   1      43.962  24.327  30.360  1.00  0.00     0.029 A 
ATOM     51  C   UNL A   1      44.607  24.714  29.178  1.00  0.00     0.049 A 
ATOM     52  H   UNL A   1      44.571  23.701  27.330  1.00  0.00     0.167 HD
ATOM     53  C   UNL A   1      45.968  26.547  29.777  1.00  0.00     0.074 A 
ATOM     54  C   UNL A   1      45.908  26.241  31.195  1.00  0.00     0.031 C 
ATOM     55  C   UNL A   1      45.391  25.846  28.764  1.00  0.00     0.034 A 
BRANCH  42  56
ATOM     56  C   UNL A   1      42.243  21.785  26.906  1.00  0.00     0.023 A 
ATOM     57  C   UNL A   1      41.458  20.622  27.178  1.00  0.00     0.012 A 
ATOM     58  C   UNL A   1      43.323  21.631  26.022  1.00  0.00     0.148 A 
ATOM     59  C   UNL A   1      41.815  19.349  26.738  1.00  0.00     0.002 A 
ATOM     60  C   UNL A   1      43.643  20.357  25.534  1.00  0.00     0.091 A 
ATOM     61  F   UNL A   1      44.078  22.691  25.720  1.00  0.00    -0.205 F 
ATOM     62  C   UNL A   1      42.924  19.215  25.927  1.00  0.00     0.022 A 
BRANCH  60  63
ATOM     63  S   UNL A   1      45.000  20.049  24.395  1.00  0.00     0.127 S 
ATOM     64  O   UNL A   1      46.161  20.421  25.199  1.00  0.00    -0.237 OA
ATOM     65  O   UNL A   1      44.866  18.609  24.158  1.00  0.00    -0.237 OA
ATOM     66  O   UNL A   1      44.731  20.874  23.226  1.00  0.00    -0.744 OA
ENDBRANCH  60  63
ENDBRANCH  42  56
BRANCH  43  67
ATOM     67  C   UNL A   1      45.785  30.528  32.049  1.00  0.00     0.023 A 
ATOM     68  C   UNL A   1      45.380  30.733  33.374  1.00  0.00     0.012 A 
ATOM     69  C   UNL A   1      47.049  31.118  31.699  1.00  0.00     0.148 A 
ATOM     70  C   UNL A   1      46.231  31.375  34.309  1.00  0.00     0.002 A 
ATOM     71  C   UNL A   1      47.939  31.618  32.646  1.00  0.00     0.091 A 
ATOM     72  F   UNL A   1      47.391  31.233  30.411  1.00  0.00    -0.205 F 
ATOM     73  C   UNL A   1      47.527  31.761  33.963  1.00  0.00     0.022 A 
BRANCH  71  74
ATOM     74  S   UNL A   1      49.681  31.927  32.261  1.00  0.00     0.127 S 
ATOM     75  O   UNL A   1      49.623  33.194  31.535  1.00  0.00    -0.237 OA
ATOM     76  O   UNL A   1      50.265  32.014  33.600  1.00  0.00    -0.237 OA
ATOM     77  O   UNL A   1      50.136  30.786  31.478  1.00  0.00    -0.744 OA
ENDBRANCH  71  74
ENDBRANCH  43  67
BRANCH  55  78
ATOM     78  C   UNL A   1      45.450  26.485  27.367  1.00  0.00     0.023 A 
ATOM     79  C   UNL A   1      44.220  26.896  26.817  1.00  0.00     0.012 A 
ATOM     80  C   UNL A   1      46.594  26.633  26.536  1.00  0.00     0.148 A 
ATOM     81  C   UNL A   1      44.119  27.425  25.526  1.00  0.00     0.002 A 
ATOM     82  C   UNL A   1      46.492  27.141  25.230  1.00  0.00     0.091 A 
ATOM     83  F   UNL A   1      47.783  26.277  27.013  1.00  0.00    -0.205 F 
ATOM     84  C   UNL A   1      45.251  27.550  24.732  1.00  0.00     0.022 A 
BRANCH  82  85
ATOM     85  S   UNL A   1      47.875  27.246  24.063  1.00  0.00     0.127 S 
ATOM     86  O   UNL A   1      48.883  27.981  24.832  1.00  0.00    -0.237 OA
ATOM     87  O   UNL A   1      48.204  25.841  23.839  1.00  0.00    -0.237 OA
ATOM     88  O   UNL A   1      47.379  27.970  22.897  1.00  0.00    -0.744 OA
ENDBRANCH  82  85
ENDBRANCH  55  78
ENDBRANCH  29  30
ENDBRANCH  21  24
ENDBRANCH  19  20
ENDBRANCH   1  19
TORSDOF 15
ENDMDL
