MODEL 1
REMARK VINA RESULT:     -12.3      0.000      0.000
REMARK SMILES CN(C)c1ccc(F)c(C(=O)NCCCNC(=O)c2ccc(-c3c4nc(c(-c5cccc(S(=O)(=O)[O-])c5F)c5ccc([nH]5)c(-c5cccc(S(=O)(=O)[O-])c5F)c5nc(c(-c6cccc(S(=O)(=O)[O-])c6F)c6ccc3[nH]6)C=C5)C=C4)cc2)c1
REMARK SMILES IDX 15 1 14 2 13 3 12 4 10 5 11 6 9 8 4 9 5 10 82 11 6 12 7 13
REMARK SMILES IDX 8 14 2 15 1 16 3 17 16 18 17 19 18 21 19 22 20 23 81 24
REMARK SMILES IDX 21 25 80 26 22 27 23 28 24 29 74 30 25 31 79 32 73 33 75 34
REMARK SMILES IDX 26 35 78 36 72 37 71 38 27 40 59 41 39 42 58 43 40 44 43 45
REMARK SMILES IDX 57 46 76 47 41 48 42 49 56 51 77 52 44 53 28 54 29 55 37 56
REMARK SMILES IDX 30 57 32 58 38 59 31 60 33 61 34 62 35 63 36 64 60 65 61 66
REMARK SMILES IDX 69 67 62 68 64 69 70 70 63 71 65 72 66 73 67 74 68 75 45 76
REMARK SMILES IDX 46 77 54 78 47 79 49 80 55 81 48 82 50 83 51 84 52 85 53 86
REMARK H PARENT 12 7 16 20 75 39 43 50
REMARK Flexibility Score: inf
ROOT
ATOM      1  C   UNL A   1      37.082  22.022  24.339  1.00  0.00     0.118 C 
ENDROOT
BRANCH   1   2
ATOM      2  C   UNL A   1      35.558  21.932  24.400  1.00  0.00     0.042 C 
BRANCH   2   3
ATOM      3  C   UNL A   1      35.024  21.524  25.774  1.00  0.00     0.118 C 
BRANCH   3   4
ATOM      4  N   UNL A   1      33.584  21.678  25.840  1.00  0.00    -0.352 N 
ATOM      5  C   UNL A   1      32.537  20.990  25.288  1.00  0.00     0.254 C 
ATOM      6  O   UNL A   1      31.411  21.413  25.571  1.00  0.00    -0.269 OA
ATOM      7  H   UNL A   1      33.299  22.436  26.401  1.00  0.00     0.163 HD
BRANCH   5   8
ATOM      8  C   UNL A   1      32.642  19.762  24.453  1.00  0.00     0.077 A 
ATOM      9  C   UNL A   1      33.224  17.353  24.506  1.00  0.00     0.037 A 
ATOM     10  C   UNL A   1      32.989  17.300  23.130  1.00  0.00     0.029 A 
ATOM     11  C   UNL A   1      33.062  18.600  25.135  1.00  0.00     0.042 A 
ATOM     12  C   UNL A   1      32.529  18.422  22.439  1.00  0.00     0.042 A 
ATOM     13  C   UNL A   1      32.330  19.630  23.106  1.00  0.00     0.136 A 
ATOM     14  F   UNL A   1      31.778  20.615  22.392  1.00  0.00    -0.206 F 
BRANCH   9  15
ATOM     15  N   UNL A   1      33.577  16.232  25.244  1.00  0.00    -0.378 N 
ATOM     16  C   UNL A   1      34.965  15.828  25.375  1.00  0.00     0.143 C 
ATOM     17  C   UNL A   1      32.528  15.270  25.564  1.00  0.00     0.143 C 
ENDBRANCH   9  15
ENDBRANCH   5   8
ENDBRANCH   3   4
ENDBRANCH   2   3
ENDBRANCH   1   2
BRANCH   1  18
ATOM     18  N   UNL A   1      37.720  20.999  25.157  1.00  0.00    -0.352 N 
ATOM     19  C   UNL A   1      38.843  21.058  25.942  1.00  0.00     0.251 C 
ATOM     20  H   UNL A   1      37.272  20.122  25.145  1.00  0.00     0.163 HD
ATOM     21  O   UNL A   1      39.338  20.008  26.349  1.00  0.00    -0.269 OA
BRANCH  19  22
ATOM     22  C   UNL A   1      39.460  22.353  26.309  1.00  0.00     0.039 A 
ATOM     23  C   UNL A   1      40.706  22.342  26.944  1.00  0.00     0.014 A 
ATOM     24  C   UNL A   1      38.795  23.565  26.108  1.00  0.00     0.014 A 
ATOM     25  C   UNL A   1      41.296  23.543  27.345  1.00  0.00     0.010 A 
ATOM     26  C   UNL A   1      39.416  24.767  26.443  1.00  0.00     0.010 A 
ATOM     27  C   UNL A   1      40.664  24.770  27.081  1.00  0.00    -0.014 A 
BRANCH  27  28
ATOM     28  C   UNL A   1      41.303  26.053  27.469  1.00  0.00     0.031 A 
ATOM     29  C   UNL A   1      42.716  26.363  27.053  1.00  0.00     0.074 A 
ATOM     30  C   UNL A   1      40.622  26.921  28.246  1.00  0.00     0.049 A 
ATOM     31  N   UNL A   1      43.430  27.430  27.301  1.00  0.00    -0.248 NA
ATOM     32  C   UNL A   1      43.431  25.335  26.278  1.00  0.00     0.031 C 
ATOM     33  C   UNL A   1      39.278  26.696  28.778  1.00  0.00     0.029 A 
ATOM     34  N   UNL A   1      40.969  28.156  28.734  1.00  0.00    -0.354 N 
ATOM     35  C   UNL A   1      44.681  27.191  26.743  1.00  0.00     0.074 A 
ATOM     36  C   UNL A   1      44.642  25.863  26.173  1.00  0.00     0.031 C 
ATOM     37  C   UNL A   1      38.905  27.765  29.501  1.00  0.00     0.029 A 
ATOM     38  C   UNL A   1      39.991  28.740  29.506  1.00  0.00     0.049 A 
ATOM     39  H   UNL A   1      41.837  28.584  28.549  1.00  0.00     0.167 HD
ATOM     40  C   UNL A   1      45.751  28.017  26.679  1.00  0.00     0.034 A 
ATOM     41  C   UNL A   1      39.967  29.928  30.142  1.00  0.00     0.034 A 
ATOM     42  C   UNL A   1      45.760  29.358  27.196  1.00  0.00     0.049 A 
ATOM     43  C   UNL A   1      41.149  30.850  30.010  1.00  0.00     0.074 A 
ATOM     44  C   UNL A   1      46.761  30.307  27.097  1.00  0.00     0.029 A 
ATOM     45  N   UNL A   1      44.721  29.941  27.905  1.00  0.00    -0.354 N 
ATOM     46  N   UNL A   1      42.264  30.666  29.345  1.00  0.00    -0.248 NA
ATOM     47  C   UNL A   1      41.063  32.155  30.683  1.00  0.00     0.031 C 
ATOM     48  C   UNL A   1      46.336  31.458  27.764  1.00  0.00     0.029 A 
ATOM     49  C   UNL A   1      45.060  31.235  28.257  1.00  0.00     0.049 A 
ATOM     50  H   UNL A   1      43.869  29.500  28.126  1.00  0.00     0.167 HD
ATOM     51  C   UNL A   1      42.995  31.839  29.490  1.00  0.00     0.074 A 
ATOM     52  C   UNL A   1      42.193  32.734  30.297  1.00  0.00     0.031 C 
ATOM     53  C   UNL A   1      44.226  32.138  29.009  1.00  0.00     0.034 A 
BRANCH  40  54
ATOM     54  C   UNL A   1      46.985  27.533  25.961  1.00  0.00     0.023 A 
ATOM     55  C   UNL A   1      47.889  26.689  26.637  1.00  0.00     0.012 A 
ATOM     56  C   UNL A   1      47.195  27.820  24.598  1.00  0.00     0.148 A 
ATOM     57  C   UNL A   1      48.995  26.157  25.977  1.00  0.00     0.002 A 
ATOM     58  C   UNL A   1      48.275  27.250  23.934  1.00  0.00     0.091 A 
ATOM     59  F   UNL A   1      46.333  28.638  23.976  1.00  0.00    -0.205 F 
ATOM     60  C   UNL A   1      49.181  26.427  24.624  1.00  0.00     0.022 A 
BRANCH  58  61
ATOM     61  S   UNL A   1      48.558  27.464  22.172  1.00  0.00     0.127 S 
ATOM     62  O   UNL A   1      49.823  28.199  22.164  1.00  0.00    -0.237 OA
ATOM     63  O   UNL A   1      48.653  26.081  21.706  1.00  0.00    -0.237 OA
ATOM     64  O   UNL A   1      47.408  28.201  21.666  1.00  0.00    -0.744 OA
ENDBRANCH  58  61
ENDBRANCH  40  54
BRANCH  41  65
ATOM     65  C   UNL A   1      38.736  30.342  30.874  1.00  0.00     0.023 A 
ATOM     66  C   UNL A   1      38.642  30.091  32.256  1.00  0.00     0.012 A 
ATOM     67  C   UNL A   1      37.699  31.048  30.232  1.00  0.00     0.148 A 
ATOM     68  C   UNL A   1      37.533  30.525  32.985  1.00  0.00     0.002 A 
ATOM     69  C   UNL A   1      36.624  31.525  30.973  1.00  0.00     0.091 A 
ATOM     70  F   UNL A   1      37.803  31.265  28.914  1.00  0.00    -0.205 F 
ATOM     71  C   UNL A   1      36.531  31.252  32.347  1.00  0.00     0.022 A 
BRANCH  69  72
ATOM     72  S   UNL A   1      35.362  32.593  30.268  1.00  0.00     0.127 S 
ATOM     73  O   UNL A   1      36.147  33.753  29.855  1.00  0.00    -0.237 OA
ATOM     74  O   UNL A   1      34.850  31.771  29.171  1.00  0.00    -0.237 OA
ATOM     75  O   UNL A   1      34.402  32.828  31.339  1.00  0.00    -0.744 OA
ENDBRANCH  69  72
ENDBRANCH  41  65
BRANCH  53  76
ATOM     76  C   UNL A   1      44.801  33.496  29.306  1.00  0.00     0.023 A 
ATOM     77  C   UNL A   1      45.571  33.683  30.469  1.00  0.00     0.012 A 
ATOM     78  C   UNL A   1      44.718  34.531  28.352  1.00  0.00     0.148 A 
ATOM     79  C   UNL A   1      46.247  34.884  30.682  1.00  0.00     0.002 A 
ATOM     80  C   UNL A   1      45.432  35.705  28.549  1.00  0.00     0.091 A 
ATOM     81  F   UNL A   1      43.969  34.330  27.258  1.00  0.00    -0.205 F 
ATOM     82  C   UNL A   1      46.191  35.887  29.716  1.00  0.00     0.022 A 
BRANCH  80  83
ATOM     83  S   UNL A   1      45.511  37.010  27.315  1.00  0.00     0.127 S 
ATOM     84  O   UNL A   1      44.104  37.385  27.187  1.00  0.00    -0.237 OA
ATOM     85  O   UNL A   1      46.352  38.008  27.975  1.00  0.00    -0.237 OA
ATOM     86  O   UNL A   1      46.101  36.407  26.126  1.00  0.00    -0.744 OA
ENDBRANCH  80  83
ENDBRANCH  53  76
ENDBRANCH  27  28
ENDBRANCH  19  22
ENDBRANCH   1  18
TORSDOF 14
ENDMDL
MODEL 2
REMARK VINA RESULT:     -12.2      6.604     10.885
REMARK SMILES CN(C)c1ccc(F)c(C(=O)NCCCNC(=O)c2ccc(-c3c4nc(c(-c5cccc(S(=O)(=O)[O-])c5F)c5ccc([nH]5)c(-c5cccc(S(=O)(=O)[O-])c5F)c5nc(c(-c6cccc(S(=O)(=O)[O-])c6F)c6ccc3[nH]6)C=C5)C=C4)cc2)c1
REMARK SMILES IDX 15 1 14 2 13 3 12 4 10 5 11 6 9 8 4 9 5 10 82 11 6 12 7 13
REMARK SMILES IDX 8 14 2 15 1 16 3 17 16 18 17 19 18 21 19 22 20 23 81 24
REMARK SMILES IDX 21 25 80 26 22 27 23 28 24 29 74 30 25 31 79 32 73 33 75 34
REMARK SMILES IDX 26 35 78 36 72 37 71 38 27 40 59 41 39 42 58 43 40 44 43 45
REMARK SMILES IDX 57 46 76 47 41 48 42 49 56 51 77 52 44 53 28 54 29 55 37 56
REMARK SMILES IDX 30 57 32 58 38 59 31 60 33 61 34 62 35 63 36 64 60 65 61 66
REMARK SMILES IDX 69 67 62 68 64 69 70 70 63 71 65 72 66 73 67 74 68 75 45 76
REMARK SMILES IDX 46 77 54 78 47 79 49 80 55 81 48 82 50 83 51 84 52 85 53 86
REMARK H PARENT 12 7 16 20 75 39 43 50
REMARK Flexibility Score: inf
ROOT
ATOM      1  C   UNL A   1      33.583  28.446  26.800  1.00  0.00     0.118 C 
ENDROOT
BRANCH   1   2
ATOM      2  C   UNL A   1      33.600  28.108  25.310  1.00  0.00     0.042 C 
BRANCH   2   3
ATOM      3  C   UNL A   1      32.414  28.688  24.538  1.00  0.00     0.118 C 
BRANCH   3   4
ATOM      4  N   UNL A   1      32.148  27.922  23.336  1.00  0.00    -0.352 N 
ATOM      5  C   UNL A   1      31.045  27.770  22.541  1.00  0.00     0.254 C 
ATOM      6  O   UNL A   1      31.184  27.018  21.571  1.00  0.00    -0.269 OA
ATOM      7  H   UNL A   1      32.925  27.402  23.027  1.00  0.00     0.163 HD
BRANCH   5   8
ATOM      8  C   UNL A   1      29.743  28.475  22.708  1.00  0.00     0.077 A 
ATOM      9  C   UNL A   1      28.593  30.648  22.392  1.00  0.00     0.037 A 
ATOM     10  C   UNL A   1      27.445  30.084  22.954  1.00  0.00     0.029 A 
ATOM     11  C   UNL A   1      29.730  29.826  22.300  1.00  0.00     0.042 A 
ATOM     12  C   UNL A   1      27.417  28.738  23.325  1.00  0.00     0.042 A 
ATOM     13  C   UNL A   1      28.549  27.939  23.171  1.00  0.00     0.136 A 
ATOM     14  F   UNL A   1      28.395  26.640  23.440  1.00  0.00    -0.206 F 
BRANCH   9  15
ATOM     15  N   UNL A   1      28.624  31.949  21.913  1.00  0.00    -0.378 N 
ATOM     16  C   UNL A   1      28.820  33.073  22.811  1.00  0.00     0.143 C 
ATOM     17  C   UNL A   1      28.090  32.197  20.578  1.00  0.00     0.143 C 
ENDBRANCH   9  15
ENDBRANCH   5   8
ENDBRANCH   3   4
ENDBRANCH   2   3
ENDBRANCH   1   2
BRANCH   1  18
ATOM     18  N   UNL A   1      33.559  29.885  27.030  1.00  0.00    -0.352 N 
ATOM     19  C   UNL A   1      34.425  30.690  27.725  1.00  0.00     0.251 C 
ATOM     20  H   UNL A   1      32.797  30.355  26.622  1.00  0.00     0.163 HD
ATOM     21  O   UNL A   1      34.078  31.838  27.997  1.00  0.00    -0.269 OA
BRANCH  19  22
ATOM     22  C   UNL A   1      35.761  30.207  28.142  1.00  0.00     0.039 A 
ATOM     23  C   UNL A   1      35.900  29.649  29.417  1.00  0.00     0.014 A 
ATOM     24  C   UNL A   1      36.886  30.368  27.329  1.00  0.00     0.014 A 
ATOM     25  C   UNL A   1      37.154  29.225  29.860  1.00  0.00     0.010 A 
ATOM     26  C   UNL A   1      38.124  29.878  27.743  1.00  0.00     0.010 A 
ATOM     27  C   UNL A   1      38.276  29.318  29.020  1.00  0.00    -0.014 A 
BRANCH  27  28
ATOM     28  C   UNL A   1      39.606  28.833  29.468  1.00  0.00     0.031 A 
ATOM     29  C   UNL A   1      40.340  29.530  30.582  1.00  0.00     0.074 A 
ATOM     30  C   UNL A   1      40.178  27.790  28.833  1.00  0.00     0.049 A 
ATOM     31  N   UNL A   1      41.506  29.246  31.102  1.00  0.00    -0.248 NA
ATOM     32  C   UNL A   1      39.696  30.715  31.177  1.00  0.00     0.031 C 
ATOM     33  C   UNL A   1      39.600  27.085  27.688  1.00  0.00     0.029 A 
ATOM     34  N   UNL A   1      41.374  27.152  29.046  1.00  0.00    -0.354 N 
ATOM     35  C   UNL A   1      41.748  30.227  32.057  1.00  0.00     0.074 A 
ATOM     36  C   UNL A   1      40.625  31.137  32.022  1.00  0.00     0.031 C 
ATOM     37  C   UNL A   1      40.431  26.099  27.313  1.00  0.00     0.029 A 
ATOM     38  C   UNL A   1      41.611  26.116  28.171  1.00  0.00     0.049 A 
ATOM     39  H   UNL A   1      42.004  27.410  29.757  1.00  0.00     0.167 HD
ATOM     40  C   UNL A   1      42.794  30.339  32.910  1.00  0.00     0.034 A 
ATOM     41  C   UNL A   1      42.657  25.271  28.073  1.00  0.00     0.034 A 
ATOM     42  C   UNL A   1      43.876  29.396  32.978  1.00  0.00     0.049 A 
ATOM     43  C   UNL A   1      43.780  25.383  29.068  1.00  0.00     0.074 A 
ATOM     44  C   UNL A   1      44.931  29.368  33.871  1.00  0.00     0.029 A 
ATOM     45  N   UNL A   1      44.041  28.316  32.125  1.00  0.00    -0.354 N 
ATOM     46  N   UNL A   1      43.914  26.225  30.064  1.00  0.00    -0.248 NA
ATOM     47  C   UNL A   1      44.880  24.413  28.952  1.00  0.00     0.031 C 
ATOM     48  C   UNL A   1      45.747  28.283  33.545  1.00  0.00     0.029 A 
ATOM     49  C   UNL A   1      45.186  27.619  32.465  1.00  0.00     0.049 A 
ATOM     50  H   UNL A   1      43.434  28.080  31.387  1.00  0.00     0.167 HD
ATOM     51  C   UNL A   1      45.090  25.867  30.713  1.00  0.00     0.074 A 
ATOM     52  C   UNL A   1      45.627  24.724  30.005  1.00  0.00     0.031 C 
ATOM     53  C   UNL A   1      45.677  26.445  31.789  1.00  0.00     0.034 A 
BRANCH  40  54
ATOM     54  C   UNL A   1      42.791  31.477  33.898  1.00  0.00     0.023 A 
ATOM     55  C   UNL A   1      43.336  32.721  33.518  1.00  0.00     0.012 A 
ATOM     56  C   UNL A   1      42.158  31.354  35.150  1.00  0.00     0.148 A 
ATOM     57  C   UNL A   1      43.275  33.816  34.377  1.00  0.00     0.002 A 
ATOM     58  C   UNL A   1      42.060  32.463  35.983  1.00  0.00     0.091 A 
ATOM     59  F   UNL A   1      41.659  30.160  35.500  1.00  0.00    -0.205 F 
ATOM     60  C   UNL A   1      42.626  33.691  35.602  1.00  0.00     0.022 A 
BRANCH  58  61
ATOM     61  S   UNL A   1      41.171  32.433  37.545  1.00  0.00     0.127 S 
ATOM     62  O   UNL A   1      41.122  33.855  37.884  1.00  0.00    -0.237 OA
ATOM     63  O   UNL A   1      39.885  31.855  37.155  1.00  0.00    -0.237 OA
ATOM     64  O   UNL A   1      41.964  31.606  38.444  1.00  0.00    -0.744 OA
ENDBRANCH  58  61
ENDBRANCH  40  54
BRANCH  41  65
ATOM     65  C   UNL A   1      42.629  24.187  27.050  1.00  0.00     0.023 A 
ATOM     66  C   UNL A   1      43.327  24.366  25.840  1.00  0.00     0.012 A 
ATOM     67  C   UNL A   1      41.988  22.957  27.298  1.00  0.00     0.148 A 
ATOM     68  C   UNL A   1      43.377  23.346  24.889  1.00  0.00     0.002 A 
ATOM     69  C   UNL A   1      42.087  21.925  26.371  1.00  0.00     0.091 A 
ATOM     70  F   UNL A   1      41.319  22.812  28.449  1.00  0.00    -0.205 F 
ATOM     71  C   UNL A   1      42.769  22.122  25.159  1.00  0.00     0.022 A 
BRANCH  69  72
ATOM     72  S   UNL A   1      41.462  20.272  26.694  1.00  0.00     0.127 S 
ATOM     73  O   UNL A   1      40.027  20.513  26.819  1.00  0.00    -0.237 OA
ATOM     74  O   UNL A   1      41.866  19.554  25.485  1.00  0.00    -0.237 OA
ATOM     75  O   UNL A   1      42.136  19.827  27.908  1.00  0.00    -0.744 OA
ENDBRANCH  69  72
ENDBRANCH  41  65
BRANCH  53  76
ATOM     76  C   UNL A   1      46.960  25.856  32.308  1.00  0.00     0.023 A 
ATOM     77  C   UNL A   1      48.190  26.351  31.836  1.00  0.00     0.012 A 
ATOM     78  C   UNL A   1      46.944  24.938  33.378  1.00  0.00     0.148 A 
ATOM     79  C   UNL A   1      49.388  25.938  32.418  1.00  0.00     0.002 A 
ATOM     80  C   UNL A   1      48.137  24.568  33.983  1.00  0.00     0.091 A 
ATOM     81  F   UNL A   1      45.759  24.474  33.801  1.00  0.00    -0.205 F 
ATOM     82  C   UNL A   1      49.360  25.060  33.501  1.00  0.00     0.022 A 
BRANCH  80  83
ATOM     83  S   UNL A   1      48.199  23.530  35.449  1.00  0.00     0.127 S 
ATOM     84  O   UNL A   1      47.663  22.268  34.943  1.00  0.00    -0.237 OA
ATOM     85  O   UNL A   1      49.629  23.508  35.752  1.00  0.00    -0.237 OA
ATOM     86  O   UNL A   1      47.374  24.195  36.451  1.00  0.00    -0.744 OA
ENDBRANCH  80  83
ENDBRANCH  53  76
ENDBRANCH  27  28
ENDBRANCH  19  22
ENDBRANCH   1  18
TORSDOF 14
ENDMDL
MODEL 3
REMARK VINA RESULT:     -12.1      6.676     11.443
REMARK SMILES CN(C)c1ccc(F)c(C(=O)NCCCNC(=O)c2ccc(-c3c4nc(c(-c5cccc(S(=O)(=O)[O-])c5F)c5ccc([nH]5)c(-c5cccc(S(=O)(=O)[O-])c5F)c5nc(c(-c6cccc(S(=O)(=O)[O-])c6F)c6ccc3[nH]6)C=C5)C=C4)cc2)c1
REMARK SMILES IDX 15 1 14 2 13 3 12 4 10 5 11 6 9 8 4 9 5 10 82 11 6 12 7 13
REMARK SMILES IDX 8 14 2 15 1 16 3 17 16 18 17 19 18 21 19 22 20 23 81 24
REMARK SMILES IDX 21 25 80 26 22 27 23 28 24 29 74 30 25 31 79 32 73 33 75 34
REMARK SMILES IDX 26 35 78 36 72 37 71 38 27 40 59 41 39 42 58 43 40 44 43 45
REMARK SMILES IDX 57 46 76 47 41 48 42 49 56 51 77 52 44 53 28 54 29 55 37 56
REMARK SMILES IDX 30 57 32 58 38 59 31 60 33 61 34 62 35 63 36 64 60 65 61 66
REMARK SMILES IDX 69 67 62 68 64 69 70 70 63 71 65 72 66 73 67 74 68 75 45 76
REMARK SMILES IDX 46 77 54 78 47 79 49 80 55 81 48 82 50 83 51 84 52 85 53 86
REMARK H PARENT 12 7 16 20 75 39 43 50
REMARK Flexibility Score: inf
ROOT
ATOM      1  C   UNL A   1      32.986  29.776  26.054  1.00  0.00     0.118 C 
ENDROOT
BRANCH   1   2
ATOM      2  C   UNL A   1      31.870  28.941  26.681  1.00  0.00     0.042 C 
BRANCH   2   3
ATOM      3  C   UNL A   1      31.376  27.807  25.781  1.00  0.00     0.118 C 
BRANCH   3   4
ATOM      4  N   UNL A   1      31.861  27.968  24.424  1.00  0.00    -0.352 N 
ATOM      5  C   UNL A   1      31.266  28.340  23.249  1.00  0.00     0.254 C 
ATOM      6  O   UNL A   1      32.007  28.371  22.261  1.00  0.00    -0.269 OA
ATOM      7  H   UNL A   1      32.820  27.768  24.328  1.00  0.00     0.163 HD
BRANCH   5   8
ATOM      8  C   UNL A   1      29.849  28.768  23.085  1.00  0.00     0.077 A 
ATOM      9  C   UNL A   1      28.399  30.675  22.447  1.00  0.00     0.037 A 
ATOM     10  C   UNL A   1      27.285  29.882  22.737  1.00  0.00     0.029 A 
ATOM     11  C   UNL A   1      29.665  30.098  22.650  1.00  0.00     0.042 A 
ATOM     12  C   UNL A   1      27.438  28.549  23.126  1.00  0.00     0.042 A 
ATOM     13  C   UNL A   1      28.709  27.995  23.266  1.00  0.00     0.136 A 
ATOM     14  F   UNL A   1      28.758  26.686  23.526  1.00  0.00    -0.206 F 
BRANCH   9  15
ATOM     15  N   UNL A   1      28.283  31.967  21.955  1.00  0.00    -0.378 N 
ATOM     16  C   UNL A   1      28.028  32.210  20.547  1.00  0.00     0.143 C 
ATOM     17  C   UNL A   1      28.789  33.058  22.781  1.00  0.00     0.143 C 
ENDBRANCH   9  15
ENDBRANCH   5   8
ENDBRANCH   3   4
ENDBRANCH   2   3
ENDBRANCH   1   2
BRANCH   1  18
ATOM     18  N   UNL A   1      32.866  31.187  26.397  1.00  0.00    -0.352 N 
ATOM     19  C   UNL A   1      33.521  31.931  27.345  1.00  0.00     0.251 C 
ATOM     20  H   UNL A   1      32.208  31.687  25.862  1.00  0.00     0.163 HD
ATOM     21  O   UNL A   1      33.086  33.047  27.626  1.00  0.00    -0.269 OA
BRANCH  19  22
ATOM     22  C   UNL A   1      34.734  31.422  28.023  1.00  0.00     0.039 A 
ATOM     23  C   UNL A   1      35.882  32.220  28.025  1.00  0.00     0.014 A 
ATOM     24  C   UNL A   1      34.777  30.143  28.586  1.00  0.00     0.014 A 
ATOM     25  C   UNL A   1      37.058  31.751  28.616  1.00  0.00     0.010 A 
ATOM     26  C   UNL A   1      35.929  29.705  29.239  1.00  0.00     0.010 A 
ATOM     27  C   UNL A   1      37.087  30.496  29.246  1.00  0.00    -0.014 A 
BRANCH  27  28
ATOM     28  C   UNL A   1      38.321  30.006  29.911  1.00  0.00     0.031 A 
ATOM     29  C   UNL A   1      38.702  30.502  31.280  1.00  0.00     0.074 A 
ATOM     30  C   UNL A   1      39.130  29.149  29.254  1.00  0.00     0.049 A 
ATOM     31  N   UNL A   1      39.741  30.184  32.009  1.00  0.00    -0.248 NA
ATOM     32  C   UNL A   1      37.818  31.501  31.905  1.00  0.00     0.031 C 
ATOM     33  C   UNL A   1      38.908  28.661  27.892  1.00  0.00     0.029 A 
ATOM     34  N   UNL A   1      40.305  28.550  29.633  1.00  0.00    -0.354 N 
ATOM     35  C   UNL A   1      39.653  30.962  33.158  1.00  0.00     0.074 A 
ATOM     36  C   UNL A   1      38.478  31.794  33.016  1.00  0.00     0.031 C 
ATOM     37  C   UNL A   1      39.901  27.822  27.558  1.00  0.00     0.029 A 
ATOM     38  C   UNL A   1      40.844  27.731  28.668  1.00  0.00     0.049 A 
ATOM     39  H   UNL A   1      40.723  28.693  30.513  1.00  0.00     0.167 HD
ATOM     40  C   UNL A   1      40.456  30.956  34.248  1.00  0.00     0.034 A 
ATOM     41  C   UNL A   1      41.967  26.984  28.676  1.00  0.00     0.034 A 
ATOM     42  C   UNL A   1      41.586  30.082  34.405  1.00  0.00     0.049 A 
ATOM     43  C   UNL A   1      42.813  26.955  29.920  1.00  0.00     0.074 A 
ATOM     44  C   UNL A   1      42.405  29.933  35.509  1.00  0.00     0.029 A 
ATOM     45  N   UNL A   1      42.055  29.211  33.434  1.00  0.00    -0.354 N 
ATOM     46  N   UNL A   1      42.625  27.581  31.056  1.00  0.00    -0.248 NA
ATOM     47  C   UNL A   1      44.005  26.093  29.902  1.00  0.00     0.031 C 
ATOM     48  C   UNL A   1      43.383  28.986  35.200  1.00  0.00     0.029 A 
ATOM     49  C   UNL A   1      43.157  28.526  33.911  1.00  0.00     0.049 A 
ATOM     50  H   UNL A   1      41.662  29.096  32.539  1.00  0.00     0.167 HD
ATOM     51  C   UNL A   1      43.651  27.166  31.897  1.00  0.00     0.074 A 
ATOM     52  C   UNL A   1      44.453  26.225  31.145  1.00  0.00     0.031 C 
ATOM     53  C   UNL A   1      43.910  27.544  33.172  1.00  0.00     0.034 A 
BRANCH  40  54
ATOM     54  C   UNL A   1      40.107  31.867  35.397  1.00  0.00     0.023 A 
ATOM     55  C   UNL A   1      40.718  33.134  35.482  1.00  0.00     0.012 A 
ATOM     56  C   UNL A   1      39.105  31.519  36.324  1.00  0.00     0.148 A 
ATOM     57  C   UNL A   1      40.356  34.032  36.485  1.00  0.00     0.002 A 
ATOM     58  C   UNL A   1      38.717  32.437  37.294  1.00  0.00     0.091 A 
ATOM     59  F   UNL A   1      38.546  30.303  36.237  1.00  0.00    -0.205 F 
ATOM     60  C   UNL A   1      39.348  33.689  37.381  1.00  0.00     0.022 A 
BRANCH  58  61
ATOM     61  S   UNL A   1      37.370  32.128  38.443  1.00  0.00     0.127 S 
ATOM     62  O   UNL A   1      37.983  32.493  39.720  1.00  0.00    -0.237 OA
ATOM     63  O   UNL A   1      36.345  33.059  37.972  1.00  0.00    -0.237 OA
ATOM     64  O   UNL A   1      37.030  30.720  38.297  1.00  0.00    -0.744 OA
ENDBRANCH  58  61
ENDBRANCH  40  54
BRANCH  41  65
ATOM     65  C   UNL A   1      42.288  26.132  27.496  1.00  0.00     0.023 A 
ATOM     66  C   UNL A   1      43.100  26.656  26.471  1.00  0.00     0.012 A 
ATOM     67  C   UNL A   1      41.866  24.790  27.419  1.00  0.00     0.148 A 
ATOM     68  C   UNL A   1      43.475  25.865  25.385  1.00  0.00     0.002 A 
ATOM     69  C   UNL A   1      42.288  23.991  26.363  1.00  0.00     0.091 A 
ATOM     70  F   UNL A   1      41.084  24.315  28.398  1.00  0.00    -0.205 F 
ATOM     71  C   UNL A   1      43.081  24.529  25.337  1.00  0.00     0.022 A 
BRANCH  69  72
ATOM     72  S   UNL A   1      41.952  22.227  26.291  1.00  0.00     0.127 S 
ATOM     73  O   UNL A   1      40.498  22.205  26.159  1.00  0.00    -0.237 OA
ATOM     74  O   UNL A   1      42.688  21.827  25.092  1.00  0.00    -0.237 OA
ATOM     75  O   UNL A   1      42.482  21.675  27.531  1.00  0.00    -0.744 OA
ENDBRANCH  69  72
ENDBRANCH  41  65
BRANCH  53  76
ATOM     76  C   UNL A   1      45.094  26.936  33.873  1.00  0.00     0.023 A 
ATOM     77  C   UNL A   1      46.327  27.617  33.870  1.00  0.00     0.012 A 
ATOM     78  C   UNL A   1      44.939  25.784  34.669  1.00  0.00     0.148 A 
ATOM     79  C   UNL A   1      47.390  27.156  34.646  1.00  0.00     0.002 A 
ATOM     80  C   UNL A   1      45.986  25.359  35.476  1.00  0.00     0.091 A 
ATOM     81  F   UNL A   1      43.758  25.148  34.646  1.00  0.00    -0.205 F 
ATOM     82  C   UNL A   1      47.214  26.039  35.460  1.00  0.00     0.022 A 
BRANCH  80  83
ATOM     83  S   UNL A   1      45.824  23.997  36.638  1.00  0.00     0.127 S 
ATOM     84  O   UNL A   1      44.732  24.462  37.491  1.00  0.00    -0.237 OA
ATOM     85  O   UNL A   1      45.479  22.881  35.759  1.00  0.00    -0.237 OA
ATOM     86  O   UNL A   1      47.117  23.874  37.300  1.00  0.00    -0.744 OA
ENDBRANCH  80  83
ENDBRANCH  53  76
ENDBRANCH  27  28
ENDBRANCH  19  22
ENDBRANCH   1  18
TORSDOF 14
ENDMDL
