MODEL 1
REMARK VINA RESULT:     -12.6      0.000      0.000
REMARK SMILES O=C(NCCCNC(=O)[C@H]1CCCC[C@@H]1C(=O)Nc1ccc(Br)c(Cl)c1)c1ccc(-c2c3nc(c(-c4cccc(S(=O)(=O)[O-])c4F)c4ccc([nH]4)c(-c4cccc(S(=O)(=O)[O-])c4F)c4nc(c(-c5cccc(S(=O)(=O)[O-])c5F)c5ccc2[nH]5)C=C4)C=C3)cc1
REMARK SMILES IDX 4 1 3 2 1 3 2 4 27 6 28 7 89 8 29 9 88 10 30 11 31 12 32 13
REMARK SMILES IDX 82 14 33 15 87 16 81 17 83 18 34 19 86 20 80 21 79 22 35 24
REMARK SMILES IDX 67 25 47 26 66 27 48 28 51 29 65 30 84 31 49 32 50 33 64 35
REMARK SMILES IDX 85 36 52 37 36 38 37 39 45 40 38 41 40 42 46 43 39 44 41 45
REMARK SMILES IDX 42 46 43 47 44 48 68 49 69 50 77 51 70 52 72 53 78 54 71 55
REMARK SMILES IDX 73 56 74 57 75 58 76 59 53 60 54 61 62 62 55 63 57 64 63 65
REMARK SMILES IDX 56 66 58 67 59 68 60 69 61 70 5 71 6 72 7 73 8 74 9 76 10 77
REMARK SMILES IDX 11 78 15 79 12 80 14 81 13 82 16 83 17 84 18 85 19 87 20 88
REMARK SMILES IDX 26 89 21 90 24 91 22 92 25 93 23 94
REMARK H PARENT 3 5 83 23 51 34 7 75 18 86
REMARK Flexibility Score: inf
ROOT
ATOM      1  C   UNL A   1      32.736  32.573  27.252  1.00  0.00     0.118 C 
ENDROOT
BRANCH   1   2
ATOM      2  N   UNL A   1      32.531  33.965  27.619  1.00  0.00    -0.352 N 
ATOM      3  O   UNL A   1      32.676  35.817  28.882  1.00  0.00    -0.269 OA
ATOM      4  C   UNL A   1      33.111  34.697  28.625  1.00  0.00     0.251 C 
ATOM      5  H   UNL A   1      31.881  34.455  27.065  1.00  0.00     0.163 HD
BRANCH   4   6
ATOM      6  C   UNL A   1      34.241  34.144  29.400  1.00  0.00     0.039 A 
ATOM      7  C   UNL A   1      35.543  34.388  28.953  1.00  0.00     0.014 A 
ATOM      8  C   UNL A   1      34.026  33.347  30.528  1.00  0.00     0.014 A 
ATOM      9  C   UNL A   1      36.629  33.848  29.647  1.00  0.00     0.010 A 
ATOM     10  C   UNL A   1      35.111  32.867  31.257  1.00  0.00     0.010 A 
ATOM     11  C   UNL A   1      36.421  33.087  30.807  1.00  0.00    -0.014 A 
BRANCH  11  12
ATOM     12  C   UNL A   1      37.558  32.455  31.523  1.00  0.00     0.031 A 
ATOM     13  C   UNL A   1      38.311  31.323  30.875  1.00  0.00     0.074 A 
ATOM     14  C   UNL A   1      37.887  32.860  32.766  1.00  0.00     0.049 A 
ATOM     15  N   UNL A   1      39.287  30.600  31.359  1.00  0.00    -0.248 NA
ATOM     16  C   UNL A   1      37.897  30.934  29.515  1.00  0.00     0.031 C 
ATOM     17  C   UNL A   1      37.203  33.909  33.523  1.00  0.00     0.029 A 
ATOM     18  N   UNL A   1      38.872  32.423  33.616  1.00  0.00    -0.354 N 
ATOM     19  C   UNL A   1      39.570  29.648  30.388  1.00  0.00     0.074 A 
ATOM     20  C   UNL A   1      38.652  29.868  29.294  1.00  0.00     0.031 C 
ATOM     21  C   UNL A   1      37.796  34.042  34.722  1.00  0.00     0.029 A 
ATOM     22  C   UNL A   1      38.883  33.072  34.829  1.00  0.00     0.049 A 
ATOM     23  H   UNL A   1      39.510  31.712  33.381  1.00  0.00     0.167 HD
ATOM     24  C   UNL A   1      40.532  28.697  30.391  1.00  0.00     0.034 A 
ATOM     25  C   UNL A   1      39.676  32.905  35.905  1.00  0.00     0.034 A 
ATOM     26  C   UNL A   1      41.498  28.531  31.439  1.00  0.00     0.049 A 
ATOM     27  C   UNL A   1      40.773  31.878  35.861  1.00  0.00     0.074 A 
ATOM     28  C   UNL A   1      42.570  27.657  31.484  1.00  0.00     0.029 A 
ATOM     29  N   UNL A   1      41.516  29.255  32.618  1.00  0.00    -0.354 N 
ATOM     30  N   UNL A   1      41.098  31.067  34.884  1.00  0.00    -0.248 NA
ATOM     31  C   UNL A   1      41.627  31.758  37.052  1.00  0.00     0.031 C 
ATOM     32  C   UNL A   1      43.236  27.851  32.696  1.00  0.00     0.029 A 
ATOM     33  C   UNL A   1      42.582  28.850  33.401  1.00  0.00     0.049 A 
ATOM     34  H   UNL A   1      40.868  29.955  32.863  1.00  0.00     0.167 HD
ATOM     35  C   UNL A   1      42.205  30.356  35.332  1.00  0.00     0.074 A 
ATOM     36  C   UNL A   1      42.505  30.841  36.664  1.00  0.00     0.031 C 
ATOM     37  C   UNL A   1      42.899  29.378  34.702  1.00  0.00     0.034 A 
BRANCH  24  38
ATOM     38  C   UNL A   1      40.642  27.801  29.189  1.00  0.00     0.023 A 
ATOM     39  C   UNL A   1      39.797  26.678  29.090  1.00  0.00     0.012 A 
ATOM     40  C   UNL A   1      41.505  28.119  28.123  1.00  0.00     0.148 A 
ATOM     41  C   UNL A   1      39.819  25.874  27.952  1.00  0.00     0.002 A 
ATOM     42  C   UNL A   1      41.498  27.332  26.979  1.00  0.00     0.091 A 
ATOM     43  F   UNL A   1      42.308  29.184  28.250  1.00  0.00    -0.205 F 
ATOM     44  C   UNL A   1      40.660  26.207  26.893  1.00  0.00     0.022 A 
BRANCH  42  45
ATOM     45  S   UNL A   1      42.499  27.704  25.535  1.00  0.00     0.127 S 
ATOM     46  O   UNL A   1      41.902  28.959  25.079  1.00  0.00    -0.237 OA
ATOM     47  O   UNL A   1      43.835  27.840  26.116  1.00  0.00    -0.237 OA
ATOM     48  O   UNL A   1      42.336  26.577  24.627  1.00  0.00    -0.744 OA
ENDBRANCH  42  45
ENDBRANCH  24  38
BRANCH  25  49
ATOM     49  C   UNL A   1      39.498  33.792  37.086  1.00  0.00     0.023 A 
ATOM     50  C   UNL A   1      39.866  35.148  36.989  1.00  0.00     0.012 A 
ATOM     51  C   UNL A   1      38.906  33.319  38.274  1.00  0.00     0.148 A 
ATOM     52  C   UNL A   1      39.654  36.018  38.059  1.00  0.00     0.002 A 
ATOM     53  C   UNL A   1      38.663  34.200  39.321  1.00  0.00     0.091 A 
ATOM     54  F   UNL A   1      38.570  32.023  38.340  1.00  0.00    -0.205 F 
ATOM     55  C   UNL A   1      39.045  35.547  39.219  1.00  0.00     0.022 A 
BRANCH  53  56
ATOM     56  S   UNL A   1      37.790  33.711  40.813  1.00  0.00     0.127 S 
ATOM     57  O   UNL A   1      37.600  35.002  41.481  1.00  0.00    -0.237 OA
ATOM     58  O   UNL A   1      36.566  33.122  40.261  1.00  0.00    -0.237 OA
ATOM     59  O   UNL A   1      38.660  32.775  41.497  1.00  0.00    -0.744 OA
ENDBRANCH  53  56
ENDBRANCH  25  49
BRANCH  37  60
ATOM     60  C   UNL A   1      44.065  28.757  35.417  1.00  0.00     0.023 A 
ATOM     61  C   UNL A   1      45.344  29.325  35.269  1.00  0.00     0.012 A 
ATOM     62  C   UNL A   1      43.867  27.714  36.342  1.00  0.00     0.148 A 
ATOM     63  C   UNL A   1      46.414  28.860  36.030  1.00  0.00     0.002 A 
ATOM     64  C   UNL A   1      44.931  27.277  37.123  1.00  0.00     0.091 A 
ATOM     65  F   UNL A   1      42.639  27.188  36.458  1.00  0.00    -0.205 F 
ATOM     66  C   UNL A   1      46.206  27.847  36.965  1.00  0.00     0.022 A 
BRANCH  64  67
ATOM     67  S   UNL A   1      44.746  26.036  38.407  1.00  0.00     0.127 S 
ATOM     68  O   UNL A   1      46.119  25.902  38.891  1.00  0.00    -0.237 OA
ATOM     69  O   UNL A   1      43.831  26.693  39.342  1.00  0.00    -0.237 OA
ATOM     70  O   UNL A   1      44.201  24.854  37.754  1.00  0.00    -0.744 OA
ENDBRANCH  64  67
ENDBRANCH  37  60
ENDBRANCH  11  12
ENDBRANCH   4   6
ENDBRANCH   1   2
BRANCH   1  71
ATOM     71  C   UNL A   1      31.543  31.974  26.502  1.00  0.00     0.042 C 
BRANCH  71  72
ATOM     72  C   UNL A   1      31.771  30.560  25.960  1.00  0.00     0.117 C 
BRANCH  72  73
ATOM     73  N   UNL A   1      31.774  29.602  27.044  1.00  0.00    -0.356 N 
ATOM     74  C   UNL A   1      31.636  28.256  27.008  1.00  0.00     0.223 C 
ATOM     75  H   UNL A   1      31.895  29.987  27.942  1.00  0.00     0.163 HD
ATOM     76  O   UNL A   1      31.132  27.729  28.000  1.00  0.00    -0.275 OA
BRANCH  74  77
ATOM     77  C   UNL A   1      32.170  27.443  25.823  1.00  0.00     0.091 C 
ATOM     78  C   UNL A   1      31.827  25.980  26.156  1.00  0.00     0.014 C 
ATOM     79  C   UNL A   1      31.618  27.950  24.485  1.00  0.00     0.091 C 
ATOM     80  C   UNL A   1      30.432  25.514  25.743  1.00  0.00     0.001 C 
ATOM     81  C   UNL A   1      30.176  27.515  24.214  1.00  0.00     0.014 C 
ATOM     82  C   UNL A   1      29.945  26.030  24.397  1.00  0.00     0.001 C 
BRANCH  79  83
ATOM     83  C   UNL A   1      32.485  27.890  23.209  1.00  0.00     0.228 C 
ATOM     84  O   UNL A   1      32.671  28.947  22.585  1.00  0.00    -0.274 OA
ATOM     85  N   UNL A   1      33.059  26.796  22.638  1.00  0.00    -0.326 N 
ATOM     86  H   UNL A   1      33.418  26.953  21.735  1.00  0.00     0.169 HD
BRANCH  85  87
ATOM     87  C   UNL A   1      33.228  25.496  23.102  1.00  0.00     0.042 A 
ATOM     88  C   UNL A   1      32.422  24.460  22.635  1.00  0.00     0.027 A 
ATOM     89  C   UNL A   1      34.308  25.209  23.938  1.00  0.00     0.047 A 
ATOM     90  C   UNL A   1      32.574  23.169  23.150  1.00  0.00     0.019 A 
ATOM     91  C   UNL A   1      34.475  23.916  24.446  1.00  0.00     0.057 A 
ATOM     92  C   UNL A   1      33.579  22.902  24.084  1.00  0.00     0.036 A 
ATOM     93  Cl  UNL A   1      35.795  23.651  25.529  1.00  0.00    -0.083 Cl
ATOM     94  Br  UNL A   1      33.639  21.161  24.838  1.00  0.00    -0.049 Br
ENDBRANCH  85  87
ENDBRANCH  79  83
ENDBRANCH  74  77
ENDBRANCH  72  73
ENDBRANCH  71  72
ENDBRANCH   1  71
TORSDOF 15
ENDMDL
MODEL 2
REMARK VINA RESULT:     -12.5      6.132     12.006
REMARK SMILES O=C(NCCCNC(=O)[C@H]1CCCC[C@@H]1C(=O)Nc1ccc(Br)c(Cl)c1)c1ccc(-c2c3nc(c(-c4cccc(S(=O)(=O)[O-])c4F)c4ccc([nH]4)c(-c4cccc(S(=O)(=O)[O-])c4F)c4nc(c(-c5cccc(S(=O)(=O)[O-])c5F)c5ccc2[nH]5)C=C4)C=C3)cc1
REMARK SMILES IDX 4 1 3 2 1 3 2 4 27 6 28 7 89 8 29 9 88 10 30 11 31 12 32 13
REMARK SMILES IDX 82 14 33 15 87 16 81 17 83 18 34 19 86 20 80 21 79 22 35 24
REMARK SMILES IDX 67 25 47 26 66 27 48 28 51 29 65 30 84 31 49 32 50 33 64 35
REMARK SMILES IDX 85 36 52 37 36 38 37 39 45 40 38 41 40 42 46 43 39 44 41 45
REMARK SMILES IDX 42 46 43 47 44 48 68 49 69 50 77 51 70 52 72 53 78 54 71 55
REMARK SMILES IDX 73 56 74 57 75 58 76 59 53 60 54 61 62 62 55 63 57 64 63 65
REMARK SMILES IDX 56 66 58 67 59 68 60 69 61 70 5 71 6 72 7 73 8 74 9 76 10 77
REMARK SMILES IDX 11 78 15 79 12 80 14 81 13 82 16 83 17 84 18 85 19 87 20 88
REMARK SMILES IDX 26 89 21 90 24 91 22 92 25 93 23 94
REMARK H PARENT 3 5 83 23 51 34 7 75 18 86
REMARK Flexibility Score: inf
ROOT
ATOM      1  C   UNL A   1      39.361  20.222  25.959  1.00  0.00     0.118 C 
ENDROOT
BRANCH   1   2
ATOM      2  N   UNL A   1      40.405  19.211  26.004  1.00  0.00    -0.352 N 
ATOM      3  O   UNL A   1      42.494  18.385  25.937  1.00  0.00    -0.269 OA
ATOM      4  C   UNL A   1      41.766  19.365  26.085  1.00  0.00     0.251 C 
ATOM      5  H   UNL A   1      40.090  18.278  25.971  1.00  0.00     0.163 HD
BRANCH   4   6
ATOM      6  C   UNL A   1      42.358  20.696  26.337  1.00  0.00     0.039 A 
ATOM      7  C   UNL A   1      42.501  21.124  27.661  1.00  0.00     0.014 A 
ATOM      8  C   UNL A   1      42.719  21.540  25.284  1.00  0.00     0.014 A 
ATOM      9  C   UNL A   1      43.024  22.392  27.927  1.00  0.00     0.010 A 
ATOM     10  C   UNL A   1      43.304  22.775  25.553  1.00  0.00     0.010 A 
ATOM     11  C   UNL A   1      43.435  23.225  26.875  1.00  0.00    -0.014 A 
BRANCH  11  12
ATOM     12  C   UNL A   1      43.936  24.598  27.136  1.00  0.00     0.031 A 
ATOM     13  C   UNL A   1      43.001  25.642  27.689  1.00  0.00     0.074 A 
ATOM     14  C   UNL A   1      45.209  24.924  26.837  1.00  0.00     0.049 A 
ATOM     15  N   UNL A   1      43.227  26.907  27.925  1.00  0.00    -0.248 NA
ATOM     16  C   UNL A   1      41.624  25.214  27.995  1.00  0.00     0.031 C 
ATOM     17  C   UNL A   1      46.198  24.020  26.247  1.00  0.00     0.029 A 
ATOM     18  N   UNL A   1      45.883  26.112  26.973  1.00  0.00    -0.354 N 
ATOM     19  C   UNL A   1      42.018  27.434  28.360  1.00  0.00     0.074 A 
ATOM     20  C   UNL A   1      41.052  26.359  28.336  1.00  0.00     0.031 C 
ATOM     21  C   UNL A   1      47.355  24.683  26.082  1.00  0.00     0.029 A 
ATOM     22  C   UNL A   1      47.184  26.064  26.528  1.00  0.00     0.049 A 
ATOM     23  H   UNL A   1      45.473  26.923  27.351  1.00  0.00     0.167 HD
ATOM     24  C   UNL A   1      41.742  28.692  28.774  1.00  0.00     0.034 A 
ATOM     25  C   UNL A   1      48.130  27.021  26.483  1.00  0.00     0.034 A 
ATOM     26  C   UNL A   1      42.718  29.738  28.876  1.00  0.00     0.049 A 
ATOM     27  C   UNL A   1      47.814  28.397  27.001  1.00  0.00     0.074 A 
ATOM     28  C   UNL A   1      42.552  31.017  29.378  1.00  0.00     0.029 A 
ATOM     29  N   UNL A   1      44.040  29.627  28.482  1.00  0.00    -0.354 N 
ATOM     30  N   UNL A   1      46.695  28.841  27.517  1.00  0.00    -0.248 NA
ATOM     31  C   UNL A   1      48.893  29.395  26.955  1.00  0.00     0.031 C 
ATOM     32  C   UNL A   1      43.776  31.683  29.281  1.00  0.00     0.029 A 
ATOM     33  C   UNL A   1      44.704  30.815  28.727  1.00  0.00     0.049 A 
ATOM     34  H   UNL A   1      44.447  28.822  28.086  1.00  0.00     0.167 HD
ATOM     35  C   UNL A   1      46.939  30.162  27.877  1.00  0.00     0.074 A 
ATOM     36  C   UNL A   1      48.317  30.443  27.532  1.00  0.00     0.031 C 
ATOM     37  C   UNL A   1      46.090  31.063  28.427  1.00  0.00     0.034 A 
BRANCH  24  38
ATOM     38  C   UNL A   1      40.339  28.996  29.221  1.00  0.00     0.023 A 
ATOM     39  C   UNL A   1      39.374  29.354  28.260  1.00  0.00     0.012 A 
ATOM     40  C   UNL A   1      39.957  28.837  30.567  1.00  0.00     0.148 A 
ATOM     41  C   UNL A   1      38.048  29.563  28.633  1.00  0.00     0.002 A 
ATOM     42  C   UNL A   1      38.628  29.016  30.926  1.00  0.00     0.091 A 
ATOM     43  F   UNL A   1      40.899  28.511  31.463  1.00  0.00    -0.205 F 
ATOM     44  C   UNL A   1      37.673  29.384  29.962  1.00  0.00     0.022 A 
BRANCH  42  45
ATOM     45  S   UNL A   1      38.026  28.755  32.598  1.00  0.00     0.127 S 
ATOM     46  O   UNL A   1      36.660  29.269  32.503  1.00  0.00    -0.237 OA
ATOM     47  O   UNL A   1      38.123  27.301  32.734  1.00  0.00    -0.237 OA
ATOM     48  O   UNL A   1      38.912  29.513  33.471  1.00  0.00    -0.744 OA
ENDBRANCH  42  45
ENDBRANCH  24  38
BRANCH  25  49
ATOM     49  C   UNL A   1      49.492  26.677  25.991  1.00  0.00     0.023 A 
ATOM     50  C   UNL A   1      50.323  25.863  26.785  1.00  0.00     0.012 A 
ATOM     51  C   UNL A   1      49.938  27.093  24.722  1.00  0.00     0.148 A 
ATOM     52  C   UNL A   1      51.581  25.473  26.324  1.00  0.00     0.002 A 
ATOM     53  C   UNL A   1      51.176  26.668  24.254  1.00  0.00     0.091 A 
ATOM     54  F   UNL A   1      49.128  27.871  23.990  1.00  0.00    -0.205 F 
ATOM     55  C   UNL A   1      52.003  25.866  25.057  1.00  0.00     0.022 A 
BRANCH  53  56
ATOM     56  S   UNL A   1      51.761  27.037  22.595  1.00  0.00     0.127 S 
ATOM     57  O   UNL A   1      52.102  28.457  22.711  1.00  0.00    -0.237 OA
ATOM     58  O   UNL A   1      52.915  26.139  22.482  1.00  0.00    -0.237 OA
ATOM     59  O   UNL A   1      50.661  26.728  21.704  1.00  0.00    -0.744 OA
ENDBRANCH  53  56
ENDBRANCH  25  49
BRANCH  37  60
ATOM     60  C   UNL A   1      46.606  32.444  28.714  1.00  0.00     0.023 A 
ATOM     61  C   UNL A   1      47.190  32.714  29.967  1.00  0.00     0.012 A 
ATOM     62  C   UNL A   1      46.647  33.421  27.700  1.00  0.00     0.148 A 
ATOM     63  C   UNL A   1      47.804  33.941  30.208  1.00  0.00     0.002 A 
ATOM     64  C   UNL A   1      47.292  34.629  27.937  1.00  0.00     0.091 A 
ATOM     65  F   UNL A   1      46.079  33.138  26.519  1.00  0.00    -0.205 F 
ATOM     66  C   UNL A   1      47.867  34.892  29.192  1.00  0.00     0.022 A 
BRANCH  64  67
ATOM     67  S   UNL A   1      47.495  35.884  26.668  1.00  0.00     0.127 S 
ATOM     68  O   UNL A   1      46.114  36.305  26.442  1.00  0.00    -0.237 OA
ATOM     69  O   UNL A   1      48.333  36.874  27.345  1.00  0.00    -0.237 OA
ATOM     70  O   UNL A   1      48.133  35.219  25.539  1.00  0.00    -0.744 OA
ENDBRANCH  64  67
ENDBRANCH  37  60
ENDBRANCH  11  12
ENDBRANCH   4   6
ENDBRANCH   1   2
BRANCH   1  71
ATOM     71  C   UNL A   1      38.173  19.811  25.084  1.00  0.00     0.042 C 
BRANCH  71  72
ATOM     72  C   UNL A   1      36.984  20.775  25.125  1.00  0.00     0.117 C 
BRANCH  72  73
ATOM     73  N   UNL A   1      37.172  21.843  24.167  1.00  0.00    -0.356 N 
ATOM     74  C   UNL A   1      36.259  22.668  23.602  1.00  0.00     0.223 C 
ATOM     75  H   UNL A   1      38.103  21.992  23.884  1.00  0.00     0.163 HD
ATOM     76  O   UNL A   1      36.522  23.089  22.475  1.00  0.00    -0.275 OA
BRANCH  74  77
ATOM     77  C   UNL A   1      35.014  23.112  24.379  1.00  0.00     0.091 C 
ATOM     78  C   UNL A   1      34.217  23.982  23.392  1.00  0.00     0.014 C 
ATOM     79  C   UNL A   1      34.244  21.918  24.959  1.00  0.00     0.091 C 
ATOM     80  C   UNL A   1      33.267  23.231  22.460  1.00  0.00     0.001 C 
ATOM     81  C   UNL A   1      33.405  21.169  23.921  1.00  0.00     0.014 C 
ATOM     82  C   UNL A   1      32.514  22.072  23.094  1.00  0.00     0.001 C 
BRANCH  79  83
ATOM     83  C   UNL A   1      33.507  22.045  26.309  1.00  0.00     0.228 C 
ATOM     84  O   UNL A   1      33.763  21.208  27.190  1.00  0.00    -0.274 OA
ATOM     85  N   UNL A   1      32.559  22.956  26.662  1.00  0.00    -0.326 N 
ATOM     86  H   UNL A   1      32.094  22.749  27.504  1.00  0.00     0.169 HD
BRANCH  85  87
ATOM     87  C   UNL A   1      32.131  24.126  26.046  1.00  0.00     0.042 A 
ATOM     88  C   UNL A   1      30.934  24.160  25.332  1.00  0.00     0.027 A 
ATOM     89  C   UNL A   1      32.839  25.308  26.266  1.00  0.00     0.047 A 
ATOM     90  C   UNL A   1      30.545  25.333  24.676  1.00  0.00     0.019 A 
ATOM     91  C   UNL A   1      32.447  26.489  25.625  1.00  0.00     0.057 A 
ATOM     92  C   UNL A   1      31.319  26.491  24.794  1.00  0.00     0.036 A 
ATOM     93  Cl  UNL A   1      33.411  27.897  25.892  1.00  0.00    -0.083 Cl
ATOM     94  Br  UNL A   1      30.801  28.003  23.770  1.00  0.00    -0.049 Br
ENDBRANCH  85  87
ENDBRANCH  79  83
ENDBRANCH  74  77
ENDBRANCH  72  73
ENDBRANCH  71  72
ENDBRANCH   1  71
TORSDOF 15
ENDMDL
MODEL 3
REMARK VINA RESULT:     -12.3      5.447      8.543
REMARK SMILES O=C(NCCCNC(=O)[C@H]1CCCC[C@@H]1C(=O)Nc1ccc(Br)c(Cl)c1)c1ccc(-c2c3nc(c(-c4cccc(S(=O)(=O)[O-])c4F)c4ccc([nH]4)c(-c4cccc(S(=O)(=O)[O-])c4F)c4nc(c(-c5cccc(S(=O)(=O)[O-])c5F)c5ccc2[nH]5)C=C4)C=C3)cc1
REMARK SMILES IDX 4 1 3 2 1 3 2 4 27 6 28 7 89 8 29 9 88 10 30 11 31 12 32 13
REMARK SMILES IDX 82 14 33 15 87 16 81 17 83 18 34 19 86 20 80 21 79 22 35 24
REMARK SMILES IDX 67 25 47 26 66 27 48 28 51 29 65 30 84 31 49 32 50 33 64 35
REMARK SMILES IDX 85 36 52 37 36 38 37 39 45 40 38 41 40 42 46 43 39 44 41 45
REMARK SMILES IDX 42 46 43 47 44 48 68 49 69 50 77 51 70 52 72 53 78 54 71 55
REMARK SMILES IDX 73 56 74 57 75 58 76 59 53 60 54 61 62 62 55 63 57 64 63 65
REMARK SMILES IDX 56 66 58 67 59 68 60 69 61 70 5 71 6 72 7 73 8 74 9 76 10 77
REMARK SMILES IDX 11 78 15 79 12 80 14 81 13 82 16 83 17 84 18 85 19 87 20 88
REMARK SMILES IDX 26 89 21 90 24 91 22 92 25 93 23 94
REMARK H PARENT 3 5 83 23 51 34 7 75 18 86
REMARK Flexibility Score: inf
ROOT
ATOM      1  C   UNL A   1      36.792  23.283  25.613  1.00  0.00     0.118 C 
ENDROOT
BRANCH   1   2
ATOM      2  N   UNL A   1      37.875  22.374  25.955  1.00  0.00    -0.352 N 
ATOM      3  O   UNL A   1      39.958  21.756  26.523  1.00  0.00    -0.269 OA
ATOM      4  C   UNL A   1      39.119  22.652  26.462  1.00  0.00     0.251 C 
ATOM      5  H   UNL A   1      37.688  21.419  25.801  1.00  0.00     0.163 HD
BRANCH   4   6
ATOM      6  C   UNL A   1      39.456  24.015  26.922  1.00  0.00     0.039 A 
ATOM      7  C   UNL A   1      40.039  24.904  26.013  1.00  0.00     0.014 A 
ATOM      8  C   UNL A   1      39.252  24.403  28.249  1.00  0.00     0.014 A 
ATOM      9  C   UNL A   1      40.400  26.187  26.432  1.00  0.00     0.010 A 
ATOM     10  C   UNL A   1      39.549  25.705  28.646  1.00  0.00     0.010 A 
ATOM     11  C   UNL A   1      40.154  26.599  27.750  1.00  0.00    -0.014 A 
BRANCH  11  12
ATOM     12  C   UNL A   1      40.585  27.936  28.228  1.00  0.00     0.031 A 
ATOM     13  C   UNL A   1      42.049  28.292  28.229  1.00  0.00     0.074 A 
ATOM     14  C   UNL A   1      39.679  28.813  28.704  1.00  0.00     0.049 A 
ATOM     15  N   UNL A   1      42.632  29.379  28.663  1.00  0.00    -0.248 NA
ATOM     16  C   UNL A   1      42.984  27.286  27.692  1.00  0.00     0.031 C 
ATOM     17  C   UNL A   1      38.239  28.569  28.806  1.00  0.00     0.029 A 
ATOM     18  N   UNL A   1      39.839  30.080  29.206  1.00  0.00    -0.354 N 
ATOM     19  C   UNL A   1      43.995  29.169  28.498  1.00  0.00     0.074 A 
ATOM     20  C   UNL A   1      44.159  27.845  27.942  1.00  0.00     0.031 C 
ATOM     21  C   UNL A   1      37.646  29.656  29.328  1.00  0.00     0.029 A 
ATOM     22  C   UNL A   1      38.664  30.662  29.622  1.00  0.00     0.049 A 
ATOM     23  H   UNL A   1      40.712  30.530  29.263  1.00  0.00     0.167 HD
ATOM     24  C   UNL A   1      45.019  30.016  28.753  1.00  0.00     0.034 A 
ATOM     25  C   UNL A   1      38.431  31.867  30.177  1.00  0.00     0.034 A 
ATOM     26  C   UNL A   1      44.853  31.360  29.226  1.00  0.00     0.049 A 
ATOM     27  C   UNL A   1      39.581  32.812  30.400  1.00  0.00     0.074 A 
ATOM     28  C   UNL A   1      45.826  32.325  29.421  1.00  0.00     0.029 A 
ATOM     29  N   UNL A   1      43.641  31.934  29.569  1.00  0.00    -0.354 N 
ATOM     30  N   UNL A   1      40.850  32.636  30.126  1.00  0.00    -0.248 NA
ATOM     31  C   UNL A   1      39.266  34.125  30.982  1.00  0.00     0.031 C 
ATOM     32  C   UNL A   1      45.200  33.483  29.888  1.00  0.00     0.029 A 
ATOM     33  C   UNL A   1      43.838  33.241  29.976  1.00  0.00     0.049 A 
ATOM     34  H   UNL A   1      42.768  31.479  29.528  1.00  0.00     0.167 HD
ATOM     35  C   UNL A   1      41.483  33.822  30.482  1.00  0.00     0.074 A 
ATOM     36  C   UNL A   1      40.456  34.714  30.979  1.00  0.00     0.031 C 
ATOM     37  C   UNL A   1      42.800  34.133  30.418  1.00  0.00     0.034 A 
BRANCH  24  38
ATOM     38  C   UNL A   1      46.415  29.544  28.457  1.00  0.00     0.023 A 
ATOM     39  C   UNL A   1      46.995  29.854  27.211  1.00  0.00     0.012 A 
ATOM     40  C   UNL A   1      47.180  28.883  29.437  1.00  0.00     0.148 A 
ATOM     41  C   UNL A   1      48.315  29.501  26.939  1.00  0.00     0.002 A 
ATOM     42  C   UNL A   1      48.504  28.562  29.169  1.00  0.00     0.091 A 
ATOM     43  F   UNL A   1      46.598  28.587  30.607  1.00  0.00    -0.205 F 
ATOM     44  C   UNL A   1      49.072  28.865  27.921  1.00  0.00     0.022 A 
BRANCH  42  45
ATOM     45  S   UNL A   1      49.585  27.796  30.383  1.00  0.00     0.127 S 
ATOM     46  O   UNL A   1      48.933  26.501  30.580  1.00  0.00    -0.237 OA
ATOM     47  O   UNL A   1      50.857  27.735  29.663  1.00  0.00    -0.237 OA
ATOM     48  O   UNL A   1      49.578  28.674  31.544  1.00  0.00    -0.744 OA
ENDBRANCH  42  45
ENDBRANCH  24  38
BRANCH  25  49
ATOM     49  C   UNL A   1      37.033  32.268  30.490  1.00  0.00     0.023 A 
ATOM     50  C   UNL A   1      36.542  32.082  31.797  1.00  0.00     0.012 A 
ATOM     51  C   UNL A   1      36.217  32.893  29.527  1.00  0.00     0.148 A 
ATOM     52  C   UNL A   1      35.256  32.504  32.138  1.00  0.00     0.002 A 
ATOM     53  C   UNL A   1      34.953  33.346  29.884  1.00  0.00     0.091 A 
ATOM     54  F   UNL A   1      36.709  33.053  28.290  1.00  0.00    -0.205 F 
ATOM     55  C   UNL A   1      34.467  33.144  31.186  1.00  0.00     0.022 A 
BRANCH  53  56
ATOM     56  S   UNL A   1      33.903  34.272  28.758  1.00  0.00     0.127 S 
ATOM     57  O   UNL A   1      33.533  33.243  27.784  1.00  0.00    -0.237 OA
ATOM     58  O   UNL A   1      32.815  34.693  29.646  1.00  0.00    -0.237 OA
ATOM     59  O   UNL A   1      34.722  35.353  28.246  1.00  0.00    -0.744 OA
ENDBRANCH  53  56
ENDBRANCH  25  49
BRANCH  37  60
ATOM     60  C   UNL A   1      43.232  35.497  30.878  1.00  0.00     0.023 A 
ATOM     61  C   UNL A   1      43.700  35.661  32.196  1.00  0.00     0.012 A 
ATOM     62  C   UNL A   1      43.314  36.569  29.969  1.00  0.00     0.148 A 
ATOM     63  C   UNL A   1      44.240  36.879  32.605  1.00  0.00     0.002 A 
ATOM     64  C   UNL A   1      43.885  37.770  30.374  1.00  0.00     0.091 A 
ATOM     65  F   UNL A   1      42.855  36.385  28.723  1.00  0.00    -0.205 F 
ATOM     66  C   UNL A   1      44.345  37.927  31.692  1.00  0.00     0.022 A 
BRANCH  64  67
ATOM     67  S   UNL A   1      44.137  39.150  29.252  1.00  0.00     0.127 S 
ATOM     68  O   UNL A   1      44.985  38.547  28.225  1.00  0.00    -0.237 OA
ATOM     69  O   UNL A   1      42.772  39.449  28.819  1.00  0.00    -0.237 OA
ATOM     70  O   UNL A   1      44.769  40.201  30.038  1.00  0.00    -0.744 OA
ENDBRANCH  64  67
ENDBRANCH  37  60
ENDBRANCH  11  12
ENDBRANCH   4   6
ENDBRANCH   1   2
BRANCH   1  71
ATOM     71  C   UNL A   1      36.473  23.291  24.115  1.00  0.00     0.042 C 
BRANCH  71  72
ATOM     72  C   UNL A   1      34.990  23.461  23.776  1.00  0.00     0.117 C 
BRANCH  72  73
ATOM     73  N   UNL A   1      34.708  24.839  23.438  1.00  0.00    -0.356 N 
ATOM     74  C   UNL A   1      33.691  25.636  23.840  1.00  0.00     0.223 C 
ATOM     75  H   UNL A   1      35.353  25.260  22.825  1.00  0.00     0.163 HD
ATOM     76  O   UNL A   1      33.340  26.518  23.055  1.00  0.00    -0.275 OA
BRANCH  74  77
ATOM     77  C   UNL A   1      33.083  25.489  25.240  1.00  0.00     0.091 C 
ATOM     78  C   UNL A   1      33.780  26.563  26.093  1.00  0.00     0.014 C 
ATOM     79  C   UNL A   1      31.551  25.577  25.212  1.00  0.00     0.091 C 
ATOM     80  C   UNL A   1      33.151  27.955  26.055  1.00  0.00     0.001 C 
ATOM     81  C   UNL A   1      31.023  27.006  25.065  1.00  0.00     0.014 C 
ATOM     82  C   UNL A   1      31.630  27.982  26.052  1.00  0.00     0.001 C 
BRANCH  79  83
ATOM     83  C   UNL A   1      30.703  24.751  26.202  1.00  0.00     0.228 C 
ATOM     84  O   UNL A   1      29.664  25.266  26.646  1.00  0.00    -0.274 OA
ATOM     85  N   UNL A   1      30.967  23.510  26.698  1.00  0.00    -0.326 N 
ATOM     86  H   UNL A   1      30.389  23.244  27.448  1.00  0.00     0.169 HD
BRANCH  85  87
ATOM     87  C   UNL A   1      31.907  22.554  26.333  1.00  0.00     0.042 A 
ATOM     88  C   UNL A   1      33.007  22.287  27.147  1.00  0.00     0.027 A 
ATOM     89  C   UNL A   1      31.669  21.760  25.211  1.00  0.00     0.047 A 
ATOM     90  C   UNL A   1      33.969  21.356  26.740  1.00  0.00     0.019 A 
ATOM     91  C   UNL A   1      32.619  20.817  24.806  1.00  0.00     0.057 A 
ATOM     92  C   UNL A   1      33.794  20.644  25.549  1.00  0.00     0.036 A 
ATOM     93  Cl  UNL A   1      32.286  19.917  23.369  1.00  0.00    -0.083 Cl
ATOM     94  Br  UNL A   1      35.202  19.500  24.995  1.00  0.00    -0.049 Br
ENDBRANCH  85  87
ENDBRANCH  79  83
ENDBRANCH  74  77
ENDBRANCH  72  73
ENDBRANCH  71  72
ENDBRANCH   1  71
TORSDOF 15
ENDMDL
