MODEL 1
REMARK VINA RESULT:     -12.4      0.000      0.000
REMARK SMILES O=C(NCCCNC(=O)[C@H]1CC[C@@H](C[NH2+][C@H]2CCC[C@H](C3CC3)C2)CC1)c1ccc(-c2c3nc(c(-c4cccc(S(=O)(=O)[O-])c4F)c4ccc([nH]4)c(-c4cccc(S(=O)(=O)[O-])c4F)c4nc(c(-c5cccc(S(=O)(=O)[O-])c5F)c5ccc2[nH]5)C=C4)C=C3)cc1
REMARK SMILES IDX 5 1 4 2 3 3 1 4 2 5 27 7 28 8 89 9 29 10 88 11 30 12 31 13
REMARK SMILES IDX 32 14 82 15 33 16 87 17 81 18 83 19 34 20 86 21 80 22 79 23
REMARK SMILES IDX 35 25 67 26 47 27 66 28 48 29 51 30 65 31 84 32 49 33 50 34
REMARK SMILES IDX 64 36 85 37 52 38 36 39 37 40 45 41 38 42 40 43 46 44 39 45
REMARK SMILES IDX 41 46 42 47 43 48 44 49 68 50 69 51 77 52 70 53 72 54 78 55
REMARK SMILES IDX 71 56 73 57 74 58 75 59 76 60 53 61 54 62 62 63 55 64 57 65
REMARK SMILES IDX 63 66 56 67 58 68 59 69 60 70 61 71 6 72 7 73 8 74 9 76
REMARK SMILES IDX 10 77 26 78 11 79 25 80 12 81 13 82 14 83 15 84 16 87 17 88
REMARK SMILES IDX 24 89 18 90 20 91 19 92 21 93 22 94 23 95
REMARK H PARENT 3 6 83 24 51 35 7 75 15 85 15 86
REMARK Flexibility Score: inf
ROOT
ATOM      1  C   UNL A   1      34.436  21.837  26.669  1.00  0.00     0.042 C 
ENDROOT
BRANCH   1   2
ATOM      2  C   UNL A   1      35.745  22.368  26.087  1.00  0.00     0.118 C 
BRANCH   2   3
ATOM      3  N   UNL A   1      36.720  21.306  25.874  1.00  0.00    -0.352 N 
ATOM      4  O   UNL A   1      38.684  20.343  25.389  1.00  0.00    -0.269 OA
ATOM      5  C   UNL A   1      38.098  21.330  25.825  1.00  0.00     0.251 C 
ATOM      6  H   UNL A   1      36.326  20.413  25.742  1.00  0.00     0.163 HD
BRANCH   5   7
ATOM      7  C   UNL A   1      38.874  22.518  26.261  1.00  0.00     0.039 A 
ATOM      8  C   UNL A   1      38.499  23.804  25.888  1.00  0.00     0.014 A 
ATOM      9  C   UNL A   1      39.971  22.354  27.117  1.00  0.00     0.014 A 
ATOM     10  C   UNL A   1      39.321  24.885  26.196  1.00  0.00     0.010 A 
ATOM     11  C   UNL A   1      40.720  23.467  27.538  1.00  0.00     0.010 A 
ATOM     12  C   UNL A   1      40.428  24.747  27.052  1.00  0.00    -0.014 A 
BRANCH  12  13
ATOM     13  C   UNL A   1      41.166  25.978  27.474  1.00  0.00     0.031 A 
ATOM     14  C   UNL A   1      42.580  26.274  27.036  1.00  0.00     0.074 A 
ATOM     15  C   UNL A   1      40.518  26.873  28.253  1.00  0.00     0.049 A 
ATOM     16  N   UNL A   1      43.313  27.331  27.293  1.00  0.00    -0.248 NA
ATOM     17  C   UNL A   1      43.270  25.262  26.220  1.00  0.00     0.031 C 
ATOM     18  C   UNL A   1      39.176  26.683  28.812  1.00  0.00     0.029 A 
ATOM     19  N   UNL A   1      40.880  28.121  28.696  1.00  0.00    -0.354 N 
ATOM     20  C   UNL A   1      44.555  27.097  26.713  1.00  0.00     0.074 A 
ATOM     21  C   UNL A   1      44.482  25.789  26.095  1.00  0.00     0.031 C 
ATOM     22  C   UNL A   1      38.800  27.793  29.458  1.00  0.00     0.029 A 
ATOM     23  C   UNL A   1      39.907  28.740  29.447  1.00  0.00     0.049 A 
ATOM     24  H   UNL A   1      41.752  28.534  28.497  1.00  0.00     0.167 HD
ATOM     25  C   UNL A   1      45.649  27.899  26.681  1.00  0.00     0.034 A 
ATOM     26  C   UNL A   1      39.899  29.925  30.088  1.00  0.00     0.034 A 
ATOM     27  C   UNL A   1      45.712  29.216  27.267  1.00  0.00     0.049 A 
ATOM     28  C   UNL A   1      41.109  30.805  29.999  1.00  0.00     0.074 A 
ATOM     29  C   UNL A   1      46.764  30.119  27.246  1.00  0.00     0.029 A 
ATOM     30  N   UNL A   1      44.690  29.822  27.982  1.00  0.00    -0.354 N 
ATOM     31  N   UNL A   1      42.230  30.602  29.352  1.00  0.00    -0.248 NA
ATOM     32  C   UNL A   1      41.044  32.088  30.709  1.00  0.00     0.031 C 
ATOM     33  C   UNL A   1      46.385  31.259  27.963  1.00  0.00     0.029 A 
ATOM     34  C   UNL A   1      45.085  31.082  28.406  1.00  0.00     0.049 A 
ATOM     35  H   UNL A   1      43.811  29.416  28.163  1.00  0.00     0.167 HD
ATOM     36  C   UNL A   1      43.000  31.736  29.568  1.00  0.00     0.074 A 
ATOM     37  C   UNL A   1      42.197  32.642  30.363  1.00  0.00     0.031 C 
ATOM     38  C   UNL A   1      44.269  31.993  29.166  1.00  0.00     0.034 A 
BRANCH  25  39
ATOM     39  C   UNL A   1      46.874  27.408  25.944  1.00  0.00     0.023 A 
ATOM     40  C   UNL A   1      47.740  26.490  26.573  1.00  0.00     0.012 A 
ATOM     41  C   UNL A   1      47.111  27.769  24.602  1.00  0.00     0.148 A 
ATOM     42  C   UNL A   1      48.833  25.959  25.890  1.00  0.00     0.002 A 
ATOM     43  C   UNL A   1      48.180  27.203  23.913  1.00  0.00     0.091 A 
ATOM     44  F   UNL A   1      46.285  28.650  24.021  1.00  0.00    -0.205 F 
ATOM     45  C   UNL A   1      49.047  26.306  24.558  1.00  0.00     0.022 A 
BRANCH  43  46
ATOM     46  S   UNL A   1      48.497  27.517  22.172  1.00  0.00     0.127 S 
ATOM     47  O   UNL A   1      48.740  26.166  21.668  1.00  0.00    -0.237 OA
ATOM     48  O   UNL A   1      47.235  28.114  21.732  1.00  0.00    -0.237 OA
ATOM     49  O   UNL A   1      49.644  28.413  22.125  1.00  0.00    -0.744 OA
ENDBRANCH  43  46
ENDBRANCH  25  39
BRANCH  26  50
ATOM     50  C   UNL A   1      38.698  30.337  30.868  1.00  0.00     0.023 A 
ATOM     51  C   UNL A   1      38.618  30.051  32.243  1.00  0.00     0.012 A 
ATOM     52  C   UNL A   1      37.648  31.046  30.251  1.00  0.00     0.148 A 
ATOM     53  C   UNL A   1      37.498  30.435  32.983  1.00  0.00     0.002 A 
ATOM     54  C   UNL A   1      36.573  31.490  31.008  1.00  0.00     0.091 A 
ATOM     55  F   UNL A   1      37.731  31.293  28.936  1.00  0.00    -0.205 F 
ATOM     56  C   UNL A   1      36.483  31.167  32.370  1.00  0.00     0.022 A 
BRANCH  54  57
ATOM     57  S   UNL A   1      35.318  32.578  30.327  1.00  0.00     0.127 S 
ATOM     58  O   UNL A   1      34.833  31.800  29.190  1.00  0.00    -0.237 OA
ATOM     59  O   UNL A   1      34.376  32.694  31.441  1.00  0.00    -0.237 OA
ATOM     60  O   UNL A   1      36.012  33.817  30.005  1.00  0.00    -0.744 OA
ENDBRANCH  54  57
ENDBRANCH  26  50
BRANCH  38  61
ATOM     61  C   UNL A   1      44.857  33.321  29.566  1.00  0.00     0.023 A 
ATOM     62  C   UNL A   1      45.587  33.430  30.768  1.00  0.00     0.012 A 
ATOM     63  C   UNL A   1      44.699  34.456  28.749  1.00  0.00     0.148 A 
ATOM     64  C   UNL A   1      46.108  34.659  31.173  1.00  0.00     0.002 A 
ATOM     65  C   UNL A   1      45.265  35.665  29.133  1.00  0.00     0.091 A 
ATOM     66  F   UNL A   1      43.983  34.338  27.620  1.00  0.00    -0.205 F 
ATOM     67  C   UNL A   1      45.955  35.774  30.352  1.00  0.00     0.022 A 
BRANCH  65  68
ATOM     68  S   UNL A   1      45.193  37.132  28.099  1.00  0.00     0.127 S 
ATOM     69  O   UNL A   1      45.868  36.674  26.886  1.00  0.00    -0.237 OA
ATOM     70  O   UNL A   1      43.752  37.339  27.955  1.00  0.00    -0.237 OA
ATOM     71  O   UNL A   1      45.881  38.179  28.842  1.00  0.00    -0.744 OA
ENDBRANCH  65  68
ENDBRANCH  38  61
ENDBRANCH  12  13
ENDBRANCH   5   7
ENDBRANCH   2   3
ENDBRANCH   1   2
BRANCH   1  72
ATOM     72  C   UNL A   1      33.328  22.884  26.608  1.00  0.00     0.117 C 
BRANCH  72  73
ATOM     73  N   UNL A   1      33.341  23.573  25.327  1.00  0.00    -0.356 N 
ATOM     74  C   UNL A   1      33.224  24.864  24.938  1.00  0.00     0.223 C 
ATOM     75  H   UNL A   1      33.464  22.958  24.568  1.00  0.00     0.163 HD
ATOM     76  O   UNL A   1      33.117  25.020  23.713  1.00  0.00    -0.275 OA
BRANCH  74  77
ATOM     77  C   UNL A   1      33.340  26.091  25.865  1.00  0.00     0.078 C 
ATOM     78  C   UNL A   1      33.951  27.243  25.025  1.00  0.00     0.014 C 
ATOM     79  C   UNL A   1      32.078  26.525  26.618  1.00  0.00     0.014 C 
ATOM     80  C   UNL A   1      33.966  28.600  25.727  1.00  0.00     0.010 C 
ATOM     81  C   UNL A   1      32.139  27.919  27.241  1.00  0.00     0.010 C 
ATOM     82  C   UNL A   1      32.579  28.996  26.255  1.00  0.00     0.044 C 
BRANCH  82  83
ATOM     83  C   UNL A   1      31.606  29.197  25.075  1.00  0.00     0.264 C 
BRANCH  83  84
ATOM     84  N   UNL A   1      32.233  29.340  23.773  1.00  0.00    -0.344 N 
ATOM     85  H   UNL A   1      33.131  28.858  23.806  1.00  0.00     0.346 HD
ATOM     86  H   UNL A   1      32.301  30.346  23.613  1.00  0.00     0.346 HD
BRANCH  84  87
ATOM     87  C   UNL A   1      31.478  28.807  22.619  1.00  0.00     0.182 C 
ATOM     88  C   UNL A   1      31.081  27.318  22.630  1.00  0.00     0.065 C 
ATOM     89  C   UNL A   1      30.244  29.653  22.270  1.00  0.00     0.069 C 
ATOM     90  C   UNL A   1      29.875  26.982  23.510  1.00  0.00     0.006 C 
ATOM     91  C   UNL A   1      29.023  29.396  23.167  1.00  0.00    -0.002 C 
ATOM     92  C   UNL A   1      28.685  27.899  23.255  1.00  0.00     0.004 C 
BRANCH  91  93
ATOM     93  C   UNL A   1      27.869  30.246  22.667  1.00  0.00    -0.008 C 
ATOM     94  C   UNL A   1      27.473  31.599  23.225  1.00  0.00     0.004 C 
ATOM     95  C   UNL A   1      28.148  31.498  21.891  1.00  0.00     0.004 C 
ENDBRANCH  91  93
ENDBRANCH  84  87
ENDBRANCH  83  84
ENDBRANCH  82  83
ENDBRANCH  74  77
ENDBRANCH  72  73
ENDBRANCH   1  72
TORSDOF 17
ENDMDL
MODEL 2
REMARK VINA RESULT:     -12.2      1.593      2.066
REMARK SMILES O=C(NCCCNC(=O)[C@H]1CC[C@@H](C[NH2+][C@H]2CCC[C@H](C3CC3)C2)CC1)c1ccc(-c2c3nc(c(-c4cccc(S(=O)(=O)[O-])c4F)c4ccc([nH]4)c(-c4cccc(S(=O)(=O)[O-])c4F)c4nc(c(-c5cccc(S(=O)(=O)[O-])c5F)c5ccc2[nH]5)C=C4)C=C3)cc1
REMARK SMILES IDX 5 1 4 2 3 3 1 4 2 5 27 7 28 8 89 9 29 10 88 11 30 12 31 13
REMARK SMILES IDX 32 14 82 15 33 16 87 17 81 18 83 19 34 20 86 21 80 22 79 23
REMARK SMILES IDX 35 25 67 26 47 27 66 28 48 29 51 30 65 31 84 32 49 33 50 34
REMARK SMILES IDX 64 36 85 37 52 38 36 39 37 40 45 41 38 42 40 43 46 44 39 45
REMARK SMILES IDX 41 46 42 47 43 48 44 49 68 50 69 51 77 52 70 53 72 54 78 55
REMARK SMILES IDX 71 56 73 57 74 58 75 59 76 60 53 61 54 62 62 63 55 64 57 65
REMARK SMILES IDX 63 66 56 67 58 68 59 69 60 70 61 71 6 72 7 73 8 74 9 76
REMARK SMILES IDX 10 77 26 78 11 79 25 80 12 81 13 82 14 83 15 84 16 87 17 88
REMARK SMILES IDX 24 89 18 90 20 91 19 92 21 93 22 94 23 95
REMARK H PARENT 3 6 83 24 51 35 7 75 15 85 15 86
REMARK Flexibility Score: inf
ROOT
ATOM      1  C   UNL A   1      35.019  22.251  26.998  1.00  0.00     0.042 C 
ENDROOT
BRANCH   1   2
ATOM      2  C   UNL A   1      35.801  22.257  25.685  1.00  0.00     0.118 C 
BRANCH   2   3
ATOM      3  N   UNL A   1      36.754  21.156  25.610  1.00  0.00    -0.352 N 
ATOM      4  O   UNL A   1      38.719  20.110  25.357  1.00  0.00    -0.269 OA
ATOM      5  C   UNL A   1      38.129  21.133  25.695  1.00  0.00     0.251 C 
ATOM      6  H   UNL A   1      36.342  20.272  25.475  1.00  0.00     0.163 HD
BRANCH   5   7
ATOM      7  C   UNL A   1      38.903  22.313  26.158  1.00  0.00     0.039 A 
ATOM      8  C   UNL A   1      38.511  23.607  25.834  1.00  0.00     0.014 A 
ATOM      9  C   UNL A   1      40.015  22.131  26.991  1.00  0.00     0.014 A 
ATOM     10  C   UNL A   1      39.328  24.685  26.164  1.00  0.00     0.010 A 
ATOM     11  C   UNL A   1      40.761  23.236  27.436  1.00  0.00     0.010 A 
ATOM     12  C   UNL A   1      40.450  24.529  26.997  1.00  0.00    -0.014 A 
BRANCH  12  13
ATOM     13  C   UNL A   1      41.185  25.751  27.449  1.00  0.00     0.031 A 
ATOM     14  C   UNL A   1      42.612  26.041  27.052  1.00  0.00     0.074 A 
ATOM     15  C   UNL A   1      40.522  26.646  28.215  1.00  0.00     0.049 A 
ATOM     16  N   UNL A   1      43.346  27.090  27.337  1.00  0.00    -0.248 NA
ATOM     17  C   UNL A   1      43.318  25.029  26.249  1.00  0.00     0.031 C 
ATOM     18  C   UNL A   1      39.163  26.462  28.734  1.00  0.00     0.029 A 
ATOM     19  N   UNL A   1      40.879  27.888  28.676  1.00  0.00    -0.354 N 
ATOM     20  C   UNL A   1      44.602  26.851  26.790  1.00  0.00     0.074 A 
ATOM     21  C   UNL A   1      44.537  25.548  26.161  1.00  0.00     0.031 C 
ATOM     22  C   UNL A   1      38.777  27.570  29.377  1.00  0.00     0.029 A 
ATOM     23  C   UNL A   1      39.890  28.509  29.404  1.00  0.00     0.049 A 
ATOM     24  H   UNL A   1      41.759  28.296  28.505  1.00  0.00     0.167 HD
ATOM     25  C   UNL A   1      45.702  27.646  26.794  1.00  0.00     0.034 A 
ATOM     26  C   UNL A   1      39.873  29.690  30.052  1.00  0.00     0.034 A 
ATOM     27  C   UNL A   1      45.757  28.958  27.391  1.00  0.00     0.049 A 
ATOM     28  C   UNL A   1      41.090  30.562  30.004  1.00  0.00     0.074 A 
ATOM     29  C   UNL A   1      46.815  29.854  27.405  1.00  0.00     0.029 A 
ATOM     30  N   UNL A   1      44.719  29.567  28.081  1.00  0.00    -0.354 N 
ATOM     31  N   UNL A   1      42.227  30.355  29.387  1.00  0.00    -0.248 NA
ATOM     32  C   UNL A   1      41.014  31.841  30.720  1.00  0.00     0.031 C 
ATOM     33  C   UNL A   1      46.425  30.992  28.118  1.00  0.00     0.029 A 
ATOM     34  C   UNL A   1      45.111  30.821  28.524  1.00  0.00     0.049 A 
ATOM     35  H   UNL A   1      43.833  29.166  28.234  1.00  0.00     0.167 HD
ATOM     36  C   UNL A   1      42.999  31.482  29.632  1.00  0.00     0.074 A 
ATOM     37  C   UNL A   1      42.180  32.389  30.410  1.00  0.00     0.031 C 
ATOM     38  C   UNL A   1      44.280  31.733  29.267  1.00  0.00     0.034 A 
BRANCH  25  39
ATOM     39  C   UNL A   1      46.943  27.151  26.089  1.00  0.00     0.023 A 
ATOM     40  C   UNL A   1      47.108  27.409  24.712  1.00  0.00     0.012 A 
ATOM     41  C   UNL A   1      47.988  26.528  26.801  1.00  0.00     0.148 A 
ATOM     42  C   UNL A   1      48.277  27.035  24.052  1.00  0.00     0.002 A 
ATOM     43  C   UNL A   1      49.169  26.194  26.144  1.00  0.00     0.091 A 
ATOM     44  F   UNL A   1      47.812  26.280  28.107  1.00  0.00    -0.205 F 
ATOM     45  C   UNL A   1      49.311  26.438  24.769  1.00  0.00     0.022 A 
BRANCH  43  46
ATOM     46  S   UNL A   1      50.594  25.498  26.991  1.00  0.00     0.127 S 
ATOM     47  O   UNL A   1      51.486  25.202  25.870  1.00  0.00    -0.237 OA
ATOM     48  O   UNL A   1      51.026  26.613  27.834  1.00  0.00    -0.237 OA
ATOM     49  O   UNL A   1      50.104  24.337  27.718  1.00  0.00    -0.744 OA
ENDBRANCH  43  46
ENDBRANCH  25  39
BRANCH  26  50
ATOM     50  C   UNL A   1      38.653  30.106  30.801  1.00  0.00     0.023 A 
ATOM     51  C   UNL A   1      38.513  29.774  32.161  1.00  0.00     0.012 A 
ATOM     52  C   UNL A   1      37.645  30.863  30.171  1.00  0.00     0.148 A 
ATOM     53  C   UNL A   1      37.376  30.161  32.872  1.00  0.00     0.002 A 
ATOM     54  C   UNL A   1      36.552  31.308  30.904  1.00  0.00     0.091 A 
ATOM     55  F   UNL A   1      37.784  31.153  28.870  1.00  0.00    -0.205 F 
ATOM     56  C   UNL A   1      36.403  30.939  32.249  1.00  0.00     0.022 A 
BRANCH  54  57
ATOM     57  S   UNL A   1      35.351  32.450  30.215  1.00  0.00     0.127 S 
ATOM     58  O   UNL A   1      34.449  32.653  31.346  1.00  0.00    -0.237 OA
ATOM     59  O   UNL A   1      36.186  33.604  29.877  1.00  0.00    -0.237 OA
ATOM     60  O   UNL A   1      34.785  31.768  29.060  1.00  0.00    -0.744 OA
ENDBRANCH  54  57
ENDBRANCH  26  50
BRANCH  38  61
ATOM     61  C   UNL A   1      44.866  33.054  29.693  1.00  0.00     0.023 A 
ATOM     62  C   UNL A   1      45.552  33.153  30.921  1.00  0.00     0.012 A 
ATOM     63  C   UNL A   1      44.751  34.192  28.873  1.00  0.00     0.148 A 
ATOM     64  C   UNL A   1      46.069  34.375  31.349  1.00  0.00     0.002 A 
ATOM     65  C   UNL A   1      45.314  35.395  29.282  1.00  0.00     0.091 A 
ATOM     66  F   UNL A   1      44.076  34.084  27.718  1.00  0.00    -0.205 F 
ATOM     67  C   UNL A   1      45.958  35.494  30.526  1.00  0.00     0.022 A 
BRANCH  65  68
ATOM     68  S   UNL A   1      45.295  36.864  28.249  1.00  0.00     0.127 S 
ATOM     69  O   UNL A   1      43.870  37.183  28.209  1.00  0.00    -0.237 OA
ATOM     70  O   UNL A   1      46.109  37.800  29.027  1.00  0.00    -0.237 OA
ATOM     71  O   UNL A   1      45.886  36.467  26.978  1.00  0.00    -0.744 OA
ENDBRANCH  65  68
ENDBRANCH  38  61
ENDBRANCH  12  13
ENDBRANCH   5   7
ENDBRANCH   2   3
ENDBRANCH   1   2
BRANCH   1  72
ATOM     72  C   UNL A   1      33.764  21.389  26.900  1.00  0.00     0.117 C 
BRANCH  72  73
ATOM     73  N   UNL A   1      32.575  22.176  27.187  1.00  0.00    -0.356 N 
ATOM     74  C   UNL A   1      32.097  23.370  26.767  1.00  0.00     0.223 C 
ATOM     75  H   UNL A   1      31.980  21.737  27.837  1.00  0.00     0.163 HD
ATOM     76  O   UNL A   1      31.107  23.773  27.392  1.00  0.00    -0.275 OA
BRANCH  74  77
ATOM     77  C   UNL A   1      32.606  24.154  25.539  1.00  0.00     0.078 C 
ATOM     78  C   UNL A   1      31.366  24.506  24.675  1.00  0.00     0.014 C 
ATOM     79  C   UNL A   1      33.497  25.373  25.803  1.00  0.00     0.014 C 
ATOM     80  C   UNL A   1      31.654  25.450  23.509  1.00  0.00     0.010 C 
ATOM     81  C   UNL A   1      33.691  26.308  24.610  1.00  0.00     0.010 C 
ATOM     82  C   UNL A   1      32.376  26.728  23.961  1.00  0.00     0.044 C 
BRANCH  82  83
ATOM     83  C   UNL A   1      31.457  27.550  24.887  1.00  0.00     0.264 C 
BRANCH  83  84
ATOM     84  N   UNL A   1      30.953  28.788  24.320  1.00  0.00    -0.344 N 
ATOM     85  H   UNL A   1      31.751  29.405  24.164  1.00  0.00     0.346 HD
ATOM     86  H   UNL A   1      30.276  29.141  24.997  1.00  0.00     0.346 HD
BRANCH  84  87
ATOM     87  C   UNL A   1      30.215  28.674  23.044  1.00  0.00     0.182 C 
ATOM     88  C   UNL A   1      29.111  27.605  22.932  1.00  0.00     0.065 C 
ATOM     89  C   UNL A   1      29.662  30.020  22.551  1.00  0.00     0.069 C 
ATOM     90  C   UNL A   1      27.789  27.975  23.605  1.00  0.00     0.006 C 
ATOM     91  C   UNL A   1      28.365  30.467  23.244  1.00  0.00    -0.002 C 
ATOM     92  C   UNL A   1      27.295  29.363  23.215  1.00  0.00     0.004 C 
BRANCH  91  93
ATOM     93  C   UNL A   1      27.904  31.769  22.614  1.00  0.00    -0.008 C 
ATOM     94  C   UNL A   1      28.498  33.134  22.895  1.00  0.00     0.004 C 
ATOM     95  C   UNL A   1      28.766  32.447  21.592  1.00  0.00     0.004 C 
ENDBRANCH  91  93
ENDBRANCH  84  87
ENDBRANCH  83  84
ENDBRANCH  82  83
ENDBRANCH  74  77
ENDBRANCH  72  73
ENDBRANCH   1  72
TORSDOF 17
ENDMDL
MODEL 3
REMARK VINA RESULT:     -12.2      5.126      9.910
REMARK SMILES O=C(NCCCNC(=O)[C@H]1CC[C@@H](C[NH2+][C@H]2CCC[C@H](C3CC3)C2)CC1)c1ccc(-c2c3nc(c(-c4cccc(S(=O)(=O)[O-])c4F)c4ccc([nH]4)c(-c4cccc(S(=O)(=O)[O-])c4F)c4nc(c(-c5cccc(S(=O)(=O)[O-])c5F)c5ccc2[nH]5)C=C4)C=C3)cc1
REMARK SMILES IDX 5 1 4 2 3 3 1 4 2 5 27 7 28 8 89 9 29 10 88 11 30 12 31 13
REMARK SMILES IDX 32 14 82 15 33 16 87 17 81 18 83 19 34 20 86 21 80 22 79 23
REMARK SMILES IDX 35 25 67 26 47 27 66 28 48 29 51 30 65 31 84 32 49 33 50 34
REMARK SMILES IDX 64 36 85 37 52 38 36 39 37 40 45 41 38 42 40 43 46 44 39 45
REMARK SMILES IDX 41 46 42 47 43 48 44 49 68 50 69 51 77 52 70 53 72 54 78 55
REMARK SMILES IDX 71 56 73 57 74 58 75 59 76 60 53 61 54 62 62 63 55 64 57 65
REMARK SMILES IDX 63 66 56 67 58 68 59 69 60 70 61 71 6 72 7 73 8 74 9 76
REMARK SMILES IDX 10 77 26 78 11 79 25 80 12 81 13 82 14 83 15 84 16 87 17 88
REMARK SMILES IDX 24 89 18 90 20 91 19 92 21 93 22 94 23 95
REMARK H PARENT 3 6 83 24 51 35 7 75 15 85 15 86
REMARK Flexibility Score: inf
ROOT
ATOM      1  C   UNL A   1      33.201  28.712  24.777  1.00  0.00     0.042 C 
ENDROOT
BRANCH   1   2
ATOM      2  C   UNL A   1      34.119  28.914  25.981  1.00  0.00     0.118 C 
BRANCH   2   3
ATOM      3  N   UNL A   1      33.842  30.163  26.678  1.00  0.00    -0.352 N 
ATOM      4  O   UNL A   1      33.909  31.708  28.299  1.00  0.00    -0.269 OA
ATOM      5  C   UNL A   1      34.480  30.780  27.733  1.00  0.00     0.251 C 
ATOM      6  H   UNL A   1      33.060  30.654  26.335  1.00  0.00     0.163 HD
BRANCH   5   7
ATOM      7  C   UNL A   1      35.816  30.336  28.204  1.00  0.00     0.039 A 
ATOM      8  C   UNL A   1      36.979  30.707  27.537  1.00  0.00     0.014 A 
ATOM      9  C   UNL A   1      35.922  29.580  29.379  1.00  0.00     0.014 A 
ATOM     10  C   UNL A   1      38.203  30.165  27.918  1.00  0.00     0.010 A 
ATOM     11  C   UNL A   1      37.178  29.148  29.839  1.00  0.00     0.010 A 
ATOM     12  C   UNL A   1      38.336  29.402  29.093  1.00  0.00    -0.014 A 
BRANCH  12  13
ATOM     13  C   UNL A   1      39.706  28.994  29.532  1.00  0.00     0.031 A 
ATOM     14  C   UNL A   1      40.441  29.678  30.660  1.00  0.00     0.074 A 
ATOM     15  C   UNL A   1      40.288  27.944  28.910  1.00  0.00     0.049 A 
ATOM     16  N   UNL A   1      41.614  29.386  31.170  1.00  0.00    -0.248 NA
ATOM     17  C   UNL A   1      39.796  30.840  31.291  1.00  0.00     0.031 C 
ATOM     18  C   UNL A   1      39.725  27.235  27.757  1.00  0.00     0.029 A 
ATOM     19  N   UNL A   1      41.460  27.276  29.161  1.00  0.00    -0.354 N 
ATOM     20  C   UNL A   1      41.867  30.345  32.145  1.00  0.00     0.074 A 
ATOM     21  C   UNL A   1      40.726  31.238  32.151  1.00  0.00     0.031 C 
ATOM     22  C   UNL A   1      40.509  26.196  27.445  1.00  0.00     0.029 A 
ATOM     23  C   UNL A   1      41.681  26.216  28.310  1.00  0.00     0.049 A 
ATOM     24  H   UNL A   1      42.085  27.530  29.879  1.00  0.00     0.167 HD
ATOM     25  C   UNL A   1      42.938  30.464  32.970  1.00  0.00     0.034 A 
ATOM     26  C   UNL A   1      42.718  25.364  28.204  1.00  0.00     0.034 A 
ATOM     27  C   UNL A   1      44.059  29.556  32.987  1.00  0.00     0.049 A 
ATOM     28  C   UNL A   1      43.867  25.498  29.157  1.00  0.00     0.074 A 
ATOM     29  C   UNL A   1      45.167  29.572  33.819  1.00  0.00     0.029 A 
ATOM     30  N   UNL A   1      44.222  28.472  32.138  1.00  0.00    -0.354 N 
ATOM     31  N   UNL A   1      44.028  26.349  30.139  1.00  0.00    -0.248 NA
ATOM     32  C   UNL A   1      44.967  24.537  29.002  1.00  0.00     0.031 C 
ATOM     33  C   UNL A   1      46.008  28.513  33.460  1.00  0.00     0.029 A 
ATOM     34  C   UNL A   1      45.409  27.815  32.424  1.00  0.00     0.049 A 
ATOM     35  H   UNL A   1      43.586  28.207  31.434  1.00  0.00     0.167 HD
ATOM     36  C   UNL A   1      45.241  26.021  30.727  1.00  0.00     0.074 A 
ATOM     37  C   UNL A   1      45.748  24.862  30.022  1.00  0.00     0.031 C 
ATOM     38  C   UNL A   1      45.891  26.641  31.743  1.00  0.00     0.034 A 
BRANCH  25  39
ATOM     39  C   UNL A   1      42.944  31.594  33.973  1.00  0.00     0.023 A 
ATOM     40  C   UNL A   1      43.431  32.861  33.588  1.00  0.00     0.012 A 
ATOM     41  C   UNL A   1      42.377  31.436  35.254  1.00  0.00     0.148 A 
ATOM     42  C   UNL A   1      43.376  33.942  34.466  1.00  0.00     0.002 A 
ATOM     43  C   UNL A   1      42.287  32.530  36.110  1.00  0.00     0.091 A 
ATOM     44  F   UNL A   1      41.928  30.224  35.609  1.00  0.00    -0.205 F 
ATOM     45  C   UNL A   1      42.795  33.780  35.721  1.00  0.00     0.022 A 
BRANCH  43  46
ATOM     46  S   UNL A   1      41.483  32.451  37.716  1.00  0.00     0.127 S 
ATOM     47  O   UNL A   1      40.140  32.003  37.350  1.00  0.00    -0.237 OA
ATOM     48  O   UNL A   1      42.290  31.451  38.415  1.00  0.00    -0.237 OA
ATOM     49  O   UNL A   1      41.560  33.794  38.272  1.00  0.00    -0.744 OA
ENDBRANCH  43  46
ENDBRANCH  25  39
BRANCH  26  50
ATOM     50  C   UNL A   1      42.706  24.311  27.150  1.00  0.00     0.023 A 
ATOM     51  C   UNL A   1      43.384  24.521  25.934  1.00  0.00     0.012 A 
ATOM     52  C   UNL A   1      42.051  23.082  27.366  1.00  0.00     0.148 A 
ATOM     53  C   UNL A   1      43.381  23.541  24.942  1.00  0.00     0.002 A 
ATOM     54  C   UNL A   1      42.115  22.083  26.405  1.00  0.00     0.091 A 
ATOM     55  F   UNL A   1      41.393  22.906  28.521  1.00  0.00    -0.205 F 
ATOM     56  C   UNL A   1      42.760  22.317  25.182  1.00  0.00     0.022 A 
BRANCH  54  57
ATOM     57  S   UNL A   1      41.486  20.430  26.712  1.00  0.00     0.127 S 
ATOM     58  O   UNL A   1      42.264  20.027  27.882  1.00  0.00    -0.237 OA
ATOM     59  O   UNL A   1      40.069  20.685  26.972  1.00  0.00    -0.237 OA
ATOM     60  O   UNL A   1      41.742  19.685  25.487  1.00  0.00    -0.744 OA
ENDBRANCH  54  57
ENDBRANCH  26  50
BRANCH  38  61
ATOM     61  C   UNL A   1      47.215  26.059  32.163  1.00  0.00     0.023 A 
ATOM     62  C   UNL A   1      48.391  26.427  31.478  1.00  0.00     0.012 A 
ATOM     63  C   UNL A   1      47.298  25.160  33.243  1.00  0.00     0.148 A 
ATOM     64  C   UNL A   1      49.621  25.872  31.829  1.00  0.00     0.002 A 
ATOM     65  C   UNL A   1      48.535  24.650  33.621  1.00  0.00     0.091 A 
ATOM     66  F   UNL A   1      46.166  24.805  33.870  1.00  0.00    -0.205 F 
ATOM     67  C   UNL A   1      49.694  24.991  32.906  1.00  0.00     0.022 A 
BRANCH  65  68
ATOM     68  S   UNL A   1      48.737  23.579  35.048  1.00  0.00     0.127 S 
ATOM     69  O   UNL A   1      47.978  22.397  34.643  1.00  0.00    -0.237 OA
ATOM     70  O   UNL A   1      50.187  23.388  35.089  1.00  0.00    -0.237 OA
ATOM     71  O   UNL A   1      48.193  24.315  36.181  1.00  0.00    -0.744 OA
ENDBRANCH  65  68
ENDBRANCH  38  61
ENDBRANCH  12  13
ENDBRANCH   5   7
ENDBRANCH   2   3
ENDBRANCH   1   2
BRANCH   1  72
ATOM     72  C   UNL A   1      31.829  29.337  25.005  1.00  0.00     0.117 C 
BRANCH  72  73
ATOM     73  N   UNL A   1      31.207  29.694  23.740  1.00  0.00    -0.356 N 
ATOM     74  C   UNL A   1      30.742  28.997  22.677  1.00  0.00     0.223 C 
ATOM     75  H   UNL A   1      31.100  30.667  23.632  1.00  0.00     0.163 HD
ATOM     76  O   UNL A   1      30.433  29.698  21.703  1.00  0.00    -0.275 OA
BRANCH  74  77
ATOM     77  C   UNL A   1      30.468  27.480  22.653  1.00  0.00     0.078 C 
ATOM     78  C   UNL A   1      31.760  26.788  22.146  1.00  0.00     0.014 C 
ATOM     79  C   UNL A   1      29.932  26.842  23.940  1.00  0.00     0.014 C 
ATOM     80  C   UNL A   1      31.740  25.263  22.237  1.00  0.00     0.010 C 
ATOM     81  C   UNL A   1      30.001  25.316  23.988  1.00  0.00     0.010 C 
ATOM     82  C   UNL A   1      31.382  24.769  23.646  1.00  0.00     0.044 C 
BRANCH  82  83
ATOM     83  C   UNL A   1      32.483  25.187  24.643  1.00  0.00     0.264 C 
BRANCH  83  84
ATOM     84  N   UNL A   1      33.270  24.096  25.190  1.00  0.00    -0.344 N 
ATOM     85  H   UNL A   1      32.621  23.394  25.547  1.00  0.00     0.346 HD
ATOM     86  H   UNL A   1      33.863  24.520  25.904  1.00  0.00     0.346 HD
BRANCH  84  87
ATOM     87  C   UNL A   1      34.196  23.421  24.256  1.00  0.00     0.182 C 
ATOM     88  C   UNL A   1      35.709  23.521  24.527  1.00  0.00     0.065 C 
ATOM     89  C   UNL A   1      33.827  21.950  24.008  1.00  0.00     0.069 C 
ATOM     90  C   UNL A   1      36.227  22.595  25.629  1.00  0.00     0.006 C 
ATOM     91  C   UNL A   1      34.271  20.986  25.120  1.00  0.00    -0.002 C 
ATOM     92  C   UNL A   1      35.762  21.154  25.457  1.00  0.00     0.004 C 
BRANCH  91  93
ATOM     93  C   UNL A   1      33.901  19.572  24.711  1.00  0.00    -0.008 C 
ATOM     94  C   UNL A   1      32.839  18.719  25.376  1.00  0.00     0.004 C 
ATOM     95  C   UNL A   1      32.595  19.315  24.023  1.00  0.00     0.004 C 
ENDBRANCH  91  93
ENDBRANCH  84  87
ENDBRANCH  83  84
ENDBRANCH  82  83
ENDBRANCH  74  77
ENDBRANCH  72  73
ENDBRANCH   1  72
TORSDOF 17
ENDMDL
