MODEL 1
REMARK VINA RESULT:     -12.2      0.000      0.000
REMARK SMILES O=C(NCCCNC(=O)[C@@H]1CC[C@@H](CNC(=O)c2cc(Cl)ccc2Cl)O1)c1ccc(-c2c3nc(c(-c4cccc(S(=O)(=O)[O-])c4F)c4ccc([nH]4)c(-c4cccc(S(=O)(=O)[O-])c4F)c4nc(c(-c5cccc(S(=O)(=O)[O-])c5F)c5ccc2[nH]5)C=C4)C=C3)cc1
REMARK SMILES IDX 5 1 4 2 3 3 1 4 2 5 27 7 28 8 89 9 29 10 88 11 30 12 31 13
REMARK SMILES IDX 32 14 82 15 33 16 87 17 81 18 83 19 34 20 86 21 80 22 79 23
REMARK SMILES IDX 35 25 67 26 47 27 66 28 48 29 51 30 65 31 84 32 49 33 50 34
REMARK SMILES IDX 64 36 85 37 52 38 36 39 37 40 45 41 38 42 40 43 46 44 39 45
REMARK SMILES IDX 41 46 42 47 43 48 44 49 68 50 69 51 77 52 70 53 72 54 78 55
REMARK SMILES IDX 71 56 73 57 74 58 75 59 76 60 53 61 54 62 62 63 55 64 57 65
REMARK SMILES IDX 63 66 56 67 58 68 59 69 60 70 61 71 6 72 7 73 8 74 9 76
REMARK SMILES IDX 10 77 11 78 26 79 12 80 13 81 14 82 15 83 16 84 17 86 18 87
REMARK SMILES IDX 19 88 24 89 20 90 23 91 25 92 21 93 22 94
REMARK H PARENT 3 6 83 24 51 35 7 75 15 85
REMARK Flexibility Score: inf
ROOT
ATOM      1  C   UNL A   1      31.378  31.489  26.488  1.00  0.00     0.042 C 
ENDROOT
BRANCH   1   2
ATOM      2  C   UNL A   1      32.684  32.163  26.871  1.00  0.00     0.118 C 
BRANCH   2   3
ATOM      3  N   UNL A   1      32.489  33.533  27.321  1.00  0.00    -0.352 N 
ATOM      4  O   UNL A   1      32.675  35.298  28.705  1.00  0.00    -0.269 OA
ATOM      5  C   UNL A   1      33.124  34.219  28.327  1.00  0.00     0.251 C 
ATOM      6  H   UNL A   1      31.803  34.043  26.833  1.00  0.00     0.163 HD
BRANCH   5   7
ATOM      7  C   UNL A   1      34.332  33.644  28.956  1.00  0.00     0.039 A 
ATOM      8  C   UNL A   1      34.211  32.663  29.944  1.00  0.00     0.014 A 
ATOM      9  C   UNL A   1      35.596  34.069  28.540  1.00  0.00     0.014 A 
ATOM     10  C   UNL A   1      35.339  32.214  30.617  1.00  0.00     0.010 A 
ATOM     11  C   UNL A   1      36.738  33.533  29.143  1.00  0.00     0.010 A 
ATOM     12  C   UNL A   1      36.615  32.611  30.194  1.00  0.00    -0.014 A 
BRANCH  12  13
ATOM     13  C   UNL A   1      37.800  31.923  30.760  1.00  0.00     0.031 A 
ATOM     14  C   UNL A   1      38.541  30.866  29.994  1.00  0.00     0.074 A 
ATOM     15  C   UNL A   1      38.178  32.255  32.011  1.00  0.00     0.049 A 
ATOM     16  N   UNL A   1      39.583  30.170  30.367  1.00  0.00    -0.248 NA
ATOM     17  C   UNL A   1      38.056  30.540  28.643  1.00  0.00     0.031 C 
ATOM     18  C   UNL A   1      37.491  33.232  32.864  1.00  0.00     0.029 A 
ATOM     19  N   UNL A   1      39.209  31.805  32.793  1.00  0.00    -0.354 N 
ATOM     20  C   UNL A   1      39.850  29.291  29.326  1.00  0.00     0.074 A 
ATOM     21  C   UNL A   1      38.869  29.550  28.293  1.00  0.00     0.031 C 
ATOM     22  C   UNL A   1      38.120  33.312  34.043  1.00  0.00     0.029 A 
ATOM     23  C   UNL A   1      39.210  32.346  34.058  1.00  0.00     0.049 A 
ATOM     24  H   UNL A   1      39.882  31.158  32.481  1.00  0.00     0.167 HD
ATOM     25  C   UNL A   1      40.830  28.359  29.245  1.00  0.00     0.034 A 
ATOM     26  C   UNL A   1      39.971  32.065  35.131  1.00  0.00     0.034 A 
ATOM     27  C   UNL A   1      41.821  28.141  30.264  1.00  0.00     0.049 A 
ATOM     28  C   UNL A   1      41.049  31.032  34.997  1.00  0.00     0.074 A 
ATOM     29  C   UNL A   1      42.921  27.301  30.224  1.00  0.00     0.029 A 
ATOM     30  N   UNL A   1      41.821  28.738  31.515  1.00  0.00    -0.354 N 
ATOM     31  N   UNL A   1      41.400  30.343  33.940  1.00  0.00    -0.248 NA
ATOM     32  C   UNL A   1      41.849  30.749  36.196  1.00  0.00     0.031 C 
ATOM     33  C   UNL A   1      43.561  27.358  31.466  1.00  0.00     0.029 A 
ATOM     34  C   UNL A   1      42.878  28.257  32.270  1.00  0.00     0.049 A 
ATOM     35  H   UNL A   1      41.165  29.405  31.823  1.00  0.00     0.167 HD
ATOM     36  C   UNL A   1      42.468  29.552  34.342  1.00  0.00     0.074 A 
ATOM     37  C   UNL A   1      42.734  29.880  35.728  1.00  0.00     0.031 C 
ATOM     38  C   UNL A   1      43.152  28.620  33.635  1.00  0.00     0.034 A 
BRANCH  25  39
ATOM     39  C   UNL A   1      40.913  27.507  28.007  1.00  0.00     0.023 A 
ATOM     40  C   UNL A   1      41.557  28.003  26.857  1.00  0.00     0.012 A 
ATOM     41  C   UNL A   1      40.473  26.168  28.032  1.00  0.00     0.148 A 
ATOM     42  C   UNL A   1      41.753  27.182  25.746  1.00  0.00     0.002 A 
ATOM     43  C   UNL A   1      40.707  25.345  26.936  1.00  0.00     0.091 A 
ATOM     44  F   UNL A   1      39.850  25.722  29.132  1.00  0.00    -0.205 F 
ATOM     45  C   UNL A   1      41.342  25.852  25.791  1.00  0.00     0.022 A 
BRANCH  43  46
ATOM     46  S   UNL A   1      40.288  23.598  26.923  1.00  0.00     0.127 S 
ATOM     47  O   UNL A   1      40.697  23.188  28.266  1.00  0.00    -0.237 OA
ATOM     48  O   UNL A   1      38.840  23.633  26.711  1.00  0.00    -0.237 OA
ATOM     49  O   UNL A   1      41.052  23.006  25.834  1.00  0.00    -0.744 OA
ENDBRANCH  43  46
ENDBRANCH  25  39
BRANCH  26  50
ATOM     50  C   UNL A   1      39.727  32.768  36.421  1.00  0.00     0.023 A 
ATOM     51  C   UNL A   1      40.439  33.944  36.721  1.00  0.00     0.012 A 
ATOM     52  C   UNL A   1      38.773  32.289  37.340  1.00  0.00     0.148 A 
ATOM     53  C   UNL A   1      40.230  34.610  37.930  1.00  0.00     0.002 A 
ATOM     54  C   UNL A   1      38.524  32.991  38.511  1.00  0.00     0.091 A 
ATOM     55  F   UNL A   1      38.116  31.157  37.046  1.00  0.00    -0.205 F 
ATOM     56  C   UNL A   1      39.266  34.140  38.819  1.00  0.00     0.022 A 
BRANCH  54  57
ATOM     57  S   UNL A   1      37.195  32.531  39.630  1.00  0.00     0.127 S 
ATOM     58  O   UNL A   1      37.588  31.181  40.021  1.00  0.00    -0.237 OA
ATOM     59  O   UNL A   1      37.320  33.539  40.685  1.00  0.00    -0.237 OA
ATOM     60  O   UNL A   1      35.975  32.643  38.844  1.00  0.00    -0.744 OA
ENDBRANCH  54  57
ENDBRANCH  26  50
BRANCH  38  61
ATOM     61  C   UNL A   1      44.258  27.889  34.347  1.00  0.00     0.023 A 
ATOM     62  C   UNL A   1      45.546  28.456  34.390  1.00  0.00     0.012 A 
ATOM     63  C   UNL A   1      44.005  26.683  35.027  1.00  0.00     0.148 A 
ATOM     64  C   UNL A   1      46.578  27.815  35.075  1.00  0.00     0.002 A 
ATOM     65  C   UNL A   1      45.026  26.076  35.749  1.00  0.00     0.091 A 
ATOM     66  F   UNL A   1      42.776  26.155  34.958  1.00  0.00    -0.205 F 
ATOM     67  C   UNL A   1      46.314  26.634  35.764  1.00  0.00     0.022 A 
BRANCH  65  68
ATOM     68  S   UNL A   1      44.763  24.603  36.742  1.00  0.00     0.127 S 
ATOM     69  O   UNL A   1      44.311  23.643  35.736  1.00  0.00    -0.237 OA
ATOM     70  O   UNL A   1      46.101  24.347  37.274  1.00  0.00    -0.237 OA
ATOM     71  O   UNL A   1      43.770  24.964  37.745  1.00  0.00    -0.744 OA
ENDBRANCH  65  68
ENDBRANCH  38  61
ENDBRANCH  12  13
ENDBRANCH   5   7
ENDBRANCH   2   3
ENDBRANCH   1   2
BRANCH   1  72
ATOM     72  C   UNL A   1      31.570  30.237  25.651  1.00  0.00     0.117 C 
BRANCH  72  73
ATOM     73  N   UNL A   1      30.699  30.218  24.486  1.00  0.00    -0.354 N 
ATOM     74  C   UNL A   1      30.404  29.194  23.634  1.00  0.00     0.249 C 
ATOM     75  H   UNL A   1      30.256  31.073  24.282  1.00  0.00     0.163 HD
ATOM     76  O   UNL A   1      29.629  29.424  22.702  1.00  0.00    -0.272 OA
BRANCH  74  77
ATOM     77  C   UNL A   1      31.091  27.831  23.803  1.00  0.00     0.207 C 
ATOM     78  C   UNL A   1      32.209  27.645  22.786  1.00  0.00     0.045 C 
ATOM     79  O   UNL A   1      30.230  26.702  23.638  1.00  0.00    -0.363 OA
ATOM     80  C   UNL A   1      32.315  26.146  22.686  1.00  0.00     0.037 C 
ATOM     81  C   UNL A   1      30.870  25.707  22.835  1.00  0.00     0.138 C 
BRANCH  81  82
ATOM     82  C   UNL A   1      30.749  24.350  23.526  1.00  0.00     0.148 C 
BRANCH  82  83
ATOM     83  N   UNL A   1      30.558  24.468  24.967  1.00  0.00    -0.349 N 
ATOM     84  C   UNL A   1      31.446  24.295  25.997  1.00  0.00     0.252 C 
ATOM     85  H   UNL A   1      29.645  24.709  25.246  1.00  0.00     0.163 HD
ATOM     86  O   UNL A   1      31.104  24.474  27.160  1.00  0.00    -0.269 OA
BRANCH  84  87
ATOM     87  C   UNL A   1      32.836  23.904  25.696  1.00  0.00     0.059 A 
ATOM     88  C   UNL A   1      33.108  22.560  25.404  1.00  0.00     0.036 A 
ATOM     89  C   UNL A   1      33.870  24.847  25.698  1.00  0.00     0.053 A 
ATOM     90  C   UNL A   1      34.423  22.151  25.201  1.00  0.00     0.041 A 
ATOM     91  C   UNL A   1      35.183  24.429  25.456  1.00  0.00     0.023 A 
ATOM     92  Cl  UNL A   1      33.622  26.519  26.045  1.00  0.00    -0.083 Cl
ATOM     93  Cl  UNL A   1      34.770  20.485  24.960  1.00  0.00    -0.084 Cl
ATOM     94  C   UNL A   1      35.462  23.079  25.226  1.00  0.00     0.022 A 
ENDBRANCH  84  87
ENDBRANCH  82  83
ENDBRANCH  81  82
ENDBRANCH  74  77
ENDBRANCH  72  73
ENDBRANCH   1  72
TORSDOF 16
ENDMDL
MODEL 2
REMARK VINA RESULT:     -12.0      1.226      1.754
REMARK SMILES O=C(NCCCNC(=O)[C@@H]1CC[C@@H](CNC(=O)c2cc(Cl)ccc2Cl)O1)c1ccc(-c2c3nc(c(-c4cccc(S(=O)(=O)[O-])c4F)c4ccc([nH]4)c(-c4cccc(S(=O)(=O)[O-])c4F)c4nc(c(-c5cccc(S(=O)(=O)[O-])c5F)c5ccc2[nH]5)C=C4)C=C3)cc1
REMARK SMILES IDX 5 1 4 2 3 3 1 4 2 5 27 7 28 8 89 9 29 10 88 11 30 12 31 13
REMARK SMILES IDX 32 14 82 15 33 16 87 17 81 18 83 19 34 20 86 21 80 22 79 23
REMARK SMILES IDX 35 25 67 26 47 27 66 28 48 29 51 30 65 31 84 32 49 33 50 34
REMARK SMILES IDX 64 36 85 37 52 38 36 39 37 40 45 41 38 42 40 43 46 44 39 45
REMARK SMILES IDX 41 46 42 47 43 48 44 49 68 50 69 51 77 52 70 53 72 54 78 55
REMARK SMILES IDX 71 56 73 57 74 58 75 59 76 60 53 61 54 62 62 63 55 64 57 65
REMARK SMILES IDX 63 66 56 67 58 68 59 69 60 70 61 71 6 72 7 73 8 74 9 76
REMARK SMILES IDX 10 77 11 78 26 79 12 80 13 81 14 82 15 83 16 84 17 86 18 87
REMARK SMILES IDX 19 88 24 89 20 90 23 91 25 92 21 93 22 94
REMARK H PARENT 3 6 83 24 51 35 7 75 15 85
REMARK Flexibility Score: inf
ROOT
ATOM      1  C   UNL A   1      31.212  31.619  26.343  1.00  0.00     0.042 C 
ENDROOT
BRANCH   1   2
ATOM      2  C   UNL A   1      32.501  32.198  26.900  1.00  0.00     0.118 C 
BRANCH   2   3
ATOM      3  N   UNL A   1      32.367  33.600  27.267  1.00  0.00    -0.352 N 
ATOM      4  O   UNL A   1      32.641  35.438  28.536  1.00  0.00    -0.269 OA
ATOM      5  C   UNL A   1      33.042  34.320  28.221  1.00  0.00     0.251 C 
ATOM      6  H   UNL A   1      31.694  34.106  26.755  1.00  0.00     0.163 HD
BRANCH   5   7
ATOM      7  C   UNL A   1      34.234  33.737  28.871  1.00  0.00     0.039 A 
ATOM      8  C   UNL A   1      34.103  32.639  29.726  1.00  0.00     0.014 A 
ATOM      9  C   UNL A   1      35.497  34.273  28.606  1.00  0.00     0.014 A 
ATOM     10  C   UNL A   1      35.205  32.172  30.428  1.00  0.00     0.010 A 
ATOM     11  C   UNL A   1      36.623  33.729  29.230  1.00  0.00     0.010 A 
ATOM     12  C   UNL A   1      36.482  32.682  30.154  1.00  0.00    -0.014 A 
BRANCH  12  13
ATOM     13  C   UNL A   1      37.664  31.993  30.727  1.00  0.00     0.031 A 
ATOM     14  C   UNL A   1      38.411  30.939  29.963  1.00  0.00     0.074 A 
ATOM     15  C   UNL A   1      38.032  32.322  31.981  1.00  0.00     0.049 A 
ATOM     16  N   UNL A   1      39.450  30.242  30.342  1.00  0.00    -0.248 NA
ATOM     17  C   UNL A   1      37.935  30.616  28.607  1.00  0.00     0.031 C 
ATOM     18  C   UNL A   1      37.338  33.297  32.832  1.00  0.00     0.029 A 
ATOM     19  N   UNL A   1      39.057  31.870  32.770  1.00  0.00    -0.354 N 
ATOM     20  C   UNL A   1      39.725  29.366  29.300  1.00  0.00     0.074 A 
ATOM     21  C   UNL A   1      38.751  29.627  28.261  1.00  0.00     0.031 C 
ATOM     22  C   UNL A   1      37.959  33.373  34.016  1.00  0.00     0.029 A 
ATOM     23  C   UNL A   1      39.049  32.408  34.036  1.00  0.00     0.049 A 
ATOM     24  H   UNL A   1      39.734  31.225  32.460  1.00  0.00     0.167 HD
ATOM     25  C   UNL A   1      40.706  28.435  29.224  1.00  0.00     0.034 A 
ATOM     26  C   UNL A   1      39.803  32.125  35.114  1.00  0.00     0.034 A 
ATOM     27  C   UNL A   1      41.690  28.215  30.250  1.00  0.00     0.049 A 
ATOM     28  C   UNL A   1      40.882  31.093  34.985  1.00  0.00     0.074 A 
ATOM     29  C   UNL A   1      42.791  27.376  30.215  1.00  0.00     0.029 A 
ATOM     30  N   UNL A   1      41.681  28.808  31.502  1.00  0.00    -0.354 N 
ATOM     31  N   UNL A   1      41.241  30.406  33.928  1.00  0.00    -0.248 NA
ATOM     32  C   UNL A   1      41.674  30.807  36.189  1.00  0.00     0.031 C 
ATOM     33  C   UNL A   1      43.422  27.430  31.462  1.00  0.00     0.029 A 
ATOM     34  C   UNL A   1      42.733  28.326  32.263  1.00  0.00     0.049 A 
ATOM     35  H   UNL A   1      41.023  29.475  31.807  1.00  0.00     0.167 HD
ATOM     36  C   UNL A   1      42.307  29.616  34.335  1.00  0.00     0.074 A 
ATOM     37  C   UNL A   1      42.562  29.940  35.725  1.00  0.00     0.031 C 
ATOM     38  C   UNL A   1      42.997  28.685  33.631  1.00  0.00     0.034 A 
BRANCH  25  39
ATOM     39  C   UNL A   1      40.798  27.586  27.984  1.00  0.00     0.023 A 
ATOM     40  C   UNL A   1      41.470  28.077  26.847  1.00  0.00     0.012 A 
ATOM     41  C   UNL A   1      40.338  26.254  27.996  1.00  0.00     0.148 A 
ATOM     42  C   UNL A   1      41.674  27.258  25.737  1.00  0.00     0.002 A 
ATOM     43  C   UNL A   1      40.579  25.432  26.902  1.00  0.00     0.091 A 
ATOM     44  F   UNL A   1      39.689  25.814  29.083  1.00  0.00    -0.205 F 
ATOM     45  C   UNL A   1      41.242  25.934  25.770  1.00  0.00     0.022 A 
BRANCH  43  46
ATOM     46  S   UNL A   1      40.135  23.691  26.874  1.00  0.00     0.127 S 
ATOM     47  O   UNL A   1      38.723  23.755  26.499  1.00  0.00    -0.237 OA
ATOM     48  O   UNL A   1      41.019  23.167  25.833  1.00  0.00    -0.237 OA
ATOM     49  O   UNL A   1      40.399  23.185  28.213  1.00  0.00    -0.744 OA
ENDBRANCH  43  46
ENDBRANCH  25  39
BRANCH  26  50
ATOM     50  C   UNL A   1      39.549  32.824  36.403  1.00  0.00     0.023 A 
ATOM     51  C   UNL A   1      40.202  34.040  36.679  1.00  0.00     0.012 A 
ATOM     52  C   UNL A   1      38.643  32.301  37.348  1.00  0.00     0.148 A 
ATOM     53  C   UNL A   1      39.984  34.703  37.888  1.00  0.00     0.002 A 
ATOM     54  C   UNL A   1      38.382  32.999  38.519  1.00  0.00     0.091 A 
ATOM     55  F   UNL A   1      38.044  31.132  37.076  1.00  0.00    -0.205 F 
ATOM     56  C   UNL A   1      39.066  34.189  38.801  1.00  0.00     0.022 A 
BRANCH  54  57
ATOM     57  S   UNL A   1      37.106  32.475  39.671  1.00  0.00     0.127 S 
ATOM     58  O   UNL A   1      37.196  33.503  40.703  1.00  0.00    -0.237 OA
ATOM     59  O   UNL A   1      35.901  32.538  38.841  1.00  0.00    -0.237 OA
ATOM     60  O   UNL A   1      37.481  31.127  40.073  1.00  0.00    -0.744 OA
ENDBRANCH  54  57
ENDBRANCH  26  50
BRANCH  38  61
ATOM     61  C   UNL A   1      44.097  27.953  34.349  1.00  0.00     0.023 A 
ATOM     62  C   UNL A   1      45.397  28.497  34.362  1.00  0.00     0.012 A 
ATOM     63  C   UNL A   1      43.832  26.770  35.064  1.00  0.00     0.148 A 
ATOM     64  C   UNL A   1      46.425  27.856  35.052  1.00  0.00     0.002 A 
ATOM     65  C   UNL A   1      44.850  26.164  35.790  1.00  0.00     0.091 A 
ATOM     66  F   UNL A   1      42.592  26.263  35.022  1.00  0.00    -0.205 F 
ATOM     67  C   UNL A   1      46.148  26.698  35.774  1.00  0.00     0.022 A 
BRANCH  65  68
ATOM     68  S   UNL A   1      44.573  24.722  36.824  1.00  0.00     0.127 S 
ATOM     69  O   UNL A   1      43.480  25.178  37.683  1.00  0.00    -0.237 OA
ATOM     70  O   UNL A   1      44.195  23.707  35.842  1.00  0.00    -0.237 OA
ATOM     71  O   UNL A   1      45.834  24.467  37.507  1.00  0.00    -0.744 OA
ENDBRANCH  65  68
ENDBRANCH  38  61
ENDBRANCH  12  13
ENDBRANCH   5   7
ENDBRANCH   2   3
ENDBRANCH   1   2
BRANCH   1  72
ATOM     72  C   UNL A   1      31.435  30.452  25.399  1.00  0.00     0.117 C 
BRANCH  72  73
ATOM     73  N   UNL A   1      32.632  29.697  25.732  1.00  0.00    -0.354 N 
ATOM     74  C   UNL A   1      32.869  28.356  25.652  1.00  0.00     0.249 C 
ATOM     75  H   UNL A   1      33.386  30.236  26.065  1.00  0.00     0.163 HD
ATOM     76  O   UNL A   1      33.978  27.944  26.000  1.00  0.00    -0.272 OA
BRANCH  74  77
ATOM     77  C   UNL A   1      31.746  27.402  25.219  1.00  0.00     0.207 C 
ATOM     78  C   UNL A   1      31.016  26.824  26.424  1.00  0.00     0.045 C 
ATOM     79  O   UNL A   1      32.180  26.274  24.455  1.00  0.00    -0.363 OA
ATOM     80  C   UNL A   1      30.447  25.540  25.877  1.00  0.00     0.037 C 
ATOM     81  C   UNL A   1      31.532  25.087  24.918  1.00  0.00     0.138 C 
BRANCH  81  82
ATOM     82  C   UNL A   1      30.961  24.328  23.720  1.00  0.00     0.148 C 
BRANCH  82  83
ATOM     83  N   UNL A   1      31.872  24.305  22.582  1.00  0.00    -0.349 N 
ATOM     84  C   UNL A   1      32.960  23.509  22.332  1.00  0.00     0.252 C 
ATOM     85  H   UNL A   1      31.675  24.968  21.881  1.00  0.00     0.163 HD
ATOM     86  O   UNL A   1      33.592  23.617  21.288  1.00  0.00    -0.269 OA
BRANCH  84  87
ATOM     87  C   UNL A   1      33.363  22.501  23.329  1.00  0.00     0.059 A 
ATOM     88  C   UNL A   1      32.785  21.224  23.266  1.00  0.00     0.036 A 
ATOM     89  C   UNL A   1      34.304  22.799  24.322  1.00  0.00     0.053 A 
ATOM     90  C   UNL A   1      33.085  20.283  24.246  1.00  0.00     0.041 A 
ATOM     91  C   UNL A   1      34.623  21.831  25.280  1.00  0.00     0.023 A 
ATOM     92  Cl  UNL A   1      35.063  24.342  24.469  1.00  0.00    -0.083 Cl
ATOM     93  Cl  UNL A   1      32.288  18.760  24.238  1.00  0.00    -0.084 Cl
ATOM     94  C   UNL A   1      34.001  20.580  25.254  1.00  0.00     0.022 A 
ENDBRANCH  84  87
ENDBRANCH  82  83
ENDBRANCH  81  82
ENDBRANCH  74  77
ENDBRANCH  72  73
ENDBRANCH   1  72
TORSDOF 16
ENDMDL
MODEL 3
REMARK VINA RESULT:     -12.0      5.793     11.105
REMARK SMILES O=C(NCCCNC(=O)[C@@H]1CC[C@@H](CNC(=O)c2cc(Cl)ccc2Cl)O1)c1ccc(-c2c3nc(c(-c4cccc(S(=O)(=O)[O-])c4F)c4ccc([nH]4)c(-c4cccc(S(=O)(=O)[O-])c4F)c4nc(c(-c5cccc(S(=O)(=O)[O-])c5F)c5ccc2[nH]5)C=C4)C=C3)cc1
REMARK SMILES IDX 5 1 4 2 3 3 1 4 2 5 27 7 28 8 89 9 29 10 88 11 30 12 31 13
REMARK SMILES IDX 32 14 82 15 33 16 87 17 81 18 83 19 34 20 86 21 80 22 79 23
REMARK SMILES IDX 35 25 67 26 47 27 66 28 48 29 51 30 65 31 84 32 49 33 50 34
REMARK SMILES IDX 64 36 85 37 52 38 36 39 37 40 45 41 38 42 40 43 46 44 39 45
REMARK SMILES IDX 41 46 42 47 43 48 44 49 68 50 69 51 77 52 70 53 72 54 78 55
REMARK SMILES IDX 71 56 73 57 74 58 75 59 76 60 53 61 54 62 62 63 55 64 57 65
REMARK SMILES IDX 63 66 56 67 58 68 59 69 60 70 61 71 6 72 7 73 8 74 9 76
REMARK SMILES IDX 10 77 11 78 26 79 12 80 13 81 14 82 15 83 16 84 17 86 18 87
REMARK SMILES IDX 19 88 24 89 20 90 23 91 25 92 21 93 22 94
REMARK H PARENT 3 6 83 24 51 35 7 75 15 85
REMARK Flexibility Score: inf
ROOT
ATOM      1  C   UNL A   1      37.384  20.022  24.813  1.00  0.00     0.042 C 
ENDROOT
BRANCH   1   2
ATOM      2  C   UNL A   1      38.541  20.551  25.640  1.00  0.00     0.118 C 
BRANCH   2   3
ATOM      3  N   UNL A   1      39.583  19.553  25.840  1.00  0.00    -0.352 N 
ATOM      4  O   UNL A   1      41.684  18.774  26.041  1.00  0.00    -0.269 OA
ATOM      5  C   UNL A   1      40.915  19.728  26.123  1.00  0.00     0.251 C 
ATOM      6  H   UNL A   1      39.289  18.616  25.760  1.00  0.00     0.163 HD
BRANCH   5   7
ATOM      7  C   UNL A   1      41.412  21.066  26.508  1.00  0.00     0.039 A 
ATOM      8  C   UNL A   1      41.757  21.997  25.526  1.00  0.00     0.014 A 
ATOM      9  C   UNL A   1      41.512  21.402  27.860  1.00  0.00     0.014 A 
ATOM     10  C   UNL A   1      42.337  23.205  25.888  1.00  0.00     0.010 A 
ATOM     11  C   UNL A   1      41.993  22.663  28.224  1.00  0.00     0.010 A 
ATOM     12  C   UNL A   1      42.420  23.567  27.240  1.00  0.00    -0.014 A 
BRANCH  12  13
ATOM     13  C   UNL A   1      42.804  24.958  27.583  1.00  0.00     0.031 A 
ATOM     14  C   UNL A   1      41.829  25.920  28.195  1.00  0.00     0.074 A 
ATOM     15  C   UNL A   1      44.063  25.347  27.295  1.00  0.00     0.049 A 
ATOM     16  N   UNL A   1      42.019  27.169  28.533  1.00  0.00    -0.248 NA
ATOM     17  C   UNL A   1      40.466  25.429  28.459  1.00  0.00     0.031 C 
ATOM     18  C   UNL A   1      45.075  24.505  26.647  1.00  0.00     0.029 A 
ATOM     19  N   UNL A   1      44.704  26.543  27.485  1.00  0.00    -0.354 N 
ATOM     20  C   UNL A   1      40.796  27.630  29.001  1.00  0.00     0.074 A 
ATOM     21  C   UNL A   1      39.868  26.522  28.919  1.00  0.00     0.031 C 
ATOM     22  C   UNL A   1      46.207  25.205  26.501  1.00  0.00     0.029 A 
ATOM     23  C   UNL A   1      45.983  26.562  26.978  1.00  0.00     0.049 A 
ATOM     24  H   UNL A   1      44.291  27.312  27.940  1.00  0.00     0.167 HD
ATOM     25  C   UNL A   1      40.486  28.866  29.460  1.00  0.00     0.034 A 
ATOM     26  C   UNL A   1      46.865  27.572  26.863  1.00  0.00     0.034 A 
ATOM     27  C   UNL A   1      41.430  29.945  29.571  1.00  0.00     0.049 A 
ATOM     28  C   UNL A   1      46.485  28.923  27.390  1.00  0.00     0.074 A 
ATOM     29  C   UNL A   1      41.239  31.197  30.131  1.00  0.00     0.029 A 
ATOM     30  N   UNL A   1      42.730  29.918  29.090  1.00  0.00    -0.354 N 
ATOM     31  N   UNL A   1      45.383  29.288  27.997  1.00  0.00    -0.248 NA
ATOM     32  C   UNL A   1      47.474  29.997  27.235  1.00  0.00     0.031 C 
ATOM     33  C   UNL A   1      42.409  31.941  29.950  1.00  0.00     0.029 A 
ATOM     34  C   UNL A   1      43.340  31.142  29.305  1.00  0.00     0.049 A 
ATOM     35  H   UNL A   1      43.157  29.142  28.659  1.00  0.00     0.167 HD
ATOM     36  C   UNL A   1      45.549  30.631  28.306  1.00  0.00     0.074 A 
ATOM     37  C   UNL A   1      46.876  31.003  27.857  1.00  0.00     0.031 C 
ATOM     38  C   UNL A   1      44.673  31.487  28.887  1.00  0.00     0.034 A 
BRANCH  25  39
ATOM     39  C   UNL A   1      39.073  29.134  29.907  1.00  0.00     0.023 A 
ATOM     40  C   UNL A   1      38.678  28.801  31.217  1.00  0.00     0.012 A 
ATOM     41  C   UNL A   1      38.183  29.841  29.072  1.00  0.00     0.148 A 
ATOM     42  C   UNL A   1      37.413  29.157  31.686  1.00  0.00     0.002 A 
ATOM     43  C   UNL A   1      36.941  30.227  29.561  1.00  0.00     0.091 A 
ATOM     44  F   UNL A   1      38.577  30.135  27.825  1.00  0.00    -0.205 F 
ATOM     45  C   UNL A   1      36.552  29.881  30.865  1.00  0.00     0.022 A 
BRANCH  43  46
ATOM     46  S   UNL A   1      35.790  31.229  28.612  1.00  0.00     0.127 S 
ATOM     47  O   UNL A   1      34.840  31.642  29.643  1.00  0.00    -0.237 OA
ATOM     48  O   UNL A   1      36.656  32.300  28.116  1.00  0.00    -0.237 OA
ATOM     49  O   UNL A   1      35.247  30.356  27.581  1.00  0.00    -0.744 OA
ENDBRANCH  43  46
ENDBRANCH  25  39
BRANCH  26  50
ATOM     50  C   UNL A   1      48.184  27.336  26.214  1.00  0.00     0.023 A 
ATOM     51  C   UNL A   1      49.282  26.919  26.991  1.00  0.00     0.012 A 
ATOM     52  C   UNL A   1      48.349  27.500  24.824  1.00  0.00     0.148 A 
ATOM     53  C   UNL A   1      50.527  26.704  26.400  1.00  0.00     0.002 A 
ATOM     54  C   UNL A   1      49.575  27.221  24.233  1.00  0.00     0.091 A 
ATOM     55  F   UNL A   1      47.298  27.915  24.102  1.00  0.00    -0.205 F 
ATOM     56  C   UNL A   1      50.671  26.844  25.021  1.00  0.00     0.022 A 
BRANCH  54  57
ATOM     57  S   UNL A   1      49.793  27.235  22.450  1.00  0.00     0.127 S 
ATOM     58  O   UNL A   1      49.530  28.634  22.128  1.00  0.00    -0.237 OA
ATOM     59  O   UNL A   1      51.191  26.824  22.310  1.00  0.00    -0.237 OA
ATOM     60  O   UNL A   1      48.835  26.266  21.938  1.00  0.00    -0.744 OA
ENDBRANCH  54  57
ENDBRANCH  26  50
BRANCH  38  61
ATOM     61  C   UNL A   1      45.122  32.910  29.074  1.00  0.00     0.023 A 
ATOM     62  C   UNL A   1      45.790  33.275  30.259  1.00  0.00     0.012 A 
ATOM     63  C   UNL A   1      44.944  33.864  28.054  1.00  0.00     0.148 A 
ATOM     64  C   UNL A   1      46.248  34.580  30.440  1.00  0.00     0.002 A 
ATOM     65  C   UNL A   1      45.447  35.149  28.221  1.00  0.00     0.091 A 
ATOM     66  F   UNL A   1      44.290  33.497  26.943  1.00  0.00    -0.205 F 
ATOM     67  C   UNL A   1      46.087  35.511  29.416  1.00  0.00     0.022 A 
BRANCH  65  68
ATOM     68  S   UNL A   1      45.370  36.391  26.926  1.00  0.00     0.127 S 
ATOM     69  O   UNL A   1      43.927  36.553  26.754  1.00  0.00    -0.237 OA
ATOM     70  O   UNL A   1      46.042  37.530  27.551  1.00  0.00    -0.237 OA
ATOM     71  O   UNL A   1      46.072  35.826  25.781  1.00  0.00    -0.744 OA
ENDBRANCH  65  68
ENDBRANCH  38  61
ENDBRANCH  12  13
ENDBRANCH   5   7
ENDBRANCH   2   3
ENDBRANCH   1   2
BRANCH   1  72
ATOM     72  C   UNL A   1      36.111  20.835  24.967  1.00  0.00     0.117 C 
BRANCH  72  73
ATOM     73  N   UNL A   1      34.954  19.996  25.240  1.00  0.00    -0.354 N 
ATOM     74  C   UNL A   1      33.629  20.315  25.250  1.00  0.00     0.249 C 
ATOM     75  H   UNL A   1      35.160  19.056  25.448  1.00  0.00     0.163 HD
ATOM     76  O   UNL A   1      32.822  19.421  25.516  1.00  0.00    -0.272 OA
BRANCH  74  77
ATOM     77  C   UNL A   1      33.185  21.767  25.015  1.00  0.00     0.207 C 
ATOM     78  C   UNL A   1      32.668  22.402  26.299  1.00  0.00     0.045 C 
ATOM     79  O   UNL A   1      32.135  21.925  24.058  1.00  0.00    -0.363 OA
ATOM     80  C   UNL A   1      31.760  23.488  25.784  1.00  0.00     0.037 C 
ATOM     81  C   UNL A   1      31.160  22.850  24.545  1.00  0.00     0.138 C 
BRANCH  81  82
ATOM     82  C   UNL A   1      30.857  23.879  23.457  1.00  0.00     0.148 C 
BRANCH  82  83
ATOM     83  N   UNL A   1      31.996  24.122  22.579  1.00  0.00    -0.349 N 
ATOM     84  C   UNL A   1      32.684  25.279  22.318  1.00  0.00     0.252 C 
ATOM     85  H   UNL A   1      32.324  23.329  22.097  1.00  0.00     0.163 HD
ATOM     86  O   UNL A   1      33.651  25.280  21.566  1.00  0.00    -0.269 OA
BRANCH  84  87
ATOM     87  C   UNL A   1      32.260  26.534  22.964  1.00  0.00     0.059 A 
ATOM     88  C   UNL A   1      31.290  27.324  22.330  1.00  0.00     0.036 A 
ATOM     89  C   UNL A   1      32.807  26.940  24.187  1.00  0.00     0.053 A 
ATOM     90  C   UNL A   1      30.937  28.554  22.877  1.00  0.00     0.041 A 
ATOM     91  C   UNL A   1      32.416  28.162  24.745  1.00  0.00     0.023 A 
ATOM     92  Cl  UNL A   1      34.002  26.028  25.035  1.00  0.00    -0.083 Cl
ATOM     93  Cl  UNL A   1      29.836  29.574  22.039  1.00  0.00    -0.084 Cl
ATOM     94  C   UNL A   1      31.495  28.977  24.082  1.00  0.00     0.022 A 
ENDBRANCH  84  87
ENDBRANCH  82  83
ENDBRANCH  81  82
ENDBRANCH  74  77
ENDBRANCH  72  73
ENDBRANCH   1  72
TORSDOF 16
ENDMDL
