MODEL 1
REMARK VINA RESULT:     -12.9      0.000      0.000
REMARK SMILES C=C(C)[C@@H]1CC=C(CN2C[C@]34C=C[C@@H](O3)[C@H](C(=O)NCCCNC(=O)c3ccc(-c5c6nc(c(-c7cccc(S(=O)(=O)[O-])c7F)c7ccc([nH]7)c(-c7cccc(S(=O)(=O)[O-])c7F)c7nc(c(-c8cccc(S(=O)(=O)[O-])c8F)c8ccc5[nH]8)C=C7)C=C6)cc3)[C@@H]4C2=O)CC1
REMARK SMILES IDX 21 1 20 2 19 3 17 4 18 5 16 7 9 8 10 9 90 10 11 11 89 12
REMARK SMILES IDX 91 13 12 14 15 15 13 16 14 17 8 18 7 19 4 20 5 21 93 22 6 23
REMARK SMILES IDX 92 24 2 25 1 26 3 27 22 28 23 29 24 30 25 32 26 33 27 34
REMARK SMILES IDX 88 35 28 36 87 37 29 38 30 39 31 40 81 41 32 42 86 43 80 44
REMARK SMILES IDX 82 45 33 46 85 47 79 48 78 49 34 51 66 52 46 53 65 54 47 55
REMARK SMILES IDX 50 56 64 57 83 58 48 59 49 60 63 62 84 63 51 64 35 65 36 66
REMARK SMILES IDX 44 67 37 68 39 69 45 70 38 71 40 72 41 73 42 74 43 75 67 76
REMARK SMILES IDX 68 77 76 78 69 79 71 80 77 81 70 82 72 83 73 84 74 85 75 86
REMARK SMILES IDX 52 87 53 88 61 89 54 90 56 91 62 92 55 93 57 94 58 95 59 96
REMARK SMILES IDX 60 97
REMARK H PARENT 19 6 23 31 82 50 50 61
REMARK Flexibility Score: inf
ROOT
ATOM      1  C   UNL A   1      32.641  29.592  25.449  1.00  0.00     0.042 C 
ENDROOT
BRANCH   1   2
ATOM      2  C   UNL A   1      33.811  28.613  25.260  1.00  0.00     0.117 C 
BRANCH   2   3
ATOM      3  N   UNL A   1      34.044  28.293  23.862  1.00  0.00    -0.356 N 
ATOM      4  C   UNL A   1      33.343  27.778  22.831  1.00  0.00     0.227 C 
ATOM      5  O   UNL A   1      33.923  27.930  21.743  1.00  0.00    -0.275 OA
ATOM      6  H   UNL A   1      34.966  28.510  23.593  1.00  0.00     0.163 HD
BRANCH   4   7
ATOM      7  C   UNL A   1      31.927  27.164  22.845  1.00  0.00     0.127 C 
ATOM      8  N   UNL A   1      31.870  24.959  25.822  1.00  0.00    -0.335 N 
ATOM      9  C   UNL A   1      32.758  25.000  24.723  1.00  0.00     0.160 C 
ATOM     10  C   UNL A   1      30.802  25.734  25.360  1.00  0.00     0.230 C 
ATOM     11  C   UNL A   1      31.789  24.849  23.541  1.00  0.00     0.117 C 
ATOM     12  C   UNL A   1      31.248  26.366  23.996  1.00  0.00     0.132 C 
ATOM     13  O   UNL A   1      29.703  25.831  25.849  1.00  0.00    -0.274 OA
ATOM     14  C   UNL A   1      32.890  24.357  22.612  1.00  0.00     0.009 C 
ATOM     15  O   UNL A   1      30.979  25.197  22.404  1.00  0.00    -0.360 OA
ATOM     16  C   UNL A   1      33.001  25.176  21.575  1.00  0.00     0.004 C 
ATOM     17  C   UNL A   1      31.863  26.119  21.721  1.00  0.00     0.155 C 
BRANCH   8  18
ATOM     18  C   UNL A   1      31.720  23.735  26.639  1.00  0.00     0.150 C 
BRANCH  18  19
ATOM     19  C   UNL A   1      32.833  22.732  26.379  1.00  0.00    -0.055 C 
ATOM     20  C   UNL A   1      35.277  21.302  25.512  1.00  0.00     0.018 C 
ATOM     21  C   UNL A   1      34.012  21.424  24.682  1.00  0.00     0.035 C 
ATOM     22  C   UNL A   1      35.387  22.417  26.569  1.00  0.00     0.013 C 
ATOM     23  C   UNL A   1      32.803  21.702  25.511  1.00  0.00    -0.025 C 
ATOM     24  C   UNL A   1      34.070  22.821  27.244  1.00  0.00     0.033 C 
BRANCH  20  25
ATOM     25  C   UNL A   1      36.519  21.271  24.634  1.00  0.00    -0.077 C 
ATOM     26  C   UNL A   1      37.445  20.294  24.661  1.00  0.00     0.008 C 
ATOM     27  C   UNL A   1      36.648  22.410  23.661  1.00  0.00     0.039 C 
ENDBRANCH  20  25
ENDBRANCH  18  19
ENDBRANCH   8  18
ENDBRANCH   4   7
ENDBRANCH   2   3
ENDBRANCH   1   2
BRANCH   1  28
ATOM     28  C   UNL A   1      32.411  30.145  26.864  1.00  0.00     0.118 C 
BRANCH  28  29
ATOM     29  N   UNL A   1      32.616  31.580  26.974  1.00  0.00    -0.352 N 
ATOM     30  C   UNL A   1      33.624  32.310  27.560  1.00  0.00     0.251 C 
ATOM     31  H   UNL A   1      31.909  32.125  26.558  1.00  0.00     0.163 HD
ATOM     32  O   UNL A   1      33.501  33.534  27.615  1.00  0.00    -0.269 OA
BRANCH  30  33
ATOM     33  C   UNL A   1      34.836  31.679  28.145  1.00  0.00     0.039 A 
ATOM     34  C   UNL A   1      35.992  32.461  28.261  1.00  0.00     0.014 A 
ATOM     35  C   UNL A   1      34.888  30.330  28.507  1.00  0.00     0.014 A 
ATOM     36  C   UNL A   1      37.167  31.915  28.794  1.00  0.00     0.010 A 
ATOM     37  C   UNL A   1      36.050  29.797  29.083  1.00  0.00     0.010 A 
ATOM     38  C   UNL A   1      37.201  30.585  29.242  1.00  0.00    -0.014 A 
BRANCH  38  39
ATOM     39  C   UNL A   1      38.409  30.052  29.936  1.00  0.00     0.031 A 
ATOM     40  C   UNL A   1      38.808  30.519  31.313  1.00  0.00     0.074 A 
ATOM     41  C   UNL A   1      39.199  29.169  29.290  1.00  0.00     0.049 A 
ATOM     42  N   UNL A   1      39.818  30.133  32.052  1.00  0.00    -0.248 NA
ATOM     43  C   UNL A   1      37.980  31.566  31.930  1.00  0.00     0.031 C 
ATOM     44  C   UNL A   1      38.986  28.693  27.921  1.00  0.00     0.029 A 
ATOM     45  N   UNL A   1      40.349  28.529  29.688  1.00  0.00    -0.354 N 
ATOM     46  C   UNL A   1      39.765  30.903  33.209  1.00  0.00     0.074 A 
ATOM     47  C   UNL A   1      38.635  31.798  33.061  1.00  0.00     0.031 C 
ATOM     48  C   UNL A   1      39.966  27.836  27.597  1.00  0.00     0.029 A 
ATOM     49  C   UNL A   1      40.887  27.710  28.723  1.00  0.00     0.049 A 
ATOM     50  H   UNL A   1      40.749  28.646  30.580  1.00  0.00     0.167 HD
ATOM     51  C   UNL A   1      40.564  30.854  34.304  1.00  0.00     0.034 A 
ATOM     52  C   UNL A   1      41.991  26.937  28.737  1.00  0.00     0.034 A 
ATOM     53  C   UNL A   1      41.662  29.938  34.477  1.00  0.00     0.049 A 
ATOM     54  C   UNL A   1      42.821  26.853  29.989  1.00  0.00     0.074 A 
ATOM     55  C   UNL A   1      42.465  29.756  35.592  1.00  0.00     0.029 A 
ATOM     56  N   UNL A   1      42.121  29.056  33.512  1.00  0.00    -0.354 N 
ATOM     57  N   UNL A   1      42.643  27.457  31.138  1.00  0.00    -0.248 NA
ATOM     58  C   UNL A   1      43.980  25.948  29.959  1.00  0.00     0.031 C 
ATOM     59  C   UNL A   1      43.415  28.771  35.295  1.00  0.00     0.029 A 
ATOM     60  C   UNL A   1      43.198  28.332  34.000  1.00  0.00     0.049 A 
ATOM     61  H   UNL A   1      41.738  28.958  32.610  1.00  0.00     0.167 HD
ATOM     62  C   UNL A   1      43.649  26.986  31.975  1.00  0.00     0.074 A 
ATOM     63  C   UNL A   1      44.414  26.024  31.210  1.00  0.00     0.031 C 
ATOM     64  C   UNL A   1      43.928  27.339  33.254  1.00  0.00     0.034 A 
BRANCH  51  65
ATOM     65  C   UNL A   1      40.238  31.778  35.451  1.00  0.00     0.023 A 
ATOM     66  C   UNL A   1      41.033  32.924  35.656  1.00  0.00     0.012 A 
ATOM     67  C   UNL A   1      39.114  31.564  36.271  1.00  0.00     0.148 A 
ATOM     68  C   UNL A   1      40.733  33.827  36.674  1.00  0.00     0.002 A 
ATOM     69  C   UNL A   1      38.799  32.488  37.263  1.00  0.00     0.091 A 
ATOM     70  F   UNL A   1      38.378  30.459  36.076  1.00  0.00    -0.205 F 
ATOM     71  C   UNL A   1      39.612  33.615  37.471  1.00  0.00     0.022 A 
BRANCH  69  72
ATOM     72  S   UNL A   1      37.333  32.340  38.293  1.00  0.00     0.127 S 
ATOM     73  O   UNL A   1      37.771  32.992  39.525  1.00  0.00    -0.237 OA
ATOM     74  O   UNL A   1      36.338  33.092  37.527  1.00  0.00    -0.237 OA
ATOM     75  O   UNL A   1      37.062  30.912  38.398  1.00  0.00    -0.744 OA
ENDBRANCH  69  72
ENDBRANCH  51  65
BRANCH  52  76
ATOM     76  C   UNL A   1      42.329  26.112  27.543  1.00  0.00     0.023 A 
ATOM     77  C   UNL A   1      43.111  26.676  26.516  1.00  0.00     0.012 A 
ATOM     78  C   UNL A   1      41.917  24.771  27.437  1.00  0.00     0.148 A 
ATOM     79  C   UNL A   1      43.455  25.924  25.392  1.00  0.00     0.002 A 
ATOM     80  C   UNL A   1      42.308  24.012  26.341  1.00  0.00     0.091 A 
ATOM     81  F   UNL A   1      41.159  24.259  28.417  1.00  0.00    -0.205 F 
ATOM     82  C   UNL A   1      43.064  24.591  25.309  1.00  0.00     0.022 A 
BRANCH  80  83
ATOM     83  S   UNL A   1      41.962  22.254  26.225  1.00  0.00     0.127 S 
ATOM     84  O   UNL A   1      42.500  21.758  27.488  1.00  0.00    -0.237 OA
ATOM     85  O   UNL A   1      40.502  22.235  26.127  1.00  0.00    -0.237 OA
ATOM     86  O   UNL A   1      42.647  21.803  25.020  1.00  0.00    -0.744 OA
ENDBRANCH  80  83
ENDBRANCH  52  76
BRANCH  64  87
ATOM     87  C   UNL A   1      45.107  26.675  33.918  1.00  0.00     0.023 A 
ATOM     88  C   UNL A   1      46.378  27.277  33.837  1.00  0.00     0.012 A 
ATOM     89  C   UNL A   1      44.954  25.485  34.657  1.00  0.00     0.148 A 
ATOM     90  C   UNL A   1      47.484  26.689  34.450  1.00  0.00     0.002 A 
ATOM     91  C   UNL A   1      46.054  24.927  35.300  1.00  0.00     0.091 A 
ATOM     92  F   UNL A   1      43.744  24.909  34.704  1.00  0.00    -0.205 F 
ATOM     93  C   UNL A   1      47.321  25.522  35.190  1.00  0.00     0.022 A 
BRANCH  91  94
ATOM     94  S   UNL A   1      45.906  23.470  36.343  1.00  0.00     0.127 S 
ATOM     95  O   UNL A   1      45.511  24.056  37.623  1.00  0.00    -0.237 OA
ATOM     96  O   UNL A   1      44.854  22.705  35.673  1.00  0.00    -0.237 OA
ATOM     97  O   UNL A   1      47.218  22.836  36.315  1.00  0.00    -0.744 OA
ENDBRANCH  91  94
ENDBRANCH  64  87
ENDBRANCH  38  39
ENDBRANCH  30  33
ENDBRANCH  28  29
ENDBRANCH   1  28
TORSDOF 16
ENDMDL
MODEL 2
REMARK VINA RESULT:     -12.8      4.938     10.234
REMARK SMILES C=C(C)[C@@H]1CC=C(CN2C[C@]34C=C[C@@H](O3)[C@H](C(=O)NCCCNC(=O)c3ccc(-c5c6nc(c(-c7cccc(S(=O)(=O)[O-])c7F)c7ccc([nH]7)c(-c7cccc(S(=O)(=O)[O-])c7F)c7nc(c(-c8cccc(S(=O)(=O)[O-])c8F)c8ccc5[nH]8)C=C7)C=C6)cc3)[C@@H]4C2=O)CC1
REMARK SMILES IDX 21 1 20 2 19 3 17 4 18 5 16 7 9 8 10 9 90 10 11 11 89 12
REMARK SMILES IDX 91 13 12 14 15 15 13 16 14 17 8 18 7 19 4 20 5 21 93 22 6 23
REMARK SMILES IDX 92 24 2 25 1 26 3 27 22 28 23 29 24 30 25 32 26 33 27 34
REMARK SMILES IDX 88 35 28 36 87 37 29 38 30 39 31 40 81 41 32 42 86 43 80 44
REMARK SMILES IDX 82 45 33 46 85 47 79 48 78 49 34 51 66 52 46 53 65 54 47 55
REMARK SMILES IDX 50 56 64 57 83 58 48 59 49 60 63 62 84 63 51 64 35 65 36 66
REMARK SMILES IDX 44 67 37 68 39 69 45 70 38 71 40 72 41 73 42 74 43 75 67 76
REMARK SMILES IDX 68 77 76 78 69 79 71 80 77 81 70 82 72 83 73 84 74 85 75 86
REMARK SMILES IDX 52 87 53 88 61 89 54 90 56 91 62 92 55 93 57 94 58 95 59 96
REMARK SMILES IDX 60 97
REMARK H PARENT 19 6 23 31 82 50 50 61
REMARK Flexibility Score: inf
ROOT
ATOM      1  C   UNL A   1      36.108  22.525  25.371  1.00  0.00     0.042 C 
ENDROOT
BRANCH   1   2
ATOM      2  C   UNL A   1      35.428  21.462  26.249  1.00  0.00     0.117 C 
BRANCH   2   3
ATOM      3  N   UNL A   1      34.382  22.024  27.088  1.00  0.00    -0.356 N 
ATOM      4  C   UNL A   1      33.055  22.249  27.003  1.00  0.00     0.227 C 
ATOM      5  O   UNL A   1      32.553  22.536  28.102  1.00  0.00    -0.275 OA
ATOM      6  H   UNL A   1      34.739  22.322  27.955  1.00  0.00     0.163 HD
BRANCH   4   7
ATOM      7  C   UNL A   1      32.130  22.083  25.779  1.00  0.00     0.127 C 
ATOM      8  N   UNL A   1      33.399  24.507  23.281  1.00  0.00    -0.335 N 
ATOM      9  C   UNL A   1      32.994  24.693  24.623  1.00  0.00     0.160 C 
ATOM     10  C   UNL A   1      32.889  23.235  22.999  1.00  0.00     0.230 C 
ATOM     11  C   UNL A   1      31.570  24.119  24.595  1.00  0.00     0.117 C 
ATOM     12  C   UNL A   1      32.336  22.652  24.345  1.00  0.00     0.132 C 
ATOM     13  O   UNL A   1      32.790  22.711  21.918  1.00  0.00    -0.274 OA
ATOM     14  C   UNL A   1      31.158  24.896  25.838  1.00  0.00     0.009 C 
ATOM     15  O   UNL A   1      30.476  23.207  24.797  1.00  0.00    -0.360 OA
ATOM     16  C   UNL A   1      30.782  24.053  26.789  1.00  0.00     0.004 C 
ATOM     17  C   UNL A   1      30.777  22.722  26.129  1.00  0.00     0.155 C 
BRANCH   8  18
ATOM     18  C   UNL A   1      33.410  25.633  22.322  1.00  0.00     0.150 C 
BRANCH  18  19
ATOM     19  C   UNL A   1      32.959  26.935  22.963  1.00  0.00    -0.055 C 
ATOM     20  C   UNL A   1      32.190  29.128  24.800  1.00  0.00     0.018 C 
ATOM     21  C   UNL A   1      31.258  28.018  24.347  1.00  0.00     0.035 C 
ATOM     22  C   UNL A   1      33.672  28.725  24.679  1.00  0.00     0.013 C 
ATOM     23  C   UNL A   1      31.693  27.386  23.067  1.00  0.00    -0.025 C 
ATOM     24  C   UNL A   1      34.031  27.884  23.447  1.00  0.00     0.033 C 
BRANCH  20  25
ATOM     25  C   UNL A   1      31.871  29.580  26.217  1.00  0.00    -0.077 C 
ATOM     26  C   UNL A   1      31.639  30.858  26.572  1.00  0.00     0.008 C 
ATOM     27  C   UNL A   1      31.779  28.482  27.238  1.00  0.00     0.039 C 
ENDBRANCH  20  25
ENDBRANCH  18  19
ENDBRANCH   8  18
ENDBRANCH   4   7
ENDBRANCH   2   3
ENDBRANCH   1   2
BRANCH   1  28
ATOM     28  C   UNL A   1      37.388  22.107  24.631  1.00  0.00     0.118 C 
BRANCH  28  29
ATOM     29  N   UNL A   1      38.215  21.169  25.372  1.00  0.00    -0.352 N 
ATOM     30  C   UNL A   1      39.281  21.370  26.218  1.00  0.00     0.251 C 
ATOM     31  H   UNL A   1      37.970  20.223  25.246  1.00  0.00     0.163 HD
ATOM     32  O   UNL A   1      39.889  20.384  26.634  1.00  0.00    -0.269 OA
BRANCH  30  33
ATOM     33  C   UNL A   1      39.738  22.725  26.624  1.00  0.00     0.039 A 
ATOM     34  C   UNL A   1      40.721  22.816  27.617  1.00  0.00     0.014 A 
ATOM     35  C   UNL A   1      39.174  23.899  26.115  1.00  0.00     0.014 A 
ATOM     36  C   UNL A   1      41.180  24.067  28.049  1.00  0.00     0.010 A 
ATOM     37  C   UNL A   1      39.667  25.150  26.514  1.00  0.00     0.010 A 
ATOM     38  C   UNL A   1      40.682  25.249  27.479  1.00  0.00    -0.014 A 
BRANCH  38  39
ATOM     39  C   UNL A   1      41.274  26.570  27.841  1.00  0.00     0.031 A 
ATOM     40  C   UNL A   1      42.702  26.920  27.511  1.00  0.00     0.074 A 
ATOM     41  C   UNL A   1      40.526  27.454  28.533  1.00  0.00     0.049 A 
ATOM     42  N   UNL A   1      43.350  28.034  27.741  1.00  0.00    -0.248 NA
ATOM     43  C   UNL A   1      43.511  25.881  26.857  1.00  0.00     0.031 C 
ATOM     44  C   UNL A   1      39.157  27.219  28.997  1.00  0.00     0.029 A 
ATOM     45  N   UNL A   1      40.815  28.720  28.984  1.00  0.00    -0.354 N 
ATOM     46  C   UNL A   1      44.648  27.827  27.287  1.00  0.00     0.074 A 
ATOM     47  C   UNL A   1      44.700  26.468  26.788  1.00  0.00     0.031 C 
ATOM     48  C   UNL A   1      38.725  28.303  29.661  1.00  0.00     0.029 A 
ATOM     49  C   UNL A   1      39.786  29.305  29.685  1.00  0.00     0.049 A 
ATOM     50  H   UNL A   1      41.677  29.167  28.821  1.00  0.00     0.167 HD
ATOM     51  C   UNL A   1      45.692  28.693  27.259  1.00  0.00     0.034 A 
ATOM     52  C   UNL A   1      39.696  30.512  30.277  1.00  0.00     0.034 A 
ATOM     53  C   UNL A   1      45.635  30.059  27.713  1.00  0.00     0.049 A 
ATOM     54  C   UNL A   1      40.847  31.476  30.175  1.00  0.00     0.074 A 
ATOM     55  C   UNL A   1      46.617  31.033  27.637  1.00  0.00     0.029 A 
ATOM     56  N   UNL A   1      44.544  30.646  28.334  1.00  0.00    -0.354 N 
ATOM     57  N   UNL A   1      42.002  31.320  29.577  1.00  0.00    -0.248 NA
ATOM     58  C   UNL A   1      40.664  32.798  30.793  1.00  0.00     0.031 C 
ATOM     59  C   UNL A   1      46.123  32.205  28.221  1.00  0.00     0.029 A 
ATOM     60  C   UNL A   1      44.829  31.965  28.653  1.00  0.00     0.049 A 
ATOM     61  H   UNL A   1      43.691  30.192  28.522  1.00  0.00     0.167 HD
ATOM     62  C   UNL A   1      42.673  32.529  29.724  1.00  0.00     0.074 A 
ATOM     63  C   UNL A   1      41.782  33.418  30.439  1.00  0.00     0.031 C 
ATOM     64  C   UNL A   1      43.924  32.863  29.321  1.00  0.00     0.034 A 
BRANCH  51  65
ATOM     65  C   UNL A   1      46.985  28.212  26.651  1.00  0.00     0.023 A 
ATOM     66  C   UNL A   1      48.004  27.726  27.497  1.00  0.00     0.012 A 
ATOM     67  C   UNL A   1      47.168  28.164  25.255  1.00  0.00     0.148 A 
ATOM     68  C   UNL A   1      49.193  27.228  26.967  1.00  0.00     0.002 A 
ATOM     69  C   UNL A   1      48.343  27.632  24.732  1.00  0.00     0.091 A 
ATOM     70  F   UNL A   1      46.198  28.647  24.464  1.00  0.00    -0.205 F 
ATOM     71  C   UNL A   1      49.358  27.172  25.586  1.00  0.00     0.022 A 
BRANCH  69  72
ATOM     72  S   UNL A   1      48.618  27.449  22.965  1.00  0.00     0.127 S 
ATOM     73  O   UNL A   1      49.948  28.038  22.812  1.00  0.00    -0.237 OA
ATOM     74  O   UNL A   1      48.572  25.997  22.791  1.00  0.00    -0.237 OA
ATOM     75  O   UNL A   1      47.532  28.171  22.315  1.00  0.00    -0.744 OA
ENDBRANCH  69  72
ENDBRANCH  51  65
BRANCH  52  76
ATOM     76  C   UNL A   1      38.429  30.909  30.954  1.00  0.00     0.023 A 
ATOM     77  C   UNL A   1      38.284  30.676  32.336  1.00  0.00     0.012 A 
ATOM     78  C   UNL A   1      37.391  31.547  30.251  1.00  0.00     0.148 A 
ATOM     79  C   UNL A   1      37.114  31.048  32.999  1.00  0.00     0.002 A 
ATOM     80  C   UNL A   1      36.251  31.964  30.929  1.00  0.00     0.091 A 
ATOM     81  F   UNL A   1      37.541  31.744  28.934  1.00  0.00    -0.205 F 
ATOM     82  C   UNL A   1      36.104  31.702  32.300  1.00  0.00     0.022 A 
BRANCH  80  83
ATOM     83  S   UNL A   1      34.966  32.931  30.130  1.00  0.00     0.127 S 
ATOM     84  O   UNL A   1      35.731  34.037  29.563  1.00  0.00    -0.237 OA
ATOM     85  O   UNL A   1      34.434  31.983  29.150  1.00  0.00    -0.237 OA
ATOM     86  O   UNL A   1      34.029  33.281  31.190  1.00  0.00    -0.744 OA
ENDBRANCH  80  83
ENDBRANCH  52  76
BRANCH  64  87
ATOM     87  C   UNL A   1      44.407  34.255  29.637  1.00  0.00     0.023 A 
ATOM     88  C   UNL A   1      45.095  34.494  30.844  1.00  0.00     0.012 A 
ATOM     89  C   UNL A   1      44.224  35.316  28.727  1.00  0.00     0.148 A 
ATOM     90  C   UNL A   1      45.561  35.770  31.156  1.00  0.00     0.002 A 
ATOM     91  C   UNL A   1      44.729  36.577  29.027  1.00  0.00     0.091 A 
ATOM     92  F   UNL A   1      43.546  35.080  27.594  1.00  0.00    -0.205 F 
ATOM     93  C   UNL A   1      45.388  36.809  30.245  1.00  0.00     0.022 A 
BRANCH  91  94
ATOM     94  S   UNL A   1      44.621  37.945  27.866  1.00  0.00     0.127 S 
ATOM     95  O   UNL A   1      45.185  39.045  28.645  1.00  0.00    -0.237 OA
ATOM     96  O   UNL A   1      45.463  37.489  26.759  1.00  0.00    -0.237 OA
ATOM     97  O   UNL A   1      43.207  38.063  27.533  1.00  0.00    -0.744 OA
ENDBRANCH  91  94
ENDBRANCH  64  87
ENDBRANCH  38  39
ENDBRANCH  30  33
ENDBRANCH  28  29
ENDBRANCH   1  28
TORSDOF 16
ENDMDL
MODEL 3
REMARK VINA RESULT:     -12.7      5.479      8.998
REMARK SMILES C=C(C)[C@@H]1CC=C(CN2C[C@]34C=C[C@@H](O3)[C@H](C(=O)NCCCNC(=O)c3ccc(-c5c6nc(c(-c7cccc(S(=O)(=O)[O-])c7F)c7ccc([nH]7)c(-c7cccc(S(=O)(=O)[O-])c7F)c7nc(c(-c8cccc(S(=O)(=O)[O-])c8F)c8ccc5[nH]8)C=C7)C=C6)cc3)[C@@H]4C2=O)CC1
REMARK SMILES IDX 21 1 20 2 19 3 17 4 18 5 16 7 9 8 10 9 90 10 11 11 89 12
REMARK SMILES IDX 91 13 12 14 15 15 13 16 14 17 8 18 7 19 4 20 5 21 93 22 6 23
REMARK SMILES IDX 92 24 2 25 1 26 3 27 22 28 23 29 24 30 25 32 26 33 27 34
REMARK SMILES IDX 88 35 28 36 87 37 29 38 30 39 31 40 81 41 32 42 86 43 80 44
REMARK SMILES IDX 82 45 33 46 85 47 79 48 78 49 34 51 66 52 46 53 65 54 47 55
REMARK SMILES IDX 50 56 64 57 83 58 48 59 49 60 63 62 84 63 51 64 35 65 36 66
REMARK SMILES IDX 44 67 37 68 39 69 45 70 38 71 40 72 41 73 42 74 43 75 67 76
REMARK SMILES IDX 68 77 76 78 69 79 71 80 77 81 70 82 72 83 73 84 74 85 75 86
REMARK SMILES IDX 52 87 53 88 61 89 54 90 56 91 62 92 55 93 57 94 58 95 59 96
REMARK SMILES IDX 60 97
REMARK H PARENT 19 6 23 31 82 50 50 61
REMARK Flexibility Score: inf
ROOT
ATOM      1  C   UNL A   1      37.678  19.707  24.728  1.00  0.00     0.042 C 
ENDROOT
BRANCH   1   2
ATOM      2  C   UNL A   1      36.211  20.102  24.967  1.00  0.00     0.117 C 
BRANCH   2   3
ATOM      3  N   UNL A   1      35.965  21.508  24.693  1.00  0.00    -0.356 N 
ATOM      4  C   UNL A   1      34.898  22.313  24.518  1.00  0.00     0.227 C 
ATOM      5  O   UNL A   1      35.204  23.517  24.551  1.00  0.00    -0.275 OA
ATOM      6  H   UNL A   1      36.808  22.011  24.614  1.00  0.00     0.163 HD
BRANCH   4   7
ATOM      7  C   UNL A   1      33.409  21.922  24.406  1.00  0.00     0.127 C 
ATOM      8  N   UNL A   1      31.553  25.114  24.717  1.00  0.00    -0.335 N 
ATOM      9  C   UNL A   1      32.518  24.522  25.564  1.00  0.00     0.160 C 
ATOM     10  C   UNL A   1      31.206  24.046  23.885  1.00  0.00     0.230 C 
ATOM     11  C   UNL A   1      31.886  23.149  25.834  1.00  0.00     0.117 C 
ATOM     12  C   UNL A   1      32.189  22.868  24.212  1.00  0.00     0.132 C 
ATOM     13  O   UNL A   1      30.270  23.984  23.127  1.00  0.00    -0.274 OA
ATOM     14  C   UNL A   1      32.696  22.949  27.108  1.00  0.00     0.009 C 
ATOM     15  O   UNL A   1      31.649  21.732  25.758  1.00  0.00    -0.360 OA
ATOM     16  C   UNL A   1      33.444  21.860  26.997  1.00  0.00     0.004 C 
ATOM     17  C   UNL A   1      33.009  21.236  25.721  1.00  0.00     0.155 C 
BRANCH   8  18
ATOM     18  C   UNL A   1      30.596  26.117  25.231  1.00  0.00     0.150 C 
BRANCH  18  19
ATOM     19  C   UNL A   1      30.373  27.254  24.246  1.00  0.00    -0.055 C 
ATOM     20  C   UNL A   1      29.542  29.722  22.834  1.00  0.00     0.018 C 
ATOM     21  C   UNL A   1      28.732  28.439  22.872  1.00  0.00     0.035 C 
ATOM     22  C   UNL A   1      30.529  29.819  24.013  1.00  0.00     0.013 C 
ATOM     23  C   UNL A   1      29.568  27.237  23.165  1.00  0.00    -0.025 C 
ATOM     24  C   UNL A   1      31.206  28.503  24.420  1.00  0.00     0.033 C 
BRANCH  20  25
ATOM     25  C   UNL A   1      28.643  30.947  22.786  1.00  0.00    -0.077 C 
ATOM     26  C   UNL A   1      28.160  31.578  23.873  1.00  0.00     0.008 C 
ATOM     27  C   UNL A   1      28.341  31.471  21.410  1.00  0.00     0.039 C 
ENDBRANCH  20  25
ENDBRANCH  18  19
ENDBRANCH   8  18
ENDBRANCH   4   7
ENDBRANCH   2   3
ENDBRANCH   1   2
BRANCH   1  28
ATOM     28  C   UNL A   1      38.702  20.144  25.787  1.00  0.00     0.118 C 
BRANCH  28  29
ATOM     29  N   UNL A   1      39.842  19.249  25.906  1.00  0.00    -0.352 N 
ATOM     30  C   UNL A   1      41.174  19.503  26.140  1.00  0.00     0.251 C 
ATOM     31  H   UNL A   1      39.623  18.295  25.798  1.00  0.00     0.163 HD
ATOM     32  O   UNL A   1      41.965  18.561  26.079  1.00  0.00    -0.269 OA
BRANCH  30  33
ATOM     33  C   UNL A   1      41.691  20.864  26.437  1.00  0.00     0.039 A 
ATOM     34  C   UNL A   1      41.808  21.768  25.374  1.00  0.00     0.014 A 
ATOM     35  C   UNL A   1      42.134  21.245  27.707  1.00  0.00     0.014 A 
ATOM     36  C   UNL A   1      42.302  23.061  25.594  1.00  0.00     0.010 A 
ATOM     37  C   UNL A   1      42.585  22.554  27.935  1.00  0.00     0.010 A 
ATOM     38  C   UNL A   1      42.666  23.480  26.883  1.00  0.00    -0.014 A 
BRANCH  38  39
ATOM     39  C   UNL A   1      43.057  24.898  27.134  1.00  0.00     0.031 A 
ATOM     40  C   UNL A   1      42.130  25.871  27.817  1.00  0.00     0.074 A 
ATOM     41  C   UNL A   1      44.252  25.336  26.686  1.00  0.00     0.049 A 
ATOM     42  N   UNL A   1      42.337  27.127  28.124  1.00  0.00    -0.248 NA
ATOM     43  C   UNL A   1      40.795  25.377  28.185  1.00  0.00     0.031 C 
ATOM     44  C   UNL A   1      45.215  24.531  25.932  1.00  0.00     0.029 A 
ATOM     45  N   UNL A   1      44.853  26.568  26.782  1.00  0.00    -0.354 N 
ATOM     46  C   UNL A   1      41.155  27.584  28.696  1.00  0.00     0.074 A 
ATOM     47  C   UNL A   1      40.225  26.473  28.672  1.00  0.00     0.031 C 
ATOM     48  C   UNL A   1      46.286  25.286  25.639  1.00  0.00     0.029 A 
ATOM     49  C   UNL A   1      46.082  26.632  26.168  1.00  0.00     0.049 A 
ATOM     50  H   UNL A   1      44.443  27.333  27.246  1.00  0.00     0.167 HD
ATOM     51  C   UNL A   1      40.876  28.803  29.220  1.00  0.00     0.034 A 
ATOM     52  C   UNL A   1      46.956  27.651  26.045  1.00  0.00     0.034 A 
ATOM     53  C   UNL A   1      41.808  29.900  29.287  1.00  0.00     0.049 A 
ATOM     54  C   UNL A   1      46.647  28.974  26.692  1.00  0.00     0.074 A 
ATOM     55  C   UNL A   1      41.640  31.138  29.884  1.00  0.00     0.029 A 
ATOM     56  N   UNL A   1      43.080  29.896  28.737  1.00  0.00    -0.354 N 
ATOM     57  N   UNL A   1      45.594  29.325  27.389  1.00  0.00    -0.248 NA
ATOM     58  C   UNL A   1      47.665  30.028  26.570  1.00  0.00     0.031 C 
ATOM     59  C   UNL A   1      42.806  31.887  29.684  1.00  0.00     0.029 A 
ATOM     60  C   UNL A   1      43.705  31.111  28.972  1.00  0.00     0.049 A 
ATOM     61  H   UNL A   1      43.481  29.141  28.249  1.00  0.00     0.167 HD
ATOM     62  C   UNL A   1      45.834  30.628  27.811  1.00  0.00     0.074 A 
ATOM     63  C   UNL A   1      47.146  30.993  27.317  1.00  0.00     0.031 C 
ATOM     64  C   UNL A   1      45.030  31.455  28.522  1.00  0.00     0.034 A 
BRANCH  51  65
ATOM     65  C   UNL A   1      39.513  29.007  29.834  1.00  0.00     0.023 A 
ATOM     66  C   UNL A   1      39.272  28.539  31.141  1.00  0.00     0.012 A 
ATOM     67  C   UNL A   1      38.503  29.723  29.161  1.00  0.00     0.148 A 
ATOM     68  C   UNL A   1      38.041  28.753  31.759  1.00  0.00     0.002 A 
ATOM     69  C   UNL A   1      37.290  29.964  29.798  1.00  0.00     0.091 A 
ATOM     70  F   UNL A   1      38.742  30.146  27.910  1.00  0.00    -0.205 F 
ATOM     71  C   UNL A   1      37.055  29.473  31.092  1.00  0.00     0.022 A 
BRANCH  69  72
ATOM     72  S   UNL A   1      35.983  30.946  29.048  1.00  0.00     0.127 S 
ATOM     73  O   UNL A   1      36.751  31.986  28.366  1.00  0.00    -0.237 OA
ATOM     74  O   UNL A   1      35.342  29.979  28.155  1.00  0.00    -0.237 OA
ATOM     75  O   UNL A   1      35.145  31.401  30.148  1.00  0.00    -0.744 OA
ENDBRANCH  69  72
ENDBRANCH  51  65
BRANCH  52  76
ATOM     76  C   UNL A   1      48.252  27.432  25.343  1.00  0.00     0.023 A 
ATOM     77  C   UNL A   1      49.372  27.003  26.082  1.00  0.00     0.012 A 
ATOM     78  C   UNL A   1      48.371  27.605  23.952  1.00  0.00     0.148 A 
ATOM     79  C   UNL A   1      50.595  26.777  25.450  1.00  0.00     0.002 A 
ATOM     80  C   UNL A   1      49.577  27.326  23.321  1.00  0.00     0.091 A 
ATOM     81  F   UNL A   1      47.298  28.030  23.269  1.00  0.00    -0.205 F 
ATOM     82  C   UNL A   1      50.695  26.926  24.070  1.00  0.00     0.022 A 
BRANCH  80  83
ATOM     83  S   UNL A   1      49.750  27.363  21.533  1.00  0.00     0.127 S 
ATOM     84  O   UNL A   1      49.711  28.796  21.258  1.00  0.00    -0.237 OA
ATOM     85  O   UNL A   1      51.055  26.732  21.339  1.00  0.00    -0.237 OA
ATOM     86  O   UNL A   1      48.629  26.585  21.020  1.00  0.00    -0.744 OA
ENDBRANCH  80  83
ENDBRANCH  52  76
BRANCH  64  87
ATOM     87  C   UNL A   1      45.545  32.839  28.822  1.00  0.00     0.023 A 
ATOM     88  C   UNL A   1      46.226  33.079  30.032  1.00  0.00     0.012 A 
ATOM     89  C   UNL A   1      45.399  33.890  27.894  1.00  0.00     0.148 A 
ATOM     90  C   UNL A   1      46.722  34.348  30.330  1.00  0.00     0.002 A 
ATOM     91  C   UNL A   1      45.933  35.142  28.181  1.00  0.00     0.091 A 
ATOM     92  F   UNL A   1      44.726  33.654  26.758  1.00  0.00    -0.205 F 
ATOM     93  C   UNL A   1      46.586  35.376  29.401  1.00  0.00     0.022 A 
BRANCH  91  94
ATOM     94  S   UNL A   1      45.872  36.494  26.997  1.00  0.00     0.127 S 
ATOM     95  O   UNL A   1      44.433  36.717  26.871  1.00  0.00    -0.237 OA
ATOM     96  O   UNL A   1      46.594  37.559  27.694  1.00  0.00    -0.237 OA
ATOM     97  O   UNL A   1      46.544  35.998  25.803  1.00  0.00    -0.744 OA
ENDBRANCH  91  94
ENDBRANCH  64  87
ENDBRANCH  38  39
ENDBRANCH  30  33
ENDBRANCH  28  29
ENDBRANCH   1  28
TORSDOF 16
ENDMDL
