MODEL 1
REMARK VINA RESULT:     -12.0      0.000      0.000
REMARK SMILES Cc1cc2c(c(C)c1Cl)C=C(C(=O)NCCCNC(=O)c1ccc(-c3c4nc(c(-c5cccc(S(=O)(=O)[O-])c5F)c5ccc([nH]5)c(-c5cccc(S(=O)(=O)[O-])c5F)c5nc(c(-c6cccc(S(=O)(=O)[O-])c6F)c6ccc3[nH]6)C=C5)C=C4)cc1)[C@@H](C(F)(F)F)O2
REMARK SMILES IDX 17 1 16 2 15 3 14 4 12 5 13 6 11 8 1 9 2 10 3 11 8 12 4 13
REMARK SMILES IDX 6 14 9 15 5 16 89 17 7 18 10 19 84 20 85 21 86 22 87 23
REMARK SMILES IDX 88 24 18 25 19 26 20 28 21 29 22 30 83 31 23 32 82 33 24 34
REMARK SMILES IDX 25 35 26 36 76 37 27 38 81 39 75 40 77 41 28 42 80 43 74 44
REMARK SMILES IDX 73 45 29 47 61 48 41 49 60 50 42 51 45 52 59 53 78 54 43 55
REMARK SMILES IDX 44 56 58 58 79 59 46 60 30 61 31 62 39 63 32 64 34 65 40 66
REMARK SMILES IDX 33 67 35 68 36 69 37 70 38 71 62 72 63 73 71 74 64 75 66 76
REMARK SMILES IDX 72 77 65 78 67 79 68 80 69 81 70 82 47 83 48 84 56 85 49 86
REMARK SMILES IDX 51 87 57 88 50 89 52 90 53 91 54 92 55 93
REMARK H PARENT 14 7 18 27 77 46 45 57
REMARK Flexibility Score: inf
ROOT
ATOM      1  C   UNL A   1      33.919  28.665  26.293  1.00  0.00     0.118 C 
ENDROOT
BRANCH   1   2
ATOM      2  C   UNL A   1      33.805  28.546  24.779  1.00  0.00     0.042 C 
BRANCH   2   3
ATOM      3  C   UNL A   1      33.113  27.260  24.354  1.00  0.00     0.118 C 
BRANCH   3   4
ATOM      4  N   UNL A   1      32.255  26.726  25.401  1.00  0.00    -0.352 N 
ATOM      5  C   UNL A   1      32.051  25.535  26.008  1.00  0.00     0.251 C 
ATOM      6  O   UNL A   1      31.203  25.540  26.906  1.00  0.00    -0.270 OA
ATOM      7  H   UNL A   1      31.660  27.421  25.766  1.00  0.00     0.163 HD
BRANCH   5   8
ATOM      8  C   UNL A   1      32.772  24.270  25.680  1.00  0.00     0.067 C 
ATOM      9  C   UNL A   1      36.882  19.302  24.848  1.00  0.00     0.046 C 
ATOM     10  C   UNL A   1      36.244  20.640  25.103  1.00  0.00    -0.028 A 
ATOM     11  C   UNL A   1      34.850  20.706  25.043  1.00  0.00     0.052 A 
ATOM     12  C   UNL A   1      36.963  21.798  25.466  1.00  0.00     0.047 A 
ATOM     13  C   UNL A   1      34.186  21.898  25.301  1.00  0.00     0.128 A 
ATOM     14  C   UNL A   1      36.297  23.022  25.728  1.00  0.00    -0.021 A 
ATOM     15  Cl  UNL A   1      38.692  21.692  25.606  1.00  0.00    -0.084 Cl
ATOM     16  C   UNL A   1      34.883  23.059  25.648  1.00  0.00     0.022 A 
ATOM     17  O   UNL A   1      32.825  21.827  25.234  1.00  0.00    -0.475 OA
ATOM     18  C   UNL A   1      37.050  24.278  26.103  1.00  0.00     0.047 C 
ATOM     19  C   UNL A   1      34.088  24.252  25.961  1.00  0.00     0.026 C 
ATOM     20  C   UNL A   1      32.120  23.078  25.049  1.00  0.00     0.314 C 
BRANCH  20  21
ATOM     21  C   UNL A   1      31.839  23.284  23.549  1.00  0.00     0.429 C 
ATOM     22  F   UNL A   1      30.524  23.537  23.338  1.00  0.00    -0.167 F 
ATOM     23  F   UNL A   1      32.518  24.334  23.026  1.00  0.00    -0.167 F 
ATOM     24  F   UNL A   1      32.166  22.203  22.804  1.00  0.00    -0.167 F 
ENDBRANCH  20  21
ENDBRANCH   5   8
ENDBRANCH   3   4
ENDBRANCH   2   3
ENDBRANCH   1   2
BRANCH   1  25
ATOM     25  N   UNL A   1      33.881  30.058  26.732  1.00  0.00    -0.352 N 
ATOM     26  C   UNL A   1      34.677  30.721  27.632  1.00  0.00     0.251 C 
ATOM     27  H   UNL A   1      33.176  30.607  26.318  1.00  0.00     0.163 HD
ATOM     28  O   UNL A   1      34.314  31.809  28.080  1.00  0.00    -0.269 OA
BRANCH  26  29
ATOM     29  C   UNL A   1      35.959  30.131  28.056  1.00  0.00     0.039 A 
ATOM     30  C   UNL A   1      37.079  30.244  27.229  1.00  0.00     0.014 A 
ATOM     31  C   UNL A   1      36.046  29.445  29.270  1.00  0.00     0.014 A 
ATOM     32  C   UNL A   1      38.302  29.723  27.655  1.00  0.00     0.010 A 
ATOM     33  C   UNL A   1      37.281  29.022  29.737  1.00  0.00     0.010 A 
ATOM     34  C   UNL A   1      38.418  29.138  28.927  1.00  0.00    -0.014 A 
BRANCH  34  35
ATOM     35  C   UNL A   1      39.712  28.619  29.428  1.00  0.00     0.031 A 
ATOM     36  C   UNL A   1      40.435  29.347  30.529  1.00  0.00     0.074 A 
ATOM     37  C   UNL A   1      40.271  27.544  28.838  1.00  0.00     0.049 A 
ATOM     38  N   UNL A   1      41.599  29.086  31.062  1.00  0.00    -0.248 NA
ATOM     39  C   UNL A   1      39.778  30.545  31.086  1.00  0.00     0.031 C 
ATOM     40  C   UNL A   1      39.697  26.804  27.712  1.00  0.00     0.029 A 
ATOM     41  N   UNL A   1      41.453  26.896  29.092  1.00  0.00    -0.354 N 
ATOM     42  C   UNL A   1      41.825  30.096  31.991  1.00  0.00     0.074 A 
ATOM     43  C   UNL A   1      40.705  31.005  31.913  1.00  0.00     0.031 C 
ATOM     44  C   UNL A   1      40.515  25.791  27.389  1.00  0.00     0.029 A 
ATOM     45  C   UNL A   1      41.686  25.827  28.259  1.00  0.00     0.049 A 
ATOM     46  H   UNL A   1      42.076  27.170  29.803  1.00  0.00     0.167 HD
ATOM     47  C   UNL A   1      42.851  30.228  32.861  1.00  0.00     0.034 A 
ATOM     48  C   UNL A   1      42.726  24.970  28.205  1.00  0.00     0.034 A 
ATOM     49  C   UNL A   1      43.933  29.290  32.968  1.00  0.00     0.049 A 
ATOM     50  C   UNL A   1      43.842  25.125  29.204  1.00  0.00     0.074 A 
ATOM     51  C   UNL A   1      44.983  29.290  33.866  1.00  0.00     0.029 A 
ATOM     52  N   UNL A   1      44.101  28.182  32.151  1.00  0.00    -0.354 N 
ATOM     53  N   UNL A   1      43.968  26.003  30.169  1.00  0.00    -0.248 NA
ATOM     54  C   UNL A   1      44.943  24.153  29.129  1.00  0.00     0.031 C 
ATOM     55  C   UNL A   1      45.800  28.193  33.579  1.00  0.00     0.029 A 
ATOM     56  C   UNL A   1      45.244  27.495  32.520  1.00  0.00     0.049 A 
ATOM     57  H   UNL A   1      43.497  27.923  31.417  1.00  0.00     0.167 HD
ATOM     58  C   UNL A   1      45.142  25.674  30.836  1.00  0.00     0.074 A 
ATOM     59  C   UNL A   1      45.679  24.500  30.177  1.00  0.00     0.031 C 
ATOM     60  C   UNL A   1      45.734  26.297  31.884  1.00  0.00     0.034 A 
BRANCH  47  61
ATOM     61  C   UNL A   1      42.816  31.388  33.824  1.00  0.00     0.023 A 
ATOM     62  C   UNL A   1      43.383  32.621  33.439  1.00  0.00     0.012 A 
ATOM     63  C   UNL A   1      42.156  31.287  35.063  1.00  0.00     0.148 A 
ATOM     64  C   UNL A   1      43.317  33.728  34.283  1.00  0.00     0.002 A 
ATOM     65  C   UNL A   1      42.052  32.409  35.879  1.00  0.00     0.091 A 
ATOM     66  F   UNL A   1      41.643  30.102  35.421  1.00  0.00    -0.205 F 
ATOM     67  C   UNL A   1      42.642  33.626  35.496  1.00  0.00     0.022 A 
BRANCH  65  68
ATOM     68  S   UNL A   1      41.129  32.410  37.419  1.00  0.00     0.127 S 
ATOM     69  O   UNL A   1      41.980  31.581  38.273  1.00  0.00    -0.237 OA
ATOM     70  O   UNL A   1      41.116  33.830  37.767  1.00  0.00    -0.237 OA
ATOM     71  O   UNL A   1      39.823  31.844  37.108  1.00  0.00    -0.744 OA
ENDBRANCH  65  68
ENDBRANCH  47  61
BRANCH  48  72
ATOM     72  C   UNL A   1      42.705  23.840  27.234  1.00  0.00     0.023 A 
ATOM     73  C   UNL A   1      43.314  24.005  25.974  1.00  0.00     0.012 A 
ATOM     74  C   UNL A   1      42.146  22.590  27.565  1.00  0.00     0.148 A 
ATOM     75  C   UNL A   1      43.349  22.957  25.056  1.00  0.00     0.002 A 
ATOM     76  C   UNL A   1      42.235  21.531  26.667  1.00  0.00     0.091 A 
ATOM     77  F   UNL A   1      41.562  22.453  28.764  1.00  0.00    -0.205 F 
ATOM     78  C   UNL A   1      42.821  21.716  25.406  1.00  0.00     0.022 A 
BRANCH  76  79
ATOM     79  S   UNL A   1      41.714  19.862  27.084  1.00  0.00     0.127 S 
ATOM     80  O   UNL A   1      40.506  20.112  27.864  1.00  0.00    -0.237 OA
ATOM     81  O   UNL A   1      41.486  19.280  25.761  1.00  0.00    -0.237 OA
ATOM     82  O   UNL A   1      42.828  19.273  27.816  1.00  0.00    -0.744 OA
ENDBRANCH  76  79
ENDBRANCH  48  72
BRANCH  60  83
ATOM     83  C   UNL A   1      47.025  25.727  32.412  1.00  0.00     0.023 A 
ATOM     84  C   UNL A   1      48.250  26.190  31.897  1.00  0.00     0.012 A 
ATOM     85  C   UNL A   1      47.023  24.835  33.504  1.00  0.00     0.148 A 
ATOM     86  C   UNL A   1      49.457  25.762  32.446  1.00  0.00     0.002 A 
ATOM     87  C   UNL A   1      48.228  24.454  34.081  1.00  0.00     0.091 A 
ATOM     88  F   UNL A   1      45.845  24.397  33.970  1.00  0.00    -0.205 F 
ATOM     89  C   UNL A   1      49.445  24.908  33.548  1.00  0.00     0.022 A 
BRANCH  87  90
ATOM     90  S   UNL A   1      48.312  23.450  35.568  1.00  0.00     0.127 S 
ATOM     91  O   UNL A   1      47.615  24.294  36.537  1.00  0.00    -0.237 OA
ATOM     92  O   UNL A   1      47.581  22.247  35.170  1.00  0.00    -0.237 OA
ATOM     93  O   UNL A   1      49.729  23.239  35.833  1.00  0.00    -0.744 OA
ENDBRANCH  87  90
ENDBRANCH  60  83
ENDBRANCH  34  35
ENDBRANCH  26  29
ENDBRANCH   1  25
TORSDOF 14
ENDMDL
MODEL 2
REMARK VINA RESULT:     -12.0      3.172      4.277
REMARK SMILES Cc1cc2c(c(C)c1Cl)C=C(C(=O)NCCCNC(=O)c1ccc(-c3c4nc(c(-c5cccc(S(=O)(=O)[O-])c5F)c5ccc([nH]5)c(-c5cccc(S(=O)(=O)[O-])c5F)c5nc(c(-c6cccc(S(=O)(=O)[O-])c6F)c6ccc3[nH]6)C=C5)C=C4)cc1)[C@@H](C(F)(F)F)O2
REMARK SMILES IDX 17 1 16 2 15 3 14 4 12 5 13 6 11 8 1 9 2 10 3 11 8 12 4 13
REMARK SMILES IDX 6 14 9 15 5 16 89 17 7 18 10 19 84 20 85 21 86 22 87 23
REMARK SMILES IDX 88 24 18 25 19 26 20 28 21 29 22 30 83 31 23 32 82 33 24 34
REMARK SMILES IDX 25 35 26 36 76 37 27 38 81 39 75 40 77 41 28 42 80 43 74 44
REMARK SMILES IDX 73 45 29 47 61 48 41 49 60 50 42 51 45 52 59 53 78 54 43 55
REMARK SMILES IDX 44 56 58 58 79 59 46 60 30 61 31 62 39 63 32 64 34 65 40 66
REMARK SMILES IDX 33 67 35 68 36 69 37 70 38 71 62 72 63 73 71 74 64 75 66 76
REMARK SMILES IDX 72 77 65 78 67 79 68 80 69 81 70 82 47 83 48 84 56 85 49 86
REMARK SMILES IDX 51 87 57 88 50 89 52 90 53 91 54 92 55 93
REMARK H PARENT 14 7 18 27 77 46 45 57
REMARK Flexibility Score: inf
ROOT
ATOM      1  C   UNL A   1      32.367  31.940  27.185  1.00  0.00     0.118 C 
ENDROOT
BRANCH   1   2
ATOM      2  C   UNL A   1      31.214  31.665  26.229  1.00  0.00     0.042 C 
BRANCH   2   3
ATOM      3  C   UNL A   1      31.427  30.394  25.422  1.00  0.00     0.118 C 
BRANCH   3   4
ATOM      4  N   UNL A   1      30.568  30.338  24.248  1.00  0.00    -0.352 N 
ATOM      5  C   UNL A   1      30.246  29.434  23.295  1.00  0.00     0.251 C 
ATOM      6  O   UNL A   1      29.415  29.818  22.465  1.00  0.00    -0.270 OA
ATOM      7  H   UNL A   1      30.094  31.190  24.110  1.00  0.00     0.163 HD
BRANCH   5   8
ATOM      8  C   UNL A   1      30.801  28.053  23.200  1.00  0.00     0.067 C 
ATOM      9  C   UNL A   1      32.317  21.744  23.619  1.00  0.00     0.046 C 
ATOM     10  C   UNL A   1      31.793  23.136  23.843  1.00  0.00    -0.028 A 
ATOM     11  C   UNL A   1      32.087  24.094  22.870  1.00  0.00     0.052 A 
ATOM     12  C   UNL A   1      30.970  23.501  24.928  1.00  0.00     0.047 A 
ATOM     13  C   UNL A   1      31.610  25.393  22.989  1.00  0.00     0.128 A 
ATOM     14  C   UNL A   1      30.479  24.826  25.062  1.00  0.00    -0.021 A 
ATOM     15  Cl  UNL A   1      30.549  22.286  26.098  1.00  0.00    -0.084 Cl
ATOM     16  C   UNL A   1      30.805  25.777  24.065  1.00  0.00     0.022 A 
ATOM     17  O   UNL A   1      31.946  26.228  21.963  1.00  0.00    -0.475 OA
ATOM     18  C   UNL A   1      29.608  25.241  26.226  1.00  0.00     0.047 C 
ATOM     19  C   UNL A   1      30.299  27.154  24.068  1.00  0.00     0.026 C 
ATOM     20  C   UNL A   1      31.872  27.648  22.234  1.00  0.00     0.314 C 
BRANCH  20  21
ATOM     21  C   UNL A   1      33.265  28.158  22.649  1.00  0.00     0.429 C 
ATOM     22  F   UNL A   1      33.632  27.632  23.844  1.00  0.00    -0.167 F 
ATOM     23  F   UNL A   1      34.234  27.815  21.766  1.00  0.00    -0.167 F 
ATOM     24  F   UNL A   1      33.312  29.505  22.770  1.00  0.00    -0.167 F 
ENDBRANCH  20  21
ENDBRANCH   5   8
ENDBRANCH   3   4
ENDBRANCH   2   3
ENDBRANCH   1   2
BRANCH   1  25
ATOM     25  N   UNL A   1      32.601  33.372  27.355  1.00  0.00    -0.352 N 
ATOM     26  C   UNL A   1      33.531  34.030  28.121  1.00  0.00     0.251 C 
ATOM     27  H   UNL A   1      31.997  33.957  26.841  1.00  0.00     0.163 HD
ATOM     28  O   UNL A   1      33.389  35.230  28.355  1.00  0.00    -0.269 OA
BRANCH  26  29
ATOM     29  C   UNL A   1      34.693  33.298  28.656  1.00  0.00     0.039 A 
ATOM     30  C   UNL A   1      35.984  33.706  28.312  1.00  0.00     0.014 A 
ATOM     31  C   UNL A   1      34.501  32.192  29.486  1.00  0.00     0.014 A 
ATOM     32  C   UNL A   1      37.082  33.039  28.858  1.00  0.00     0.010 A 
ATOM     33  C   UNL A   1      35.590  31.599  30.109  1.00  0.00     0.010 A 
ATOM     34  C   UNL A   1      36.891  32.002  29.786  1.00  0.00    -0.014 A 
BRANCH  34  35
ATOM     35  C   UNL A   1      38.036  31.306  30.420  1.00  0.00     0.031 A 
ATOM     36  C   UNL A   1      38.435  31.652  31.829  1.00  0.00     0.074 A 
ATOM     37  C   UNL A   1      38.761  30.427  29.700  1.00  0.00     0.049 A 
ATOM     38  N   UNL A   1      39.437  31.198  32.535  1.00  0.00    -0.248 NA
ATOM     39  C   UNL A   1      37.620  32.662  32.529  1.00  0.00     0.031 C 
ATOM     40  C   UNL A   1      38.512  30.071  28.301  1.00  0.00     0.029 A 
ATOM     41  N   UNL A   1      39.863  29.684  30.039  1.00  0.00    -0.354 N 
ATOM     42  C   UNL A   1      39.389  31.884  33.743  1.00  0.00     0.074 A 
ATOM     43  C   UNL A   1      38.294  32.823  33.658  1.00  0.00     0.031 C 
ATOM     44  C   UNL A   1      39.419  29.163  27.910  1.00  0.00     0.029 A 
ATOM     45  C   UNL A   1      40.333  28.895  29.016  1.00  0.00     0.049 A 
ATOM     46  H   UNL A   1      40.279  29.713  30.931  1.00  0.00     0.167 HD
ATOM     47  C   UNL A   1      40.160  31.715  34.841  1.00  0.00     0.034 A 
ATOM     48  C   UNL A   1      41.382  28.049  28.975  1.00  0.00     0.034 A 
ATOM     49  C   UNL A   1      41.212  30.741  34.935  1.00  0.00     0.049 A 
ATOM     50  C   UNL A   1      42.207  27.859  30.220  1.00  0.00     0.074 A 
ATOM     51  C   UNL A   1      42.003  30.437  36.026  1.00  0.00     0.029 A 
ATOM     52  N   UNL A   1      41.617  29.913  33.899  1.00  0.00    -0.354 N 
ATOM     53  N   UNL A   1      42.058  28.413  31.400  1.00  0.00    -0.248 NA
ATOM     54  C   UNL A   1      43.323  26.906  30.141  1.00  0.00     0.031 C 
ATOM     55  C   UNL A   1      42.903  29.438  35.644  1.00  0.00     0.029 A 
ATOM     56  C   UNL A   1      42.653  29.101  34.323  1.00  0.00     0.049 A 
ATOM     57  H   UNL A   1      41.224  29.904  32.996  1.00  0.00     0.167 HD
ATOM     58  C   UNL A   1      43.038  27.855  32.211  1.00  0.00     0.074 A 
ATOM     59  C   UNL A   1      43.762  26.902  31.394  1.00  0.00     0.031 C 
ATOM     60  C   UNL A   1      43.327  28.121  33.509  1.00  0.00     0.034 A 
BRANCH  47  61
ATOM     61  C   UNL A   1      39.846  32.544  36.060  1.00  0.00     0.023 A 
ATOM     62  C   UNL A   1      40.464  33.802  36.216  1.00  0.00     0.012 A 
ATOM     63  C   UNL A   1      38.886  32.124  37.001  1.00  0.00     0.148 A 
ATOM     64  C   UNL A   1      40.152  34.618  37.302  1.00  0.00     0.002 A 
ATOM     65  C   UNL A   1      38.545  32.965  38.055  1.00  0.00     0.091 A 
ATOM     66  F   UNL A   1      38.326  30.917  36.848  1.00  0.00    -0.205 F 
ATOM     67  C   UNL A   1      39.185  34.205  38.214  1.00  0.00     0.022 A 
BRANCH  65  68
ATOM     68  S   UNL A   1      37.250  32.569  39.235  1.00  0.00     0.127 S 
ATOM     69  O   UNL A   1      37.467  33.587  40.263  1.00  0.00    -0.237 OA
ATOM     70  O   UNL A   1      36.041  32.759  38.436  1.00  0.00    -0.237 OA
ATOM     71  O   UNL A   1      37.495  31.197  39.658  1.00  0.00    -0.744 OA
ENDBRANCH  65  68
ENDBRANCH  47  61
BRANCH  48  72
ATOM     72  C   UNL A   1      41.643  27.252  27.743  1.00  0.00     0.023 A 
ATOM     73  C   UNL A   1      42.200  27.890  26.617  1.00  0.00     0.012 A 
ATOM     74  C   UNL A   1      41.406  25.864  27.695  1.00  0.00     0.148 A 
ATOM     75  C   UNL A   1      42.495  27.168  25.461  1.00  0.00     0.002 A 
ATOM     76  C   UNL A   1      41.756  25.139  26.560  1.00  0.00     0.091 A 
ATOM     77  F   UNL A   1      40.867  25.275  28.771  1.00  0.00    -0.205 F 
ATOM     78  C   UNL A   1      42.284  25.792  25.436  1.00  0.00     0.022 A 
BRANCH  76  79
ATOM     79  S   UNL A   1      41.657  23.347  26.488  1.00  0.00     0.127 S 
ATOM     80  O   UNL A   1      42.382  23.056  25.255  1.00  0.00    -0.237 OA
ATOM     81  O   UNL A   1      42.348  22.958  27.718  1.00  0.00    -0.237 OA
ATOM     82  O   UNL A   1      40.234  23.031  26.473  1.00  0.00    -0.744 OA
ENDBRANCH  76  79
ENDBRANCH  48  72
BRANCH  60  83
ATOM     83  C   UNL A   1      44.463  27.369  34.151  1.00  0.00     0.023 A 
ATOM     84  C   UNL A   1      45.764  27.905  34.105  1.00  0.00     0.012 A 
ATOM     85  C   UNL A   1      44.218  26.205  34.909  1.00  0.00     0.148 A 
ATOM     86  C   UNL A   1      46.810  27.285  34.787  1.00  0.00     0.002 A 
ATOM     87  C   UNL A   1      45.253  25.624  35.630  1.00  0.00     0.091 A 
ATOM     88  F   UNL A   1      42.974  25.706  34.928  1.00  0.00    -0.205 F 
ATOM     89  C   UNL A   1      46.551  26.156  35.562  1.00  0.00     0.022 A 
BRANCH  87  90
ATOM     90  S   UNL A   1      44.996  24.238  36.743  1.00  0.00     0.127 S 
ATOM     91  O   UNL A   1      46.351  23.998  37.236  1.00  0.00    -0.237 OA
ATOM     92  O   UNL A   1      44.078  24.802  37.733  1.00  0.00    -0.237 OA
ATOM     93  O   UNL A   1      44.431  23.168  35.931  1.00  0.00    -0.744 OA
ENDBRANCH  87  90
ENDBRANCH  60  83
ENDBRANCH  34  35
ENDBRANCH  26  29
ENDBRANCH   1  25
TORSDOF 14
ENDMDL
MODEL 3
REMARK VINA RESULT:     -12.0      3.859      8.962
REMARK SMILES Cc1cc2c(c(C)c1Cl)C=C(C(=O)NCCCNC(=O)c1ccc(-c3c4nc(c(-c5cccc(S(=O)(=O)[O-])c5F)c5ccc([nH]5)c(-c5cccc(S(=O)(=O)[O-])c5F)c5nc(c(-c6cccc(S(=O)(=O)[O-])c6F)c6ccc3[nH]6)C=C5)C=C4)cc1)[C@@H](C(F)(F)F)O2
REMARK SMILES IDX 17 1 16 2 15 3 14 4 12 5 13 6 11 8 1 9 2 10 3 11 8 12 4 13
REMARK SMILES IDX 6 14 9 15 5 16 89 17 7 18 10 19 84 20 85 21 86 22 87 23
REMARK SMILES IDX 88 24 18 25 19 26 20 28 21 29 22 30 83 31 23 32 82 33 24 34
REMARK SMILES IDX 25 35 26 36 76 37 27 38 81 39 75 40 77 41 28 42 80 43 74 44
REMARK SMILES IDX 73 45 29 47 61 48 41 49 60 50 42 51 45 52 59 53 78 54 43 55
REMARK SMILES IDX 44 56 58 58 79 59 46 60 30 61 31 62 39 63 32 64 34 65 40 66
REMARK SMILES IDX 33 67 35 68 36 69 37 70 38 71 62 72 63 73 71 74 64 75 66 76
REMARK SMILES IDX 72 77 65 78 67 79 68 80 69 81 70 82 47 83 48 84 56 85 49 86
REMARK SMILES IDX 51 87 57 88 50 89 52 90 53 91 54 92 55 93
REMARK H PARENT 14 7 18 27 77 46 45 57
REMARK Flexibility Score: inf
ROOT
ATOM      1  C   UNL A   1      32.778  32.215  27.198  1.00  0.00     0.118 C 
ENDROOT
BRANCH   1   2
ATOM      2  C   UNL A   1      31.477  31.618  26.677  1.00  0.00     0.042 C 
BRANCH   2   3
ATOM      3  C   UNL A   1      31.719  30.459  25.722  1.00  0.00     0.118 C 
BRANCH   3   4
ATOM      4  N   UNL A   1      30.769  30.450  24.619  1.00  0.00    -0.352 N 
ATOM      5  C   UNL A   1      30.361  29.581  23.667  1.00  0.00     0.251 C 
ATOM      6  O   UNL A   1      29.473  30.000  22.918  1.00  0.00    -0.270 OA
ATOM      7  H   UNL A   1      30.297  31.311  24.545  1.00  0.00     0.163 HD
BRANCH   5   8
ATOM      8  C   UNL A   1      30.889  28.197  23.485  1.00  0.00     0.067 C 
ATOM      9  C   UNL A   1      32.301  21.851  23.531  1.00  0.00     0.046 C 
ATOM     10  C   UNL A   1      31.807  23.238  23.841  1.00  0.00    -0.028 A 
ATOM     11  C   UNL A   1      32.097  24.242  22.914  1.00  0.00     0.052 A 
ATOM     12  C   UNL A   1      31.017  23.558  24.964  1.00  0.00     0.047 A 
ATOM     13  C   UNL A   1      31.645  25.540  23.113  1.00  0.00     0.128 A 
ATOM     14  C   UNL A   1      30.552  24.881  25.180  1.00  0.00    -0.021 A 
ATOM     15  Cl  UNL A   1      30.601  22.289  26.077  1.00  0.00    -0.084 Cl
ATOM     16  C   UNL A   1      30.873  25.879  24.228  1.00  0.00     0.022 A 
ATOM     17  O   UNL A   1      31.973  26.423  22.126  1.00  0.00    -0.475 OA
ATOM     18  C   UNL A   1      29.717  25.248  26.385  1.00  0.00     0.047 C 
ATOM     19  C   UNL A   1      30.391  27.262  24.316  1.00  0.00     0.026 C 
ATOM     20  C   UNL A   1      31.931  27.828  22.474  1.00  0.00     0.314 C 
BRANCH  20  21
ATOM     21  C   UNL A   1      33.342  28.291  22.882  1.00  0.00     0.429 C 
ATOM     22  F   UNL A   1      33.450  29.639  22.786  1.00  0.00    -0.167 F 
ATOM     23  F   UNL A   1      33.648  27.974  24.164  1.00  0.00    -0.167 F 
ATOM     24  F   UNL A   1      34.312  27.752  22.109  1.00  0.00    -0.167 F 
ENDBRANCH  20  21
ENDBRANCH   5   8
ENDBRANCH   3   4
ENDBRANCH   2   3
ENDBRANCH   1   2
BRANCH   1  25
ATOM     25  N   UNL A   1      32.645  33.642  27.481  1.00  0.00    -0.352 N 
ATOM     26  C   UNL A   1      33.195  34.398  28.486  1.00  0.00     0.251 C 
ATOM     27  H   UNL A   1      32.071  34.139  26.854  1.00  0.00     0.163 HD
ATOM     28  O   UNL A   1      32.741  35.517  28.725  1.00  0.00    -0.269 OA
BRANCH  26  29
ATOM     29  C   UNL A   1      34.324  33.868  29.271  1.00  0.00     0.039 A 
ATOM     30  C   UNL A   1      34.087  32.923  30.271  1.00  0.00     0.014 A 
ATOM     31  C   UNL A   1      35.621  34.326  29.027  1.00  0.00     0.014 A 
ATOM     32  C   UNL A   1      35.164  32.390  30.981  1.00  0.00     0.010 A 
ATOM     33  C   UNL A   1      36.697  33.720  29.659  1.00  0.00     0.010 A 
ATOM     34  C   UNL A   1      36.479  32.761  30.655  1.00  0.00    -0.014 A 
BRANCH  34  35
ATOM     35  C   UNL A   1      37.648  32.178  31.357  1.00  0.00     0.031 A 
ATOM     36  C   UNL A   1      38.399  31.032  30.735  1.00  0.00     0.074 A 
ATOM     37  C   UNL A   1      37.978  32.626  32.584  1.00  0.00     0.049 A 
ATOM     38  N   UNL A   1      39.406  30.351  31.215  1.00  0.00    -0.248 NA
ATOM     39  C   UNL A   1      37.941  30.567  29.412  1.00  0.00     0.031 C 
ATOM     40  C   UNL A   1      37.273  33.681  33.316  1.00  0.00     0.029 A 
ATOM     41  N   UNL A   1      38.979  32.241  33.439  1.00  0.00    -0.354 N 
ATOM     42  C   UNL A   1      39.681  29.368  30.272  1.00  0.00     0.074 A 
ATOM     43  C   UNL A   1      38.704  29.503  29.217  1.00  0.00     0.031 C 
ATOM     44  C   UNL A   1      37.878  33.875  34.499  1.00  0.00     0.029 A 
ATOM     45  C   UNL A   1      38.991  32.939  34.624  1.00  0.00     0.049 A 
ATOM     46  H   UNL A   1      39.628  31.533  33.225  1.00  0.00     0.167 HD
ATOM     47  C   UNL A   1      40.686  28.463  30.265  1.00  0.00     0.034 A 
ATOM     48  C   UNL A   1      39.809  32.837  35.691  1.00  0.00     0.034 A 
ATOM     49  C   UNL A   1      41.685  28.372  31.293  1.00  0.00     0.049 A 
ATOM     50  C   UNL A   1      40.936  31.839  35.645  1.00  0.00     0.074 A 
ATOM     51  C   UNL A   1      42.788  27.541  31.345  1.00  0.00     0.029 A 
ATOM     52  N   UNL A   1      41.703  29.140  32.448  1.00  0.00    -0.354 N 
ATOM     53  N   UNL A   1      41.267  31.014  34.681  1.00  0.00    -0.248 NA
ATOM     54  C   UNL A   1      41.822  31.780  36.817  1.00  0.00     0.031 C 
ATOM     55  C   UNL A   1      43.463  27.791  32.544  1.00  0.00     0.029 A 
ATOM     56  C   UNL A   1      42.795  28.797  33.223  1.00  0.00     0.049 A 
ATOM     57  H   UNL A   1      41.037  29.827  32.680  1.00  0.00     0.167 HD
ATOM     58  C   UNL A   1      42.414  30.360  35.114  1.00  0.00     0.074 A 
ATOM     59  C   UNL A   1      42.734  30.901  36.419  1.00  0.00     0.031 C 
ATOM     60  C   UNL A   1      43.126  29.385  34.497  1.00  0.00     0.034 A 
BRANCH  47  61
ATOM     61  C   UNL A   1      40.805  27.549  29.072  1.00  0.00     0.023 A 
ATOM     62  C   UNL A   1      39.947  26.435  28.968  1.00  0.00     0.012 A 
ATOM     63  C   UNL A   1      41.699  27.834  28.022  1.00  0.00     0.148 A 
ATOM     64  C   UNL A   1      39.994  25.603  27.851  1.00  0.00     0.002 A 
ATOM     65  C   UNL A   1      41.705  27.027  26.888  1.00  0.00     0.091 A 
ATOM     66  F   UNL A   1      42.521  28.884  28.148  1.00  0.00    -0.205 F 
ATOM     67  C   UNL A   1      40.863  25.906  26.807  1.00  0.00     0.022 A 
BRANCH  65  68
ATOM     68  S   UNL A   1      42.722  27.379  25.450  1.00  0.00     0.127 S 
ATOM     69  O   UNL A   1      44.025  27.629  26.065  1.00  0.00    -0.237 OA
ATOM     70  O   UNL A   1      42.632  26.126  24.700  1.00  0.00    -0.237 OA
ATOM     71  O   UNL A   1      42.113  28.529  24.797  1.00  0.00    -0.744 OA
ENDBRANCH  65  68
ENDBRANCH  47  61
BRANCH  48  72
ATOM     72  C   UNL A   1      39.645  33.769  36.842  1.00  0.00     0.023 A 
ATOM     73  C   UNL A   1      39.983  35.127  36.680  1.00  0.00     0.012 A 
ATOM     74  C   UNL A   1      39.102  33.341  38.070  1.00  0.00     0.148 A 
ATOM     75  C   UNL A   1      39.805  36.036  37.722  1.00  0.00     0.002 A 
ATOM     76  C   UNL A   1      38.873  34.263  39.086  1.00  0.00     0.091 A 
ATOM     77  F   UNL A   1      38.795  32.044  38.210  1.00  0.00    -0.205 F 
ATOM     78  C   UNL A   1      39.240  35.608  38.921  1.00  0.00     0.022 A 
BRANCH  76  79
ATOM     79  S   UNL A   1      38.018  33.835  40.607  1.00  0.00     0.127 S 
ATOM     80  O   UNL A   1      36.797  33.217  40.101  1.00  0.00    -0.237 OA
ATOM     81  O   UNL A   1      38.964  32.910  41.233  1.00  0.00    -0.237 OA
ATOM     82  O   UNL A   1      37.841  35.090  41.327  1.00  0.00    -0.744 OA
ENDBRANCH  76  79
ENDBRANCH  48  72
BRANCH  60  83
ATOM     83  C   UNL A   1      44.339  28.838  35.204  1.00  0.00     0.023 A 
ATOM     84  C   UNL A   1      45.594  29.442  34.999  1.00  0.00     0.012 A 
ATOM     85  C   UNL A   1      44.209  27.816  36.167  1.00  0.00     0.148 A 
ATOM     86  C   UNL A   1      46.707  29.026  35.727  1.00  0.00     0.002 A 
ATOM     87  C   UNL A   1      45.311  27.444  36.927  1.00  0.00     0.091 A 
ATOM     88  F   UNL A   1      43.008  27.246  36.336  1.00  0.00    -0.205 F 
ATOM     89  C   UNL A   1      46.563  28.040  36.701  1.00  0.00     0.022 A 
BRANCH  87  90
ATOM     90  S   UNL A   1      45.199  26.266  38.279  1.00  0.00     0.127 S 
ATOM     91  O   UNL A   1      44.845  25.037  37.573  1.00  0.00    -0.237 OA
ATOM     92  O   UNL A   1      46.559  26.288  38.820  1.00  0.00    -0.237 OA
ATOM     93  O   UNL A   1      44.179  26.782  39.181  1.00  0.00    -0.744 OA
ENDBRANCH  87  90
ENDBRANCH  60  83
ENDBRANCH  34  35
ENDBRANCH  26  29
ENDBRANCH   1  25
TORSDOF 14
ENDMDL
