MODEL 1
REMARK VINA RESULT:     -12.8      0.000      0.000
REMARK SMILES CC(C)Oc1ccc([C@@H]2CC(=O)Nc3c(C(=O)NCCCNC(=O)c4ccc(-c5c6nc(c(-c7cccc(S(=O)(=O)[O-])c7F)c7ccc([nH]7)c(-c7cccc(S(=O)(=O)[O-])c7F)c7nc(c(-c8cccc(S(=O)(=O)[O-])c8F)c8ccc5[nH]8)C=C7)C=C6)cc4)nsc32)cc1
REMARK SMILES IDX 20 1 19 2 18 3 16 4 17 5 15 7 9 8 10 9 90 10 11 11 14 12
REMARK SMILES IDX 89 13 12 14 13 15 88 16 8 18 5 19 6 20 92 21 7 22 91 23 4 24
REMARK SMILES IDX 2 25 1 26 3 27 21 28 22 29 23 30 24 32 25 33 26 34 87 35
REMARK SMILES IDX 27 36 86 37 28 38 29 39 30 40 80 41 31 42 85 43 79 44 81 45
REMARK SMILES IDX 32 46 84 47 78 48 77 49 33 51 65 52 45 53 64 54 46 55 49 56
REMARK SMILES IDX 63 57 82 58 47 59 48 60 62 62 83 63 50 64 34 65 35 66 43 67
REMARK SMILES IDX 36 68 38 69 44 70 37 71 39 72 40 73 41 74 42 75 66 76 67 77
REMARK SMILES IDX 75 78 68 79 70 80 76 81 69 82 71 83 72 84 73 85 74 86 51 87
REMARK SMILES IDX 52 88 60 89 53 90 55 91 61 92 54 93 56 94 57 95 58 96 59 97
REMARK H PARENT 18 6 13 17 22 31 81 50 49 61
REMARK Flexibility Score: inf
ROOT
ATOM      1  C   UNL A   1      32.315  29.790  26.799  1.00  0.00     0.042 C 
ENDROOT
BRANCH   1   2
ATOM      2  C   UNL A   1      32.234  28.449  26.107  1.00  0.00     0.118 C 
BRANCH   2   3
ATOM      3  N   UNL A   1      31.671  28.303  24.781  1.00  0.00    -0.351 N 
ATOM      4  C   UNL A   1      31.611  27.134  24.020  1.00  0.00     0.273 C 
ATOM      5  O   UNL A   1      30.875  27.120  23.035  1.00  0.00    -0.267 OA
ATOM      6  H   UNL A   1      31.291  29.114  24.373  1.00  0.00     0.163 HD
BRANCH   4   7
ATOM      7  C   UNL A   1      32.470  25.974  24.378  1.00  0.00     0.165 A 
ATOM      8  C   UNL A   1      33.295  23.024  26.556  1.00  0.00     0.073 C 
ATOM      9  C   UNL A   1      31.956  22.885  27.309  1.00  0.00     0.114 C 
ATOM     10  C   UNL A   1      33.267  24.172  25.607  1.00  0.00     0.058 A 
ATOM     11  C   UNL A   1      30.761  23.624  26.731  1.00  0.00     0.225 C 
ATOM     12  C   UNL A   1      32.137  24.792  25.145  1.00  0.00     0.089 A 
ATOM     13  S   UNL A   1      34.618  24.866  24.857  1.00  0.00    -0.038 S 
ATOM     14  O   UNL A   1      29.674  23.626  27.310  1.00  0.00    -0.275 OA
ATOM     15  N   UNL A   1      30.903  24.335  25.572  1.00  0.00    -0.323 N 
ATOM     16  N   UNL A   1      33.772  26.035  24.047  1.00  0.00    -0.185 NA
ATOM     17  H   UNL A   1      30.106  24.527  25.027  1.00  0.00     0.170 HD
BRANCH   8  18
ATOM     18  C   UNL A   1      33.613  21.733  25.829  1.00  0.00    -0.039 A 
ATOM     19  C   UNL A   1      34.238  19.295  24.633  1.00  0.00     0.119 A 
ATOM     20  C   UNL A   1      32.904  19.675  24.775  1.00  0.00     0.047 A 
ATOM     21  C   UNL A   1      35.256  20.168  24.989  1.00  0.00     0.047 A 
ATOM     22  C   UNL A   1      32.588  20.892  25.377  1.00  0.00     0.008 A 
ATOM     23  C   UNL A   1      34.949  21.366  25.611  1.00  0.00     0.008 A 
BRANCH  19  24
ATOM     24  O   UNL A   1      34.505  18.069  24.093  1.00  0.00    -0.491 OA
BRANCH  24  25
ATOM     25  C   UNL A   1      34.205  16.936  24.936  1.00  0.00     0.167 C 
ATOM     26  C   UNL A   1      33.165  15.987  24.340  1.00  0.00     0.052 C 
ATOM     27  C   UNL A   1      35.442  16.190  25.440  1.00  0.00     0.052 C 
ENDBRANCH  24  25
ENDBRANCH  19  24
ENDBRANCH   8  18
ENDBRANCH   4   7
ENDBRANCH   2   3
ENDBRANCH   1   2
BRANCH   1  28
ATOM     28  C   UNL A   1      33.674  30.091  27.370  1.00  0.00     0.118 C 
BRANCH  28  29
ATOM     29  N   UNL A   1      34.199  31.444  27.104  1.00  0.00    -0.352 N 
ATOM     30  C   UNL A   1      35.354  31.991  27.660  1.00  0.00     0.251 C 
ATOM     31  H   UNL A   1      33.691  32.009  26.479  1.00  0.00     0.163 HD
ATOM     32  O   UNL A   1      35.622  33.185  27.577  1.00  0.00    -0.269 OA
BRANCH  30  33
ATOM     33  C   UNL A   1      36.252  31.057  28.362  1.00  0.00     0.039 A 
ATOM     34  C   UNL A   1      36.333  29.703  28.024  1.00  0.00     0.014 A 
ATOM     35  C   UNL A   1      37.217  31.665  29.152  1.00  0.00     0.014 A 
ATOM     36  C   UNL A   1      37.487  29.006  28.377  1.00  0.00     0.010 A 
ATOM     37  C   UNL A   1      38.439  31.060  29.232  1.00  0.00     0.010 A 
ATOM     38  C   UNL A   1      38.567  29.711  28.931  1.00  0.00    -0.014 A 
BRANCH  38  39
ATOM     39  C   UNL A   1      39.883  29.108  29.117  1.00  0.00     0.031 A 
ATOM     40  C   UNL A   1      40.299  28.906  30.530  1.00  0.00     0.074 A 
ATOM     41  C   UNL A   1      40.597  28.597  28.087  1.00  0.00     0.049 A 
ATOM     42  N   UNL A   1      41.165  29.608  31.182  1.00  0.00    -0.248 NA
ATOM     43  C   UNL A   1      39.579  27.934  31.367  1.00  0.00     0.031 C 
ATOM     44  C   UNL A   1      40.202  28.455  26.676  1.00  0.00     0.029 A 
ATOM     45  N   UNL A   1      41.797  27.960  28.113  1.00  0.00    -0.354 N 
ATOM     46  C   UNL A   1      41.292  28.999  32.427  1.00  0.00     0.074 A 
ATOM     47  C   UNL A   1      40.152  28.130  32.559  1.00  0.00     0.031 C 
ATOM     48  C   UNL A   1      40.997  27.552  26.068  1.00  0.00     0.029 A 
ATOM     49  C   UNL A   1      42.077  27.219  26.970  1.00  0.00     0.049 A 
ATOM     50  H   UNL A   1      42.415  28.018  28.877  1.00  0.00     0.167 HD
ATOM     51  C   UNL A   1      42.459  29.076  33.128  1.00  0.00     0.034 A 
ATOM     52  C   UNL A   1      43.120  26.376  26.782  1.00  0.00     0.034 A 
ATOM     53  C   UNL A   1      43.363  30.024  32.520  1.00  0.00     0.049 A 
ATOM     54  C   UNL A   1      44.170  26.779  27.743  1.00  0.00     0.074 A 
ATOM     55  C   UNL A   1      43.315  31.372  32.229  1.00  0.00     0.029 A 
ATOM     56  N   UNL A   1      44.361  29.497  31.734  1.00  0.00    -0.354 N 
ATOM     57  N   UNL A   1      44.793  27.921  27.673  1.00  0.00    -0.248 NA
ATOM     58  C   UNL A   1      44.199  26.126  29.040  1.00  0.00     0.031 C 
ATOM     59  C   UNL A   1      43.945  31.490  30.953  1.00  0.00     0.029 A 
ATOM     60  C   UNL A   1      44.416  30.230  30.578  1.00  0.00     0.049 A 
ATOM     61  H   UNL A   1      44.935  28.730  31.961  1.00  0.00     0.167 HD
ATOM     62  C   UNL A   1      44.855  28.354  28.992  1.00  0.00     0.074 A 
ATOM     63  C   UNL A   1      44.593  27.159  29.793  1.00  0.00     0.031 C 
ATOM     64  C   UNL A   1      44.809  29.684  29.296  1.00  0.00     0.034 A 
BRANCH  51  65
ATOM     65  C   UNL A   1      42.975  28.064  34.125  1.00  0.00     0.023 A 
ATOM     66  C   UNL A   1      43.256  28.533  35.429  1.00  0.00     0.012 A 
ATOM     67  C   UNL A   1      43.453  26.778  33.792  1.00  0.00     0.148 A 
ATOM     68  C   UNL A   1      44.023  27.790  36.332  1.00  0.00     0.002 A 
ATOM     69  C   UNL A   1      44.151  26.010  34.718  1.00  0.00     0.091 A 
ATOM     70  F   UNL A   1      43.353  26.333  32.537  1.00  0.00    -0.205 F 
ATOM     71  C   UNL A   1      44.467  26.524  35.978  1.00  0.00     0.022 A 
BRANCH  69  72
ATOM     72  S   UNL A   1      44.716  24.346  34.336  1.00  0.00     0.127 S 
ATOM     73  O   UNL A   1      43.472  23.703  33.924  1.00  0.00    -0.237 OA
ATOM     74  O   UNL A   1      45.673  24.597  33.258  1.00  0.00    -0.237 OA
ATOM     75  O   UNL A   1      45.317  23.844  35.566  1.00  0.00    -0.744 OA
ENDBRANCH  69  72
ENDBRANCH  51  65
BRANCH  52  76
ATOM     76  C   UNL A   1      43.194  25.123  26.000  1.00  0.00     0.023 A 
ATOM     77  C   UNL A   1      44.235  24.939  25.070  1.00  0.00     0.012 A 
ATOM     78  C   UNL A   1      42.428  23.998  26.378  1.00  0.00     0.148 A 
ATOM     79  C   UNL A   1      44.536  23.667  24.569  1.00  0.00     0.002 A 
ATOM     80  C   UNL A   1      42.733  22.735  25.879  1.00  0.00     0.091 A 
ATOM     81  F   UNL A   1      41.467  24.150  27.299  1.00  0.00    -0.205 F 
ATOM     82  C   UNL A   1      43.795  22.564  24.982  1.00  0.00     0.022 A 
BRANCH  80  83
ATOM     83  S   UNL A   1      41.852  21.260  26.410  1.00  0.00     0.127 S 
ATOM     84  O   UNL A   1      42.179  21.209  27.834  1.00  0.00    -0.237 OA
ATOM     85  O   UNL A   1      40.468  21.615  26.110  1.00  0.00    -0.237 OA
ATOM     86  O   UNL A   1      42.408  20.165  25.625  1.00  0.00    -0.744 OA
ENDBRANCH  80  83
ENDBRANCH  52  76
BRANCH  64  87
ATOM     87  C   UNL A   1      44.937  30.676  28.163  1.00  0.00     0.023 A 
ATOM     88  C   UNL A   1      43.822  31.168  27.451  1.00  0.00     0.012 A 
ATOM     89  C   UNL A   1      46.196  31.254  27.930  1.00  0.00     0.148 A 
ATOM     90  C   UNL A   1      43.964  32.194  26.511  1.00  0.00     0.002 A 
ATOM     91  C   UNL A   1      46.325  32.304  27.031  1.00  0.00     0.091 A 
ATOM     92  F   UNL A   1      47.245  30.781  28.617  1.00  0.00    -0.205 F 
ATOM     93  C   UNL A   1      45.214  32.771  26.311  1.00  0.00     0.022 A 
BRANCH  91  94
ATOM     94  S   UNL A   1      47.882  33.172  26.828  1.00  0.00     0.127 S 
ATOM     95  O   UNL A   1      48.782  32.093  26.428  1.00  0.00    -0.237 OA
ATOM     96  O   UNL A   1      47.571  34.134  25.768  1.00  0.00    -0.237 OA
ATOM     97  O   UNL A   1      48.169  33.785  28.119  1.00  0.00    -0.744 OA
ENDBRANCH  91  94
ENDBRANCH  64  87
ENDBRANCH  38  39
ENDBRANCH  30  33
ENDBRANCH  28  29
ENDBRANCH   1  28
TORSDOF 16
ENDMDL
MODEL 2
REMARK VINA RESULT:     -12.7      3.096      9.040
REMARK SMILES CC(C)Oc1ccc([C@@H]2CC(=O)Nc3c(C(=O)NCCCNC(=O)c4ccc(-c5c6nc(c(-c7cccc(S(=O)(=O)[O-])c7F)c7ccc([nH]7)c(-c7cccc(S(=O)(=O)[O-])c7F)c7nc(c(-c8cccc(S(=O)(=O)[O-])c8F)c8ccc5[nH]8)C=C7)C=C6)cc4)nsc32)cc1
REMARK SMILES IDX 20 1 19 2 18 3 16 4 17 5 15 7 9 8 10 9 90 10 11 11 14 12
REMARK SMILES IDX 89 13 12 14 13 15 88 16 8 18 5 19 6 20 92 21 7 22 91 23 4 24
REMARK SMILES IDX 2 25 1 26 3 27 21 28 22 29 23 30 24 32 25 33 26 34 87 35
REMARK SMILES IDX 27 36 86 37 28 38 29 39 30 40 80 41 31 42 85 43 79 44 81 45
REMARK SMILES IDX 32 46 84 47 78 48 77 49 33 51 65 52 45 53 64 54 46 55 49 56
REMARK SMILES IDX 63 57 82 58 47 59 48 60 62 62 83 63 50 64 34 65 35 66 43 67
REMARK SMILES IDX 36 68 38 69 44 70 37 71 39 72 40 73 41 74 42 75 66 76 67 77
REMARK SMILES IDX 75 78 68 79 70 80 76 81 69 82 71 83 72 84 73 85 74 86 51 87
REMARK SMILES IDX 52 88 60 89 53 90 55 91 61 92 54 93 56 94 57 95 58 96 59 97
REMARK H PARENT 18 6 13 17 22 31 81 50 49 61
REMARK Flexibility Score: inf
ROOT
ATOM      1  C   UNL A   1      36.891  21.449  25.047  1.00  0.00     0.042 C 
ENDROOT
BRANCH   1   2
ATOM      2  C   UNL A   1      35.617  21.273  25.841  1.00  0.00     0.118 C 
BRANCH   2   3
ATOM      3  N   UNL A   1      34.555  20.393  25.401  1.00  0.00    -0.351 N 
ATOM      4  C   UNL A   1      33.493  20.719  24.555  1.00  0.00     0.273 C 
ATOM      5  O   UNL A   1      32.832  19.800  24.073  1.00  0.00    -0.267 OA
ATOM      6  H   UNL A   1      34.585  19.467  25.733  1.00  0.00     0.163 HD
BRANCH   4   7
ATOM      7  C   UNL A   1      33.155  22.146  24.310  1.00  0.00     0.165 A 
ATOM      8  C   UNL A   1      30.950  25.149  24.808  1.00  0.00     0.073 C 
ATOM      9  C   UNL A   1      30.117  24.654  26.008  1.00  0.00     0.114 C 
ATOM     10  C   UNL A   1      31.926  24.116  24.361  1.00  0.00     0.058 A 
ATOM     11  C   UNL A   1      30.645  23.444  26.760  1.00  0.00     0.225 C 
ATOM     12  C   UNL A   1      32.338  23.041  25.103  1.00  0.00     0.089 A 
ATOM     13  S   UNL A   1      32.771  24.125  22.894  1.00  0.00    -0.038 S 
ATOM     14  O   UNL A   1      30.004  22.940  27.683  1.00  0.00    -0.275 OA
ATOM     15  N   UNL A   1      31.828  22.875  26.378  1.00  0.00    -0.323 N 
ATOM     16  N   UNL A   1      33.561  22.695  23.152  1.00  0.00    -0.185 NA
ATOM     17  H   UNL A   1      32.332  22.334  27.029  1.00  0.00     0.170 HD
BRANCH   8  18
ATOM     18  C   UNL A   1      31.660  26.438  25.171  1.00  0.00    -0.039 A 
ATOM     19  C   UNL A   1      33.053  28.792  25.705  1.00  0.00     0.119 A 
ATOM     20  C   UNL A   1      31.732  28.854  25.265  1.00  0.00     0.047 A 
ATOM     21  C   UNL A   1      33.644  27.566  25.976  1.00  0.00     0.047 A 
ATOM     22  C   UNL A   1      31.033  27.678  24.993  1.00  0.00     0.008 A 
ATOM     23  C   UNL A   1      32.965  26.395  25.682  1.00  0.00     0.008 A 
BRANCH  19  24
ATOM     24  O   UNL A   1      33.721  29.966  25.903  1.00  0.00    -0.491 OA
BRANCH  24  25
ATOM     25  C   UNL A   1      33.938  30.337  27.282  1.00  0.00     0.167 C 
ATOM     26  C   UNL A   1      35.384  30.160  27.745  1.00  0.00     0.052 C 
ATOM     27  C   UNL A   1      33.379  31.713  27.651  1.00  0.00     0.052 C 
ENDBRANCH  24  25
ENDBRANCH  19  24
ENDBRANCH   8  18
ENDBRANCH   4   7
ENDBRANCH   2   3
ENDBRANCH   1   2
BRANCH   1  28
ATOM     28  C   UNL A   1      37.837  22.457  25.642  1.00  0.00     0.118 C 
BRANCH  28  29
ATOM     29  N   UNL A   1      39.176  21.951  25.998  1.00  0.00    -0.352 N 
ATOM     30  C   UNL A   1      40.252  22.730  26.422  1.00  0.00     0.251 C 
ATOM     31  H   UNL A   1      39.324  20.981  25.931  1.00  0.00     0.163 HD
ATOM     32  O   UNL A   1      41.395  22.290  26.492  1.00  0.00    -0.269 OA
BRANCH  30  33
ATOM     33  C   UNL A   1      39.950  24.124  26.789  1.00  0.00     0.039 A 
ATOM     34  C   UNL A   1      39.356  24.463  28.008  1.00  0.00     0.014 A 
ATOM     35  C   UNL A   1      40.567  25.079  25.994  1.00  0.00     0.014 A 
ATOM     36  C   UNL A   1      39.525  25.764  28.482  1.00  0.00     0.010 A 
ATOM     37  C   UNL A   1      40.965  26.239  26.596  1.00  0.00     0.010 A 
ATOM     38  C   UNL A   1      40.388  26.632  27.795  1.00  0.00    -0.014 A 
BRANCH  38  39
ATOM     39  C   UNL A   1      40.798  27.922  28.341  1.00  0.00     0.031 A 
ATOM     40  C   UNL A   1      42.045  28.491  27.766  1.00  0.00     0.074 A 
ATOM     41  C   UNL A   1      40.008  28.640  29.174  1.00  0.00     0.049 A 
ATOM     42  N   UNL A   1      43.203  28.532  28.337  1.00  0.00    -0.248 NA
ATOM     43  C   UNL A   1      42.066  28.922  26.360  1.00  0.00     0.031 C 
ATOM     44  C   UNL A   1      38.629  28.354  29.605  1.00  0.00     0.029 A 
ATOM     45  N   UNL A   1      40.227  29.868  29.711  1.00  0.00    -0.354 N 
ATOM     46  C   UNL A   1      44.035  29.230  27.466  1.00  0.00     0.074 A 
ATOM     47  C   UNL A   1      43.353  29.247  26.198  1.00  0.00     0.031 C 
ATOM     48  C   UNL A   1      38.059  29.478  30.085  1.00  0.00     0.029 A 
ATOM     49  C   UNL A   1      39.084  30.494  30.196  1.00  0.00     0.049 A 
ATOM     50  H   UNL A   1      41.120  30.281  29.752  1.00  0.00     0.167 HD
ATOM     51  C   UNL A   1      45.092  29.951  27.936  1.00  0.00     0.034 A 
ATOM     52  C   UNL A   1      38.981  31.767  30.647  1.00  0.00     0.034 A 
ATOM     53  C   UNL A   1      45.322  29.677  29.335  1.00  0.00     0.049 A 
ATOM     54  C   UNL A   1      40.343  32.188  31.040  1.00  0.00     0.074 A 
ATOM     55  C   UNL A   1      45.614  28.549  30.076  1.00  0.00     0.029 A 
ATOM     56  N   UNL A   1      44.835  30.606  30.226  1.00  0.00    -0.354 N 
ATOM     57  N   UNL A   1      40.990  31.652  32.036  1.00  0.00    -0.248 NA
ATOM     58  C   UNL A   1      41.162  32.869  30.052  1.00  0.00     0.031 C 
ATOM     59  C   UNL A   1      44.845  28.691  31.270  1.00  0.00     0.029 A 
ATOM     60  C   UNL A   1      44.198  29.928  31.232  1.00  0.00     0.049 A 
ATOM     61  H   UNL A   1      44.929  31.583  30.154  1.00  0.00     0.167 HD
ATOM     62  C   UNL A   1      42.283  31.497  31.554  1.00  0.00     0.074 A 
ATOM     63  C   UNL A   1      42.359  32.374  30.387  1.00  0.00     0.031 C 
ATOM     64  C   UNL A   1      43.062  30.451  31.961  1.00  0.00     0.034 A 
BRANCH  51  65
ATOM     65  C   UNL A   1      45.702  31.174  27.290  1.00  0.00     0.023 A 
ATOM     66  C   UNL A   1      47.101  31.161  27.081  1.00  0.00     0.012 A 
ATOM     67  C   UNL A   1      45.045  32.414  27.136  1.00  0.00     0.148 A 
ATOM     68  C   UNL A   1      47.816  32.328  26.796  1.00  0.00     0.002 A 
ATOM     69  C   UNL A   1      45.749  33.560  26.778  1.00  0.00     0.091 A 
ATOM     70  F   UNL A   1      43.755  32.531  27.461  1.00  0.00    -0.205 F 
ATOM     71  C   UNL A   1      47.138  33.529  26.639  1.00  0.00     0.022 A 
BRANCH  69  72
ATOM     72  S   UNL A   1      44.924  35.136  26.518  1.00  0.00     0.127 S 
ATOM     73  O   UNL A   1      44.493  35.467  27.872  1.00  0.00    -0.237 OA
ATOM     74  O   UNL A   1      46.015  35.959  25.993  1.00  0.00    -0.237 OA
ATOM     75  O   UNL A   1      43.861  34.868  25.556  1.00  0.00    -0.744 OA
ENDBRANCH  69  72
ENDBRANCH  51  65
BRANCH  52  76
ATOM     76  C   UNL A   1      37.848  32.713  30.556  1.00  0.00     0.023 A 
ATOM     77  C   UNL A   1      37.283  33.009  29.300  1.00  0.00     0.012 A 
ATOM     78  C   UNL A   1      37.136  33.089  31.715  1.00  0.00     0.148 A 
ATOM     79  C   UNL A   1      36.026  33.615  29.201  1.00  0.00     0.002 A 
ATOM     80  C   UNL A   1      35.884  33.690  31.613  1.00  0.00     0.091 A 
ATOM     81  F   UNL A   1      37.639  32.769  32.915  1.00  0.00    -0.205 F 
ATOM     82  C   UNL A   1      35.321  33.944  30.355  1.00  0.00     0.022 A 
BRANCH  80  83
ATOM     83  S   UNL A   1      34.896  34.092  33.059  1.00  0.00     0.127 S 
ATOM     84  O   UNL A   1      33.598  34.405  32.461  1.00  0.00    -0.237 OA
ATOM     85  O   UNL A   1      34.941  32.840  33.809  1.00  0.00    -0.237 OA
ATOM     86  O   UNL A   1      35.558  35.228  33.687  1.00  0.00    -0.744 OA
ENDBRANCH  80  83
ENDBRANCH  52  76
BRANCH  64  87
ATOM     87  C   UNL A   1      42.579  29.616  33.124  1.00  0.00     0.023 A 
ATOM     88  C   UNL A   1      41.585  28.623  32.987  1.00  0.00     0.012 A 
ATOM     89  C   UNL A   1      43.266  29.721  34.344  1.00  0.00     0.148 A 
ATOM     90  C   UNL A   1      41.269  27.770  34.050  1.00  0.00     0.002 A 
ATOM     91  C   UNL A   1      42.983  28.842  35.381  1.00  0.00     0.091 A 
ATOM     92  F   UNL A   1      44.210  30.666  34.458  1.00  0.00    -0.205 F 
ATOM     93  C   UNL A   1      41.978  27.872  35.243  1.00  0.00     0.022 A 
BRANCH  91  94
ATOM     94  S   UNL A   1      43.950  28.840  36.892  1.00  0.00     0.127 S 
ATOM     95  O   UNL A   1      43.548  30.100  37.513  1.00  0.00    -0.237 OA
ATOM     96  O   UNL A   1      43.464  27.639  37.576  1.00  0.00    -0.237 OA
ATOM     97  O   UNL A   1      45.344  28.760  36.474  1.00  0.00    -0.744 OA
ENDBRANCH  91  94
ENDBRANCH  64  87
ENDBRANCH  38  39
ENDBRANCH  30  33
ENDBRANCH  28  29
ENDBRANCH   1  28
TORSDOF 16
ENDMDL
MODEL 3
REMARK VINA RESULT:     -12.5      3.674      7.865
REMARK SMILES CC(C)Oc1ccc([C@@H]2CC(=O)Nc3c(C(=O)NCCCNC(=O)c4ccc(-c5c6nc(c(-c7cccc(S(=O)(=O)[O-])c7F)c7ccc([nH]7)c(-c7cccc(S(=O)(=O)[O-])c7F)c7nc(c(-c8cccc(S(=O)(=O)[O-])c8F)c8ccc5[nH]8)C=C7)C=C6)cc4)nsc32)cc1
REMARK SMILES IDX 20 1 19 2 18 3 16 4 17 5 15 7 9 8 10 9 90 10 11 11 14 12
REMARK SMILES IDX 89 13 12 14 13 15 88 16 8 18 5 19 6 20 92 21 7 22 91 23 4 24
REMARK SMILES IDX 2 25 1 26 3 27 21 28 22 29 23 30 24 32 25 33 26 34 87 35
REMARK SMILES IDX 27 36 86 37 28 38 29 39 30 40 80 41 31 42 85 43 79 44 81 45
REMARK SMILES IDX 32 46 84 47 78 48 77 49 33 51 65 52 45 53 64 54 46 55 49 56
REMARK SMILES IDX 63 57 82 58 47 59 48 60 62 62 83 63 50 64 34 65 35 66 43 67
REMARK SMILES IDX 36 68 38 69 44 70 37 71 39 72 40 73 41 74 42 75 66 76 67 77
REMARK SMILES IDX 75 78 68 79 70 80 76 81 69 82 71 83 72 84 73 85 74 86 51 87
REMARK SMILES IDX 52 88 60 89 53 90 55 91 61 92 54 93 56 94 57 95 58 96 59 97
REMARK H PARENT 18 6 13 17 22 31 81 50 49 61
REMARK Flexibility Score: inf
ROOT
ATOM      1  C   UNL A   1      32.376  30.090  26.856  1.00  0.00     0.042 C 
ENDROOT
BRANCH   1   2
ATOM      2  C   UNL A   1      32.660  29.655  25.436  1.00  0.00     0.118 C 
BRANCH   2   3
ATOM      3  N   UNL A   1      31.653  29.725  24.398  1.00  0.00    -0.351 N 
ATOM      4  C   UNL A   1      30.869  28.672  23.920  1.00  0.00     0.273 C 
ATOM      5  O   UNL A   1      29.888  28.947  23.229  1.00  0.00    -0.267 OA
ATOM      6  H   UNL A   1      31.506  30.606  23.986  1.00  0.00     0.163 HD
BRANCH   4   7
ATOM      7  C   UNL A   1      31.266  27.267  24.201  1.00  0.00     0.165 A 
ATOM      8  C   UNL A   1      32.340  23.850  23.066  1.00  0.00     0.073 C 
ATOM      9  C   UNL A   1      32.721  24.177  21.607  1.00  0.00     0.114 C 
ATOM     10  C   UNL A   1      31.837  25.056  23.779  1.00  0.00     0.058 A 
ATOM     11  C   UNL A   1      32.898  25.644  21.254  1.00  0.00     0.225 C 
ATOM     12  C   UNL A   1      32.031  26.352  23.380  1.00  0.00     0.089 A 
ATOM     13  S   UNL A   1      31.008  25.056  25.256  1.00  0.00    -0.038 S 
ATOM     14  O   UNL A   1      33.130  25.996  20.097  1.00  0.00    -0.275 OA
ATOM     15  N   UNL A   1      32.756  26.594  22.227  1.00  0.00    -0.323 N 
ATOM     16  N   UNL A   1      30.787  26.694  25.319  1.00  0.00    -0.185 NA
ATOM     17  H   UNL A   1      33.180  27.473  22.104  1.00  0.00     0.170 HD
BRANCH   8  18
ATOM     18  C   UNL A   1      33.533  23.256  23.788  1.00  0.00    -0.039 A 
ATOM     19  C   UNL A   1      35.681  22.245  25.248  1.00  0.00     0.119 A 
ATOM     20  C   UNL A   1      34.608  21.414  24.930  1.00  0.00     0.047 A 
ATOM     21  C   UNL A   1      35.733  23.542  24.755  1.00  0.00     0.047 A 
ATOM     22  C   UNL A   1      33.529  21.918  24.203  1.00  0.00     0.008 A 
ATOM     23  C   UNL A   1      34.654  24.056  24.056  1.00  0.00     0.008 A 
BRANCH  19  24
ATOM     24  O   UNL A   1      36.689  21.731  26.012  1.00  0.00    -0.491 OA
BRANCH  24  25
ATOM     25  C   UNL A   1      37.873  21.324  25.292  1.00  0.00     0.167 C 
ATOM     26  C   UNL A   1      39.177  21.714  25.987  1.00  0.00     0.052 C 
ATOM     27  C   UNL A   1      37.866  19.855  24.864  1.00  0.00     0.052 C 
ENDBRANCH  24  25
ENDBRANCH  19  24
ENDBRANCH   8  18
ENDBRANCH   4   7
ENDBRANCH   2   3
ENDBRANCH   1   2
BRANCH   1  28
ATOM     28  C   UNL A   1      33.229  31.241  27.315  1.00  0.00     0.118 C 
BRANCH  28  29
ATOM     29  N   UNL A   1      32.587  32.569  27.288  1.00  0.00    -0.352 N 
ATOM     30  C   UNL A   1      32.948  33.662  28.075  1.00  0.00     0.251 C 
ATOM     31  H   UNL A   1      31.840  32.696  26.660  1.00  0.00     0.163 HD
ATOM     32  O   UNL A   1      32.246  34.664  28.170  1.00  0.00    -0.269 OA
BRANCH  30  33
ATOM     33  C   UNL A   1      34.228  33.558  28.797  1.00  0.00     0.039 A 
ATOM     34  C   UNL A   1      34.384  32.750  29.926  1.00  0.00     0.014 A 
ATOM     35  C   UNL A   1      35.322  34.062  28.110  1.00  0.00     0.014 A 
ATOM     36  C   UNL A   1      35.672  32.338  30.265  1.00  0.00     0.010 A 
ATOM     37  C   UNL A   1      36.519  33.426  28.276  1.00  0.00     0.010 A 
ATOM     38  C   UNL A   1      36.733  32.632  29.395  1.00  0.00    -0.014 A 
BRANCH  38  39
ATOM     39  C   UNL A   1      38.061  32.048  29.554  1.00  0.00     0.031 A 
ATOM     40  C   UNL A   1      38.232  30.685  28.984  1.00  0.00     0.074 A 
ATOM     41  C   UNL A   1      39.114  32.760  30.019  1.00  0.00     0.049 A 
ATOM     42  N   UNL A   1      38.298  29.579  29.647  1.00  0.00    -0.248 NA
ATOM     43  C   UNL A   1      38.169  30.495  27.527  1.00  0.00     0.031 C 
ATOM     44  C   UNL A   1      39.179  34.194  30.349  1.00  0.00     0.029 A 
ATOM     45  N   UNL A   1      40.408  32.374  30.165  1.00  0.00    -0.354 N 
ATOM     46  C   UNL A   1      38.550  28.583  28.708  1.00  0.00     0.074 A 
ATOM     47  C   UNL A   1      38.242  29.163  27.426  1.00  0.00     0.031 C 
ATOM     48  C   UNL A   1      40.466  34.597  30.379  1.00  0.00     0.029 A 
ATOM     49  C   UNL A   1      41.310  33.426  30.289  1.00  0.00     0.049 A 
ATOM     50  H   UNL A   1      40.684  31.429  30.182  1.00  0.00     0.167 HD
ATOM     51  C   UNL A   1      39.232  27.454  29.051  1.00  0.00     0.034 A 
ATOM     52  C   UNL A   1      42.661  33.342  30.302  1.00  0.00     0.034 A 
ATOM     53  C   UNL A   1      39.404  27.371  30.483  1.00  0.00     0.049 A 
ATOM     54  C   UNL A   1      42.997  31.959  30.703  1.00  0.00     0.074 A 
ATOM     55  C   UNL A   1      38.554  27.326  31.569  1.00  0.00     0.029 A 
ATOM     56  N   UNL A   1      40.632  27.754  30.972  1.00  0.00    -0.354 N 
ATOM     57  N   UNL A   1      42.734  31.482  31.888  1.00  0.00    -0.248 NA
ATOM     58  C   UNL A   1      43.195  30.970  29.658  1.00  0.00     0.031 C 
ATOM     59  C   UNL A   1      39.184  28.140  32.557  1.00  0.00     0.029 A 
ATOM     60  C   UNL A   1      40.417  28.564  32.055  1.00  0.00     0.049 A 
ATOM     61  H   UNL A   1      41.508  27.492  30.609  1.00  0.00     0.167 HD
ATOM     62  C   UNL A   1      42.252  30.204  31.638  1.00  0.00     0.074 A 
ATOM     63  C   UNL A   1      42.678  29.900  30.272  1.00  0.00     0.031 C 
ATOM     64  C   UNL A   1      41.302  29.643  32.442  1.00  0.00     0.034 A 
BRANCH  51  65
ATOM     65  C   UNL A   1      40.079  26.604  28.133  1.00  0.00     0.023 A 
ATOM     66  C   UNL A   1      40.012  25.202  28.312  1.00  0.00     0.012 A 
ATOM     67  C   UNL A   1      41.119  27.094  27.313  1.00  0.00     0.148 A 
ATOM     68  C   UNL A   1      40.964  24.341  27.758  1.00  0.00     0.002 A 
ATOM     69  C   UNL A   1      42.020  26.228  26.702  1.00  0.00     0.091 A 
ATOM     70  F   UNL A   1      41.330  28.409  27.219  1.00  0.00    -0.205 F 
ATOM     71  C   UNL A   1      41.967  24.854  26.947  1.00  0.00     0.022 A 
BRANCH  69  72
ATOM     72  S   UNL A   1      43.314  26.826  25.607  1.00  0.00     0.127 S 
ATOM     73  O   UNL A   1      42.550  27.649  24.674  1.00  0.00    -0.237 OA
ATOM     74  O   UNL A   1      44.169  27.567  26.534  1.00  0.00    -0.237 OA
ATOM     75  O   UNL A   1      43.934  25.632  25.045  1.00  0.00    -0.744 OA
ENDBRANCH  69  72
ENDBRANCH  51  65
BRANCH  52  76
ATOM     76  C   UNL A   1      43.672  34.289  29.784  1.00  0.00     0.023 A 
ATOM     77  C   UNL A   1      44.083  34.207  28.439  1.00  0.00     0.012 A 
ATOM     78  C   UNL A   1      44.006  35.450  30.516  1.00  0.00     0.148 A 
ATOM     79  C   UNL A   1      44.762  35.267  27.828  1.00  0.00     0.002 A 
ATOM     80  C   UNL A   1      44.680  36.503  29.903  1.00  0.00     0.091 A 
ATOM     81  F   UNL A   1      43.579  35.562  31.780  1.00  0.00    -0.205 F 
ATOM     82  C   UNL A   1      45.049  36.419  28.554  1.00  0.00     0.022 A 
BRANCH  80  83
ATOM     83  S   UNL A   1      45.036  38.040  30.765  1.00  0.00     0.127 S 
ATOM     84  O   UNL A   1      43.705  38.452  31.211  1.00  0.00    -0.237 OA
ATOM     85  O   UNL A   1      45.927  37.585  31.829  1.00  0.00    -0.237 OA
ATOM     86  O   UNL A   1      45.637  38.920  29.771  1.00  0.00    -0.744 OA
ENDBRANCH  80  83
ENDBRANCH  52  76
BRANCH  64  87
ATOM     87  C   UNL A   1      40.971  30.340  33.742  1.00  0.00     0.023 A 
ATOM     88  C   UNL A   1      41.827  30.306  34.863  1.00  0.00     0.012 A 
ATOM     89  C   UNL A   1      39.853  31.189  33.770  1.00  0.00     0.148 A 
ATOM     90  C   UNL A   1      41.560  31.083  35.996  1.00  0.00     0.002 A 
ATOM     91  C   UNL A   1      39.618  31.995  34.877  1.00  0.00     0.091 A 
ATOM     92  F   UNL A   1      39.052  31.216  32.695  1.00  0.00    -0.205 F 
ATOM     93  C   UNL A   1      40.462  31.938  35.996  1.00  0.00     0.022 A 
BRANCH  91  94
ATOM     94  S   UNL A   1      38.297  33.208  34.883  1.00  0.00     0.127 S 
ATOM     95  O   UNL A   1      37.270  32.537  35.676  1.00  0.00    -0.237 OA
ATOM     96  O   UNL A   1      38.926  34.356  35.540  1.00  0.00    -0.237 OA
ATOM     97  O   UNL A   1      37.959  33.439  33.483  1.00  0.00    -0.744 OA
ENDBRANCH  91  94
ENDBRANCH  64  87
ENDBRANCH  38  39
ENDBRANCH  30  33
ENDBRANCH  28  29
ENDBRANCH   1  28
TORSDOF 16
ENDMDL
