MODEL 1
REMARK VINA RESULT:     -12.8      0.000      0.000
REMARK SMILES COc1cc(C)cc2c1O[C@H](C(F)(F)F)C(C(=O)NCCCNC(=O)c1ccc(-c3c4nc(c(-c5cccc(S(=O)(=O)[O-])c5F)c5ccc([nH]5)c(-c5cccc(S(=O)(=O)[O-])c5F)c5nc(c(-c6cccc(S(=O)(=O)[O-])c6F)c6ccc3[nH]6)C=C5)C=C4)cc1)=C2
REMARK SMILES IDX 22 1 21 2 20 3 19 4 17 5 18 6 16 8 3 9 4 10 9 11 5 12 8 13
REMARK SMILES IDX 10 14 6 15 7 16 89 17 11 18 2 19 1 20 12 21 13 22 14 23
REMARK SMILES IDX 15 24 23 25 24 26 25 28 26 29 27 30 88 31 28 32 87 33 29 34
REMARK SMILES IDX 30 35 31 36 81 37 32 38 86 39 80 40 82 41 33 42 85 43 79 44
REMARK SMILES IDX 78 45 34 47 66 48 46 49 65 50 47 51 50 52 64 53 83 54 48 55
REMARK SMILES IDX 49 56 63 58 84 59 51 60 35 61 36 62 44 63 37 64 39 65 45 66
REMARK SMILES IDX 38 67 40 68 41 69 42 70 43 71 67 72 68 73 76 74 69 75 71 76
REMARK SMILES IDX 77 77 70 78 72 79 73 80 74 81 75 82 52 83 53 84 61 85 54 86
REMARK SMILES IDX 56 87 62 88 55 89 57 90 58 91 59 92 60 93
REMARK H PARENT 19 7 23 27 82 46 50 57
REMARK Flexibility Score: inf
ROOT
ATOM      1  C   UNL A   1      32.869  32.703  27.373  1.00  0.00     0.118 C 
ENDROOT
BRANCH   1   2
ATOM      2  C   UNL A   1      31.646  32.106  26.686  1.00  0.00     0.042 C 
BRANCH   2   3
ATOM      3  C   UNL A   1      31.735  30.593  26.552  1.00  0.00     0.118 C 
BRANCH   3   4
ATOM      4  N   UNL A   1      32.342  30.192  25.291  1.00  0.00    -0.352 N 
ATOM      5  C   UNL A   1      32.681  29.037  24.674  1.00  0.00     0.251 C 
ATOM      6  O   UNL A   1      33.197  29.173  23.559  1.00  0.00    -0.270 OA
ATOM      7  H   UNL A   1      32.567  30.974  24.737  1.00  0.00     0.163 HD
BRANCH   5   8
ATOM      8  C   UNL A   1      32.471  27.668  25.228  1.00  0.00     0.067 C 
ATOM      9  C   UNL A   1      32.103  23.829  26.881  1.00  0.00     0.161 A 
ATOM     10  C   UNL A   1      33.141  22.908  26.733  1.00  0.00     0.054 A 
ATOM     11  C   UNL A   1      32.244  25.130  26.392  1.00  0.00     0.169 A 
ATOM     12  C   UNL A   1      34.345  23.296  26.134  1.00  0.00    -0.047 A 
ATOM     13  C   UNL A   1      33.438  25.528  25.788  1.00  0.00     0.021 A 
ATOM     14  O   UNL A   1      31.207  26.003  26.577  1.00  0.00    -0.471 OA
ATOM     15  C   UNL A   1      35.471  22.318  25.968  1.00  0.00     0.044 C 
ATOM     16  C   UNL A   1      34.488  24.611  25.667  1.00  0.00     0.015 A 
ATOM     17  C   UNL A   1      33.572  26.898  25.307  1.00  0.00     0.025 C 
ATOM     18  C   UNL A   1      31.137  27.112  25.643  1.00  0.00     0.314 C 
BRANCH   9  19
ATOM     19  O   UNL A   1      30.893  23.457  27.408  1.00  0.00    -0.493 OA
ATOM     20  C   UNL A   1      30.150  22.644  26.501  1.00  0.00     0.278 C 
ENDBRANCH   9  19
BRANCH  18  21
ATOM     21  C   UNL A   1      30.257  26.713  24.443  1.00  0.00     0.429 C 
ATOM     22  F   UNL A   1      29.289  25.844  24.826  1.00  0.00    -0.167 F 
ATOM     23  F   UNL A   1      29.617  27.776  23.895  1.00  0.00    -0.167 F 
ATOM     24  F   UNL A   1      30.958  26.131  23.445  1.00  0.00    -0.167 F 
ENDBRANCH  18  21
ENDBRANCH   5   8
ENDBRANCH   3   4
ENDBRANCH   2   3
ENDBRANCH   1   2
BRANCH   1  25
ATOM     25  N   UNL A   1      32.695  34.122  27.677  1.00  0.00    -0.352 N 
ATOM     26  C   UNL A   1      33.217  34.886  28.695  1.00  0.00     0.251 C 
ATOM     27  H   UNL A   1      32.108  34.608  27.054  1.00  0.00     0.163 HD
ATOM     28  O   UNL A   1      32.758  36.006  28.905  1.00  0.00    -0.269 OA
BRANCH  26  29
ATOM     29  C   UNL A   1      34.305  34.353  29.538  1.00  0.00     0.039 A 
ATOM     30  C   UNL A   1      35.636  34.534  29.163  1.00  0.00     0.014 A 
ATOM     31  C   UNL A   1      33.998  33.661  30.713  1.00  0.00     0.014 A 
ATOM     32  C   UNL A   1      36.639  33.856  29.841  1.00  0.00     0.010 A 
ATOM     33  C   UNL A   1      35.023  33.069  31.457  1.00  0.00     0.010 A 
ATOM     34  C   UNL A   1      36.347  33.113  30.996  1.00  0.00    -0.014 A 
BRANCH  34  35
ATOM     35  C   UNL A   1      37.450  32.402  31.693  1.00  0.00     0.031 A 
ATOM     36  C   UNL A   1      38.208  31.292  31.012  1.00  0.00     0.074 A 
ATOM     37  C   UNL A   1      37.817  32.812  32.923  1.00  0.00     0.049 A 
ATOM     38  N   UNL A   1      39.222  30.597  31.462  1.00  0.00    -0.248 NA
ATOM     39  C   UNL A   1      37.777  30.905  29.657  1.00  0.00     0.031 C 
ATOM     40  C   UNL A   1      37.153  33.871  33.689  1.00  0.00     0.029 A 
ATOM     41  N   UNL A   1      38.850  32.418  33.734  1.00  0.00    -0.354 N 
ATOM     42  C   UNL A   1      39.519  29.668  30.474  1.00  0.00     0.074 A 
ATOM     43  C   UNL A   1      38.580  29.882  29.396  1.00  0.00     0.031 C 
ATOM     44  C   UNL A   1      37.833  34.087  34.822  1.00  0.00     0.029 A 
ATOM     45  C   UNL A   1      38.942  33.143  34.898  1.00  0.00     0.049 A 
ATOM     46  H   UNL A   1      39.466  31.684  33.504  1.00  0.00     0.167 HD
ATOM     47  C   UNL A   1      40.499  28.734  30.457  1.00  0.00     0.034 A 
ATOM     48  C   UNL A   1      39.818  33.060  35.918  1.00  0.00     0.034 A 
ATOM     49  C   UNL A   1      41.473  28.566  31.501  1.00  0.00     0.049 A 
ATOM     50  C   UNL A   1      40.906  32.032  35.865  1.00  0.00     0.074 A 
ATOM     51  C   UNL A   1      42.523  27.666  31.555  1.00  0.00     0.029 A 
ATOM     52  N   UNL A   1      41.526  29.317  32.664  1.00  0.00    -0.354 N 
ATOM     53  N   UNL A   1      41.195  31.195  34.898  1.00  0.00    -0.248 NA
ATOM     54  C   UNL A   1      41.790  31.934  37.034  1.00  0.00     0.031 C 
ATOM     55  C   UNL A   1      43.215  27.876  32.751  1.00  0.00     0.029 A 
ATOM     56  C   UNL A   1      42.595  28.907  33.440  1.00  0.00     0.049 A 
ATOM     57  H   UNL A   1      40.897  30.036  32.901  1.00  0.00     0.167 HD
ATOM     58  C   UNL A   1      42.295  30.473  35.339  1.00  0.00     0.074 A 
ATOM     59  C   UNL A   1      42.638  30.988  36.649  1.00  0.00     0.031 C 
ATOM     60  C   UNL A   1      42.948  29.459  34.722  1.00  0.00     0.034 A 
BRANCH  47  61
ATOM     61  C   UNL A   1      40.615  27.850  29.247  1.00  0.00     0.023 A 
ATOM     62  C   UNL A   1      39.754  26.743  29.120  1.00  0.00     0.012 A 
ATOM     63  C   UNL A   1      41.497  28.169  28.196  1.00  0.00     0.148 A 
ATOM     64  C   UNL A   1      39.774  25.958  27.968  1.00  0.00     0.002 A 
ATOM     65  C   UNL A   1      41.494  27.399  27.040  1.00  0.00     0.091 A 
ATOM     66  F   UNL A   1      42.316  29.220  28.348  1.00  0.00    -0.205 F 
ATOM     67  C   UNL A   1      40.636  26.291  26.926  1.00  0.00     0.022 A 
BRANCH  65  68
ATOM     68  S   UNL A   1      42.523  27.771  25.616  1.00  0.00     0.127 S 
ATOM     69  O   UNL A   1      42.302  26.594  24.777  1.00  0.00    -0.237 OA
ATOM     70  O   UNL A   1      41.916  29.003  25.112  1.00  0.00    -0.237 OA
ATOM     71  O   UNL A   1      43.879  27.922  26.126  1.00  0.00    -0.744 OA
ENDBRANCH  65  68
ENDBRANCH  47  61
BRANCH  48  72
ATOM     72  C   UNL A   1      39.710  34.026  37.044  1.00  0.00     0.023 A 
ATOM     73  C   UNL A   1      40.065  35.372  36.831  1.00  0.00     0.012 A 
ATOM     74  C   UNL A   1      39.166  33.642  38.285  1.00  0.00     0.148 A 
ATOM     75  C   UNL A   1      39.878  36.321  37.837  1.00  0.00     0.002 A 
ATOM     76  C   UNL A   1      38.939  34.599  39.265  1.00  0.00     0.091 A 
ATOM     77  F   UNL A   1      38.844  32.353  38.462  1.00  0.00    -0.205 F 
ATOM     78  C   UNL A   1      39.303  35.938  39.047  1.00  0.00     0.022 A 
BRANCH  76  79
ATOM     79  S   UNL A   1      38.089  34.227  40.802  1.00  0.00     0.127 S 
ATOM     80  O   UNL A   1      36.919  33.492  40.324  1.00  0.00    -0.237 OA
ATOM     81  O   UNL A   1      39.083  33.413  41.503  1.00  0.00    -0.237 OA
ATOM     82  O   UNL A   1      37.811  35.513  41.424  1.00  0.00    -0.744 OA
ENDBRANCH  76  79
ENDBRANCH  48  72
BRANCH  60  83
ATOM     83  C   UNL A   1      44.101  28.825  35.443  1.00  0.00     0.023 A 
ATOM     84  C   UNL A   1      45.387  29.378  35.297  1.00  0.00     0.012 A 
ATOM     85  C   UNL A   1      43.893  27.770  36.351  1.00  0.00     0.148 A 
ATOM     86  C   UNL A   1      46.455  28.887  36.045  1.00  0.00     0.002 A 
ATOM     87  C   UNL A   1      44.956  27.305  37.115  1.00  0.00     0.091 A 
ATOM     88  F   UNL A   1      42.659  27.257  36.461  1.00  0.00    -0.205 F 
ATOM     89  C   UNL A   1      46.238  27.860  36.960  1.00  0.00     0.022 A 
BRANCH  87  90
ATOM     90  S   UNL A   1      44.763  26.037  38.372  1.00  0.00     0.127 S 
ATOM     91  O   UNL A   1      46.137  25.874  38.844  1.00  0.00    -0.237 OA
ATOM     92  O   UNL A   1      43.861  26.681  39.325  1.00  0.00    -0.237 OA
ATOM     93  O   UNL A   1      44.200  24.876  37.693  1.00  0.00    -0.744 OA
ENDBRANCH  87  90
ENDBRANCH  60  83
ENDBRANCH  34  35
ENDBRANCH  26  29
ENDBRANCH   1  25
TORSDOF 15
ENDMDL
MODEL 2
REMARK VINA RESULT:     -12.7      1.594      7.757
REMARK SMILES COc1cc(C)cc2c1O[C@H](C(F)(F)F)C(C(=O)NCCCNC(=O)c1ccc(-c3c4nc(c(-c5cccc(S(=O)(=O)[O-])c5F)c5ccc([nH]5)c(-c5cccc(S(=O)(=O)[O-])c5F)c5nc(c(-c6cccc(S(=O)(=O)[O-])c6F)c6ccc3[nH]6)C=C5)C=C4)cc1)=C2
REMARK SMILES IDX 22 1 21 2 20 3 19 4 17 5 18 6 16 8 3 9 4 10 9 11 5 12 8 13
REMARK SMILES IDX 10 14 6 15 7 16 89 17 11 18 2 19 1 20 12 21 13 22 14 23
REMARK SMILES IDX 15 24 23 25 24 26 25 28 26 29 27 30 88 31 28 32 87 33 29 34
REMARK SMILES IDX 30 35 31 36 81 37 32 38 86 39 80 40 82 41 33 42 85 43 79 44
REMARK SMILES IDX 78 45 34 47 66 48 46 49 65 50 47 51 50 52 64 53 83 54 48 55
REMARK SMILES IDX 49 56 63 58 84 59 51 60 35 61 36 62 44 63 37 64 39 65 45 66
REMARK SMILES IDX 38 67 40 68 41 69 42 70 43 71 67 72 68 73 76 74 69 75 71 76
REMARK SMILES IDX 77 77 70 78 72 79 73 80 74 81 75 82 52 83 53 84 61 85 54 86
REMARK SMILES IDX 56 87 62 88 55 89 57 90 58 91 59 92 60 93
REMARK H PARENT 19 7 23 27 82 46 50 57
REMARK Flexibility Score: inf
ROOT
ATOM      1  C   UNL A   1      32.644  32.707  26.852  1.00  0.00     0.118 C 
ENDROOT
BRANCH   1   2
ATOM      2  C   UNL A   1      31.289  32.029  26.688  1.00  0.00     0.042 C 
BRANCH   2   3
ATOM      3  C   UNL A   1      31.409  30.522  26.516  1.00  0.00     0.118 C 
BRANCH   3   4
ATOM      4  N   UNL A   1      32.128  30.167  25.301  1.00  0.00    -0.352 N 
ATOM      5  C   UNL A   1      32.592  29.040  24.713  1.00  0.00     0.251 C 
ATOM      6  O   UNL A   1      33.171  29.214  23.635  1.00  0.00    -0.270 OA
ATOM      7  H   UNL A   1      32.331  30.963  24.759  1.00  0.00     0.163 HD
BRANCH   5   8
ATOM      8  C   UNL A   1      32.447  27.659  25.258  1.00  0.00     0.067 C 
ATOM      9  C   UNL A   1      32.265  23.793  26.878  1.00  0.00     0.161 A 
ATOM     10  C   UNL A   1      33.323  22.904  26.673  1.00  0.00     0.054 A 
ATOM     11  C   UNL A   1      32.347  25.102  26.399  1.00  0.00     0.169 A 
ATOM     12  C   UNL A   1      34.488  23.335  26.028  1.00  0.00    -0.047 A 
ATOM     13  C   UNL A   1      33.501  25.543  25.749  1.00  0.00     0.021 A 
ATOM     14  O   UNL A   1      31.293  25.941  26.640  1.00  0.00    -0.471 OA
ATOM     15  C   UNL A   1      35.634  22.395  25.801  1.00  0.00     0.044 C 
ATOM     16  C   UNL A   1      34.572  24.660  25.571  1.00  0.00     0.015 A 
ATOM     17  C   UNL A   1      33.573  26.922  25.281  1.00  0.00     0.025 C 
ATOM     18  C   UNL A   1      31.149  27.058  25.724  1.00  0.00     0.314 C 
BRANCH   9  19
ATOM     19  O   UNL A   1      31.091  23.378  27.451  1.00  0.00    -0.493 OA
ATOM     20  C   UNL A   1      30.243  22.727  26.507  1.00  0.00     0.278 C 
ENDBRANCH   9  19
BRANCH  18  21
ATOM     21  C   UNL A   1      30.230  26.647  24.558  1.00  0.00     0.429 C 
ATOM     22  F   UNL A   1      29.181  25.915  25.009  1.00  0.00    -0.167 F 
ATOM     23  F   UNL A   1      29.699  27.716  23.915  1.00  0.00    -0.167 F 
ATOM     24  F   UNL A   1      30.867  25.912  23.618  1.00  0.00    -0.167 F 
ENDBRANCH  18  21
ENDBRANCH   5   8
ENDBRANCH   3   4
ENDBRANCH   2   3
ENDBRANCH   1   2
BRANCH   1  25
ATOM     25  N   UNL A   1      32.554  33.941  27.629  1.00  0.00    -0.352 N 
ATOM     26  C   UNL A   1      33.276  34.361  28.722  1.00  0.00     0.251 C 
ATOM     27  H   UNL A   1      31.864  34.572  27.322  1.00  0.00     0.163 HD
ATOM     28  O   UNL A   1      32.884  35.329  29.369  1.00  0.00    -0.269 OA
BRANCH  26  29
ATOM     29  C   UNL A   1      34.500  33.640  29.123  1.00  0.00     0.039 A 
ATOM     30  C   UNL A   1      34.409  32.388  29.731  1.00  0.00     0.014 A 
ATOM     31  C   UNL A   1      35.753  34.216  28.895  1.00  0.00     0.014 A 
ATOM     32  C   UNL A   1      35.540  31.813  30.292  1.00  0.00     0.010 A 
ATOM     33  C   UNL A   1      36.906  33.580  29.366  1.00  0.00     0.010 A 
ATOM     34  C   UNL A   1      36.804  32.401  30.119  1.00  0.00    -0.014 A 
BRANCH  34  35
ATOM     35  C   UNL A   1      37.990  31.753  30.735  1.00  0.00     0.031 A 
ATOM     36  C   UNL A   1      38.365  32.026  32.168  1.00  0.00     0.074 A 
ATOM     37  C   UNL A   1      38.692  30.855  30.015  1.00  0.00     0.049 A 
ATOM     38  N   UNL A   1      39.343  31.513  32.870  1.00  0.00    -0.248 NA
ATOM     39  C   UNL A   1      37.545  32.997  32.912  1.00  0.00     0.031 C 
ATOM     40  C   UNL A   1      38.432  30.514  28.614  1.00  0.00     0.029 A 
ATOM     41  N   UNL A   1      39.741  30.044  30.362  1.00  0.00    -0.354 N 
ATOM     42  C   UNL A   1      39.286  32.129  34.115  1.00  0.00     0.074 A 
ATOM     43  C   UNL A   1      38.177  33.056  34.077  1.00  0.00     0.031 C 
ATOM     44  C   UNL A   1      39.249  29.519  28.243  1.00  0.00     0.029 A 
ATOM     45  C   UNL A   1      40.134  29.195  29.355  1.00  0.00     0.049 A 
ATOM     46  H   UNL A   1      40.172  30.068  31.247  1.00  0.00     0.167 HD
ATOM     47  C   UNL A   1      40.073  31.924  35.196  1.00  0.00     0.034 A 
ATOM     48  C   UNL A   1      41.102  28.259  29.323  1.00  0.00     0.034 A 
ATOM     49  C   UNL A   1      41.134  30.956  35.253  1.00  0.00     0.049 A 
ATOM     50  C   UNL A   1      41.946  28.038  30.542  1.00  0.00     0.074 A 
ATOM     51  C   UNL A   1      41.963  30.656  36.321  1.00  0.00     0.029 A 
ATOM     52  N   UNL A   1      41.502  30.122  34.211  1.00  0.00    -0.354 N 
ATOM     53  N   UNL A   1      41.842  28.600  31.721  1.00  0.00    -0.248 NA
ATOM     54  C   UNL A   1      43.034  27.057  30.432  1.00  0.00     0.031 C 
ATOM     55  C   UNL A   1      42.833  29.637  35.922  1.00  0.00     0.029 A 
ATOM     56  C   UNL A   1      42.543  29.303  34.608  1.00  0.00     0.049 A 
ATOM     57  H   UNL A   1      41.085  30.113  33.320  1.00  0.00     0.167 HD
ATOM     58  C   UNL A   1      42.849  28.040  32.496  1.00  0.00     0.074 A 
ATOM     59  C   UNL A   1      43.535  27.075  31.661  1.00  0.00     0.031 C 
ATOM     60  C   UNL A   1      43.186  28.319  33.779  1.00  0.00     0.034 A 
BRANCH  47  61
ATOM     61  C   UNL A   1      39.789  32.721  36.439  1.00  0.00     0.023 A 
ATOM     62  C   UNL A   1      40.426  33.964  36.619  1.00  0.00     0.012 A 
ATOM     63  C   UNL A   1      38.826  32.292  37.373  1.00  0.00     0.148 A 
ATOM     64  C   UNL A   1      40.114  34.768  37.715  1.00  0.00     0.002 A 
ATOM     65  C   UNL A   1      38.501  33.109  38.449  1.00  0.00     0.091 A 
ATOM     66  F   UNL A   1      38.245  31.098  37.186  1.00  0.00    -0.205 F 
ATOM     67  C   UNL A   1      39.147  34.345  38.623  1.00  0.00     0.022 A 
BRANCH  65  68
ATOM     68  S   UNL A   1      37.231  32.686  39.647  1.00  0.00     0.127 S 
ATOM     69  O   UNL A   1      36.029  32.685  38.812  1.00  0.00    -0.237 OA
ATOM     70  O   UNL A   1      37.662  31.363  40.098  1.00  0.00    -0.237 OA
ATOM     71  O   UNL A   1      37.275  33.725  40.665  1.00  0.00    -0.744 OA
ENDBRANCH  65  68
ENDBRANCH  47  61
BRANCH  48  72
ATOM     72  C   UNL A   1      41.273  27.435  28.096  1.00  0.00     0.023 A 
ATOM     73  C   UNL A   1      41.981  27.970  27.002  1.00  0.00     0.012 A 
ATOM     74  C   UNL A   1      40.830  26.099  28.046  1.00  0.00     0.148 A 
ATOM     75  C   UNL A   1      42.246  27.186  25.879  1.00  0.00     0.002 A 
ATOM     76  C   UNL A   1      41.138  25.311  26.946  1.00  0.00     0.091 A 
ATOM     77  F   UNL A   1      40.153  25.619  29.099  1.00  0.00    -0.205 F 
ATOM     78  C   UNL A   1      41.838  25.854  25.857  1.00  0.00     0.022 A 
BRANCH  76  79
ATOM     79  S   UNL A   1      40.767  23.555  26.880  1.00  0.00     0.127 S 
ATOM     80  O   UNL A   1      41.558  23.126  25.729  1.00  0.00    -0.237 OA
ATOM     81  O   UNL A   1      41.266  23.095  28.177  1.00  0.00    -0.237 OA
ATOM     82  O   UNL A   1      39.323  23.460  26.720  1.00  0.00    -0.744 OA
ENDBRANCH  76  79
ENDBRANCH  48  72
BRANCH  60  83
ATOM     83  C   UNL A   1      44.351  27.580  34.373  1.00  0.00     0.023 A 
ATOM     84  C   UNL A   1      45.640  28.132  34.258  1.00  0.00     0.012 A 
ATOM     85  C   UNL A   1      44.152  26.419  35.142  1.00  0.00     0.148 A 
ATOM     86  C   UNL A   1      46.723  27.533  34.900  1.00  0.00     0.002 A 
ATOM     87  C   UNL A   1      45.230  25.844  35.804  1.00  0.00     0.091 A 
ATOM     88  F   UNL A   1      42.914  25.912  35.225  1.00  0.00    -0.205 F 
ATOM     89  C   UNL A   1      46.516  26.398  35.681  1.00  0.00     0.022 A 
BRANCH  87  90
ATOM     90  S   UNL A   1      45.054  24.425  36.891  1.00  0.00     0.127 S 
ATOM     91  O   UNL A   1      44.497  23.424  35.983  1.00  0.00    -0.237 OA
ATOM     92  O   UNL A   1      46.436  24.177  37.301  1.00  0.00    -0.237 OA
ATOM     93  O   UNL A   1      44.167  24.847  37.967  1.00  0.00    -0.744 OA
ENDBRANCH  87  90
ENDBRANCH  60  83
ENDBRANCH  34  35
ENDBRANCH  26  29
ENDBRANCH   1  25
TORSDOF 15
ENDMDL
MODEL 3
REMARK VINA RESULT:     -12.7      0.221      7.766
REMARK SMILES COc1cc(C)cc2c1O[C@H](C(F)(F)F)C(C(=O)NCCCNC(=O)c1ccc(-c3c4nc(c(-c5cccc(S(=O)(=O)[O-])c5F)c5ccc([nH]5)c(-c5cccc(S(=O)(=O)[O-])c5F)c5nc(c(-c6cccc(S(=O)(=O)[O-])c6F)c6ccc3[nH]6)C=C5)C=C4)cc1)=C2
REMARK SMILES IDX 22 1 21 2 20 3 19 4 17 5 18 6 16 8 3 9 4 10 9 11 5 12 8 13
REMARK SMILES IDX 10 14 6 15 7 16 89 17 11 18 2 19 1 20 12 21 13 22 14 23
REMARK SMILES IDX 15 24 23 25 24 26 25 28 26 29 27 30 88 31 28 32 87 33 29 34
REMARK SMILES IDX 30 35 31 36 81 37 32 38 86 39 80 40 82 41 33 42 85 43 79 44
REMARK SMILES IDX 78 45 34 47 66 48 46 49 65 50 47 51 50 52 64 53 83 54 48 55
REMARK SMILES IDX 49 56 63 58 84 59 51 60 35 61 36 62 44 63 37 64 39 65 45 66
REMARK SMILES IDX 38 67 40 68 41 69 42 70 43 71 67 72 68 73 76 74 69 75 71 76
REMARK SMILES IDX 77 77 70 78 72 79 73 80 74 81 75 82 52 83 53 84 61 85 54 86
REMARK SMILES IDX 56 87 62 88 55 89 57 90 58 91 59 92 60 93
REMARK H PARENT 19 7 23 27 82 46 50 57
REMARK Flexibility Score: inf
ROOT
ATOM      1  C   UNL A   1      32.855  32.673  27.434  1.00  0.00     0.118 C 
ENDROOT
BRANCH   1   2
ATOM      2  C   UNL A   1      31.724  32.058  26.616  1.00  0.00     0.042 C 
BRANCH   2   3
ATOM      3  C   UNL A   1      31.837  30.544  26.515  1.00  0.00     0.118 C 
BRANCH   3   4
ATOM      4  N   UNL A   1      32.418  30.124  25.248  1.00  0.00    -0.352 N 
ATOM      5  C   UNL A   1      32.734  28.960  24.636  1.00  0.00     0.251 C 
ATOM      6  O   UNL A   1      33.233  29.079  23.512  1.00  0.00    -0.270 OA
ATOM      7  H   UNL A   1      32.642  30.898  24.682  1.00  0.00     0.163 HD
BRANCH   5   8
ATOM      8  C   UNL A   1      32.518  27.598  25.206  1.00  0.00     0.067 C 
ATOM      9  C   UNL A   1      32.131  23.785  26.913  1.00  0.00     0.161 A 
ATOM     10  C   UNL A   1      33.180  22.868  26.810  1.00  0.00     0.054 A 
ATOM     11  C   UNL A   1      32.277  25.078  26.406  1.00  0.00     0.169 A 
ATOM     12  C   UNL A   1      34.398  23.256  26.239  1.00  0.00    -0.047 A 
ATOM     13  C   UNL A   1      33.485  25.475  25.830  1.00  0.00     0.021 A 
ATOM     14  O   UNL A   1      31.229  25.946  26.547  1.00  0.00    -0.471 OA
ATOM     15  C   UNL A   1      35.536  22.285  26.121  1.00  0.00     0.044 C 
ATOM     16  C   UNL A   1      34.545  24.565  25.754  1.00  0.00     0.015 A 
ATOM     17  C   UNL A   1      33.623  26.838  25.330  1.00  0.00     0.025 C 
ATOM     18  C   UNL A   1      31.177  27.038  25.593  1.00  0.00     0.314 C 
BRANCH   9  19
ATOM     19  O   UNL A   1      30.910  23.411  27.411  1.00  0.00    -0.493 OA
ATOM     20  C   UNL A   1      30.223  22.533  26.522  1.00  0.00     0.278 C 
ENDBRANCH   9  19
BRANCH  18  21
ATOM     21  C   UNL A   1      30.335  26.613  24.376  1.00  0.00     0.429 C 
ATOM     22  F   UNL A   1      31.130  26.361  23.306  1.00  0.00    -0.167 F 
ATOM     23  F   UNL A   1      29.632  25.476  24.603  1.00  0.00    -0.167 F 
ATOM     24  F   UNL A   1      29.435  27.551  24.003  1.00  0.00    -0.167 F 
ENDBRANCH  18  21
ENDBRANCH   5   8
ENDBRANCH   3   4
ENDBRANCH   2   3
ENDBRANCH   1   2
BRANCH   1  25
ATOM     25  N   UNL A   1      32.607  34.078  27.749  1.00  0.00    -0.352 N 
ATOM     26  C   UNL A   1      33.129  34.874  28.742  1.00  0.00     0.251 C 
ATOM     27  H   UNL A   1      31.962  34.527  27.156  1.00  0.00     0.163 HD
ATOM     28  O   UNL A   1      32.612  35.963  28.977  1.00  0.00    -0.269 OA
BRANCH  26  29
ATOM     29  C   UNL A   1      34.287  34.410  29.531  1.00  0.00     0.039 A 
ATOM     30  C   UNL A   1      35.583  34.729  29.128  1.00  0.00     0.014 A 
ATOM     31  C   UNL A   1      34.082  33.646  30.683  1.00  0.00     0.014 A 
ATOM     32  C   UNL A   1      36.666  34.119  29.747  1.00  0.00     0.010 A 
ATOM     33  C   UNL A   1      35.180  33.121  31.372  1.00  0.00     0.010 A 
ATOM     34  C   UNL A   1      36.479  33.306  30.877  1.00  0.00    -0.014 A 
BRANCH  34  35
ATOM     35  C   UNL A   1      37.664  32.673  31.511  1.00  0.00     0.031 A 
ATOM     36  C   UNL A   1      38.111  33.076  32.892  1.00  0.00     0.074 A 
ATOM     37  C   UNL A   1      38.297  31.674  30.863  1.00  0.00     0.049 A 
ATOM     38  N   UNL A   1      39.098  32.596  33.606  1.00  0.00    -0.248 NA
ATOM     39  C   UNL A   1      37.365  34.155  33.561  1.00  0.00     0.031 C 
ATOM     40  C   UNL A   1      37.962  31.202  29.517  1.00  0.00     0.029 A 
ATOM     41  N   UNL A   1      39.326  30.858  31.252  1.00  0.00    -0.354 N 
ATOM     42  C   UNL A   1      39.120  33.339  34.779  1.00  0.00     0.074 A 
ATOM     43  C   UNL A   1      38.049  34.306  34.687  1.00  0.00     0.031 C 
ATOM     44  C   UNL A   1      38.721  30.139  29.222  1.00  0.00     0.029 A 
ATOM     45  C   UNL A   1      39.640  29.892  30.326  1.00  0.00     0.049 A 
ATOM     46  H   UNL A   1      39.795  30.954  32.113  1.00  0.00     0.167 HD
ATOM     47  C   UNL A   1      39.944  33.212  35.845  1.00  0.00     0.034 A 
ATOM     48  C   UNL A   1      40.567  28.915  30.355  1.00  0.00     0.034 A 
ATOM     49  C   UNL A   1      40.966  32.208  35.962  1.00  0.00     0.049 A 
ATOM     50  C   UNL A   1      41.454  28.784  31.557  1.00  0.00     0.074 A 
ATOM     51  C   UNL A   1      41.828  31.984  37.022  1.00  0.00     0.029 A 
ATOM     52  N   UNL A   1      41.254  31.255  35.000  1.00  0.00    -0.354 N 
ATOM     53  N   UNL A   1      41.424  29.469  32.673  1.00  0.00    -0.248 NA
ATOM     54  C   UNL A   1      42.495  27.749  31.508  1.00  0.00     0.031 C 
ATOM     55  C   UNL A   1      42.638  30.891  36.699  1.00  0.00     0.029 A 
ATOM     56  C   UNL A   1      42.278  30.435  35.441  1.00  0.00     0.049 A 
ATOM     57  H   UNL A   1      40.799  31.173  34.132  1.00  0.00     0.167 HD
ATOM     58  C   UNL A   1      42.440  28.948  33.463  1.00  0.00     0.074 A 
ATOM     59  C   UNL A   1      43.049  27.872  32.708  1.00  0.00     0.031 C 
ATOM     60  C   UNL A   1      42.844  29.342  34.695  1.00  0.00     0.034 A 
BRANCH  47  61
ATOM     61  C   UNL A   1      39.747  34.145  37.007  1.00  0.00     0.023 A 
ATOM     62  C   UNL A   1      40.089  35.504  36.863  1.00  0.00     0.012 A 
ATOM     63  C   UNL A   1      39.136  33.704  38.197  1.00  0.00     0.148 A 
ATOM     64  C   UNL A   1      39.833  36.411  37.890  1.00  0.00     0.002 A 
ATOM     65  C   UNL A   1      38.860  34.619  39.206  1.00  0.00     0.091 A 
ATOM     66  F   UNL A   1      38.834  32.403  38.314  1.00  0.00    -0.205 F 
ATOM     67  C   UNL A   1      39.211  35.971  39.056  1.00  0.00     0.022 A 
BRANCH  65  68
ATOM     68  S   UNL A   1      38.013  34.170  40.725  1.00  0.00     0.127 S 
ATOM     69  O   UNL A   1      39.007  33.315  41.374  1.00  0.00    -0.237 OA
ATOM     70  O   UNL A   1      37.817  35.471  41.364  1.00  0.00    -0.237 OA
ATOM     71  O   UNL A   1      36.788  33.496  40.320  1.00  0.00    -0.744 OA
ENDBRANCH  65  68
ENDBRANCH  47  61
BRANCH  48  72
ATOM     72  C   UNL A   1      40.651  27.962  29.216  1.00  0.00     0.023 A 
ATOM     73  C   UNL A   1      39.727  26.902  29.138  1.00  0.00     0.012 A 
ATOM     74  C   UNL A   1      41.568  28.159  28.165  1.00  0.00     0.148 A 
ATOM     75  C   UNL A   1      39.714  26.055  28.029  1.00  0.00     0.002 A 
ATOM     76  C   UNL A   1      41.519  27.341  27.045  1.00  0.00     0.091 A 
ATOM     77  F   UNL A   1      42.440  29.172  28.270  1.00  0.00    -0.205 F 
ATOM     78  C   UNL A   1      40.600  26.282  26.978  1.00  0.00     0.022 A 
BRANCH  76  79
ATOM     79  S   UNL A   1      42.531  27.634  25.590  1.00  0.00     0.127 S 
ATOM     80  O   UNL A   1      41.984  28.896  25.097  1.00  0.00    -0.237 OA
ATOM     81  O   UNL A   1      43.871  27.728  26.171  1.00  0.00    -0.237 OA
ATOM     82  O   UNL A   1      42.326  26.481  24.725  1.00  0.00    -0.744 OA
ENDBRANCH  76  79
ENDBRANCH  48  72
BRANCH  60  83
ATOM     83  C   UNL A   1      44.002  28.618  35.318  1.00  0.00     0.023 A 
ATOM     84  C   UNL A   1      45.312  29.036  35.016  1.00  0.00     0.012 A 
ATOM     85  C   UNL A   1      43.791  27.618  36.285  1.00  0.00     0.148 A 
ATOM     86  C   UNL A   1      46.402  28.463  35.668  1.00  0.00     0.002 A 
ATOM     87  C   UNL A   1      44.881  27.073  36.954  1.00  0.00     0.091 A 
ATOM     88  F   UNL A   1      42.533  27.235  36.544  1.00  0.00    -0.205 F 
ATOM     89  C   UNL A   1      46.186  27.492  36.643  1.00  0.00     0.022 A 
BRANCH  87  90
ATOM     90  S   UNL A   1      44.703  25.870  38.275  1.00  0.00     0.127 S 
ATOM     91  O   UNL A   1      46.097  25.622  38.640  1.00  0.00    -0.237 OA
ATOM     92  O   UNL A   1      43.933  26.616  39.270  1.00  0.00    -0.237 OA
ATOM     93  O   UNL A   1      44.003  24.731  37.694  1.00  0.00    -0.744 OA
ENDBRANCH  87  90
ENDBRANCH  60  83
ENDBRANCH  34  35
ENDBRANCH  26  29
ENDBRANCH   1  25
TORSDOF 15
ENDMDL
