MODEL 1
REMARK VINA RESULT:     -13.3      0.000      0.000
REMARK SMILES O=C(NCCCNC(=O)[C@H](c1ccccc1)N1C(=O)/C(=C/c2ccc(-c3nc4ccccc4s3)o2)SC1=S)c1ccc(-c2c3nc(c(-c4cccc(S(=O)(=O)[O-])c4F)c4ccc([nH]4)c(-c4cccc(S(=O)(=O)[O-])c4F)c4nc(c(-c5cccc(S(=O)(=O)[O-])c5F)c5ccc2[nH]5)C=C4)C=C3)cc1
REMARK SMILES IDX 5 1 4 2 3 3 1 4 2 5 39 7 40 8 101 9 41 10 100 11 42 12 43 13
REMARK SMILES IDX 44 14 94 15 45 16 99 17 93 18 95 19 46 20 98 21 92 22 91 23
REMARK SMILES IDX 47 25 79 26 59 27 78 28 60 29 63 30 77 31 96 32 61 33 62 34
REMARK SMILES IDX 76 36 97 37 64 38 48 39 49 40 57 41 50 42 52 43 58 44 51 45
REMARK SMILES IDX 53 46 54 47 55 48 56 49 80 50 81 51 89 52 82 53 84 54 90 55
REMARK SMILES IDX 83 56 85 57 86 58 87 59 88 60 65 61 66 62 74 63 67 64 69 65
REMARK SMILES IDX 75 66 68 67 70 68 71 69 72 70 73 71 6 72 7 73 8 74 9 76
REMARK SMILES IDX 10 77 17 78 18 79 37 80 19 81 20 82 36 83 38 84 21 85 22 86
REMARK SMILES IDX 23 87 35 88 24 89 25 90 26 91 27 92 34 93 28 94 33 95 29 96
REMARK SMILES IDX 32 97 30 98 31 99 11 100 12 101 16 102 13 103 15 104 14 105
REMARK H PARENT 3 6 95 24 63 35 7 75
REMARK Flexibility Score: inf
ROOT
ATOM      1  C   UNL A   1      38.403  20.003  25.061  1.00  0.00     0.042 C 
ENDROOT
BRANCH   1   2
ATOM      2  C   UNL A   1      39.448  20.228  26.130  1.00  0.00     0.118 C 
BRANCH   2   3
ATOM      3  N   UNL A   1      40.539  19.260  26.038  1.00  0.00    -0.352 N 
ATOM      4  O   UNL A   1      42.644  18.555  25.663  1.00  0.00    -0.269 OA
ATOM      5  C   UNL A   1      41.898  19.465  26.008  1.00  0.00     0.251 C 
ATOM      6  H   UNL A   1      40.257  18.318  25.992  1.00  0.00     0.163 HD
BRANCH   5   7
ATOM      7  C   UNL A   1      42.435  20.789  26.380  1.00  0.00     0.039 A 
ATOM      8  C   UNL A   1      42.741  21.707  25.377  1.00  0.00     0.014 A 
ATOM      9  C   UNL A   1      42.630  21.124  27.722  1.00  0.00     0.014 A 
ATOM     10  C   UNL A   1      43.427  22.867  25.686  1.00  0.00     0.010 A 
ATOM     11  C   UNL A   1      43.173  22.370  28.045  1.00  0.00     0.010 A 
ATOM     12  C   UNL A   1      43.589  23.242  27.026  1.00  0.00    -0.014 A 
BRANCH  12  13
ATOM     13  C   UNL A   1      44.024  24.629  27.304  1.00  0.00     0.031 A 
ATOM     14  C   UNL A   1      43.080  25.661  27.840  1.00  0.00     0.074 A 
ATOM     15  C   UNL A   1      45.316  24.929  27.056  1.00  0.00     0.049 A 
ATOM     16  N   UNL A   1      43.325  26.912  28.129  1.00  0.00    -0.248 NA
ATOM     17  C   UNL A   1      41.686  25.253  28.079  1.00  0.00     0.031 C 
ATOM     18  C   UNL A   1      46.302  23.999  26.491  1.00  0.00     0.029 A 
ATOM     19  N   UNL A   1      46.027  26.084  27.239  1.00  0.00    -0.354 N 
ATOM     20  C   UNL A   1      42.112  27.457  28.529  1.00  0.00     0.074 A 
ATOM     21  C   UNL A   1      41.130  26.396  28.466  1.00  0.00     0.031 C 
ATOM     22  C   UNL A   1      47.490  24.607  26.400  1.00  0.00     0.029 A 
ATOM     23  C   UNL A   1      47.331  25.994  26.810  1.00  0.00     0.049 A 
ATOM     24  H   UNL A   1      45.644  26.900  27.637  1.00  0.00     0.167 HD
ATOM     25  C   UNL A   1      41.855  28.730  28.910  1.00  0.00     0.034 A 
ATOM     26  C   UNL A   1      48.286  26.935  26.701  1.00  0.00     0.034 A 
ATOM     27  C   UNL A   1      42.857  29.761  28.996  1.00  0.00     0.049 A 
ATOM     28  C   UNL A   1      47.959  28.329  27.138  1.00  0.00     0.074 A 
ATOM     29  C   UNL A   1      42.714  31.056  29.463  1.00  0.00     0.029 A 
ATOM     30  N   UNL A   1      44.173  29.628  28.585  1.00  0.00    -0.354 N 
ATOM     31  N   UNL A   1      46.847  28.786  27.662  1.00  0.00    -0.248 NA
ATOM     32  C   UNL A   1      49.016  29.335  26.986  1.00  0.00     0.031 C 
ATOM     33  C   UNL A   1      43.933  31.718  29.291  1.00  0.00     0.029 A 
ATOM     34  C   UNL A   1      44.846  30.826  28.752  1.00  0.00     0.049 A 
ATOM     35  H   UNL A   1      44.572  28.801  28.225  1.00  0.00     0.167 HD
ATOM     36  C   UNL A   1      47.074  30.131  27.912  1.00  0.00     0.074 A 
ATOM     37  C   UNL A   1      48.444  30.402  27.524  1.00  0.00     0.031 C 
ATOM     38  C   UNL A   1      46.219  31.066  28.394  1.00  0.00     0.034 A 
BRANCH  25  39
ATOM     39  C   UNL A   1      40.442  29.101  29.275  1.00  0.00     0.023 A 
ATOM     40  C   UNL A   1      39.511  29.408  28.263  1.00  0.00     0.012 A 
ATOM     41  C   UNL A   1      40.010  29.021  30.614  1.00  0.00     0.148 A 
ATOM     42  C   UNL A   1      38.172  29.638  28.580  1.00  0.00     0.002 A 
ATOM     43  C   UNL A   1      38.666  29.209  30.917  1.00  0.00     0.091 A 
ATOM     44  F   UNL A   1      40.917  28.746  31.561  1.00  0.00    -0.205 F 
ATOM     45  C   UNL A   1      37.748  29.525  29.903  1.00  0.00     0.022 A 
BRANCH  43  46
ATOM     46  S   UNL A   1      38.005  29.002  32.574  1.00  0.00     0.127 S 
ATOM     47  O   UNL A   1      38.879  29.879  33.353  1.00  0.00    -0.237 OA
ATOM     48  O   UNL A   1      36.635  29.490  32.418  1.00  0.00    -0.237 OA
ATOM     49  O   UNL A   1      38.119  27.584  32.883  1.00  0.00    -0.744 OA
ENDBRANCH  43  46
ENDBRANCH  25  39
BRANCH  26  50
ATOM     50  C   UNL A   1      49.617  26.586  26.134  1.00  0.00     0.023 A 
ATOM     51  C   UNL A   1      50.500  25.772  26.867  1.00  0.00     0.012 A 
ATOM     52  C   UNL A   1      50.002  27.041  24.856  1.00  0.00     0.148 A 
ATOM     53  C   UNL A   1      51.758  25.451  26.354  1.00  0.00     0.002 A 
ATOM     54  C   UNL A   1      51.226  26.661  24.323  1.00  0.00     0.091 A 
ATOM     55  F   UNL A   1      49.154  27.828  24.177  1.00  0.00    -0.205 F 
ATOM     56  C   UNL A   1      52.116  25.886  25.080  1.00  0.00     0.022 A 
BRANCH  54  57
ATOM     57  S   UNL A   1      51.690  27.053  22.633  1.00  0.00     0.127 S 
ATOM     58  O   UNL A   1      52.023  28.471  22.736  1.00  0.00    -0.237 OA
ATOM     59  O   UNL A   1      52.832  26.165  22.415  1.00  0.00    -0.237 OA
ATOM     60  O   UNL A   1      50.522  26.726  21.828  1.00  0.00    -0.744 OA
ENDBRANCH  54  57
ENDBRANCH  26  50
BRANCH  38  61
ATOM     61  C   UNL A   1      46.749  32.465  28.537  1.00  0.00     0.023 A 
ATOM     62  C   UNL A   1      47.265  32.890  29.777  1.00  0.00     0.012 A 
ATOM     63  C   UNL A   1      46.786  33.337  27.433  1.00  0.00     0.148 A 
ATOM     64  C   UNL A   1      47.779  34.177  29.926  1.00  0.00     0.002 A 
ATOM     65  C   UNL A   1      47.348  34.598  27.575  1.00  0.00     0.091 A 
ATOM     66  F   UNL A   1      46.273  32.915  26.268  1.00  0.00    -0.205 F 
ATOM     67  C   UNL A   1      47.832  35.025  28.823  1.00  0.00     0.022 A 
BRANCH  65  68
ATOM     68  S   UNL A   1      47.547  35.726  26.192  1.00  0.00     0.127 S 
ATOM     69  O   UNL A   1      47.807  34.803  25.090  1.00  0.00    -0.237 OA
ATOM     70  O   UNL A   1      46.241  36.385  26.143  1.00  0.00    -0.237 OA
ATOM     71  O   UNL A   1      48.656  36.603  26.541  1.00  0.00    -0.744 OA
ENDBRANCH  65  68
ENDBRANCH  38  61
ENDBRANCH  12  13
ENDBRANCH   5   7
ENDBRANCH   2   3
ENDBRANCH   1   2
BRANCH   1  72
ATOM     72  C   UNL A   1      37.229  20.936  25.224  1.00  0.00     0.117 C 
BRANCH  72  73
ATOM     73  N   UNL A   1      36.969  21.745  24.061  1.00  0.00    -0.354 N 
ATOM     74  C   UNL A   1      35.862  22.483  23.770  1.00  0.00     0.247 C 
ATOM     75  H   UNL A   1      37.687  21.769  23.388  1.00  0.00     0.163 HD
ATOM     76  O   UNL A   1      36.007  23.369  22.918  1.00  0.00    -0.272 OA
BRANCH  74  77
ATOM     77  C   UNL A   1      34.488  22.279  24.474  1.00  0.00     0.211 C 
BRANCH  77  78
ATOM     78  N   UNL A   1      33.814  23.563  24.827  1.00  0.00    -0.276 N 
ATOM     79  C   UNL A   1      33.643  24.620  23.950  1.00  0.00     0.267 C 
ATOM     80  C   UNL A   1      33.354  23.798  26.120  1.00  0.00     0.149 C 
ATOM     81  O   UNL A   1      33.857  24.642  22.753  1.00  0.00    -0.268 OA
ATOM     82  C   UNL A   1      33.155  25.835  24.663  1.00  0.00     0.084 C 
ATOM     83  S   UNL A   1      32.811  25.461  26.293  1.00  0.00    -0.054 SA
ATOM     84  S   UNL A   1      33.284  22.759  27.428  1.00  0.00    -0.052 S 
ATOM     85  C   UNL A   1      33.045  27.008  24.027  1.00  0.00     0.068 C 
BRANCH  85  86
ATOM     86  C   UNL A   1      32.641  28.221  24.645  1.00  0.00     0.129 A 
ATOM     87  C   UNL A   1      31.443  28.917  24.547  1.00  0.00     0.051 A 
ATOM     88  O   UNL A   1      33.436  28.888  25.548  1.00  0.00    -0.454 OA
ATOM     89  C   UNL A   1      31.518  30.023  25.420  1.00  0.00     0.054 A 
ATOM     90  C   UNL A   1      32.765  29.989  26.016  1.00  0.00     0.163 A 
BRANCH  90  91
ATOM     91  C   UNL A   1      33.296  30.931  26.959  1.00  0.00     0.160 A 
ATOM     92  N   UNL A   1      32.748  32.114  27.126  1.00  0.00    -0.233 NA
ATOM     93  S   UNL A   1      34.715  30.630  27.872  1.00  0.00    -0.111 S 
ATOM     94  C   UNL A   1      33.492  32.858  28.021  1.00  0.00     0.082 A 
ATOM     95  C   UNL A   1      34.639  32.230  28.511  1.00  0.00     0.055 A 
ATOM     96  C   UNL A   1      33.200  34.170  28.442  1.00  0.00     0.030 A 
ATOM     97  C   UNL A   1      35.526  32.887  29.381  1.00  0.00     0.021 A 
ATOM     98  C   UNL A   1      34.074  34.832  29.308  1.00  0.00     0.002 A 
ATOM     99  C   UNL A   1      35.228  34.201  29.763  1.00  0.00     0.002 A 
ENDBRANCH  90  91
ENDBRANCH  85  86
ENDBRANCH  77  78
BRANCH  77 100
ATOM    100  C   UNL A   1      33.687  21.095  23.913  1.00  0.00    -0.016 A 
ATOM    101  C   UNL A   1      33.727  19.784  24.417  1.00  0.00     0.006 A 
ATOM    102  C   UNL A   1      32.779  21.335  22.863  1.00  0.00     0.006 A 
ATOM    103  C   UNL A   1      32.949  18.755  23.881  1.00  0.00     0.000 A 
ATOM    104  C   UNL A   1      31.985  20.311  22.335  1.00  0.00     0.000 A 
ATOM    105  C   UNL A   1      32.077  19.018  22.837  1.00  0.00     0.000 A 
ENDBRANCH  77 100
ENDBRANCH  74  77
ENDBRANCH  72  73
ENDBRANCH   1  72
TORSDOF 17
ENDMDL
MODEL 2
REMARK VINA RESULT:     -13.1      0.593      7.294
REMARK SMILES O=C(NCCCNC(=O)[C@H](c1ccccc1)N1C(=O)/C(=C/c2ccc(-c3nc4ccccc4s3)o2)SC1=S)c1ccc(-c2c3nc(c(-c4cccc(S(=O)(=O)[O-])c4F)c4ccc([nH]4)c(-c4cccc(S(=O)(=O)[O-])c4F)c4nc(c(-c5cccc(S(=O)(=O)[O-])c5F)c5ccc2[nH]5)C=C4)C=C3)cc1
REMARK SMILES IDX 5 1 4 2 3 3 1 4 2 5 39 7 40 8 101 9 41 10 100 11 42 12 43 13
REMARK SMILES IDX 44 14 94 15 45 16 99 17 93 18 95 19 46 20 98 21 92 22 91 23
REMARK SMILES IDX 47 25 79 26 59 27 78 28 60 29 63 30 77 31 96 32 61 33 62 34
REMARK SMILES IDX 76 36 97 37 64 38 48 39 49 40 57 41 50 42 52 43 58 44 51 45
REMARK SMILES IDX 53 46 54 47 55 48 56 49 80 50 81 51 89 52 82 53 84 54 90 55
REMARK SMILES IDX 83 56 85 57 86 58 87 59 88 60 65 61 66 62 74 63 67 64 69 65
REMARK SMILES IDX 75 66 68 67 70 68 71 69 72 70 73 71 6 72 7 73 8 74 9 76
REMARK SMILES IDX 10 77 17 78 18 79 37 80 19 81 20 82 36 83 38 84 21 85 22 86
REMARK SMILES IDX 23 87 35 88 24 89 25 90 26 91 27 92 34 93 28 94 33 95 29 96
REMARK SMILES IDX 32 97 30 98 31 99 11 100 12 101 16 102 13 103 15 104 14 105
REMARK H PARENT 3 6 95 24 63 35 7 75
REMARK Flexibility Score: inf
ROOT
ATOM      1  C   UNL A   1      38.567  20.337  25.367  1.00  0.00     0.042 C 
ENDROOT
BRANCH   1   2
ATOM      2  C   UNL A   1      39.577  20.246  26.488  1.00  0.00     0.118 C 
BRANCH   2   3
ATOM      3  N   UNL A   1      40.675  19.340  26.160  1.00  0.00    -0.352 N 
ATOM      4  O   UNL A   1      42.710  18.758  25.390  1.00  0.00    -0.269 OA
ATOM      5  C   UNL A   1      41.998  19.615  25.903  1.00  0.00     0.251 C 
ATOM      6  H   UNL A   1      40.431  18.387  26.118  1.00  0.00     0.163 HD
BRANCH   5   7
ATOM      7  C   UNL A   1      42.535  20.948  26.240  1.00  0.00     0.039 A 
ATOM      8  C   UNL A   1      42.747  21.875  25.221  1.00  0.00     0.014 A 
ATOM      9  C   UNL A   1      42.822  21.283  27.566  1.00  0.00     0.014 A 
ATOM     10  C   UNL A   1      43.431  23.047  25.485  1.00  0.00     0.010 A 
ATOM     11  C   UNL A   1      43.363  22.539  27.854  1.00  0.00     0.010 A 
ATOM     12  C   UNL A   1      43.685  23.421  26.811  1.00  0.00    -0.014 A 
BRANCH  12  13
ATOM     13  C   UNL A   1      44.111  24.816  27.061  1.00  0.00     0.031 A 
ATOM     14  C   UNL A   1      45.528  25.259  26.859  1.00  0.00     0.074 A 
ATOM     15  C   UNL A   1      43.165  25.682  27.479  1.00  0.00     0.049 A 
ATOM     16  N   UNL A   1      46.040  26.448  27.039  1.00  0.00    -0.248 NA
ATOM     17  C   UNL A   1      46.500  24.251  26.405  1.00  0.00     0.031 C 
ATOM     18  C   UNL A   1      41.764  25.332  27.746  1.00  0.00     0.029 A 
ATOM     19  N   UNL A   1      43.222  27.022  27.755  1.00  0.00    -0.354 N 
ATOM     20  C   UNL A   1      47.398  26.324  26.779  1.00  0.00     0.074 A 
ATOM     21  C   UNL A   1      47.632  24.945  26.406  1.00  0.00     0.031 C 
ATOM     22  C   UNL A   1      41.092  26.427  28.118  1.00  0.00     0.029 A 
ATOM     23  C   UNL A   1      42.029  27.535  28.207  1.00  0.00     0.049 A 
ATOM     24  H   UNL A   1      44.037  27.564  27.642  1.00  0.00     0.167 HD
ATOM     25  C   UNL A   1      48.352  27.281  26.849  1.00  0.00     0.034 A 
ATOM     26  C   UNL A   1      41.727  28.752  28.696  1.00  0.00     0.034 A 
ATOM     27  C   UNL A   1      48.087  28.655  27.191  1.00  0.00     0.049 A 
ATOM     28  C   UNL A   1      42.813  29.782  28.752  1.00  0.00     0.074 A 
ATOM     29  C   UNL A   1      48.971  29.721  27.196  1.00  0.00     0.029 A 
ATOM     30  N   UNL A   1      46.863  29.149  27.612  1.00  0.00    -0.354 N 
ATOM     31  N   UNL A   1      44.057  29.685  28.351  1.00  0.00    -0.248 NA
ATOM     32  C   UNL A   1      42.454  31.090  29.311  1.00  0.00     0.031 C 
ATOM     33  C   UNL A   1      48.290  30.849  27.663  1.00  0.00     0.029 A 
ATOM     34  C   UNL A   1      46.974  30.496  27.915  1.00  0.00     0.049 A 
ATOM     35  H   UNL A   1      46.036  28.619  27.686  1.00  0.00     0.167 HD
ATOM     36  C   UNL A   1      44.629  30.925  28.599  1.00  0.00     0.074 A 
ATOM     37  C   UNL A   1      43.581  31.766  29.144  1.00  0.00     0.031 C 
ATOM     38  C   UNL A   1      45.911  31.324  28.420  1.00  0.00     0.034 A 
BRANCH  25  39
ATOM     39  C   UNL A   1      49.777  26.902  26.547  1.00  0.00     0.023 A 
ATOM     40  C   UNL A   1      50.509  26.127  27.468  1.00  0.00     0.012 A 
ATOM     41  C   UNL A   1      50.344  27.208  25.294  1.00  0.00     0.148 A 
ATOM     42  C   UNL A   1      51.788  25.670  27.149  1.00  0.00     0.002 A 
ATOM     43  C   UNL A   1      51.601  26.714  24.967  1.00  0.00     0.091 A 
ATOM     44  F   UNL A   1      49.637  27.962  24.441  1.00  0.00    -0.205 F 
ATOM     45  C   UNL A   1      52.328  25.951  25.896  1.00  0.00     0.022 A 
BRANCH  43  46
ATOM     46  S   UNL A   1      52.347  26.948  23.349  1.00  0.00     0.127 S 
ATOM     47  O   UNL A   1      53.348  25.881  23.329  1.00  0.00    -0.237 OA
ATOM     48  O   UNL A   1      51.210  26.731  22.455  1.00  0.00    -0.237 OA
ATOM     49  O   UNL A   1      52.885  28.300  23.342  1.00  0.00    -0.744 OA
ENDBRANCH  43  46
ENDBRANCH  25  39
BRANCH  26  50
ATOM     50  C   UNL A   1      40.352  29.038  29.190  1.00  0.00     0.023 A 
ATOM     51  C   UNL A   1      39.365  29.487  28.294  1.00  0.00     0.012 A 
ATOM     52  C   UNL A   1      40.014  28.843  30.545  1.00  0.00     0.148 A 
ATOM     53  C   UNL A   1      38.077  29.776  28.746  1.00  0.00     0.002 A 
ATOM     54  C   UNL A   1      38.712  29.066  30.974  1.00  0.00     0.091 A 
ATOM     55  F   UNL A   1      40.970  28.428  31.389  1.00  0.00    -0.205 F 
ATOM     56  C   UNL A   1      37.748  29.555  30.082  1.00  0.00     0.022 A 
BRANCH  54  57
ATOM     57  S   UNL A   1      38.178  28.657  32.639  1.00  0.00     0.127 S 
ATOM     58  O   UNL A   1      36.821  29.196  32.657  1.00  0.00    -0.237 OA
ATOM     59  O   UNL A   1      38.262  27.197  32.638  1.00  0.00    -0.237 OA
ATOM     60  O   UNL A   1      39.136  29.306  33.522  1.00  0.00    -0.744 OA
ENDBRANCH  54  57
ENDBRANCH  26  50
BRANCH  38  61
ATOM     61  C   UNL A   1      46.245  32.737  28.806  1.00  0.00     0.023 A 
ATOM     62  C   UNL A   1      46.739  33.008  30.098  1.00  0.00     0.012 A 
ATOM     63  C   UNL A   1      46.123  33.786  27.875  1.00  0.00     0.148 A 
ATOM     64  C   UNL A   1      47.074  34.309  30.469  1.00  0.00     0.002 A 
ATOM     65  C   UNL A   1      46.509  35.070  28.235  1.00  0.00     0.091 A 
ATOM     66  F   UNL A   1      45.634  33.506  26.658  1.00  0.00    -0.205 F 
ATOM     67  C   UNL A   1      46.971  35.336  29.534  1.00  0.00     0.022 A 
BRANCH  65  68
ATOM     68  S   UNL A   1      46.501  36.439  27.073  1.00  0.00     0.127 S 
ATOM     69  O   UNL A   1      47.068  35.819  25.878  1.00  0.00    -0.237 OA
ATOM     70  O   UNL A   1      45.075  36.755  26.981  1.00  0.00    -0.237 OA
ATOM     71  O   UNL A   1      47.316  37.485  27.676  1.00  0.00    -0.744 OA
ENDBRANCH  65  68
ENDBRANCH  38  61
ENDBRANCH  12  13
ENDBRANCH   5   7
ENDBRANCH   2   3
ENDBRANCH   1   2
BRANCH   1  72
ATOM     72  C   UNL A   1      37.902  21.689  25.325  1.00  0.00     0.117 C 
BRANCH  72  73
ATOM     73  N   UNL A   1      37.407  22.048  24.021  1.00  0.00    -0.354 N 
ATOM     74  C   UNL A   1      36.151  22.443  23.667  1.00  0.00     0.247 C 
ATOM     75  H   UNL A   1      38.062  22.003  23.287  1.00  0.00     0.163 HD
ATOM     76  O   UNL A   1      36.053  23.043  22.589  1.00  0.00    -0.272 OA
BRANCH  74  77
ATOM     77  C   UNL A   1      34.897  22.205  24.559  1.00  0.00     0.211 C 
BRANCH  77  78
ATOM     78  N   UNL A   1      34.174  23.465  24.901  1.00  0.00    -0.276 N 
ATOM     79  C   UNL A   1      33.861  24.456  23.987  1.00  0.00     0.267 C 
ATOM     80  C   UNL A   1      33.812  23.749  26.214  1.00  0.00     0.149 C 
ATOM     81  O   UNL A   1      33.970  24.419  22.776  1.00  0.00    -0.268 OA
ATOM     82  C   UNL A   1      33.357  25.680  24.674  1.00  0.00     0.084 C 
ATOM     83  S   UNL A   1      33.178  25.383  26.346  1.00  0.00    -0.054 SA
ATOM     84  S   UNL A   1      33.921  22.787  27.578  1.00  0.00    -0.052 S 
ATOM     85  C   UNL A   1      33.118  26.804  23.987  1.00  0.00     0.068 C 
BRANCH  85  86
ATOM     86  C   UNL A   1      32.690  28.026  24.573  1.00  0.00     0.129 A 
ATOM     87  C   UNL A   1      31.483  28.702  24.446  1.00  0.00     0.051 A 
ATOM     88  O   UNL A   1      33.466  28.726  25.467  1.00  0.00    -0.454 OA
ATOM     89  C   UNL A   1      31.534  29.829  25.294  1.00  0.00     0.054 A 
ATOM     90  C   UNL A   1      32.775  29.827  25.902  1.00  0.00     0.163 A 
BRANCH  90  91
ATOM     91  C   UNL A   1      33.283  30.799  26.827  1.00  0.00     0.160 A 
ATOM     92  N   UNL A   1      32.685  31.957  27.000  1.00  0.00    -0.233 NA
ATOM     93  S   UNL A   1      34.735  30.570  27.708  1.00  0.00    -0.111 S 
ATOM     94  C   UNL A   1      33.413  32.740  27.874  1.00  0.00     0.082 A 
ATOM     95  C   UNL A   1      34.600  32.170  28.340  1.00  0.00     0.055 A 
ATOM     96  C   UNL A   1      33.070  34.040  28.294  1.00  0.00     0.030 A 
ATOM     97  C   UNL A   1      35.475  32.872  29.186  1.00  0.00     0.021 A 
ATOM     98  C   UNL A   1      33.932  34.747  29.136  1.00  0.00     0.002 A 
ATOM     99  C   UNL A   1      35.124  34.173  29.568  1.00  0.00     0.002 A 
ENDBRANCH  90  91
ENDBRANCH  85  86
ENDBRANCH  77  78
BRANCH  77 100
ATOM    100  C   UNL A   1      34.127  20.926  24.198  1.00  0.00    -0.016 A 
ATOM    101  C   UNL A   1      34.476  19.631  24.617  1.00  0.00     0.006 A 
ATOM    102  C   UNL A   1      32.936  21.046  23.456  1.00  0.00     0.006 A 
ATOM    103  C   UNL A   1      33.715  18.509  24.280  1.00  0.00     0.000 A 
ATOM    104  C   UNL A   1      32.163  19.926  23.131  1.00  0.00     0.000 A 
ATOM    105  C   UNL A   1      32.557  18.656  23.534  1.00  0.00     0.000 A 
ENDBRANCH  77 100
ENDBRANCH  74  77
ENDBRANCH  72  73
ENDBRANCH   1  72
TORSDOF 17
ENDMDL
MODEL 3
REMARK VINA RESULT:     -11.9      4.849      9.688
REMARK SMILES O=C(NCCCNC(=O)[C@H](c1ccccc1)N1C(=O)/C(=C/c2ccc(-c3nc4ccccc4s3)o2)SC1=S)c1ccc(-c2c3nc(c(-c4cccc(S(=O)(=O)[O-])c4F)c4ccc([nH]4)c(-c4cccc(S(=O)(=O)[O-])c4F)c4nc(c(-c5cccc(S(=O)(=O)[O-])c5F)c5ccc2[nH]5)C=C4)C=C3)cc1
REMARK SMILES IDX 5 1 4 2 3 3 1 4 2 5 39 7 40 8 101 9 41 10 100 11 42 12 43 13
REMARK SMILES IDX 44 14 94 15 45 16 99 17 93 18 95 19 46 20 98 21 92 22 91 23
REMARK SMILES IDX 47 25 79 26 59 27 78 28 60 29 63 30 77 31 96 32 61 33 62 34
REMARK SMILES IDX 76 36 97 37 64 38 48 39 49 40 57 41 50 42 52 43 58 44 51 45
REMARK SMILES IDX 53 46 54 47 55 48 56 49 80 50 81 51 89 52 82 53 84 54 90 55
REMARK SMILES IDX 83 56 85 57 86 58 87 59 88 60 65 61 66 62 74 63 67 64 69 65
REMARK SMILES IDX 75 66 68 67 70 68 71 69 72 70 73 71 6 72 7 73 8 74 9 76
REMARK SMILES IDX 10 77 17 78 18 79 37 80 19 81 20 82 36 83 38 84 21 85 22 86
REMARK SMILES IDX 23 87 35 88 24 89 25 90 26 91 27 92 34 93 28 94 33 95 29 96
REMARK SMILES IDX 32 97 30 98 31 99 11 100 12 101 16 102 13 103 15 104 14 105
REMARK H PARENT 3 6 95 24 63 35 7 75
REMARK Flexibility Score: inf
ROOT
ATOM      1  C   UNL A   1      34.593  28.958  27.146  1.00  0.00     0.042 C 
ENDROOT
BRANCH   1   2
ATOM      2  C   UNL A   1      35.516  30.151  27.242  1.00  0.00     0.118 C 
BRANCH   2   3
ATOM      3  N   UNL A   1      35.033  31.139  28.203  1.00  0.00    -0.352 N 
ATOM      4  O   UNL A   1      34.823  32.128  30.216  1.00  0.00    -0.269 OA
ATOM      5  C   UNL A   1      35.513  31.463  29.451  1.00  0.00     0.251 C 
ATOM      6  H   UNL A   1      34.244  31.653  27.913  1.00  0.00     0.163 HD
BRANCH   5   7
ATOM      7  C   UNL A   1      36.853  30.990  29.852  1.00  0.00     0.039 A 
ATOM      8  C   UNL A   1      36.968  29.811  30.587  1.00  0.00     0.014 A 
ATOM      9  C   UNL A   1      37.996  31.708  29.494  1.00  0.00     0.014 A 
ATOM     10  C   UNL A   1      38.183  29.458  31.141  1.00  0.00     0.010 A 
ATOM     11  C   UNL A   1      39.249  31.258  29.917  1.00  0.00     0.010 A 
ATOM     12  C   UNL A   1      39.347  30.138  30.757  1.00  0.00    -0.014 A 
BRANCH  12  13
ATOM     13  C   UNL A   1      40.648  29.525  31.107  1.00  0.00     0.031 A 
ATOM     14  C   UNL A   1      41.419  29.944  32.321  1.00  0.00     0.074 A 
ATOM     15  C   UNL A   1      41.114  28.562  30.284  1.00  0.00     0.049 A 
ATOM     16  N   UNL A   1      42.569  29.493  32.747  1.00  0.00    -0.248 NA
ATOM     17  C   UNL A   1      40.841  31.004  33.163  1.00  0.00     0.031 C 
ATOM     18  C   UNL A   1      40.452  28.116  29.051  1.00  0.00     0.029 A 
ATOM     19  N   UNL A   1      42.241  27.787  30.346  1.00  0.00    -0.354 N 
ATOM     20  C   UNL A   1      42.883  30.246  33.870  1.00  0.00     0.074 A 
ATOM     21  C   UNL A   1      41.792  31.174  34.075  1.00  0.00     0.031 C 
ATOM     22  C   UNL A   1      41.165  27.133  28.491  1.00  0.00     0.029 A 
ATOM     23  C   UNL A   1      42.379  26.942  29.269  1.00  0.00     0.049 A 
ATOM     24  H   UNL A   1      42.889  27.831  31.087  1.00  0.00     0.167 HD
ATOM     25  C   UNL A   1      43.987  30.161  34.649  1.00  0.00     0.034 A 
ATOM     26  C   UNL A   1      43.397  26.138  28.911  1.00  0.00     0.034 A 
ATOM     27  C   UNL A   1      45.044  29.206  34.443  1.00  0.00     0.049 A 
ATOM     28  C   UNL A   1      44.596  26.073  29.805  1.00  0.00     0.074 A 
ATOM     29  C   UNL A   1      46.157  28.977  35.234  1.00  0.00     0.029 A 
ATOM     30  N   UNL A   1      45.138  28.343  33.363  1.00  0.00    -0.354 N 
ATOM     31  N   UNL A   1      44.802  26.680  30.948  1.00  0.00    -0.248 NA
ATOM     32  C   UNL A   1      45.696  25.204  29.372  1.00  0.00     0.031 C 
ATOM     33  C   UNL A   1      46.945  28.008  34.607  1.00  0.00     0.029 A 
ATOM     34  C   UNL A   1      46.307  27.606  33.445  1.00  0.00     0.049 A 
ATOM     35  H   UNL A   1      44.471  28.267  32.641  1.00  0.00     0.167 HD
ATOM     36  C   UNL A   1      46.052  26.259  31.378  1.00  0.00     0.074 A 
ATOM     37  C   UNL A   1      46.533  25.310  30.393  1.00  0.00     0.031 C 
ATOM     38  C   UNL A   1      46.751  26.641  32.474  1.00  0.00     0.034 A 
BRANCH  25  39
ATOM     39  C   UNL A   1      44.125  31.112  35.808  1.00  0.00     0.023 A 
ATOM     40  C   UNL A   1      43.668  30.736  37.086  1.00  0.00     0.012 A 
ATOM     41  C   UNL A   1      44.824  32.326  35.651  1.00  0.00     0.148 A 
ATOM     42  C   UNL A   1      43.896  31.558  38.189  1.00  0.00     0.002 A 
ATOM     43  C   UNL A   1      45.085  33.120  36.762  1.00  0.00     0.091 A 
ATOM     44  F   UNL A   1      45.233  32.672  34.423  1.00  0.00    -0.205 F 
ATOM     45  C   UNL A   1      44.616  32.741  38.031  1.00  0.00     0.022 A 
BRANCH  43  46
ATOM     46  S   UNL A   1      46.075  34.617  36.677  1.00  0.00     0.127 S 
ATOM     47  O   UNL A   1      46.065  35.056  38.072  1.00  0.00    -0.237 OA
ATOM     48  O   UNL A   1      47.362  34.104  36.209  1.00  0.00    -0.237 OA
ATOM     49  O   UNL A   1      45.392  35.502  35.746  1.00  0.00    -0.744 OA
ENDBRANCH  43  46
ENDBRANCH  25  39
BRANCH  26  50
ATOM     50  C   UNL A   1      43.325  25.365  27.641  1.00  0.00     0.023 A 
ATOM     51  C   UNL A   1      43.918  25.880  26.473  1.00  0.00     0.012 A 
ATOM     52  C   UNL A   1      42.690  24.108  27.593  1.00  0.00     0.148 A 
ATOM     53  C   UNL A   1      43.844  25.174  25.272  1.00  0.00     0.002 A 
ATOM     54  C   UNL A   1      42.680  23.380  26.411  1.00  0.00     0.091 A 
ATOM     55  F   UNL A   1      42.117  23.638  28.711  1.00  0.00    -0.205 F 
ATOM     56  C   UNL A   1      43.236  23.920  25.243  1.00  0.00     0.022 A 
BRANCH  54  57
ATOM     57  S   UNL A   1      42.054  21.698  26.336  1.00  0.00     0.127 S 
ATOM     58  O   UNL A   1      40.639  21.919  26.050  1.00  0.00    -0.237 OA
ATOM     59  O   UNL A   1      42.826  21.133  25.228  1.00  0.00    -0.237 OA
ATOM     60  O   UNL A   1      42.363  21.114  27.633  1.00  0.00    -0.744 OA
ENDBRANCH  54  57
ENDBRANCH  26  50
BRANCH  38  61
ATOM     61  C   UNL A   1      48.106  26.021  32.668  1.00  0.00     0.023 A 
ATOM     62  C   UNL A   1      48.240  24.883  33.488  1.00  0.00     0.012 A 
ATOM     63  C   UNL A   1      49.233  26.531  31.996  1.00  0.00     0.148 A 
ATOM     64  C   UNL A   1      49.485  24.282  33.665  1.00  0.00     0.002 A 
ATOM     65  C   UNL A   1      50.460  25.895  32.135  1.00  0.00     0.091 A 
ATOM     66  F   UNL A   1      49.083  27.625  31.236  1.00  0.00    -0.205 F 
ATOM     67  C   UNL A   1      50.591  24.780  32.979  1.00  0.00     0.022 A 
BRANCH  65  68
ATOM     68  S   UNL A   1      51.919  26.404  31.221  1.00  0.00     0.127 S 
ATOM     69  O   UNL A   1      52.131  27.758  31.729  1.00  0.00    -0.237 OA
ATOM     70  O   UNL A   1      52.913  25.424  31.659  1.00  0.00    -0.237 OA
ATOM     71  O   UNL A   1      51.562  26.319  29.812  1.00  0.00    -0.744 OA
ENDBRANCH  65  68
ENDBRANCH  38  61
ENDBRANCH  12  13
ENDBRANCH   5   7
ENDBRANCH   2   3
ENDBRANCH   1   2
BRANCH   1  72
ATOM     72  C   UNL A   1      33.831  28.946  25.845  1.00  0.00     0.117 C 
BRANCH  72  73
ATOM     73  N   UNL A   1      32.803  29.952  25.770  1.00  0.00    -0.354 N 
ATOM     74  C   UNL A   1      31.643  29.929  25.056  1.00  0.00     0.247 C 
ATOM     75  H   UNL A   1      32.957  30.762  26.306  1.00  0.00     0.163 HD
ATOM     76  O   UNL A   1      30.761  30.716  25.424  1.00  0.00    -0.272 OA
BRANCH  74  77
ATOM     77  C   UNL A   1      31.391  28.959  23.865  1.00  0.00     0.211 C 
BRANCH  77  78
ATOM     78  N   UNL A   1      31.771  27.547  24.168  1.00  0.00    -0.276 N 
ATOM     79  C   UNL A   1      31.264  26.813  25.226  1.00  0.00     0.267 C 
ATOM     80  C   UNL A   1      32.735  26.887  23.410  1.00  0.00     0.149 C 
ATOM     81  O   UNL A   1      30.349  27.109  25.971  1.00  0.00    -0.268 OA
ATOM     82  C   UNL A   1      32.012  25.535  25.399  1.00  0.00     0.084 C 
ATOM     83  S   UNL A   1      33.133  25.333  24.128  1.00  0.00    -0.054 SA
ATOM     84  S   UNL A   1      33.508  27.381  22.012  1.00  0.00    -0.052 S 
ATOM     85  C   UNL A   1      31.769  24.733  26.444  1.00  0.00     0.068 C 
BRANCH  85  86
ATOM     86  C   UNL A   1      32.473  23.529  26.711  1.00  0.00     0.129 A 
ATOM     87  C   UNL A   1      33.250  23.173  27.806  1.00  0.00     0.051 A 
ATOM     88  O   UNL A   1      32.419  22.442  25.869  1.00  0.00    -0.454 OA
ATOM     89  C   UNL A   1      33.663  21.837  27.621  1.00  0.00     0.054 A 
ATOM     90  C   UNL A   1      33.147  21.414  26.409  1.00  0.00     0.163 A 
BRANCH  90  91
ATOM     91  C   UNL A   1      33.331  20.130  25.796  1.00  0.00     0.160 A 
ATOM     92  N   UNL A   1      32.594  19.097  26.138  1.00  0.00    -0.233 NA
ATOM     93  S   UNL A   1      34.562  19.821  24.644  1.00  0.00    -0.111 S 
ATOM     94  C   UNL A   1      33.023  17.967  25.468  1.00  0.00     0.082 A 
ATOM     95  C   UNL A   1      34.125  18.152  24.631  1.00  0.00     0.055 A 
ATOM     96  C   UNL A   1      32.462  16.680  25.585  1.00  0.00     0.030 A 
ATOM     97  C   UNL A   1      34.710  17.081  23.933  1.00  0.00     0.021 A 
ATOM     98  C   UNL A   1      33.035  15.609  24.894  1.00  0.00     0.002 A 
ATOM     99  C   UNL A   1      34.151  15.807  24.087  1.00  0.00     0.002 A 
ENDBRANCH  90  91
ENDBRANCH  85  86
ENDBRANCH  77  78
BRANCH  77 100
ATOM    100  C   UNL A   1      30.111  29.279  23.079  1.00  0.00    -0.016 A 
ATOM    101  C   UNL A   1      28.847  28.721  23.336  1.00  0.00     0.006 A 
ATOM    102  C   UNL A   1      30.169  30.261  22.071  1.00  0.00     0.006 A 
ATOM    103  C   UNL A   1      27.712  29.077  22.604  1.00  0.00     0.000 A 
ATOM    104  C   UNL A   1      29.031  30.633  21.347  1.00  0.00     0.000 A 
ATOM    105  C   UNL A   1      27.804  30.034  21.606  1.00  0.00     0.000 A 
ENDBRANCH  77 100
ENDBRANCH  74  77
ENDBRANCH  72  73
ENDBRANCH   1  72
TORSDOF 17
ENDMDL
