MODEL 1
REMARK VINA RESULT:     -12.8      0.000      0.000
REMARK SMILES N#C/C(=C/c1ccc(-c2cccc(C(=O)NCCCNC(=O)c3ccc(-c4c5nc(c(-c6cccc(S(=O)(=O)[O-])c6F)c6ccc([nH]6)c(-c6cccc(S(=O)(=O)[O-])c6F)c6nc(c(-c7cccc(S(=O)(=O)[O-])c7F)c7ccc4[nH]7)C=C6)C=C5)cc3)c2)o1)c1ccc(F)cc1
REMARK SMILES IDX 18 1 17 2 16 3 14 4 15 5 13 7 9 8 10 9 86 10 11 11 12 12
REMARK SMILES IDX 8 13 5 14 6 15 87 16 7 17 4 18 3 19 2 20 1 21 88 22 89 23
REMARK SMILES IDX 94 24 90 25 93 26 91 27 92 28 19 29 20 30 21 31 22 33 23 34
REMARK SMILES IDX 24 35 85 36 25 37 84 38 26 39 27 40 28 41 78 42 29 43 83 44
REMARK SMILES IDX 77 45 79 46 30 47 82 48 76 49 75 50 31 52 63 53 43 54 62 55
REMARK SMILES IDX 44 56 47 57 61 58 80 59 45 60 46 61 60 63 81 64 48 65 32 66
REMARK SMILES IDX 33 67 41 68 34 69 36 70 42 71 35 72 37 73 38 74 39 75 40 76
REMARK SMILES IDX 64 77 65 78 73 79 66 80 68 81 74 82 67 83 69 84 70 85 71 86
REMARK SMILES IDX 72 87 49 88 50 89 58 90 51 91 53 92 59 93 52 94 54 95 55 96
REMARK SMILES IDX 56 97 57 98
REMARK H PARENT 16 6 20 32 79 51 47 62
REMARK Flexibility Score: inf
ROOT
ATOM      1  C   UNL A   1      33.660  29.305  23.940  1.00  0.00     0.042 C 
ENDROOT
BRANCH   1   2
ATOM      2  C   UNL A   1      32.971  28.600  22.783  1.00  0.00     0.118 C 
BRANCH   2   3
ATOM      3  N   UNL A   1      31.900  29.365  22.144  1.00  0.00    -0.352 N 
ATOM      4  C   UNL A   1      30.522  29.375  22.243  1.00  0.00     0.251 C 
ATOM      5  O   UNL A   1      29.905  30.189  21.554  1.00  0.00    -0.269 OA
ATOM      6  H   UNL A   1      32.239  30.024  21.496  1.00  0.00     0.163 HD
BRANCH   4   7
ATOM      7  C   UNL A   1      29.746  28.420  23.083  1.00  0.00     0.040 A 
ATOM      8  C   UNL A   1      29.716  26.511  24.588  1.00  0.00     0.018 A 
ATOM      9  C   UNL A   1      28.360  26.318  24.326  1.00  0.00     0.012 A 
ATOM     10  C   UNL A   1      30.336  27.658  24.078  1.00  0.00     0.025 A 
ATOM     11  C   UNL A   1      27.677  27.223  23.506  1.00  0.00     0.002 A 
ATOM     12  C   UNL A   1      28.380  28.240  22.846  1.00  0.00     0.014 A 
BRANCH   8  13
ATOM     13  C   UNL A   1      30.584  25.533  25.236  1.00  0.00     0.134 A 
ATOM     14  C   UNL A   1      32.553  24.842  26.017  1.00  0.00     0.128 A 
ATOM     15  C   UNL A   1      31.551  24.126  26.667  1.00  0.00     0.051 A 
ATOM     16  O   UNL A   1      31.935  25.728  25.154  1.00  0.00    -0.457 OA
ATOM     17  C   UNL A   1      30.316  24.511  26.119  1.00  0.00     0.051 A 
BRANCH  14  18
ATOM     18  C   UNL A   1      33.966  24.659  26.123  1.00  0.00     0.067 C 
ATOM     19  C   UNL A   1      34.591  23.688  25.421  1.00  0.00     0.063 C 
BRANCH  19  20
ATOM     20  C   UNL A   1      36.081  23.437  25.587  1.00  0.00     0.100 C 
ATOM     21  N   UNL A   1      37.317  23.229  25.724  1.00  0.00    -0.192 NA
ENDBRANCH  19  20
BRANCH  19  22
ATOM     22  C   UNL A   1      33.890  22.835  24.412  1.00  0.00    -0.007 A 
ATOM     23  C   UNL A   1      33.668  23.303  23.100  1.00  0.00     0.012 A 
ATOM     24  C   UNL A   1      33.370  21.582  24.772  1.00  0.00     0.012 A 
ATOM     25  C   UNL A   1      32.853  22.597  22.214  1.00  0.00     0.040 A 
ATOM     26  C   UNL A   1      32.583  20.860  23.870  1.00  0.00     0.040 A 
ATOM     27  C   UNL A   1      32.310  21.385  22.612  1.00  0.00     0.123 A 
ATOM     28  F   UNL A   1      31.505  20.717  21.775  1.00  0.00    -0.207 F 
ENDBRANCH  19  22
ENDBRANCH  14  18
ENDBRANCH   8  13
ENDBRANCH   4   7
ENDBRANCH   2   3
ENDBRANCH   1   2
BRANCH   1  29
ATOM     29  C   UNL A   1      32.957  29.154  25.278  1.00  0.00     0.118 C 
BRANCH  29  30
ATOM     30  N   UNL A   1      32.537  30.434  25.845  1.00  0.00    -0.352 N 
ATOM     31  C   UNL A   1      33.069  31.195  26.860  1.00  0.00     0.251 C 
ATOM     32  H   UNL A   1      31.733  30.818  25.426  1.00  0.00     0.163 HD
ATOM     33  O   UNL A   1      32.415  32.132  27.310  1.00  0.00    -0.269 OA
BRANCH  31  34
ATOM     34  C   UNL A   1      34.403  30.890  27.423  1.00  0.00     0.039 A 
ATOM     35  C   UNL A   1      35.308  31.934  27.638  1.00  0.00     0.014 A 
ATOM     36  C   UNL A   1      34.777  29.579  27.720  1.00  0.00     0.014 A 
ATOM     37  C   UNL A   1      36.546  31.671  28.234  1.00  0.00     0.010 A 
ATOM     38  C   UNL A   1      35.962  29.333  28.405  1.00  0.00     0.010 A 
ATOM     39  C   UNL A   1      36.861  30.375  28.671  1.00  0.00    -0.014 A 
BRANCH  39  40
ATOM     40  C   UNL A   1      38.102  30.088  29.437  1.00  0.00     0.031 A 
ATOM     41  C   UNL A   1      39.123  29.120  28.901  1.00  0.00     0.074 A 
ATOM     42  C   UNL A   1      38.252  30.615  30.670  1.00  0.00     0.049 A 
ATOM     43  N   UNL A   1      40.214  28.677  29.470  1.00  0.00    -0.248 NA
ATOM     44  C   UNL A   1      38.874  28.553  27.566  1.00  0.00     0.031 C 
ATOM     45  C   UNL A   1      37.291  31.497  31.337  1.00  0.00     0.029 A 
ATOM     46  N   UNL A   1      39.252  30.456  31.598  1.00  0.00    -0.354 N 
ATOM     47  C   UNL A   1      40.757  27.754  28.585  1.00  0.00     0.074 A 
ATOM     48  C   UNL A   1      39.860  27.676  27.454  1.00  0.00     0.031 C 
ATOM     49  C   UNL A   1      37.747  31.803  32.560  1.00  0.00     0.029 A 
ATOM     50  C   UNL A   1      39.010  31.107  32.786  1.00  0.00     0.049 A 
ATOM     51  H   UNL A   1      40.066  29.928  31.429  1.00  0.00     0.167 HD
ATOM     52  C   UNL A   1      41.910  27.052  28.692  1.00  0.00     0.034 A 
ATOM     53  C   UNL A   1      39.711  31.125  33.936  1.00  0.00     0.034 A 
ATOM     54  C   UNL A   1      42.820  27.163  29.800  1.00  0.00     0.049 A 
ATOM     55  C   UNL A   1      41.002  30.359  34.016  1.00  0.00     0.074 A 
ATOM     56  C   UNL A   1      44.061  26.573  29.955  1.00  0.00     0.029 A 
ATOM     57  N   UNL A   1      42.580  27.898  30.950  1.00  0.00    -0.354 N 
ATOM     58  N   UNL A   1      41.583  29.625  33.098  1.00  0.00    -0.248 NA
ATOM     59  C   UNL A   1      41.752  30.448  35.276  1.00  0.00     0.031 C 
ATOM     60  C   UNL A   1      44.557  26.921  31.214  1.00  0.00     0.029 A 
ATOM     61  C   UNL A   1      43.641  27.760  31.828  1.00  0.00     0.049 A 
ATOM     62  H   UNL A   1      41.774  28.438  31.118  1.00  0.00     0.167 HD
ATOM     63  C   UNL A   1      42.779  29.191  33.659  1.00  0.00     0.074 A 
ATOM     64  C   UNL A   1      42.851  29.766  34.985  1.00  0.00     0.031 C 
ATOM     65  C   UNL A   1      43.723  28.375  33.129  1.00  0.00     0.034 A 
BRANCH  52  66
ATOM     66  C   UNL A   1      42.285  26.132  27.558  1.00  0.00     0.023 A 
ATOM     67  C   UNL A   1      43.107  26.607  26.515  1.00  0.00     0.012 A 
ATOM     68  C   UNL A   1      41.889  24.780  27.564  1.00  0.00     0.148 A 
ATOM     69  C   UNL A   1      43.502  25.760  25.481  1.00  0.00     0.002 A 
ATOM     70  C   UNL A   1      42.326  23.930  26.556  1.00  0.00     0.091 A 
ATOM     71  F   UNL A   1      41.092  24.352  28.555  1.00  0.00    -0.205 F 
ATOM     72  C   UNL A   1      43.121  24.421  25.508  1.00  0.00     0.022 A 
BRANCH  70  73
ATOM     73  S   UNL A   1      41.960  22.172  26.539  1.00  0.00     0.127 S 
ATOM     74  O   UNL A   1      42.493  21.748  27.833  1.00  0.00    -0.237 OA
ATOM     75  O   UNL A   1      40.501  22.163  26.448  1.00  0.00    -0.237 OA
ATOM     76  O   UNL A   1      42.648  21.628  25.375  1.00  0.00    -0.744 OA
ENDBRANCH  70  73
ENDBRANCH  52  66
BRANCH  53  77
ATOM     77  C   UNL A   1      39.224  31.925  35.097  1.00  0.00     0.023 A 
ATOM     78  C   UNL A   1      38.276  31.368  35.978  1.00  0.00     0.012 A 
ATOM     79  C   UNL A   1      39.707  33.225  35.341  1.00  0.00     0.148 A 
ATOM     80  C   UNL A   1      37.791  32.105  37.058  1.00  0.00     0.002 A 
ATOM     81  C   UNL A   1      39.266  33.930  36.453  1.00  0.00     0.091 A 
ATOM     82  F   UNL A   1      40.601  33.741  34.485  1.00  0.00    -0.205 F 
ATOM     83  C   UNL A   1      38.292  33.381  37.302  1.00  0.00     0.022 A 
BRANCH  81  84
ATOM     84  S   UNL A   1      39.961  35.518  36.923  1.00  0.00     0.127 S 
ATOM     85  O   UNL A   1      39.267  35.787  38.180  1.00  0.00    -0.237 OA
ATOM     86  O   UNL A   1      41.381  35.196  37.055  1.00  0.00    -0.237 OA
ATOM     87  O   UNL A   1      39.653  36.423  35.824  1.00  0.00    -0.744 OA
ENDBRANCH  81  84
ENDBRANCH  53  77
BRANCH  65  88
ATOM     88  C   UNL A   1      44.938  28.077  33.966  1.00  0.00     0.023 A 
ATOM     89  C   UNL A   1      46.075  28.905  33.874  1.00  0.00     0.012 A 
ATOM     90  C   UNL A   1      44.924  27.023  34.902  1.00  0.00     0.148 A 
ATOM     91  C   UNL A   1      47.191  28.667  34.674  1.00  0.00     0.002 A 
ATOM     92  C   UNL A   1      46.019  26.826  35.734  1.00  0.00     0.091 A 
ATOM     93  F   UNL A   1      43.839  26.239  34.963  1.00  0.00    -0.205 F 
ATOM     94  C   UNL A   1      47.159  27.637  35.612  1.00  0.00     0.022 A 
BRANCH  92  95
ATOM     95  S   UNL A   1      46.032  25.589  37.036  1.00  0.00     0.127 S 
ATOM     96  O   UNL A   1      44.921  26.032  37.879  1.00  0.00    -0.237 OA
ATOM     97  O   UNL A   1      45.780  24.356  36.292  1.00  0.00    -0.237 OA
ATOM     98  O   UNL A   1      47.349  25.666  37.653  1.00  0.00    -0.744 OA
ENDBRANCH  92  95
ENDBRANCH  65  88
ENDBRANCH  39  40
ENDBRANCH  31  34
ENDBRANCH  29  30
ENDBRANCH   1  29
TORSDOF 17
ENDMDL
MODEL 2
REMARK VINA RESULT:     -12.5      2.587      7.968
REMARK SMILES N#C/C(=C/c1ccc(-c2cccc(C(=O)NCCCNC(=O)c3ccc(-c4c5nc(c(-c6cccc(S(=O)(=O)[O-])c6F)c6ccc([nH]6)c(-c6cccc(S(=O)(=O)[O-])c6F)c6nc(c(-c7cccc(S(=O)(=O)[O-])c7F)c7ccc4[nH]7)C=C6)C=C5)cc3)c2)o1)c1ccc(F)cc1
REMARK SMILES IDX 18 1 17 2 16 3 14 4 15 5 13 7 9 8 10 9 86 10 11 11 12 12
REMARK SMILES IDX 8 13 5 14 6 15 87 16 7 17 4 18 3 19 2 20 1 21 88 22 89 23
REMARK SMILES IDX 94 24 90 25 93 26 91 27 92 28 19 29 20 30 21 31 22 33 23 34
REMARK SMILES IDX 24 35 85 36 25 37 84 38 26 39 27 40 28 41 78 42 29 43 83 44
REMARK SMILES IDX 77 45 79 46 30 47 82 48 76 49 75 50 31 52 63 53 43 54 62 55
REMARK SMILES IDX 44 56 47 57 61 58 80 59 45 60 46 61 60 63 81 64 48 65 32 66
REMARK SMILES IDX 33 67 41 68 34 69 36 70 42 71 35 72 37 73 38 74 39 75 40 76
REMARK SMILES IDX 64 77 65 78 73 79 66 80 68 81 74 82 67 83 69 84 70 85 71 86
REMARK SMILES IDX 72 87 49 88 50 89 58 90 51 91 53 92 59 93 52 94 54 95 55 96
REMARK SMILES IDX 56 97 57 98
REMARK H PARENT 16 6 20 32 79 51 47 62
REMARK Flexibility Score: inf
ROOT
ATOM      1  C   UNL A   1      31.414  32.097  26.755  1.00  0.00     0.042 C 
ENDROOT
BRANCH   1   2
ATOM      2  C   UNL A   1      31.607  30.873  25.876  1.00  0.00     0.118 C 
BRANCH   2   3
ATOM      3  N   UNL A   1      30.614  30.713  24.813  1.00  0.00    -0.352 N 
ATOM      4  C   UNL A   1      30.414  29.794  23.802  1.00  0.00     0.251 C 
ATOM      5  O   UNL A   1      29.434  29.950  23.073  1.00  0.00    -0.269 OA
ATOM      6  H   UNL A   1      29.932  31.423  24.821  1.00  0.00     0.163 HD
BRANCH   4   7
ATOM      7  C   UNL A   1      31.347  28.670  23.510  1.00  0.00     0.040 A 
ATOM      8  C   UNL A   1      31.992  26.349  23.847  1.00  0.00     0.018 A 
ATOM      9  C   UNL A   1      33.275  26.632  23.382  1.00  0.00     0.012 A 
ATOM     10  C   UNL A   1      31.014  27.346  23.750  1.00  0.00     0.025 A 
ATOM     11  C   UNL A   1      33.573  27.914  22.905  1.00  0.00     0.002 A 
ATOM     12  C   UNL A   1      32.627  28.942  23.017  1.00  0.00     0.014 A 
BRANCH   8  13
ATOM     13  C   UNL A   1      31.618  25.137  24.568  1.00  0.00     0.134 A 
ATOM     14  C   UNL A   1      31.860  22.982  25.079  1.00  0.00     0.128 A 
ATOM     15  C   UNL A   1      31.188  23.604  26.127  1.00  0.00     0.051 A 
ATOM     16  O   UNL A   1      32.142  23.951  24.134  1.00  0.00    -0.457 OA
ATOM     17  C   UNL A   1      30.971  24.945  25.769  1.00  0.00     0.051 A 
BRANCH  14  18
ATOM     18  C   UNL A   1      32.139  21.589  24.925  1.00  0.00     0.067 C 
ATOM     19  C   UNL A   1      33.412  21.147  24.816  1.00  0.00     0.063 C 
BRANCH  19  20
ATOM     20  C   UNL A   1      33.713  19.677  24.574  1.00  0.00     0.100 C 
ATOM     21  N   UNL A   1      33.964  18.458  24.373  1.00  0.00    -0.192 NA
ENDBRANCH  19  20
BRANCH  19  22
ATOM     22  C   UNL A   1      34.599  22.044  24.971  1.00  0.00    -0.007 A 
ATOM     23  C   UNL A   1      35.297  22.518  23.840  1.00  0.00     0.012 A 
ATOM     24  C   UNL A   1      35.090  22.369  26.244  1.00  0.00     0.012 A 
ATOM     25  C   UNL A   1      36.510  23.194  23.977  1.00  0.00     0.040 A 
ATOM     26  C   UNL A   1      36.289  23.077  26.379  1.00  0.00     0.040 A 
ATOM     27  C   UNL A   1      36.999  23.459  25.247  1.00  0.00     0.123 A 
ATOM     28  F   UNL A   1      38.177  24.082  25.382  1.00  0.00    -0.207 F 
ENDBRANCH  19  22
ENDBRANCH  14  18
ENDBRANCH   8  13
ENDBRANCH   4   7
ENDBRANCH   2   3
ENDBRANCH   1   2
BRANCH   1  29
ATOM     29  C   UNL A   1      32.701  32.681  27.313  1.00  0.00     0.118 C 
BRANCH  29  30
ATOM     30  N   UNL A   1      32.579  34.096  27.659  1.00  0.00    -0.352 N 
ATOM     31  C   UNL A   1      33.169  34.841  28.654  1.00  0.00     0.251 C 
ATOM     32  H   UNL A   1      31.969  34.604  27.078  1.00  0.00     0.163 HD
ATOM     33  O   UNL A   1      32.745  35.970  28.886  1.00  0.00    -0.269 OA
BRANCH  31  34
ATOM     34  C   UNL A   1      34.289  34.295  29.453  1.00  0.00     0.039 A 
ATOM     35  C   UNL A   1      34.011  33.622  30.647  1.00  0.00     0.014 A 
ATOM     36  C   UNL A   1      35.613  34.462  29.046  1.00  0.00     0.014 A 
ATOM     37  C   UNL A   1      35.053  33.040  31.376  1.00  0.00     0.010 A 
ATOM     38  C   UNL A   1      36.635  33.798  29.716  1.00  0.00     0.010 A 
ATOM     39  C   UNL A   1      36.368  33.078  30.888  1.00  0.00    -0.014 A 
BRANCH  39  40
ATOM     40  C   UNL A   1      37.474  32.347  31.561  1.00  0.00     0.031 A 
ATOM     41  C   UNL A   1      38.029  32.841  32.871  1.00  0.00     0.074 A 
ATOM     42  C   UNL A   1      38.053  31.304  30.933  1.00  0.00     0.049 A 
ATOM     43  N   UNL A   1      39.048  32.391  33.555  1.00  0.00    -0.248 NA
ATOM     44  C   UNL A   1      37.372  34.011  33.480  1.00  0.00     0.031 C 
ATOM     45  C   UNL A   1      37.664  30.785  29.620  1.00  0.00     0.029 A 
ATOM     46  N   UNL A   1      39.117  30.515  31.297  1.00  0.00    -0.354 N 
ATOM     47  C   UNL A   1      39.181  33.241  34.645  1.00  0.00     0.074 A 
ATOM     48  C   UNL A   1      38.157  34.254  34.518  1.00  0.00     0.031 C 
ATOM     49  C   UNL A   1      38.472  29.766  29.290  1.00  0.00     0.029 A 
ATOM     50  C   UNL A   1      39.465  29.584  30.345  1.00  0.00     0.049 A 
ATOM     51  H   UNL A   1      39.585  30.606  32.159  1.00  0.00     0.167 HD
ATOM     52  C   UNL A   1      40.060  33.172  35.674  1.00  0.00     0.034 A 
ATOM     53  C   UNL A   1      40.480  28.700  30.311  1.00  0.00     0.034 A 
ATOM     54  C   UNL A   1      41.050  32.139  35.817  1.00  0.00     0.049 A 
ATOM     55  C   UNL A   1      41.423  28.626  31.480  1.00  0.00     0.074 A 
ATOM     56  C   UNL A   1      41.919  31.923  36.872  1.00  0.00     0.029 A 
ATOM     57  N   UNL A   1      41.318  31.162  34.871  1.00  0.00    -0.354 N 
ATOM     58  N   UNL A   1      41.423  29.333  32.585  1.00  0.00    -0.248 NA
ATOM     59  C   UNL A   1      42.486  27.614  31.415  1.00  0.00     0.031 C 
ATOM     60  C   UNL A   1      42.737  30.837  36.549  1.00  0.00     0.029 A 
ATOM     61  C   UNL A   1      42.352  30.353  35.309  1.00  0.00     0.049 A 
ATOM     62  H   UNL A   1      40.844  31.060  34.015  1.00  0.00     0.167 HD
ATOM     63  C   UNL A   1      42.464  28.830  33.357  1.00  0.00     0.074 A 
ATOM     64  C   UNL A   1      43.054  27.742  32.606  1.00  0.00     0.031 C 
ATOM     65  C   UNL A   1      42.902  29.244  34.571  1.00  0.00     0.034 A 
BRANCH  52  66
ATOM     66  C   UNL A   1      39.963  34.216  36.757  1.00  0.00     0.023 A 
ATOM     67  C   UNL A   1      40.303  35.554  36.469  1.00  0.00     0.012 A 
ATOM     68  C   UNL A   1      39.463  33.889  38.032  1.00  0.00     0.148 A 
ATOM     69  C   UNL A   1      40.177  36.543  37.443  1.00  0.00     0.002 A 
ATOM     70  C   UNL A   1      39.295  34.889  38.983  1.00  0.00     0.091 A 
ATOM     71  F   UNL A   1      39.162  32.608  38.292  1.00  0.00    -0.205 F 
ATOM     72  C   UNL A   1      39.663  36.213  38.695  1.00  0.00     0.022 A 
BRANCH  70  73
ATOM     73  S   UNL A   1      38.566  34.585  40.596  1.00  0.00     0.127 S 
ATOM     74  O   UNL A   1      37.393  33.787  40.243  1.00  0.00    -0.237 OA
ATOM     75  O   UNL A   1      39.626  33.843  41.277  1.00  0.00    -0.237 OA
ATOM     76  O   UNL A   1      38.278  35.896  41.162  1.00  0.00    -0.744 OA
ENDBRANCH  70  73
ENDBRANCH  52  66
BRANCH  53  77
ATOM     77  C   UNL A   1      40.637  27.786  29.143  1.00  0.00     0.023 A 
ATOM     78  C   UNL A   1      39.885  26.598  29.083  1.00  0.00     0.012 A 
ATOM     79  C   UNL A   1      41.515  28.098  28.087  1.00  0.00     0.148 A 
ATOM     80  C   UNL A   1      40.030  25.718  28.010  1.00  0.00     0.002 A 
ATOM     81  C   UNL A   1      41.609  27.248  26.992  1.00  0.00     0.091 A 
ATOM     82  F   UNL A   1      42.230  29.229  28.167  1.00  0.00    -0.205 F 
ATOM     83  C   UNL A   1      40.884  26.047  26.961  1.00  0.00     0.022 A 
BRANCH  81  84
ATOM     84  S   UNL A   1      42.573  27.661  25.534  1.00  0.00     0.127 S 
ATOM     85  O   UNL A   1      43.920  27.771  26.088  1.00  0.00    -0.237 OA
ATOM     86  O   UNL A   1      42.345  26.495  24.683  1.00  0.00    -0.237 OA
ATOM     87  O   UNL A   1      41.999  28.898  25.020  1.00  0.00    -0.744 OA
ENDBRANCH  81  84
ENDBRANCH  53  77
BRANCH  65  88
ATOM     88  C   UNL A   1      44.057  28.500  35.188  1.00  0.00     0.023 A 
ATOM     89  C   UNL A   1      45.380  28.870  34.871  1.00  0.00     0.012 A 
ATOM     90  C   UNL A   1      43.832  27.486  36.140  1.00  0.00     0.148 A 
ATOM     91  C   UNL A   1      46.459  28.219  35.467  1.00  0.00     0.002 A 
ATOM     92  C   UNL A   1      44.911  26.879  36.769  1.00  0.00     0.091 A 
ATOM     93  F   UNL A   1      42.566  27.140  36.415  1.00  0.00    -0.205 F 
ATOM     94  C   UNL A   1      46.225  27.233  36.424  1.00  0.00     0.022 A 
BRANCH  92  95
ATOM     95  S   UNL A   1      44.708  25.671  38.083  1.00  0.00     0.127 S 
ATOM     96  O   UNL A   1      44.002  26.450  39.099  1.00  0.00    -0.237 OA
ATOM     97  O   UNL A   1      43.900  24.641  37.431  1.00  0.00    -0.237 OA
ATOM     98  O   UNL A   1      46.052  25.244  38.449  1.00  0.00    -0.744 OA
ENDBRANCH  92  95
ENDBRANCH  65  88
ENDBRANCH  39  40
ENDBRANCH  31  34
ENDBRANCH  29  30
ENDBRANCH   1  29
TORSDOF 17
ENDMDL
MODEL 3
REMARK VINA RESULT:     -12.4      1.581      7.783
REMARK SMILES N#C/C(=C/c1ccc(-c2cccc(C(=O)NCCCNC(=O)c3ccc(-c4c5nc(c(-c6cccc(S(=O)(=O)[O-])c6F)c6ccc([nH]6)c(-c6cccc(S(=O)(=O)[O-])c6F)c6nc(c(-c7cccc(S(=O)(=O)[O-])c7F)c7ccc4[nH]7)C=C6)C=C5)cc3)c2)o1)c1ccc(F)cc1
REMARK SMILES IDX 18 1 17 2 16 3 14 4 15 5 13 7 9 8 10 9 86 10 11 11 12 12
REMARK SMILES IDX 8 13 5 14 6 15 87 16 7 17 4 18 3 19 2 20 1 21 88 22 89 23
REMARK SMILES IDX 94 24 90 25 93 26 91 27 92 28 19 29 20 30 21 31 22 33 23 34
REMARK SMILES IDX 24 35 85 36 25 37 84 38 26 39 27 40 28 41 78 42 29 43 83 44
REMARK SMILES IDX 77 45 79 46 30 47 82 48 76 49 75 50 31 52 63 53 43 54 62 55
REMARK SMILES IDX 44 56 47 57 61 58 80 59 45 60 46 61 60 63 81 64 48 65 32 66
REMARK SMILES IDX 33 67 41 68 34 69 36 70 42 71 35 72 37 73 38 74 39 75 40 76
REMARK SMILES IDX 64 77 65 78 73 79 66 80 68 81 74 82 67 83 69 84 70 85 71 86
REMARK SMILES IDX 72 87 49 88 50 89 58 90 51 91 53 92 59 93 52 94 54 95 55 96
REMARK SMILES IDX 56 97 57 98
REMARK H PARENT 16 6 20 32 79 51 47 62
REMARK Flexibility Score: inf
ROOT
ATOM      1  C   UNL A   1      34.111  29.271  24.159  1.00  0.00     0.042 C 
ENDROOT
BRANCH   1   2
ATOM      2  C   UNL A   1      33.647  29.292  22.712  1.00  0.00     0.118 C 
BRANCH   2   3
ATOM      3  N   UNL A   1      33.755  28.012  22.011  1.00  0.00    -0.352 N 
ATOM      4  C   UNL A   1      33.020  26.842  22.007  1.00  0.00     0.251 C 
ATOM      5  O   UNL A   1      33.389  25.938  21.257  1.00  0.00    -0.269 OA
ATOM      6  H   UNL A   1      34.528  27.977  21.402  1.00  0.00     0.163 HD
BRANCH   4   7
ATOM      7  C   UNL A   1      31.853  26.596  22.899  1.00  0.00     0.040 A 
ATOM      8  C   UNL A   1      30.746  25.197  24.552  1.00  0.00     0.018 A 
ATOM      9  C   UNL A   1      29.529  25.816  24.269  1.00  0.00     0.012 A 
ATOM     10  C   UNL A   1      31.908  25.716  23.968  1.00  0.00     0.025 A 
ATOM     11  C   UNL A   1      29.487  26.880  23.360  1.00  0.00     0.002 A 
ATOM     12  C   UNL A   1      30.636  27.234  22.640  1.00  0.00     0.014 A 
BRANCH   8  13
ATOM     13  C   UNL A   1      30.891  23.952  25.299  1.00  0.00     0.134 A 
ATOM     14  C   UNL A   1      31.704  21.897  25.587  1.00  0.00     0.128 A 
ATOM     15  C   UNL A   1      31.346  22.402  26.834  1.00  0.00     0.051 A 
ATOM     16  O   UNL A   1      31.441  22.881  24.651  1.00  0.00    -0.457 OA
ATOM     17  C   UNL A   1      30.765  23.667  26.640  1.00  0.00     0.051 A 
BRANCH  14  18
ATOM     18  C   UNL A   1      32.168  20.582  25.277  1.00  0.00     0.067 C 
ATOM     19  C   UNL A   1      33.460  20.365  24.947  1.00  0.00     0.063 C 
BRANCH  19  20
ATOM     20  C   UNL A   1      33.945  18.983  24.540  1.00  0.00     0.100 C 
ATOM     21  N   UNL A   1      34.346  17.837  24.203  1.00  0.00    -0.192 NA
ENDBRANCH  19  20
BRANCH  19  22
ATOM     22  C   UNL A   1      34.503  21.436  25.001  1.00  0.00    -0.007 A 
ATOM     23  C   UNL A   1      34.703  22.306  23.907  1.00  0.00     0.012 A 
ATOM     24  C   UNL A   1      35.358  21.549  26.108  1.00  0.00     0.012 A 
ATOM     25  C   UNL A   1      35.792  23.178  23.873  1.00  0.00     0.040 A 
ATOM     26  C   UNL A   1      36.428  22.448  26.085  1.00  0.00     0.040 A 
ATOM     27  C   UNL A   1      36.651  23.233  24.960  1.00  0.00     0.123 A 
ATOM     28  F   UNL A   1      37.713  24.048  24.919  1.00  0.00    -0.207 F 
ENDBRANCH  19  22
ENDBRANCH  14  18
ENDBRANCH   8  13
ENDBRANCH   4   7
ENDBRANCH   2   3
ENDBRANCH   1   2
BRANCH   1  29
ATOM     29  C   UNL A   1      32.988  29.195  25.179  1.00  0.00     0.118 C 
BRANCH  29  30
ATOM     30  N   UNL A   1      32.681  30.491  25.781  1.00  0.00    -0.352 N 
ATOM     31  C   UNL A   1      33.242  31.152  26.849  1.00  0.00     0.251 C 
ATOM     32  H   UNL A   1      31.943  30.975  25.346  1.00  0.00     0.163 HD
ATOM     33  O   UNL A   1      32.672  32.137  27.310  1.00  0.00    -0.269 OA
BRANCH  31  34
ATOM     34  C   UNL A   1      34.509  30.683  27.455  1.00  0.00     0.039 A 
ATOM     35  C   UNL A   1      35.516  31.613  27.734  1.00  0.00     0.014 A 
ATOM     36  C   UNL A   1      34.720  29.332  27.730  1.00  0.00     0.014 A 
ATOM     37  C   UNL A   1      36.690  31.195  28.370  1.00  0.00     0.010 A 
ATOM     38  C   UNL A   1      35.840  28.936  28.453  1.00  0.00     0.010 A 
ATOM     39  C   UNL A   1      36.838  29.862  28.782  1.00  0.00    -0.014 A 
BRANCH  39  40
ATOM     40  C   UNL A   1      38.006  29.418  29.588  1.00  0.00     0.031 A 
ATOM     41  C   UNL A   1      38.228  29.963  30.974  1.00  0.00     0.074 A 
ATOM     42  C   UNL A   1      38.928  28.611  29.024  1.00  0.00     0.049 A 
ATOM     43  N   UNL A   1      39.235  29.765  31.784  1.00  0.00    -0.248 NA
ATOM     44  C   UNL A   1      37.201  30.871  31.510  1.00  0.00     0.031 C 
ATOM     45  C   UNL A   1      38.871  28.087  27.657  1.00  0.00     0.029 A 
ATOM     46  N   UNL A   1      40.111  28.119  29.516  1.00  0.00    -0.354 N 
ATOM     47  C   UNL A   1      38.985  30.551  32.902  1.00  0.00     0.074 A 
ATOM     48  C   UNL A   1      37.746  31.254  32.655  1.00  0.00     0.031 C 
ATOM     49  C   UNL A   1      39.965  27.347  27.422  1.00  0.00     0.029 A 
ATOM     50  C   UNL A   1      40.823  27.377  28.602  1.00  0.00     0.049 A 
ATOM     51  H   UNL A   1      40.421  28.280  30.437  1.00  0.00     0.167 HD
ATOM     52  C   UNL A   1      39.708  30.659  34.042  1.00  0.00     0.034 A 
ATOM     53  C   UNL A   1      42.039  26.804  28.691  1.00  0.00     0.034 A 
ATOM     54  C   UNL A   1      40.918  29.927  34.300  1.00  0.00     0.049 A 
ATOM     55  C   UNL A   1      42.806  26.917  29.979  1.00  0.00     0.074 A 
ATOM     56  C   UNL A   1      41.668  29.890  35.462  1.00  0.00     0.029 A 
ATOM     57  N   UNL A   1      41.566  29.119  33.379  1.00  0.00    -0.354 N 
ATOM     58  N   UNL A   1      42.468  27.529  31.089  1.00  0.00    -0.248 NA
ATOM     59  C   UNL A   1      44.107  26.237  30.042  1.00  0.00     0.031 C 
ATOM     60  C   UNL A   1      42.790  29.088  35.233  1.00  0.00     0.029 A 
ATOM     61  C   UNL A   1      42.718  28.594  33.940  1.00  0.00     0.049 A 
ATOM     62  H   UNL A   1      41.253  28.944  32.463  1.00  0.00     0.167 HD
ATOM     63  C   UNL A   1      43.498  27.281  31.989  1.00  0.00     0.074 A 
ATOM     64  C   UNL A   1      44.459  26.441  31.304  1.00  0.00     0.031 C 
ATOM     65  C   UNL A   1      43.644  27.723  33.262  1.00  0.00     0.034 A 
BRANCH  52  66
ATOM     66  C   UNL A   1      39.187  31.570  35.124  1.00  0.00     0.023 A 
ATOM     67  C   UNL A   1      38.252  31.080  36.059  1.00  0.00     0.012 A 
ATOM     68  C   UNL A   1      39.680  32.882  35.264  1.00  0.00     0.148 A 
ATOM     69  C   UNL A   1      37.791  31.892  37.095  1.00  0.00     0.002 A 
ATOM     70  C   UNL A   1      39.253  33.669  36.326  1.00  0.00     0.091 A 
ATOM     71  F   UNL A   1      40.556  33.336  34.354  1.00  0.00    -0.205 F 
ATOM     72  C   UNL A   1      38.300  33.181  37.235  1.00  0.00     0.022 A 
BRANCH  70  73
ATOM     73  S   UNL A   1      39.906  35.312  36.644  1.00  0.00     0.127 S 
ATOM     74  O   UNL A   1      39.371  36.066  35.512  1.00  0.00    -0.237 OA
ATOM     75  O   UNL A   1      39.300  35.638  37.934  1.00  0.00    -0.237 OA
ATOM     76  O   UNL A   1      41.356  35.172  36.669  1.00  0.00    -0.744 OA
ENDBRANCH  70  73
ENDBRANCH  52  66
BRANCH  53  77
ATOM     77  C   UNL A   1      42.593  26.041  27.536  1.00  0.00     0.023 A 
ATOM     78  C   UNL A   1      43.498  26.666  26.657  1.00  0.00     0.012 A 
ATOM     79  C   UNL A   1      42.242  24.695  27.316  1.00  0.00     0.148 A 
ATOM     80  C   UNL A   1      44.013  25.978  25.558  1.00  0.00     0.002 A 
ATOM     81  C   UNL A   1      42.806  23.996  26.256  1.00  0.00     0.091 A 
ATOM     82  F   UNL A   1      41.372  24.119  28.159  1.00  0.00    -0.205 F 
ATOM     83  C   UNL A   1      43.676  24.642  25.363  1.00  0.00     0.022 A 
BRANCH  81  84
ATOM     84  S   UNL A   1      42.541  22.237  26.014  1.00  0.00     0.127 S 
ATOM     85  O   UNL A   1      42.957  21.691  27.303  1.00  0.00    -0.237 OA
ATOM     86  O   UNL A   1      41.103  22.184  25.754  1.00  0.00    -0.237 OA
ATOM     87  O   UNL A   1      43.368  21.867  24.873  1.00  0.00    -0.744 OA
ENDBRANCH  81  84
ENDBRANCH  53  77
BRANCH  65  88
ATOM     88  C   UNL A   1      44.870  27.283  34.018  1.00  0.00     0.023 A 
ATOM     89  C   UNL A   1      46.002  28.120  34.067  1.00  0.00     0.012 A 
ATOM     90  C   UNL A   1      44.870  26.076  34.745  1.00  0.00     0.148 A 
ATOM     91  C   UNL A   1      47.128  27.746  34.798  1.00  0.00     0.002 A 
ATOM     92  C   UNL A   1      45.975  25.735  35.515  1.00  0.00     0.091 A 
ATOM     93  F   UNL A   1      43.788  25.288  34.673  1.00  0.00    -0.205 F 
ATOM     94  C   UNL A   1      47.111  26.561  35.531  1.00  0.00     0.022 A 
BRANCH  92  95
ATOM     95  S   UNL A   1      46.006  24.281  36.568  1.00  0.00     0.127 S 
ATOM     96  O   UNL A   1      44.780  24.450  37.346  1.00  0.00    -0.237 OA
ATOM     97  O   UNL A   1      45.966  23.193  35.592  1.00  0.00    -0.237 OA
ATOM     98  O   UNL A   1      47.244  24.363  37.332  1.00  0.00    -0.744 OA
ENDBRANCH  92  95
ENDBRANCH  65  88
ENDBRANCH  39  40
ENDBRANCH  31  34
ENDBRANCH  29  30
ENDBRANCH   1  29
TORSDOF 17
ENDMDL
