MODEL 1
REMARK VINA RESULT:     -12.0      0.000      0.000
REMARK SMILES C[C@](NC(=O)c1csc(-c2cccs2)n1)(C(=O)NCCCNC(=O)c1ccc(-c2c3nc(c(-c4cccc(S(=O)(=O)[O-])c4F)c4ccc([nH]4)c(-c4cccc(S(=O)(=O)[O-])c4F)c4nc(c(-c5cccc(S(=O)(=O)[O-])c5F)c5ccc2[nH]5)C=C4)C=C3)cc1)C1CC1
REMARK SMILES IDX 20 1 19 2 18 3 16 4 17 5 2 7 1 8 88 9 89 10 90 11 3 12 4 13
REMARK SMILES IDX 5 15 6 16 7 17 15 18 8 19 9 20 10 21 11 22 14 23 12 24 13 25
REMARK SMILES IDX 21 26 22 27 23 28 24 30 25 31 26 32 87 33 27 34 86 35 28 36
REMARK SMILES IDX 29 37 30 38 80 39 31 40 85 41 79 42 81 43 32 44 84 45 78 46
REMARK SMILES IDX 77 47 33 49 65 50 45 51 64 52 46 53 49 54 63 55 82 56 47 57
REMARK SMILES IDX 48 58 62 60 83 61 50 62 34 63 35 64 43 65 36 66 38 67 44 68
REMARK SMILES IDX 37 69 39 70 40 71 41 72 42 73 66 74 67 75 75 76 68 77 70 78
REMARK SMILES IDX 76 79 69 80 71 81 72 82 73 83 74 84 51 85 52 86 60 87 53 88
REMARK SMILES IDX 55 89 61 90 54 91 56 92 57 93 58 94 59 95
REMARK H PARENT 18 6 3 14 22 29 81 48 49 59
REMARK Flexibility Score: inf
ROOT
ATOM      1  C   UNL A   1      31.564  31.353  26.726  1.00  0.00     0.042 C 
ENDROOT
BRANCH   1   2
ATOM      2  C   UNL A   1      31.812  30.196  25.770  1.00  0.00     0.117 C 
BRANCH   2   3
ATOM      3  N   UNL A   1      30.981  30.259  24.582  1.00  0.00    -0.354 N 
ATOM      4  C   UNL A   1      30.643  29.287  23.678  1.00  0.00     0.245 C 
ATOM      5  O   UNL A   1      29.721  29.569  22.904  1.00  0.00    -0.272 OA
ATOM      6  H   UNL A   1      30.595  31.145  24.396  1.00  0.00     0.163 HD
BRANCH   4   7
ATOM      7  C   UNL A   1      31.283  27.847  23.729  1.00  0.00     0.119 C 
ATOM      8  C   UNL A   1      30.963  27.230  22.355  1.00  0.00     0.046 C 
BRANCH   7   9
ATOM      9  C   UNL A   1      32.820  27.942  23.836  1.00  0.00     0.024 C 
ATOM     10  C   UNL A   1      33.750  27.129  22.960  1.00  0.00     0.007 C 
ATOM     11  C   UNL A   1      33.701  28.619  22.799  1.00  0.00     0.007 C 
ENDBRANCH   7   9
BRANCH   7  12
ATOM     12  N   UNL A   1      30.782  27.183  24.951  1.00  0.00    -0.336 N 
ATOM     13  C   UNL A   1      30.770  25.928  25.502  1.00  0.00     0.271 C 
ATOM     14  H   UNL A   1      30.326  27.828  25.539  1.00  0.00     0.165 HD
ATOM     15  O   UNL A   1      30.094  25.764  26.511  1.00  0.00    -0.267 OA
BRANCH  13  16
ATOM     16  C   UNL A   1      31.446  24.808  24.857  1.00  0.00     0.139 A 
ATOM     17  C   UNL A   1      30.837  24.025  23.889  1.00  0.00     0.101 A 
ATOM     18  N   UNL A   1      32.738  24.418  25.167  1.00  0.00    -0.230 NA
ATOM     19  S   UNL A   1      31.970  22.924  23.221  1.00  0.00    -0.121 S 
ATOM     20  C   UNL A   1      33.155  23.510  24.311  1.00  0.00     0.134 A 
BRANCH  20  21
ATOM     21  C   UNL A   1      34.534  23.109  24.294  1.00  0.00     0.063 A 
ATOM     22  C   UNL A   1      35.439  23.349  23.277  1.00  0.00     0.023 A 
ATOM     23  S   UNL A   1      35.212  22.111  25.511  1.00  0.00    -0.141 S 
ATOM     24  C   UNL A   1      36.687  22.699  23.494  1.00  0.00     0.012 A 
ATOM     25  C   UNL A   1      36.692  21.972  24.664  1.00  0.00     0.065 A 
ENDBRANCH  20  21
ENDBRANCH  13  16
ENDBRANCH   7  12
ENDBRANCH   4   7
ENDBRANCH   2   3
ENDBRANCH   1   2
BRANCH   1  26
ATOM     26  C   UNL A   1      32.825  32.134  27.071  1.00  0.00     0.118 C 
BRANCH  26  27
ATOM     27  N   UNL A   1      32.545  33.527  27.406  1.00  0.00    -0.352 N 
ATOM     28  C   UNL A   1      33.081  34.322  28.389  1.00  0.00     0.251 C 
ATOM     29  H   UNL A   1      31.868  33.964  26.840  1.00  0.00     0.163 HD
ATOM     30  O   UNL A   1      32.577  35.417  28.623  1.00  0.00    -0.269 OA
BRANCH  28  31
ATOM     31  C   UNL A   1      34.247  33.858  29.170  1.00  0.00     0.039 A 
ATOM     32  C   UNL A   1      34.040  32.999  30.253  1.00  0.00     0.014 A 
ATOM     33  C   UNL A   1      35.539  34.276  28.844  1.00  0.00     0.014 A 
ATOM     34  C   UNL A   1      35.137  32.505  30.964  1.00  0.00     0.010 A 
ATOM     35  C   UNL A   1      36.633  33.722  29.500  1.00  0.00     0.010 A 
ATOM     36  C   UNL A   1      36.443  32.835  30.570  1.00  0.00    -0.014 A 
BRANCH  36  37
ATOM     37  C   UNL A   1      37.630  32.257  31.249  1.00  0.00     0.031 A 
ATOM     38  C   UNL A   1      38.381  31.116  30.619  1.00  0.00     0.074 A 
ATOM     39  C   UNL A   1      37.964  32.689  32.481  1.00  0.00     0.049 A 
ATOM     40  N   UNL A   1      39.381  30.423  31.098  1.00  0.00    -0.248 NA
ATOM     41  C   UNL A   1      37.928  30.674  29.289  1.00  0.00     0.031 C 
ATOM     42  C   UNL A   1      37.260  33.731  33.232  1.00  0.00     0.029 A 
ATOM     43  N   UNL A   1      38.960  32.283  33.333  1.00  0.00    -0.354 N 
ATOM     44  C   UNL A   1      39.649  29.440  30.153  1.00  0.00     0.074 A 
ATOM     45  C   UNL A   1      38.686  29.606  29.085  1.00  0.00     0.031 C 
ATOM     46  C   UNL A   1      37.846  33.881  34.431  1.00  0.00     0.029 A 
ATOM     47  C   UNL A   1      38.946  32.929  34.548  1.00  0.00     0.049 A 
ATOM     48  H   UNL A   1      39.623  31.593  33.097  1.00  0.00     0.167 HD
ATOM     49  C   UNL A   1      40.627  28.504  30.158  1.00  0.00     0.034 A 
ATOM     50  C   UNL A   1      39.726  32.768  35.634  1.00  0.00     0.034 A 
ATOM     51  C   UNL A   1      41.616  28.379  31.193  1.00  0.00     0.049 A 
ATOM     52  C   UNL A   1      40.840  31.758  35.589  1.00  0.00     0.074 A 
ATOM     53  C   UNL A   1      42.707  27.530  31.244  1.00  0.00     0.029 A 
ATOM     54  N   UNL A   1      41.633  29.123  32.364  1.00  0.00    -0.354 N 
ATOM     55  N   UNL A   1      41.182  30.949  34.616  1.00  0.00    -0.248 NA
ATOM     56  C   UNL A   1      41.699  31.662  36.778  1.00  0.00     0.031 C 
ATOM     57  C   UNL A   1      43.377  27.751  32.452  1.00  0.00     0.029 A 
ATOM     58  C   UNL A   1      42.712  28.750  33.146  1.00  0.00     0.049 A 
ATOM     59  H   UNL A   1      40.974  29.814  32.602  1.00  0.00     0.167 HD
ATOM     60  C   UNL A   1      42.313  30.275  35.058  1.00  0.00     0.074 A 
ATOM     61  C   UNL A   1      42.611  30.784  36.382  1.00  0.00     0.031 C 
ATOM     62  C   UNL A   1      43.030  29.308  34.434  1.00  0.00     0.034 A 
BRANCH  49  63
ATOM     63  C   UNL A   1      40.715  27.578  28.972  1.00  0.00     0.023 A 
ATOM     64  C   UNL A   1      39.814  26.499  28.867  1.00  0.00     0.012 A 
ATOM     65  C   UNL A   1      41.644  27.805  27.938  1.00  0.00     0.148 A 
ATOM     66  C   UNL A   1      39.856  25.640  27.771  1.00  0.00     0.002 A 
ATOM     67  C   UNL A   1      41.653  26.969  26.826  1.00  0.00     0.091 A 
ATOM     68  F   UNL A   1      42.510  28.821  28.065  1.00  0.00    -0.205 F 
ATOM     69  C   UNL A   1      40.768  25.881  26.746  1.00  0.00     0.022 A 
BRANCH  67  70
ATOM     70  S   UNL A   1      42.737  27.240  25.419  1.00  0.00     0.127 S 
ATOM     71  O   UNL A   1      44.030  27.421  26.074  1.00  0.00    -0.237 OA
ATOM     72  O   UNL A   1      42.599  25.986  24.678  1.00  0.00    -0.237 OA
ATOM     73  O   UNL A   1      42.213  28.410  24.731  1.00  0.00    -0.744 OA
ENDBRANCH  67  70
ENDBRANCH  49  63
BRANCH  50  74
ATOM     74  C   UNL A   1      39.528  33.639  36.827  1.00  0.00     0.023 A 
ATOM     75  C   UNL A   1      39.958  34.979  36.779  1.00  0.00     0.012 A 
ATOM     76  C   UNL A   1      38.889  33.164  37.988  1.00  0.00     0.148 A 
ATOM     77  C   UNL A   1      39.784  35.823  37.876  1.00  0.00     0.002 A 
ATOM     78  C   UNL A   1      38.670  34.024  39.058  1.00  0.00     0.091 A 
ATOM     79  F   UNL A   1      38.498  31.881  38.019  1.00  0.00    -0.205 F 
ATOM     80  C   UNL A   1      39.131  35.349  39.010  1.00  0.00     0.022 A 
BRANCH  78  81
ATOM     81  S   UNL A   1      37.726  33.537  40.507  1.00  0.00     0.127 S 
ATOM     82  O   UNL A   1      38.533  32.440  41.035  1.00  0.00    -0.237 OA
ATOM     83  O   UNL A   1      37.749  34.761  41.309  1.00  0.00    -0.237 OA
ATOM     84  O   UNL A   1      36.407  33.173  40.008  1.00  0.00    -0.744 OA
ENDBRANCH  78  81
ENDBRANCH  50  74
BRANCH  62  85
ATOM     85  C   UNL A   1      44.230  28.754  35.154  1.00  0.00     0.023 A 
ATOM     86  C   UNL A   1      45.503  29.313  34.923  1.00  0.00     0.012 A 
ATOM     87  C   UNL A   1      44.085  27.738  36.119  1.00  0.00     0.148 A 
ATOM     88  C   UNL A   1      46.618  28.851  35.621  1.00  0.00     0.002 A 
ATOM     89  C   UNL A   1      45.192  27.314  36.845  1.00  0.00     0.091 A 
ATOM     90  F   UNL A   1      42.870  27.206  36.310  1.00  0.00    -0.205 F 
ATOM     91  C   UNL A   1      46.460  27.862  36.590  1.00  0.00     0.022 A 
BRANCH  89  92
ATOM     92  S   UNL A   1      45.067  26.115  38.176  1.00  0.00     0.127 S 
ATOM     93  O   UNL A   1      44.861  24.871  37.438  1.00  0.00    -0.237 OA
ATOM     94  O   UNL A   1      46.373  26.231  38.825  1.00  0.00    -0.237 OA
ATOM     95  O   UNL A   1      43.945  26.548  39.000  1.00  0.00    -0.744 OA
ENDBRANCH  89  92
ENDBRANCH  62  85
ENDBRANCH  36  37
ENDBRANCH  28  31
ENDBRANCH  26  27
ENDBRANCH   1  26
TORSDOF 17
ENDMDL
MODEL 2
REMARK VINA RESULT:     -11.8      3.395      8.625
REMARK SMILES C[C@](NC(=O)c1csc(-c2cccs2)n1)(C(=O)NCCCNC(=O)c1ccc(-c2c3nc(c(-c4cccc(S(=O)(=O)[O-])c4F)c4ccc([nH]4)c(-c4cccc(S(=O)(=O)[O-])c4F)c4nc(c(-c5cccc(S(=O)(=O)[O-])c5F)c5ccc2[nH]5)C=C4)C=C3)cc1)C1CC1
REMARK SMILES IDX 20 1 19 2 18 3 16 4 17 5 2 7 1 8 88 9 89 10 90 11 3 12 4 13
REMARK SMILES IDX 5 15 6 16 7 17 15 18 8 19 9 20 10 21 11 22 14 23 12 24 13 25
REMARK SMILES IDX 21 26 22 27 23 28 24 30 25 31 26 32 87 33 27 34 86 35 28 36
REMARK SMILES IDX 29 37 30 38 80 39 31 40 85 41 79 42 81 43 32 44 84 45 78 46
REMARK SMILES IDX 77 47 33 49 65 50 45 51 64 52 46 53 49 54 63 55 82 56 47 57
REMARK SMILES IDX 48 58 62 60 83 61 50 62 34 63 35 64 43 65 36 66 38 67 44 68
REMARK SMILES IDX 37 69 39 70 40 71 41 72 42 73 66 74 67 75 75 76 68 77 70 78
REMARK SMILES IDX 76 79 69 80 71 81 72 82 73 83 74 84 51 85 52 86 60 87 53 88
REMARK SMILES IDX 55 89 61 90 54 91 56 92 57 93 58 94 59 95
REMARK H PARENT 18 6 3 14 22 29 81 48 49 59
REMARK Flexibility Score: inf
ROOT
ATOM      1  C   UNL A   1      31.896  28.432  27.132  1.00  0.00     0.042 C 
ENDROOT
BRANCH   1   2
ATOM      2  C   UNL A   1      31.664  27.008  26.650  1.00  0.00     0.117 C 
BRANCH   2   3
ATOM      3  N   UNL A   1      30.875  26.945  25.434  1.00  0.00    -0.354 N 
ATOM      4  C   UNL A   1      30.773  25.960  24.488  1.00  0.00     0.245 C 
ATOM      5  O   UNL A   1      29.837  26.077  23.689  1.00  0.00    -0.272 OA
ATOM      6  H   UNL A   1      30.322  27.740  25.262  1.00  0.00     0.163 HD
BRANCH   4   7
ATOM      7  C   UNL A   1      31.694  24.681  24.518  1.00  0.00     0.119 C 
ATOM      8  C   UNL A   1      31.141  23.778  23.400  1.00  0.00     0.046 C 
BRANCH   7   9
ATOM      9  C   UNL A   1      33.142  25.048  24.130  1.00  0.00     0.024 C 
ATOM     10  C   UNL A   1      33.891  24.343  23.019  1.00  0.00     0.007 C 
ATOM     11  C   UNL A   1      33.516  25.785  22.854  1.00  0.00     0.007 C 
ENDBRANCH   7   9
BRANCH   7  12
ATOM     12  N   UNL A   1      31.709  24.179  25.909  1.00  0.00    -0.336 N 
ATOM     13  C   UNL A   1      32.295  23.168  26.626  1.00  0.00     0.271 C 
ATOM     14  H   UNL A   1      31.133  24.730  26.487  1.00  0.00     0.165 HD
ATOM     15  O   UNL A   1      31.916  23.005  27.780  1.00  0.00    -0.267 OA
BRANCH  13  16
ATOM     16  C   UNL A   1      33.252  22.255  26.010  1.00  0.00     0.139 A 
ATOM     17  C   UNL A   1      34.622  22.434  26.105  1.00  0.00     0.101 A 
ATOM     18  N   UNL A   1      32.877  21.150  25.264  1.00  0.00    -0.230 NA
ATOM     19  S   UNL A   1      35.442  21.090  25.425  1.00  0.00    -0.121 S 
ATOM     20  C   UNL A   1      33.931  20.411  24.990  1.00  0.00     0.134 A 
BRANCH  20  21
ATOM     21  C   UNL A   1      33.771  19.105  24.415  1.00  0.00     0.063 A 
ATOM     22  C   UNL A   1      34.705  18.087  24.430  1.00  0.00     0.023 A 
ATOM     23  S   UNL A   1      32.406  18.685  23.467  1.00  0.00    -0.141 S 
ATOM     24  C   UNL A   1      34.303  16.966  23.649  1.00  0.00     0.012 A 
ATOM     25  C   UNL A   1      33.079  17.168  23.051  1.00  0.00     0.065 A 
ENDBRANCH  20  21
ENDBRANCH  13  16
ENDBRANCH   7  12
ENDBRANCH   4   7
ENDBRANCH   2   3
ENDBRANCH   1   2
BRANCH   1  26
ATOM     26  C   UNL A   1      33.360  28.854  27.090  1.00  0.00     0.118 C 
BRANCH  26  27
ATOM     27  N   UNL A   1      33.525  30.303  27.171  1.00  0.00    -0.352 N 
ATOM     28  C   UNL A   1      34.544  31.044  27.718  1.00  0.00     0.251 C 
ATOM     29  H   UNL A   1      32.794  30.829  26.774  1.00  0.00     0.163 HD
ATOM     30  O   UNL A   1      34.407  32.257  27.848  1.00  0.00    -0.269 OA
BRANCH  28  31
ATOM     31  C   UNL A   1      35.791  30.384  28.160  1.00  0.00     0.039 A 
ATOM     32  C   UNL A   1      36.917  30.437  27.334  1.00  0.00     0.014 A 
ATOM     33  C   UNL A   1      35.848  29.707  29.380  1.00  0.00     0.014 A 
ATOM     34  C   UNL A   1      38.119  29.869  27.764  1.00  0.00     0.010 A 
ATOM     35  C   UNL A   1      37.063  29.213  29.842  1.00  0.00     0.010 A 
ATOM     36  C   UNL A   1      38.210  29.284  29.037  1.00  0.00    -0.014 A 
BRANCH  36  37
ATOM     37  C   UNL A   1      39.493  28.751  29.559  1.00  0.00     0.031 A 
ATOM     38  C   UNL A   1      40.206  29.458  30.680  1.00  0.00     0.074 A 
ATOM     39  C   UNL A   1      40.069  27.696  28.950  1.00  0.00     0.049 A 
ATOM     40  N   UNL A   1      41.373  29.199  31.207  1.00  0.00    -0.248 NA
ATOM     41  C   UNL A   1      39.530  30.629  31.265  1.00  0.00     0.031 C 
ATOM     42  C   UNL A   1      39.517  26.979  27.797  1.00  0.00     0.029 A 
ATOM     43  N   UNL A   1      41.261  27.063  29.194  1.00  0.00    -0.354 N 
ATOM     44  C   UNL A   1      41.593  30.194  32.152  1.00  0.00     0.074 A 
ATOM     45  C   UNL A   1      40.451  31.081  32.105  1.00  0.00     0.031 C 
ATOM     46  C   UNL A   1      40.369  26.007  27.435  1.00  0.00     0.029 A 
ATOM     47  C   UNL A   1      41.539  26.047  28.307  1.00  0.00     0.049 A 
ATOM     48  H   UNL A   1      41.863  27.311  29.933  1.00  0.00     0.167 HD
ATOM     49  C   UNL A   1      42.636  30.340  33.003  1.00  0.00     0.034 A 
ATOM     50  C   UNL A   1      42.615  25.244  28.205  1.00  0.00     0.034 A 
ATOM     51  C   UNL A   1      43.741  29.424  33.085  1.00  0.00     0.049 A 
ATOM     52  C   UNL A   1      43.734  25.393  29.200  1.00  0.00     0.074 A 
ATOM     53  C   UNL A   1      44.796  29.427  33.980  1.00  0.00     0.029 A 
ATOM     54  N   UNL A   1      43.936  28.344  32.238  1.00  0.00    -0.354 N 
ATOM     55  N   UNL A   1      43.845  26.239  30.195  1.00  0.00    -0.248 NA
ATOM     56  C   UNL A   1      44.859  24.455  29.081  1.00  0.00     0.031 C 
ATOM     57  C   UNL A   1      45.638  28.354  33.665  1.00  0.00     0.029 A 
ATOM     58  C   UNL A   1      45.097  27.675  32.585  1.00  0.00     0.049 A 
ATOM     59  H   UNL A   1      43.337  28.090  31.500  1.00  0.00     0.167 HD
ATOM     60  C   UNL A   1      45.032  25.914  30.842  1.00  0.00     0.074 A 
ATOM     61  C   UNL A   1      45.594  24.780  30.136  1.00  0.00     0.031 C 
ATOM     62  C   UNL A   1      45.613  26.512  31.911  1.00  0.00     0.034 A 
BRANCH  49  63
ATOM     63  C   UNL A   1      42.599  31.500  33.963  1.00  0.00     0.023 A 
ATOM     64  C   UNL A   1      43.197  32.722  33.594  1.00  0.00     0.012 A 
ATOM     65  C   UNL A   1      41.928  31.405  35.197  1.00  0.00     0.148 A 
ATOM     66  C   UNL A   1      43.159  33.821  34.450  1.00  0.00     0.002 A 
ATOM     67  C   UNL A   1      41.857  32.518  36.029  1.00  0.00     0.091 A 
ATOM     68  F   UNL A   1      41.385  30.229  35.542  1.00  0.00    -0.205 F 
ATOM     69  C   UNL A   1      42.481  33.722  35.662  1.00  0.00     0.022 A 
BRANCH  67  70
ATOM     70  S   UNL A   1      40.941  32.515  37.574  1.00  0.00     0.127 S 
ATOM     71  O   UNL A   1      39.698  31.857  37.179  1.00  0.00    -0.237 OA
ATOM     72  O   UNL A   1      41.805  31.714  38.443  1.00  0.00    -0.237 OA
ATOM     73  O   UNL A   1      40.815  33.910  37.967  1.00  0.00    -0.744 OA
ENDBRANCH  67  70
ENDBRANCH  49  63
BRANCH  50  74
ATOM     74  C   UNL A   1      42.651  24.177  27.165  1.00  0.00     0.023 A 
ATOM     75  C   UNL A   1      43.342  24.413  25.961  1.00  0.00     0.012 A 
ATOM     76  C   UNL A   1      42.041  22.925  27.373  1.00  0.00     0.148 A 
ATOM     77  C   UNL A   1      43.399  23.433  24.969  1.00  0.00     0.002 A 
ATOM     78  C   UNL A   1      42.146  21.934  26.404  1.00  0.00     0.091 A 
ATOM     79  F   UNL A   1      41.377  22.724  28.522  1.00  0.00    -0.205 F 
ATOM     80  C   UNL A   1      42.811  22.192  25.194  1.00  0.00     0.022 A 
BRANCH  78  81
ATOM     81  S   UNL A   1      41.532  20.266  26.661  1.00  0.00     0.127 S 
ATOM     82  O   UNL A   1      42.252  19.865  27.868  1.00  0.00    -0.237 OA
ATOM     83  O   UNL A   1      40.099  20.497  26.847  1.00  0.00    -0.237 OA
ATOM     84  O   UNL A   1      41.869  19.535  25.448  1.00  0.00    -0.744 OA
ENDBRANCH  78  81
ENDBRANCH  50  74
BRANCH  62  85
ATOM     85  C   UNL A   1      46.910  25.936  32.413  1.00  0.00     0.023 A 
ATOM     86  C   UNL A   1      48.132  26.416  31.900  1.00  0.00     0.012 A 
ATOM     87  C   UNL A   1      46.921  24.982  33.450  1.00  0.00     0.148 A 
ATOM     88  C   UNL A   1      49.345  25.936  32.392  1.00  0.00     0.002 A 
ATOM     89  C   UNL A   1      48.133  24.542  33.967  1.00  0.00     0.091 A 
ATOM     90  F   UNL A   1      45.748  24.524  33.910  1.00  0.00    -0.205 F 
ATOM     91  C   UNL A   1      49.346  25.009  33.433  1.00  0.00     0.022 A 
BRANCH  89  92
ATOM     92  S   UNL A   1      48.230  23.423  35.370  1.00  0.00     0.127 S 
ATOM     93  O   UNL A   1      47.505  24.170  36.396  1.00  0.00    -0.237 OA
ATOM     94  O   UNL A   1      47.534  22.237  34.871  1.00  0.00    -0.237 OA
ATOM     95  O   UNL A   1      49.651  23.224  35.625  1.00  0.00    -0.744 OA
ENDBRANCH  89  92
ENDBRANCH  62  85
ENDBRANCH  36  37
ENDBRANCH  28  31
ENDBRANCH  26  27
ENDBRANCH   1  26
TORSDOF 17
ENDMDL
MODEL 3
REMARK VINA RESULT:     -11.7      5.516      8.869
REMARK SMILES C[C@](NC(=O)c1csc(-c2cccs2)n1)(C(=O)NCCCNC(=O)c1ccc(-c2c3nc(c(-c4cccc(S(=O)(=O)[O-])c4F)c4ccc([nH]4)c(-c4cccc(S(=O)(=O)[O-])c4F)c4nc(c(-c5cccc(S(=O)(=O)[O-])c5F)c5ccc2[nH]5)C=C4)C=C3)cc1)C1CC1
REMARK SMILES IDX 20 1 19 2 18 3 16 4 17 5 2 7 1 8 88 9 89 10 90 11 3 12 4 13
REMARK SMILES IDX 5 15 6 16 7 17 15 18 8 19 9 20 10 21 11 22 14 23 12 24 13 25
REMARK SMILES IDX 21 26 22 27 23 28 24 30 25 31 26 32 87 33 27 34 86 35 28 36
REMARK SMILES IDX 29 37 30 38 80 39 31 40 85 41 79 42 81 43 32 44 84 45 78 46
REMARK SMILES IDX 77 47 33 49 65 50 45 51 64 52 46 53 49 54 63 55 82 56 47 57
REMARK SMILES IDX 48 58 62 60 83 61 50 62 34 63 35 64 43 65 36 66 38 67 44 68
REMARK SMILES IDX 37 69 39 70 40 71 41 72 42 73 66 74 67 75 75 76 68 77 70 78
REMARK SMILES IDX 76 79 69 80 71 81 72 82 73 83 74 84 51 85 52 86 60 87 53 88
REMARK SMILES IDX 55 89 61 90 54 91 56 92 57 93 58 94 59 95
REMARK H PARENT 18 6 3 14 22 29 81 48 49 59
REMARK Flexibility Score: inf
ROOT
ATOM      1  C   UNL A   1      36.722  22.138  23.857  1.00  0.00     0.042 C 
ENDROOT
BRANCH   1   2
ATOM      2  C   UNL A   1      35.391  22.782  23.501  1.00  0.00     0.117 C 
BRANCH   2   3
ATOM      3  N   UNL A   1      34.252  21.953  23.850  1.00  0.00    -0.354 N 
ATOM      4  C   UNL A   1      32.914  22.241  23.875  1.00  0.00     0.245 C 
ATOM      5  O   UNL A   1      32.156  21.270  23.973  1.00  0.00    -0.272 OA
ATOM      6  H   UNL A   1      34.479  21.031  24.110  1.00  0.00     0.163 HD
BRANCH   4   7
ATOM      7  C   UNL A   1      32.375  23.703  23.634  1.00  0.00     0.119 C 
ATOM      8  C   UNL A   1      30.877  23.627  23.980  1.00  0.00     0.046 C 
BRANCH   7   9
ATOM      9  C   UNL A   1      33.022  24.689  24.631  1.00  0.00     0.024 C 
ATOM     10  C   UNL A   1      32.213  25.470  25.645  1.00  0.00     0.007 C 
ATOM     11  C   UNL A   1      33.167  24.415  26.118  1.00  0.00     0.007 C 
ENDBRANCH   7   9
BRANCH   7  12
ATOM     12  N   UNL A   1      32.780  24.105  22.269  1.00  0.00    -0.336 N 
ATOM     13  C   UNL A   1      32.795  25.238  21.498  1.00  0.00     0.271 C 
ATOM     14  H   UNL A   1      33.144  23.337  21.771  1.00  0.00     0.165 HD
ATOM     15  O   UNL A   1      33.091  25.109  20.316  1.00  0.00    -0.267 OA
BRANCH  13  16
ATOM     16  C   UNL A   1      32.372  26.528  22.034  1.00  0.00     0.139 A 
ATOM     17  C   UNL A   1      33.261  27.560  22.283  1.00  0.00     0.101 A 
ATOM     18  N   UNL A   1      31.058  26.823  22.357  1.00  0.00    -0.230 NA
ATOM     19  S   UNL A   1      32.408  28.978  22.733  1.00  0.00    -0.121 S 
ATOM     20  C   UNL A   1      30.939  28.103  22.639  1.00  0.00     0.134 A 
BRANCH  20  21
ATOM     21  C   UNL A   1      29.638  28.692  22.794  1.00  0.00     0.063 A 
ATOM     22  C   UNL A   1      28.483  28.032  23.167  1.00  0.00     0.023 A 
ATOM     23  S   UNL A   1      29.316  30.321  22.367  1.00  0.00    -0.141 S 
ATOM     24  C   UNL A   1      27.330  28.863  23.088  1.00  0.00     0.012 A 
ATOM     25  C   UNL A   1      27.638  30.130  22.644  1.00  0.00     0.065 A 
ENDBRANCH  20  21
ENDBRANCH  13  16
ENDBRANCH   7  12
ENDBRANCH   4   7
ENDBRANCH   2   3
ENDBRANCH   1   2
BRANCH   1  26
ATOM     26  C   UNL A   1      36.909  21.920  25.354  1.00  0.00     0.118 C 
BRANCH  26  27
ATOM     27  N   UNL A   1      37.910  20.900  25.649  1.00  0.00    -0.352 N 
ATOM     28  C   UNL A   1      39.201  21.036  26.098  1.00  0.00     0.251 C 
ATOM     29  H   UNL A   1      37.615  19.972  25.504  1.00  0.00     0.163 HD
ATOM     30  O   UNL A   1      39.943  20.058  26.110  1.00  0.00    -0.269 OA
BRANCH  28  31
ATOM     31  C   UNL A   1      39.698  22.353  26.549  1.00  0.00     0.039 A 
ATOM     32  C   UNL A   1      40.689  22.404  27.534  1.00  0.00     0.014 A 
ATOM     33  C   UNL A   1      39.182  23.535  26.012  1.00  0.00     0.014 A 
ATOM     34  C   UNL A   1      41.210  23.638  27.929  1.00  0.00     0.010 A 
ATOM     35  C   UNL A   1      39.757  24.756  26.347  1.00  0.00     0.010 A 
ATOM     36  C   UNL A   1      40.773  24.821  27.312  1.00  0.00    -0.014 A 
BRANCH  36  37
ATOM     37  C   UNL A   1      41.369  26.139  27.646  1.00  0.00     0.031 A 
ATOM     38  C   UNL A   1      42.800  26.435  27.285  1.00  0.00     0.074 A 
ATOM     39  C   UNL A   1      40.656  27.026  28.368  1.00  0.00     0.049 A 
ATOM     40  N   UNL A   1      43.521  27.487  27.572  1.00  0.00    -0.248 NA
ATOM     41  C   UNL A   1      43.525  25.398  26.532  1.00  0.00     0.031 C 
ATOM     42  C   UNL A   1      39.288  26.818  28.850  1.00  0.00     0.029 A 
ATOM     43  N   UNL A   1      40.993  28.264  28.851  1.00  0.00    -0.354 N 
ATOM     44  C   UNL A   1      44.791  27.225  27.074  1.00  0.00     0.074 A 
ATOM     45  C   UNL A   1      44.752  25.899  26.494  1.00  0.00     0.031 C 
ATOM     46  C   UNL A   1      38.905  27.892  29.560  1.00  0.00     0.029 A 
ATOM     47  C   UNL A   1      40.004  28.850  29.609  1.00  0.00     0.049 A 
ATOM     48  H   UNL A   1      41.861  28.695  28.674  1.00  0.00     0.167 HD
ATOM     49  C   UNL A   1      45.883  28.025  27.071  1.00  0.00     0.034 A 
ATOM     50  C   UNL A   1      39.989  30.021  30.273  1.00  0.00     0.034 A 
ATOM     51  C   UNL A   1      45.901  29.362  27.598  1.00  0.00     0.049 A 
ATOM     52  C   UNL A   1      41.197  30.914  30.207  1.00  0.00     0.074 A 
ATOM     53  C   UNL A   1      46.926  30.290  27.555  1.00  0.00     0.029 A 
ATOM     54  N   UNL A   1      44.846  29.962  28.268  1.00  0.00    -0.354 N 
ATOM     55  N   UNL A   1      42.336  30.717  29.587  1.00  0.00    -0.248 NA
ATOM     56  C   UNL A   1      41.108  32.208  30.900  1.00  0.00     0.031 C 
ATOM     57  C   UNL A   1      46.495  31.448  28.211  1.00  0.00     0.029 A 
ATOM     58  C   UNL A   1      45.195  31.246  28.648  1.00  0.00     0.049 A 
ATOM     59  H   UNL A   1      43.976  29.537  28.446  1.00  0.00     0.167 HD
ATOM     60  C   UNL A   1      43.084  31.871  29.785  1.00  0.00     0.074 A 
ATOM     61  C   UNL A   1      42.261  32.773  30.566  1.00  0.00     0.031 C 
ATOM     62  C   UNL A   1      44.344  32.153  29.373  1.00  0.00     0.034 A 
BRANCH  49  63
ATOM     63  C   UNL A   1      47.135  27.498  26.420  1.00  0.00     0.023 A 
ATOM     64  C   UNL A   1      47.424  27.854  25.087  1.00  0.00     0.012 A 
ATOM     65  C   UNL A   1      48.052  26.704  27.136  1.00  0.00     0.148 A 
ATOM     66  C   UNL A   1      48.586  27.401  24.465  1.00  0.00     0.002 A 
ATOM     67  C   UNL A   1      49.230  26.291  26.524  1.00  0.00     0.091 A 
ATOM     68  F   UNL A   1      47.750  26.355  28.395  1.00  0.00    -0.205 F 
ATOM     69  C   UNL A   1      49.493  26.629  25.185  1.00  0.00     0.022 A 
BRANCH  67  70
ATOM     70  S   UNL A   1      50.497  25.358  27.391  1.00  0.00     0.127 S 
ATOM     71  O   UNL A   1      51.385  24.978  26.294  1.00  0.00    -0.237 OA
ATOM     72  O   UNL A   1      51.049  26.361  28.302  1.00  0.00    -0.237 OA
ATOM     73  O   UNL A   1      49.805  24.259  28.048  1.00  0.00    -0.744 OA
ENDBRANCH  67  70
ENDBRANCH  49  63
BRANCH  50  74
ATOM     74  C   UNL A   1      38.757  30.450  30.995  1.00  0.00     0.023 A 
ATOM     75  C   UNL A   1      38.650  30.204  32.378  1.00  0.00     0.012 A 
ATOM     76  C   UNL A   1      37.714  31.127  30.336  1.00  0.00     0.148 A 
ATOM     77  C   UNL A   1      37.514  30.596  33.086  1.00  0.00     0.002 A 
ATOM     78  C   UNL A   1      36.608  31.564  31.056  1.00  0.00     0.091 A 
ATOM     79  F   UNL A   1      37.830  31.342  29.017  1.00  0.00    -0.205 F 
ATOM     80  C   UNL A   1      36.499  31.285  32.428  1.00  0.00     0.022 A 
BRANCH  78  81
ATOM     81  S   UNL A   1      35.315  32.569  30.319  1.00  0.00     0.127 S 
ATOM     82  O   UNL A   1      34.390  32.734  31.438  1.00  0.00    -0.237 OA
ATOM     83  O   UNL A   1      36.048  33.778  29.943  1.00  0.00    -0.237 OA
ATOM     84  O   UNL A   1      34.815  31.795  29.191  1.00  0.00    -0.744 OA
ENDBRANCH  78  81
ENDBRANCH  50  74
BRANCH  62  85
ATOM     85  C   UNL A   1      44.909  33.503  29.726  1.00  0.00     0.023 A 
ATOM     86  C   UNL A   1      45.661  33.658  30.908  1.00  0.00     0.012 A 
ATOM     87  C   UNL A   1      44.767  34.595  28.848  1.00  0.00     0.148 A 
ATOM     88  C   UNL A   1      46.239  34.887  31.225  1.00  0.00     0.002 A 
ATOM     89  C   UNL A   1      45.384  35.804  29.146  1.00  0.00     0.091 A 
ATOM     90  F   UNL A   1      44.031  34.433  27.739  1.00  0.00    -0.205 F 
ATOM     91  C   UNL A   1      46.111  35.954  30.339  1.00  0.00     0.022 A 
BRANCH  89  92
ATOM     92  S   UNL A   1      45.354  37.203  28.020  1.00  0.00     0.127 S 
ATOM     93  O   UNL A   1      43.936  37.558  28.025  1.00  0.00    -0.237 OA
ATOM     94  O   UNL A   1      46.227  38.165  28.693  1.00  0.00    -0.237 OA
ATOM     95  O   UNL A   1      45.870  36.706  26.751  1.00  0.00    -0.744 OA
ENDBRANCH  89  92
ENDBRANCH  62  85
ENDBRANCH  36  37
ENDBRANCH  28  31
ENDBRANCH  26  27
ENDBRANCH   1  26
TORSDOF 17
ENDMDL
