MODEL 1
REMARK VINA RESULT:     -11.8      0.000      0.000
REMARK SMILES O=C(NCCCNC(=O)[C@@H](Cc1ccncc1)c1ccc(Cl)cc1)c1ccc(-c2c3nc(c(-c4cccc(S(=O)(=O)[O-])c4F)c4ccc([nH]4)c(-c4cccc(S(=O)(=O)[O-])c4F)c4nc(c(-c5cccc(S(=O)(=O)[O-])c5F)c5ccc2[nH]5)C=C4)C=C3)cc1
REMARK SMILES IDX 4 1 3 2 1 3 2 4 25 6 26 7 87 8 27 9 86 10 28 11 29 12 30 13
REMARK SMILES IDX 80 14 31 15 85 16 79 17 81 18 32 19 84 20 78 21 77 22 33 24
REMARK SMILES IDX 65 25 45 26 64 27 46 28 49 29 63 30 82 31 47 32 48 33 62 35
REMARK SMILES IDX 83 36 50 37 34 38 35 39 43 40 36 41 38 42 44 43 37 44 39 45
REMARK SMILES IDX 40 46 41 47 42 48 66 49 67 50 75 51 68 52 70 53 76 54 69 55
REMARK SMILES IDX 71 56 72 57 73 58 74 59 51 60 52 61 60 62 53 63 55 64 61 65
REMARK SMILES IDX 54 66 56 67 57 68 58 69 59 70 5 71 6 72 7 73 8 74 9 76 10 77
REMARK SMILES IDX 11 78 12 79 13 80 17 81 14 82 16 83 15 84 18 85 19 86 24 87
REMARK SMILES IDX 20 88 23 89 21 90 22 91
REMARK H PARENT 3 5 81 23 49 34 7 75
REMARK Flexibility Score: inf
ROOT
ATOM      1  C   UNL A   1      33.237  28.975  25.104  1.00  0.00     0.118 C 
ENDROOT
BRANCH   1   2
ATOM      2  N   UNL A   1      32.744  30.243  25.618  1.00  0.00    -0.352 N 
ATOM      3  O   UNL A   1      32.383  31.939  27.022  1.00  0.00    -0.269 OA
ATOM      4  C   UNL A   1      33.122  31.010  26.697  1.00  0.00     0.251 C 
ATOM      5  H   UNL A   1      32.001  30.624  25.097  1.00  0.00     0.163 HD
BRANCH   4   6
ATOM      6  C   UNL A   1      34.353  30.737  27.487  1.00  0.00     0.039 A 
ATOM      7  C   UNL A   1      34.657  29.474  27.984  1.00  0.00     0.014 A 
ATOM      8  C   UNL A   1      35.286  31.767  27.665  1.00  0.00     0.014 A 
ATOM      9  C   UNL A   1      35.771  29.278  28.796  1.00  0.00     0.010 A 
ATOM     10  C   UNL A   1      36.482  31.534  28.362  1.00  0.00     0.010 A 
ATOM     11  C   UNL A   1      36.724  30.292  28.966  1.00  0.00    -0.014 A 
BRANCH  11  12
ATOM     12  C   UNL A   1      37.985  29.984  29.700  1.00  0.00     0.031 A 
ATOM     13  C   UNL A   1      38.219  30.471  31.106  1.00  0.00     0.074 A 
ATOM     14  C   UNL A   1      38.928  29.233  29.089  1.00  0.00     0.049 A 
ATOM     15  N   UNL A   1      39.240  30.243  31.893  1.00  0.00    -0.248 NA
ATOM     16  C   UNL A   1      37.189  31.334  31.703  1.00  0.00     0.031 C 
ATOM     17  C   UNL A   1      38.853  28.745  27.708  1.00  0.00     0.029 A 
ATOM     18  N   UNL A   1      40.122  28.733  29.545  1.00  0.00    -0.354 N 
ATOM     19  C   UNL A   1      39.006  30.977  33.049  1.00  0.00     0.074 A 
ATOM     20  C   UNL A   1      37.747  31.663  32.861  1.00  0.00     0.031 C 
ATOM     21  C   UNL A   1      39.915  27.969  27.452  1.00  0.00     0.029 A 
ATOM     22  C   UNL A   1      40.786  27.960  28.620  1.00  0.00     0.049 A 
ATOM     23  H   UNL A   1      40.471  28.911  30.448  1.00  0.00     0.167 HD
ATOM     24  C   UNL A   1      39.762  31.062  34.172  1.00  0.00     0.034 A 
ATOM     25  C   UNL A   1      41.969  27.318  28.691  1.00  0.00     0.034 A 
ATOM     26  C   UNL A   1      40.988  30.334  34.379  1.00  0.00     0.049 A 
ATOM     27  C   UNL A   1      42.758  27.391  29.966  1.00  0.00     0.074 A 
ATOM     28  C   UNL A   1      41.781  30.293  35.514  1.00  0.00     0.029 A 
ATOM     29  N   UNL A   1      41.604  29.528  33.434  1.00  0.00    -0.354 N 
ATOM     30  N   UNL A   1      42.451  27.985  31.093  1.00  0.00    -0.248 NA
ATOM     31  C   UNL A   1      44.046  26.684  29.988  1.00  0.00     0.031 C 
ATOM     32  C   UNL A   1      42.889  29.482  35.245  1.00  0.00     0.029 A 
ATOM     33  C   UNL A   1      42.771  28.992  33.955  1.00  0.00     0.049 A 
ATOM     34  H   UNL A   1      41.262  29.361  32.527  1.00  0.00     0.167 HD
ATOM     35  C   UNL A   1      43.490  27.698  31.968  1.00  0.00     0.074 A 
ATOM     36  C   UNL A   1      44.422  26.854  31.248  1.00  0.00     0.031 C 
ATOM     37  C   UNL A   1      43.663  28.110  33.248  1.00  0.00     0.034 A 
BRANCH  24  38
ATOM     38  C   UNL A   1      39.274  31.953  35.285  1.00  0.00     0.023 A 
ATOM     39  C   UNL A   1      38.347  31.460  36.226  1.00  0.00     0.012 A 
ATOM     40  C   UNL A   1      39.783  33.259  35.440  1.00  0.00     0.148 A 
ATOM     41  C   UNL A   1      37.907  32.262  37.280  1.00  0.00     0.002 A 
ATOM     42  C   UNL A   1      39.375  34.036  36.519  1.00  0.00     0.091 A 
ATOM     43  F   UNL A   1      40.651  33.720  34.527  1.00  0.00    -0.205 F 
ATOM     44  C   UNL A   1      38.428  33.543  37.432  1.00  0.00     0.022 A 
BRANCH  42  45
ATOM     45  S   UNL A   1      40.053  35.667  36.849  1.00  0.00     0.127 S 
ATOM     46  O   UNL A   1      39.593  36.420  35.682  1.00  0.00    -0.237 OA
ATOM     47  O   UNL A   1      39.393  36.028  38.104  1.00  0.00    -0.237 OA
ATOM     48  O   UNL A   1      41.494  35.490  36.953  1.00  0.00    -0.744 OA
ENDBRANCH  42  45
ENDBRANCH  24  38
BRANCH  25  49
ATOM     49  C   UNL A   1      42.450  26.509  27.535  1.00  0.00     0.023 A 
ATOM     50  C   UNL A   1      43.291  27.105  26.575  1.00  0.00     0.012 A 
ATOM     51  C   UNL A   1      42.109  25.149  27.398  1.00  0.00     0.148 A 
ATOM     52  C   UNL A   1      43.760  26.370  25.485  1.00  0.00     0.002 A 
ATOM     53  C   UNL A   1      42.629  24.407  26.345  1.00  0.00     0.091 A 
ATOM     54  F   UNL A   1      41.295  24.603  28.313  1.00  0.00    -0.205 F 
ATOM     55  C   UNL A   1      43.438  25.019  25.376  1.00  0.00     0.022 A 
BRANCH  53  56
ATOM     56  S   UNL A   1      42.383  22.633  26.207  1.00  0.00     0.127 S 
ATOM     57  O   UNL A   1      43.015  22.148  27.430  1.00  0.00    -0.237 OA
ATOM     58  O   UNL A   1      40.924  22.531  26.183  1.00  0.00    -0.237 OA
ATOM     59  O   UNL A   1      43.030  22.245  24.960  1.00  0.00    -0.744 OA
ENDBRANCH  53  56
ENDBRANCH  25  49
BRANCH  37  60
ATOM     60  C   UNL A   1      44.886  27.615  33.975  1.00  0.00     0.023 A 
ATOM     61  C   UNL A   1      46.069  28.381  33.966  1.00  0.00     0.012 A 
ATOM     62  C   UNL A   1      44.846  26.414  34.710  1.00  0.00     0.148 A 
ATOM     63  C   UNL A   1      47.205  27.940  34.645  1.00  0.00     0.002 A 
ATOM     64  C   UNL A   1      45.966  26.006  35.426  1.00  0.00     0.091 A 
ATOM     65  F   UNL A   1      43.721  25.687  34.687  1.00  0.00    -0.205 F 
ATOM     66  C   UNL A   1      47.150  26.761  35.383  1.00  0.00     0.022 A 
BRANCH  64  67
ATOM     67  S   UNL A   1      45.946  24.552  36.480  1.00  0.00     0.127 S 
ATOM     68  O   UNL A   1      45.772  23.478  35.500  1.00  0.00    -0.237 OA
ATOM     69  O   UNL A   1      47.273  24.599  37.099  1.00  0.00    -0.237 OA
ATOM     70  O   UNL A   1      44.844  24.742  37.405  1.00  0.00    -0.744 OA
ENDBRANCH  64  67
ENDBRANCH  37  60
ENDBRANCH  11  12
ENDBRANCH   4   6
ENDBRANCH   1   2
BRANCH   1  71
ATOM     71  C   UNL A   1      33.594  29.045  23.627  1.00  0.00     0.042 C 
BRANCH  71  72
ATOM     72  C   UNL A   1      32.429  28.618  22.746  1.00  0.00     0.117 C 
BRANCH  72  73
ATOM     73  N   UNL A   1      32.841  27.615  21.775  1.00  0.00    -0.355 N 
ATOM     74  C   UNL A   1      33.004  26.270  21.877  1.00  0.00     0.227 C 
ATOM     75  H   UNL A   1      33.038  27.977  20.881  1.00  0.00     0.163 HD
ATOM     76  O   UNL A   1      33.338  25.686  20.838  1.00  0.00    -0.274 OA
BRANCH  74  77
ATOM     77  C   UNL A   1      32.837  25.473  23.174  1.00  0.00     0.113 C 
BRANCH  77  78
ATOM     78  C   UNL A   1      31.436  24.807  23.282  1.00  0.00     0.054 C 
BRANCH  78  79
ATOM     79  C   UNL A   1      30.885  24.407  24.631  1.00  0.00    -0.044 A 
ATOM     80  C   UNL A   1      31.015  23.087  25.079  1.00  0.00     0.024 A 
ATOM     81  C   UNL A   1      30.185  25.302  25.446  1.00  0.00     0.024 A 
ATOM     82  C   UNL A   1      30.508  22.744  26.326  1.00  0.00     0.111 A 
ATOM     83  C   UNL A   1      29.725  24.871  26.682  1.00  0.00     0.111 A 
ATOM     84  N   UNL A   1      29.884  23.616  27.144  1.00  0.00    -0.265 NA
ENDBRANCH  78  79
ENDBRANCH  77  78
BRANCH  77  85
ATOM     85  C   UNL A   1      34.038  24.689  23.703  1.00  0.00    -0.035 A 
ATOM     86  C   UNL A   1      34.637  23.624  23.015  1.00  0.00     0.006 A 
ATOM     87  C   UNL A   1      34.615  25.076  24.928  1.00  0.00     0.006 A 
ATOM     88  C   UNL A   1      35.682  22.889  23.583  1.00  0.00     0.021 A 
ATOM     89  C   UNL A   1      35.679  24.362  25.488  1.00  0.00     0.021 A 
ATOM     90  C   UNL A   1      36.190  23.254  24.824  1.00  0.00     0.041 A 
ATOM     91  Cl  UNL A   1      37.464  22.341  25.531  1.00  0.00    -0.084 Cl
ENDBRANCH  77  85
ENDBRANCH  74  77
ENDBRANCH  72  73
ENDBRANCH  71  72
ENDBRANCH   1  71
TORSDOF 16
ENDMDL
MODEL 2
REMARK VINA RESULT:     -11.7      1.643      2.599
REMARK SMILES O=C(NCCCNC(=O)[C@@H](Cc1ccncc1)c1ccc(Cl)cc1)c1ccc(-c2c3nc(c(-c4cccc(S(=O)(=O)[O-])c4F)c4ccc([nH]4)c(-c4cccc(S(=O)(=O)[O-])c4F)c4nc(c(-c5cccc(S(=O)(=O)[O-])c5F)c5ccc2[nH]5)C=C4)C=C3)cc1
REMARK SMILES IDX 4 1 3 2 1 3 2 4 25 6 26 7 87 8 27 9 86 10 28 11 29 12 30 13
REMARK SMILES IDX 80 14 31 15 85 16 79 17 81 18 32 19 84 20 78 21 77 22 33 24
REMARK SMILES IDX 65 25 45 26 64 27 46 28 49 29 63 30 82 31 47 32 48 33 62 35
REMARK SMILES IDX 83 36 50 37 34 38 35 39 43 40 36 41 38 42 44 43 37 44 39 45
REMARK SMILES IDX 40 46 41 47 42 48 66 49 67 50 75 51 68 52 70 53 76 54 69 55
REMARK SMILES IDX 71 56 72 57 73 58 74 59 51 60 52 61 60 62 53 63 55 64 61 65
REMARK SMILES IDX 54 66 56 67 57 68 58 69 59 70 5 71 6 72 7 73 8 74 9 76 10 77
REMARK SMILES IDX 11 78 12 79 13 80 17 81 14 82 16 83 15 84 18 85 19 86 24 87
REMARK SMILES IDX 20 88 23 89 21 90 22 91
REMARK H PARENT 3 5 81 23 49 34 7 75
REMARK Flexibility Score: inf
ROOT
ATOM      1  C   UNL A   1      32.615  28.996  25.664  1.00  0.00     0.118 C 
ENDROOT
BRANCH   1   2
ATOM      2  N   UNL A   1      32.366  30.401  25.941  1.00  0.00    -0.352 N 
ATOM      3  O   UNL A   1      32.377  32.364  27.004  1.00  0.00    -0.269 OA
ATOM      4  C   UNL A   1      32.936  31.279  26.835  1.00  0.00     0.251 C 
ATOM      5  H   UNL A   1      31.656  30.800  25.386  1.00  0.00     0.163 HD
BRANCH   4   6
ATOM      6  C   UNL A   1      34.161  30.954  27.613  1.00  0.00     0.039 A 
ATOM      7  C   UNL A   1      34.478  29.656  28.001  1.00  0.00     0.014 A 
ATOM      8  C   UNL A   1      35.078  31.977  27.893  1.00  0.00     0.014 A 
ATOM      9  C   UNL A   1      35.586  29.404  28.805  1.00  0.00     0.010 A 
ATOM     10  C   UNL A   1      36.269  31.699  28.581  1.00  0.00     0.010 A 
ATOM     11  C   UNL A   1      36.522  30.412  29.076  1.00  0.00    -0.014 A 
BRANCH  11  12
ATOM     12  C   UNL A   1      37.779  30.056  29.795  1.00  0.00     0.031 A 
ATOM     13  C   UNL A   1      38.042  30.524  31.202  1.00  0.00     0.074 A 
ATOM     14  C   UNL A   1      38.690  29.280  29.170  1.00  0.00     0.049 A 
ATOM     15  N   UNL A   1      39.062  30.257  31.978  1.00  0.00    -0.248 NA
ATOM     16  C   UNL A   1      37.047  31.417  31.816  1.00  0.00     0.031 C 
ATOM     17  C   UNL A   1      38.587  28.805  27.786  1.00  0.00     0.029 A 
ATOM     18  N   UNL A   1      39.872  28.737  29.611  1.00  0.00    -0.354 N 
ATOM     19  C   UNL A   1      38.864  30.990  33.142  1.00  0.00     0.074 A 
ATOM     20  C   UNL A   1      37.626  31.719  32.971  1.00  0.00     0.031 C 
ATOM     21  C   UNL A   1      39.620  27.996  27.514  1.00  0.00     0.029 A 
ATOM     22  C   UNL A   1      40.502  27.949  28.673  1.00  0.00     0.049 A 
ATOM     23  H   UNL A   1      40.235  28.896  30.512  1.00  0.00     0.167 HD
ATOM     24  C   UNL A   1      39.633  31.041  34.258  1.00  0.00     0.034 A 
ATOM     25  C   UNL A   1      41.663  27.268  28.728  1.00  0.00     0.034 A 
ATOM     26  C   UNL A   1      40.836  30.272  34.448  1.00  0.00     0.049 A 
ATOM     27  C   UNL A   1      42.466  27.306  29.996  1.00  0.00     0.074 A 
ATOM     28  C   UNL A   1      41.638  30.196  35.574  1.00  0.00     0.029 A 
ATOM     29  N   UNL A   1      41.416  29.453  33.491  1.00  0.00    -0.354 N 
ATOM     30  N   UNL A   1      42.190  27.901  31.130  1.00  0.00    -0.248 NA
ATOM     31  C   UNL A   1      43.730  26.557  30.000  1.00  0.00     0.031 C 
ATOM     32  C   UNL A   1      42.716  29.350  35.289  1.00  0.00     0.029 A 
ATOM     33  C   UNL A   1      42.569  28.875  33.996  1.00  0.00     0.049 A 
ATOM     34  H   UNL A   1      41.060  29.304  32.586  1.00  0.00     0.167 HD
ATOM     35  C   UNL A   1      43.227  27.573  31.993  1.00  0.00     0.074 A 
ATOM     36  C   UNL A   1      44.123  26.704  31.258  1.00  0.00     0.031 C 
ATOM     37  C   UNL A   1      43.426  27.969  33.275  1.00  0.00     0.034 A 
BRANCH  24  38
ATOM     38  C   UNL A   1      39.185  31.940  35.383  1.00  0.00     0.023 A 
ATOM     39  C   UNL A   1      38.241  31.475  36.321  1.00  0.00     0.012 A 
ATOM     40  C   UNL A   1      39.748  33.221  35.550  1.00  0.00     0.148 A 
ATOM     41  C   UNL A   1      37.837  32.282  37.385  1.00  0.00     0.002 A 
ATOM     42  C   UNL A   1      39.376  34.002  36.639  1.00  0.00     0.091 A 
ATOM     43  F   UNL A   1      40.631  33.656  34.639  1.00  0.00    -0.205 F 
ATOM     44  C   UNL A   1      38.412  33.539  37.549  1.00  0.00     0.022 A 
BRANCH  42  45
ATOM     45  S   UNL A   1      40.121  35.600  36.984  1.00  0.00     0.127 S 
ATOM     46  O   UNL A   1      39.653  36.397  35.850  1.00  0.00    -0.237 OA
ATOM     47  O   UNL A   1      39.513  35.954  38.268  1.00  0.00    -0.237 OA
ATOM     48  O   UNL A   1      41.558  35.370  37.038  1.00  0.00    -0.744 OA
ENDBRANCH  42  45
ENDBRANCH  24  38
BRANCH  25  49
ATOM     49  C   UNL A   1      42.106  26.453  27.561  1.00  0.00     0.023 A 
ATOM     50  C   UNL A   1      42.920  27.042  26.574  1.00  0.00     0.012 A 
ATOM     51  C   UNL A   1      41.756  25.094  27.441  1.00  0.00     0.148 A 
ATOM     52  C   UNL A   1      43.353  26.300  25.474  1.00  0.00     0.002 A 
ATOM     53  C   UNL A   1      42.242  24.346  26.375  1.00  0.00     0.091 A 
ATOM     54  F   UNL A   1      40.969  24.554  28.383  1.00  0.00    -0.205 F 
ATOM     55  C   UNL A   1      43.024  24.951  25.380  1.00  0.00     0.022 A 
BRANCH  53  56
ATOM     56  S   UNL A   1      41.986  22.572  26.253  1.00  0.00     0.127 S 
ATOM     57  O   UNL A   1      42.668  22.258  25.001  1.00  0.00    -0.237 OA
ATOM     58  O   UNL A   1      42.655  22.086  27.460  1.00  0.00    -0.237 OA
ATOM     59  O   UNL A   1      40.541  22.384  26.254  1.00  0.00    -0.744 OA
ENDBRANCH  53  56
ENDBRANCH  25  49
BRANCH  37  60
ATOM     60  C   UNL A   1      44.639  27.429  33.985  1.00  0.00     0.023 A 
ATOM     61  C   UNL A   1      45.848  28.152  33.965  1.00  0.00     0.012 A 
ATOM     62  C   UNL A   1      44.564  26.228  34.719  1.00  0.00     0.148 A 
ATOM     63  C   UNL A   1      46.975  27.669  34.629  1.00  0.00     0.002 A 
ATOM     64  C   UNL A   1      45.677  25.779  35.421  1.00  0.00     0.091 A 
ATOM     65  F   UNL A   1      43.412  25.542  34.708  1.00  0.00    -0.205 F 
ATOM     66  C   UNL A   1      46.886  26.490  35.365  1.00  0.00     0.022 A 
BRANCH  64  67
ATOM     67  S   UNL A   1      45.616  24.323  36.472  1.00  0.00     0.127 S 
ATOM     68  O   UNL A   1      45.367  23.262  35.495  1.00  0.00    -0.237 OA
ATOM     69  O   UNL A   1      46.960  24.307  37.056  1.00  0.00    -0.237 OA
ATOM     70  O   UNL A   1      44.548  24.562  37.425  1.00  0.00    -0.744 OA
ENDBRANCH  64  67
ENDBRANCH  37  60
ENDBRANCH  11  12
ENDBRANCH   4   6
ENDBRANCH   1   2
BRANCH   1  71
ATOM     71  C   UNL A   1      31.754  28.074  26.516  1.00  0.00     0.042 C 
BRANCH  71  72
ATOM     72  C   UNL A   1      31.129  26.962  25.686  1.00  0.00     0.117 C 
BRANCH  72  73
ATOM     73  N   UNL A   1      30.947  25.752  26.476  1.00  0.00    -0.355 N 
ATOM     74  C   UNL A   1      31.517  24.523  26.391  1.00  0.00     0.227 C 
ATOM     75  H   UNL A   1      30.292  25.843  27.205  1.00  0.00     0.163 HD
ATOM     76  O   UNL A   1      31.166  23.704  27.251  1.00  0.00    -0.274 OA
BRANCH  74  77
ATOM     77  C   UNL A   1      32.507  24.099  25.302  1.00  0.00     0.113 C 
BRANCH  77  78
ATOM     78  C   UNL A   1      33.940  24.642  25.563  1.00  0.00     0.054 C 
BRANCH  78  79
ATOM     79  C   UNL A   1      35.148  23.815  25.189  1.00  0.00    -0.044 A 
ATOM     80  C   UNL A   1      35.535  23.703  23.848  1.00  0.00     0.024 A 
ATOM     81  C   UNL A   1      35.881  23.094  26.137  1.00  0.00     0.024 A 
ATOM     82  C   UNL A   1      36.654  22.945  23.529  1.00  0.00     0.111 A 
ATOM     83  C   UNL A   1      36.992  22.373  25.724  1.00  0.00     0.111 A 
ATOM     84  N   UNL A   1      37.402  22.296  24.443  1.00  0.00    -0.265 NA
ENDBRANCH  78  79
ENDBRANCH  77  78
BRANCH  77  85
ATOM     85  C   UNL A   1      32.376  22.696  24.709  1.00  0.00    -0.035 A 
ATOM     86  C   UNL A   1      32.448  21.520  25.469  1.00  0.00     0.006 A 
ATOM     87  C   UNL A   1      32.124  22.562  23.330  1.00  0.00     0.006 A 
ATOM     88  C   UNL A   1      32.405  20.260  24.864  1.00  0.00     0.021 A 
ATOM     89  C   UNL A   1      32.052  21.306  22.723  1.00  0.00     0.021 A 
ATOM     90  C   UNL A   1      32.219  20.159  23.490  1.00  0.00     0.041 A 
ATOM     91  Cl  UNL A   1      32.182  18.611  22.741  1.00  0.00    -0.084 Cl
ENDBRANCH  77  85
ENDBRANCH  74  77
ENDBRANCH  72  73
ENDBRANCH  71  72
ENDBRANCH   1  71
TORSDOF 16
ENDMDL
MODEL 3
REMARK VINA RESULT:     -11.7      5.335      9.976
REMARK SMILES O=C(NCCCNC(=O)[C@@H](Cc1ccncc1)c1ccc(Cl)cc1)c1ccc(-c2c3nc(c(-c4cccc(S(=O)(=O)[O-])c4F)c4ccc([nH]4)c(-c4cccc(S(=O)(=O)[O-])c4F)c4nc(c(-c5cccc(S(=O)(=O)[O-])c5F)c5ccc2[nH]5)C=C4)C=C3)cc1
REMARK SMILES IDX 4 1 3 2 1 3 2 4 25 6 26 7 87 8 27 9 86 10 28 11 29 12 30 13
REMARK SMILES IDX 80 14 31 15 85 16 79 17 81 18 32 19 84 20 78 21 77 22 33 24
REMARK SMILES IDX 65 25 45 26 64 27 46 28 49 29 63 30 82 31 47 32 48 33 62 35
REMARK SMILES IDX 83 36 50 37 34 38 35 39 43 40 36 41 38 42 44 43 37 44 39 45
REMARK SMILES IDX 40 46 41 47 42 48 66 49 67 50 75 51 68 52 70 53 76 54 69 55
REMARK SMILES IDX 71 56 72 57 73 58 74 59 51 60 52 61 60 62 53 63 55 64 61 65
REMARK SMILES IDX 54 66 56 67 57 68 58 69 59 70 5 71 6 72 7 73 8 74 9 76 10 77
REMARK SMILES IDX 11 78 12 79 13 80 17 81 14 82 16 83 15 84 18 85 19 86 24 87
REMARK SMILES IDX 20 88 23 89 21 90 22 91
REMARK H PARENT 3 5 81 23 49 34 7 75
REMARK Flexibility Score: inf
ROOT
ATOM      1  C   UNL A   1      35.610  22.256  25.844  1.00  0.00     0.118 C 
ENDROOT
BRANCH   1   2
ATOM      2  N   UNL A   1      36.605  21.204  25.710  1.00  0.00    -0.352 N 
ATOM      3  O   UNL A   1      38.574  20.210  25.372  1.00  0.00    -0.269 OA
ATOM      4  C   UNL A   1      37.981  21.230  25.726  1.00  0.00     0.251 C 
ATOM      5  H   UNL A   1      36.223  20.305  25.585  1.00  0.00     0.163 HD
BRANCH   4   6
ATOM      6  C   UNL A   1      38.760  22.436  26.116  1.00  0.00     0.039 A 
ATOM      7  C   UNL A   1      38.348  23.726  25.799  1.00  0.00     0.014 A 
ATOM      8  C   UNL A   1      39.906  22.276  26.907  1.00  0.00     0.014 A 
ATOM      9  C   UNL A   1      39.149  24.824  26.102  1.00  0.00     0.010 A 
ATOM     10  C   UNL A   1      40.638  23.395  27.336  1.00  0.00     0.010 A 
ATOM     11  C   UNL A   1      40.286  24.683  26.910  1.00  0.00    -0.014 A 
BRANCH  11  12
ATOM     12  C   UNL A   1      41.015  25.906  27.351  1.00  0.00     0.031 A 
ATOM     13  C   UNL A   1      42.422  26.194  26.896  1.00  0.00     0.074 A 
ATOM     14  C   UNL A   1      40.386  26.783  28.164  1.00  0.00     0.049 A 
ATOM     15  N   UNL A   1      43.169  27.238  27.152  1.00  0.00    -0.248 NA
ATOM     16  C   UNL A   1      43.084  25.179  26.063  1.00  0.00     0.031 C 
ATOM     17  C   UNL A   1      39.043  26.598  28.726  1.00  0.00     0.029 A 
ATOM     18  N   UNL A   1      40.774  28.008  28.649  1.00  0.00    -0.354 N 
ATOM     19  C   UNL A   1      44.402  26.983  26.564  1.00  0.00     0.074 A 
ATOM     20  C   UNL A   1      44.306  25.681  25.941  1.00  0.00     0.031 C 
ATOM     21  C   UNL A   1      38.697  27.690  29.421  1.00  0.00     0.029 A 
ATOM     22  C   UNL A   1      39.815  28.625  29.420  1.00  0.00     0.049 A 
ATOM     23  H   UNL A   1      41.654  28.406  28.463  1.00  0.00     0.167 HD
ATOM     24  C   UNL A   1      45.509  27.765  26.533  1.00  0.00     0.034 A 
ATOM     25  C   UNL A   1      39.829  29.808  30.066  1.00  0.00     0.034 A 
ATOM     26  C   UNL A   1      45.585  29.084  27.107  1.00  0.00     0.049 A 
ATOM     27  C   UNL A   1      41.051  30.673  29.970  1.00  0.00     0.074 A 
ATOM     28  C   UNL A   1      46.636  29.984  27.056  1.00  0.00     0.029 A 
ATOM     29  N   UNL A   1      44.577  29.690  27.842  1.00  0.00    -0.354 N 
ATOM     30  N   UNL A   1      42.157  30.466  29.298  1.00  0.00    -0.248 NA
ATOM     31  C   UNL A   1      41.020  31.946  30.703  1.00  0.00     0.031 C 
ATOM     32  C   UNL A   1      46.272  31.125  27.781  1.00  0.00     0.029 A 
ATOM     33  C   UNL A   1      44.984  30.949  28.257  1.00  0.00     0.049 A 
ATOM     34  H   UNL A   1      43.702  29.287  28.039  1.00  0.00     0.167 HD
ATOM     35  C   UNL A   1      42.939  31.596  29.497  1.00  0.00     0.074 A 
ATOM     36  C   UNL A   1      42.169  32.495  30.333  1.00  0.00     0.031 C 
ATOM     37  C   UNL A   1      44.189  31.857  29.043  1.00  0.00     0.034 A 
BRANCH  24  38
ATOM     38  C   UNL A   1      46.730  27.231  25.827  1.00  0.00     0.023 A 
ATOM     39  C   UNL A   1      47.540  26.264  26.457  1.00  0.00     0.012 A 
ATOM     40  C   UNL A   1      47.039  27.638  24.513  1.00  0.00     0.148 A 
ATOM     41  C   UNL A   1      48.657  25.738  25.806  1.00  0.00     0.002 A 
ATOM     42  C   UNL A   1      48.126  27.075  23.854  1.00  0.00     0.091 A 
ATOM     43  F   UNL A   1      46.269  28.572  23.935  1.00  0.00    -0.205 F 
ATOM     44  C   UNL A   1      48.942  26.135  24.503  1.00  0.00     0.022 A 
BRANCH  42  45
ATOM     45  S   UNL A   1      48.525  27.459  22.144  1.00  0.00     0.127 S 
ATOM     46  O   UNL A   1      47.366  28.254  21.740  1.00  0.00    -0.237 OA
ATOM     47  O   UNL A   1      49.768  28.221  22.281  1.00  0.00    -0.237 OA
ATOM     48  O   UNL A   1      48.673  26.178  21.468  1.00  0.00    -0.744 OA
ENDBRANCH  42  45
ENDBRANCH  24  38
BRANCH  25  49
ATOM     49  C   UNL A   1      38.623  30.262  30.817  1.00  0.00     0.023 A 
ATOM     50  C   UNL A   1      38.485  29.920  32.177  1.00  0.00     0.012 A 
ATOM     51  C   UNL A   1      37.633  31.054  30.205  1.00  0.00     0.148 A 
ATOM     52  C   UNL A   1      37.369  30.336  32.904  1.00  0.00     0.002 A 
ATOM     53  C   UNL A   1      36.556  31.516  30.952  1.00  0.00     0.091 A 
ATOM     54  F   UNL A   1      37.773  31.356  28.906  1.00  0.00    -0.205 F 
ATOM     55  C   UNL A   1      36.411  31.142  32.296  1.00  0.00     0.022 A 
BRANCH  53  56
ATOM     56  S   UNL A   1      35.353  32.673  30.288  1.00  0.00     0.127 S 
ATOM     57  O   UNL A   1      34.854  31.951  29.123  1.00  0.00    -0.237 OA
ATOM     58  O   UNL A   1      34.404  32.791  31.396  1.00  0.00    -0.237 OA
ATOM     59  O   UNL A   1      36.099  33.894  30.008  1.00  0.00    -0.744 OA
ENDBRANCH  53  56
ENDBRANCH  25  49
BRANCH  37  60
ATOM     60  C   UNL A   1      44.790  33.192  29.399  1.00  0.00     0.023 A 
ATOM     61  C   UNL A   1      45.571  33.325  30.564  1.00  0.00     0.012 A 
ATOM     62  C   UNL A   1      44.623  34.302  28.548  1.00  0.00     0.148 A 
ATOM     63  C   UNL A   1      46.143  34.552  30.899  1.00  0.00     0.002 A 
ATOM     64  C   UNL A   1      45.239  35.509  28.861  1.00  0.00     0.091 A 
ATOM     65  F   UNL A   1      43.858  34.163  27.456  1.00  0.00    -0.205 F 
ATOM     66  C   UNL A   1      45.986  35.639  30.043  1.00  0.00     0.022 A 
BRANCH  64  67
ATOM     67  S   UNL A   1      45.168  36.928  27.762  1.00  0.00     0.127 S 
ATOM     68  O   UNL A   1      43.736  37.230  27.759  1.00  0.00    -0.237 OA
ATOM     69  O   UNL A   1      45.994  37.910  28.471  1.00  0.00    -0.237 OA
ATOM     70  O   UNL A   1      45.719  36.482  26.496  1.00  0.00    -0.744 OA
ENDBRANCH  64  67
ENDBRANCH  37  60
ENDBRANCH  11  12
ENDBRANCH   4   6
ENDBRANCH   1   2
BRANCH   1  71
ATOM     71  C   UNL A   1      34.259  21.724  26.298  1.00  0.00     0.042 C 
BRANCH  71  72
ATOM     72  C   UNL A   1      33.843  22.314  27.637  1.00  0.00     0.117 C 
BRANCH  72  73
ATOM     73  N   UNL A   1      32.404  22.526  27.697  1.00  0.00    -0.355 N 
ATOM     74  C   UNL A   1      31.566  23.267  26.927  1.00  0.00     0.227 C 
ATOM     75  H   UNL A   1      31.957  22.044  28.430  1.00  0.00     0.163 HD
ATOM     76  O   UNL A   1      30.366  23.208  27.225  1.00  0.00    -0.274 OA
BRANCH  74  77
ATOM     77  C   UNL A   1      32.018  24.169  25.775  1.00  0.00     0.113 C 
BRANCH  77  78
ATOM     78  C   UNL A   1      31.308  23.819  24.437  1.00  0.00     0.054 C 
BRANCH  78  79
ATOM     79  C   UNL A   1      31.871  24.309  23.124  1.00  0.00    -0.044 A 
ATOM     80  C   UNL A   1      31.429  25.519  22.577  1.00  0.00     0.024 A 
ATOM     81  C   UNL A   1      32.795  23.563  22.384  1.00  0.00     0.024 A 
ATOM     82  C   UNL A   1      31.968  25.954  21.373  1.00  0.00     0.111 A 
ATOM     83  C   UNL A   1      33.286  24.085  21.196  1.00  0.00     0.111 A 
ATOM     84  N   UNL A   1      32.903  25.270  20.684  1.00  0.00    -0.265 NA
ENDBRANCH  78  79
ENDBRANCH  77  78
BRANCH  77  85
ATOM     85  C   UNL A   1      32.285  25.645  26.071  1.00  0.00    -0.035 A 
ATOM     86  C   UNL A   1      33.531  26.262  25.893  1.00  0.00     0.006 A 
ATOM     87  C   UNL A   1      31.217  26.454  26.506  1.00  0.00     0.006 A 
ATOM     88  C   UNL A   1      33.740  27.596  26.258  1.00  0.00     0.021 A 
ATOM     89  C   UNL A   1      31.413  27.795  26.846  1.00  0.00     0.021 A 
ATOM     90  C   UNL A   1      32.681  28.354  26.745  1.00  0.00     0.041 A 
ATOM     91  Cl  UNL A   1      32.940  29.989  27.209  1.00  0.00    -0.084 Cl
ENDBRANCH  77  85
ENDBRANCH  74  77
ENDBRANCH  72  73
ENDBRANCH  71  72
ENDBRANCH   1  71
TORSDOF 16
ENDMDL
