MODEL 1
REMARK VINA RESULT:     -12.3      0.000      0.000
REMARK SMILES CCc1nc(N2CC[N@H+](CC=C(C)C)[C@H](C(=O)NCCCNC(=O)c3ccc(-c4c5nc(c(-c6cccc(S(=O)(=O)[O-])c6F)c6ccc([nH]6)c(-c6cccc(S(=O)(=O)[O-])c6F)c6nc(c(-c7cccc(S(=O)(=O)[O-])c7F)c7ccc4[nH]7)C=C6)C=C5)cc3)C2)no1
REMARK SMILES IDX 20 1 19 2 18 3 16 4 17 5 15 7 6 8 7 9 88 10 8 11 9 12 5 14
REMARK SMILES IDX 3 15 4 16 90 17 89 18 2 19 1 20 10 21 11 22 12 23 13 24
REMARK SMILES IDX 14 25 21 26 22 27 23 28 24 30 25 31 26 32 87 33 27 34 86 35
REMARK SMILES IDX 28 36 29 37 30 38 80 39 31 40 85 41 79 42 81 43 32 44 84 45
REMARK SMILES IDX 78 46 77 47 33 49 65 50 45 51 64 52 46 53 49 54 63 55 82 56
REMARK SMILES IDX 47 57 48 58 62 60 83 61 50 62 34 63 35 64 43 65 36 66 38 67
REMARK SMILES IDX 44 68 37 69 39 70 40 71 41 72 42 73 66 74 67 75 75 76 68 77
REMARK SMILES IDX 70 78 76 79 69 80 71 81 72 82 73 83 74 84 51 85 52 86 60 87
REMARK SMILES IDX 53 88 55 89 61 90 54 91 56 92 57 93 58 94 59 95
REMARK H PARENT 18 6 9 13 22 29 81 48 49 59
REMARK Flexibility Score: inf
ROOT
ATOM      1  C   UNL A   1      31.849  31.485  26.735  1.00  0.00     0.042 C 
ENDROOT
BRANCH   1   2
ATOM      2  C   UNL A   1      32.257  30.064  26.371  1.00  0.00     0.118 C 
BRANCH   2   3
ATOM      3  N   UNL A   1      32.930  29.993  25.084  1.00  0.00    -0.351 N 
ATOM      4  C   UNL A   1      32.933  28.975  24.169  1.00  0.00     0.280 C 
ATOM      5  O   UNL A   1      33.535  29.156  23.108  1.00  0.00    -0.268 OA
ATOM      6  H   UNL A   1      33.456  30.788  24.837  1.00  0.00     0.163 HD
BRANCH   4   7
ATOM      7  C   UNL A   1      32.155  27.682  24.469  1.00  0.00     0.294 C 
ATOM      8  N   UNL A   1      32.085  25.229  23.978  1.00  0.00    -0.326 N 
ATOM      9  C   UNL A   1      30.663  25.314  23.662  1.00  0.00     0.181 C 
ATOM     10  C   UNL A   1      32.876  26.459  23.840  1.00  0.00     0.195 C 
ATOM     11  C   UNL A   1      30.018  26.541  24.342  1.00  0.00     0.284 C 
ATOM     12  N   UNL A   1      30.702  27.832  24.144  1.00  0.00    -0.318 N 
ATOM     13  H   UNL A   1      30.350  28.515  24.813  1.00  0.00     0.349 HD
BRANCH   8  14
ATOM     14  C   UNL A   1      32.682  24.019  24.033  1.00  0.00     0.266 A 
ATOM     15  C   UNL A   1      34.296  22.690  24.077  1.00  0.00     0.227 A 
ATOM     16  N   UNL A   1      34.004  23.910  23.696  1.00  0.00    -0.176 NA
ATOM     17  O   UNL A   1      33.218  21.999  24.541  1.00  0.00    -0.337 OA
ATOM     18  N   UNL A   1      32.148  22.884  24.512  1.00  0.00    -0.038 NA
BRANCH  15  19
ATOM     19  C   UNL A   1      35.619  22.039  24.216  1.00  0.00     0.097 C 
ATOM     20  C   UNL A   1      35.563  20.714  24.955  1.00  0.00     0.014 C 
ENDBRANCH  15  19
ENDBRANCH   8  14
BRANCH  12  21
ATOM     21  C   UNL A   1      30.346  28.507  22.894  1.00  0.00     0.291 C 
BRANCH  21  22
ATOM     22  C   UNL A   1      29.619  29.813  23.014  1.00  0.00     0.032 C 
ATOM     23  C   UNL A   1      28.285  29.996  23.084  1.00  0.00    -0.075 C 
ATOM     24  C   UNL A   1      27.702  31.381  23.098  1.00  0.00     0.039 C 
ATOM     25  C   UNL A   1      27.293  28.868  23.087  1.00  0.00     0.039 C 
ENDBRANCH  21  22
ENDBRANCH  12  21
ENDBRANCH   4   7
ENDBRANCH   2   3
ENDBRANCH   1   2
BRANCH   1  26
ATOM     26  C   UNL A   1      32.958  32.325  27.359  1.00  0.00     0.118 C 
BRANCH  26  27
ATOM     27  N   UNL A   1      32.554  33.694  27.653  1.00  0.00    -0.352 N 
ATOM     28  C   UNL A   1      33.074  34.572  28.579  1.00  0.00     0.251 C 
ATOM     29  H   UNL A   1      31.805  34.040  27.115  1.00  0.00     0.163 HD
ATOM     30  O   UNL A   1      32.536  35.654  28.769  1.00  0.00    -0.269 OA
BRANCH  28  31
ATOM     31  C   UNL A   1      34.269  34.185  29.364  1.00  0.00     0.039 A 
ATOM     32  C   UNL A   1      34.097  33.468  30.552  1.00  0.00     0.014 A 
ATOM     33  C   UNL A   1      35.552  34.507  28.917  1.00  0.00     0.014 A 
ATOM     34  C   UNL A   1      35.216  33.002  31.250  1.00  0.00     0.010 A 
ATOM     35  C   UNL A   1      36.662  33.985  29.574  1.00  0.00     0.010 A 
ATOM     36  C   UNL A   1      36.507  33.224  30.745  1.00  0.00    -0.014 A 
BRANCH  36  37
ATOM     37  C   UNL A   1      37.723  32.676  31.402  1.00  0.00     0.031 A 
ATOM     38  C   UNL A   1      38.448  31.518  30.772  1.00  0.00     0.074 A 
ATOM     39  C   UNL A   1      38.089  33.123  32.620  1.00  0.00     0.049 A 
ATOM     40  N   UNL A   1      39.401  30.773  31.267  1.00  0.00    -0.248 NA
ATOM     41  C   UNL A   1      38.022  31.128  29.417  1.00  0.00     0.031 C 
ATOM     42  C   UNL A   1      37.434  34.202  33.361  1.00  0.00     0.029 A 
ATOM     43  N   UNL A   1      39.077  32.688  33.472  1.00  0.00    -0.354 N 
ATOM     44  C   UNL A   1      39.648  29.793  30.313  1.00  0.00     0.074 A 
ATOM     45  C   UNL A   1      38.736  30.029  29.216  1.00  0.00     0.031 C 
ATOM     46  C   UNL A   1      38.024  34.335  34.560  1.00  0.00     0.029 A 
ATOM     47  C   UNL A   1      39.071  33.325  34.692  1.00  0.00     0.049 A 
ATOM     48  H   UNL A   1      39.726  31.988  33.232  1.00  0.00     0.167 HD
ATOM     49  C   UNL A   1      40.566  28.798  30.339  1.00  0.00     0.034 A 
ATOM     50  C   UNL A   1      39.808  33.105  35.800  1.00  0.00     0.034 A 
ATOM     51  C   UNL A   1      41.510  28.603  31.403  1.00  0.00     0.049 A 
ATOM     52  C   UNL A   1      40.851  32.019  35.785  1.00  0.00     0.074 A 
ATOM     53  C   UNL A   1      42.535  27.676  31.483  1.00  0.00     0.029 A 
ATOM     54  N   UNL A   1      41.548  29.345  32.573  1.00  0.00    -0.354 N 
ATOM     55  N   UNL A   1      41.159  31.187  34.820  1.00  0.00    -0.248 NA
ATOM     56  C   UNL A   1      41.668  31.859  36.998  1.00  0.00     0.031 C 
ATOM     57  C   UNL A   1      43.184  27.850  32.709  1.00  0.00     0.029 A 
ATOM     58  C   UNL A   1      42.580  28.900  33.380  1.00  0.00     0.049 A 
ATOM     59  H   UNL A   1      40.933  30.081  32.796  1.00  0.00     0.167 HD
ATOM     60  C   UNL A   1      42.236  30.442  35.288  1.00  0.00     0.074 A 
ATOM     61  C   UNL A   1      42.529  30.922  36.622  1.00  0.00     0.031 C 
ATOM     62  C   UNL A   1      42.912  29.444  34.672  1.00  0.00     0.034 A 
BRANCH  49  63
ATOM     63  C   UNL A   1      40.632  27.871  29.154  1.00  0.00     0.023 A 
ATOM     64  C   UNL A   1      39.725  26.796  29.061  1.00  0.00     0.012 A 
ATOM     65  C   UNL A   1      41.539  28.104  28.102  1.00  0.00     0.148 A 
ATOM     66  C   UNL A   1      39.744  25.945  27.957  1.00  0.00     0.002 A 
ATOM     67  C   UNL A   1      41.521  27.280  26.983  1.00  0.00     0.091 A 
ATOM     68  F   UNL A   1      42.407  29.120  28.217  1.00  0.00    -0.205 F 
ATOM     69  C   UNL A   1      40.632  26.194  26.914  1.00  0.00     0.022 A 
BRANCH  67  70
ATOM     70  S   UNL A   1      42.569  27.566  25.552  1.00  0.00     0.127 S 
ATOM     71  O   UNL A   1      43.901  27.555  26.156  1.00  0.00    -0.237 OA
ATOM     72  O   UNL A   1      42.270  26.405  24.713  1.00  0.00    -0.237 OA
ATOM     73  O   UNL A   1      42.145  28.842  24.994  1.00  0.00    -0.744 OA
ENDBRANCH  67  70
ENDBRANCH  49  63
BRANCH  50  74
ATOM     74  C   UNL A   1      39.625  33.970  37.001  1.00  0.00     0.023 A 
ATOM     75  C   UNL A   1      40.076  35.305  36.960  1.00  0.00     0.012 A 
ATOM     76  C   UNL A   1      38.996  33.495  38.167  1.00  0.00     0.148 A 
ATOM     77  C   UNL A   1      39.932  36.139  38.069  1.00  0.00     0.002 A 
ATOM     78  C   UNL A   1      38.807  34.347  39.249  1.00  0.00     0.091 A 
ATOM     79  F   UNL A   1      38.584  32.219  38.192  1.00  0.00    -0.205 F 
ATOM     80  C   UNL A   1      39.290  35.664  39.209  1.00  0.00     0.022 A 
BRANCH  78  81
ATOM     81  S   UNL A   1      37.877  33.860  40.708  1.00  0.00     0.127 S 
ATOM     82  O   UNL A   1      38.851  33.039  41.423  1.00  0.00    -0.237 OA
ATOM     83  O   UNL A   1      37.586  35.153  41.328  1.00  0.00    -0.237 OA
ATOM     84  O   UNL A   1      36.702  33.161  40.206  1.00  0.00    -0.744 OA
ENDBRANCH  78  81
ENDBRANCH  50  74
BRANCH  62  85
ATOM     85  C   UNL A   1      44.089  28.833  35.384  1.00  0.00     0.023 A 
ATOM     86  C   UNL A   1      45.367  29.410  35.255  1.00  0.00     0.012 A 
ATOM     87  C   UNL A   1      43.897  27.764  36.283  1.00  0.00     0.148 A 
ATOM     88  C   UNL A   1      46.440  28.923  35.999  1.00  0.00     0.002 A 
ATOM     89  C   UNL A   1      44.960  27.315  37.056  1.00  0.00     0.091 A 
ATOM     90  F   UNL A   1      42.675  27.221  36.375  1.00  0.00    -0.205 F 
ATOM     91  C   UNL A   1      46.234  27.888  36.909  1.00  0.00     0.022 A 
BRANCH  89  92
ATOM     92  S   UNL A   1      44.768  26.057  38.324  1.00  0.00     0.127 S 
ATOM     93  O   UNL A   1      46.135  25.929  38.826  1.00  0.00    -0.237 OA
ATOM     94  O   UNL A   1      43.834  26.694  39.252  1.00  0.00    -0.237 OA
ATOM     95  O   UNL A   1      44.243  24.879  37.648  1.00  0.00    -0.744 OA
ENDBRANCH  89  92
ENDBRANCH  62  85
ENDBRANCH  36  37
ENDBRANCH  28  31
ENDBRANCH  26  27
ENDBRANCH   1  26
TORSDOF 17
ENDMDL
MODEL 2
REMARK VINA RESULT:     -12.0      5.829     12.124
REMARK SMILES CCc1nc(N2CC[N@H+](CC=C(C)C)[C@H](C(=O)NCCCNC(=O)c3ccc(-c4c5nc(c(-c6cccc(S(=O)(=O)[O-])c6F)c6ccc([nH]6)c(-c6cccc(S(=O)(=O)[O-])c6F)c6nc(c(-c7cccc(S(=O)(=O)[O-])c7F)c7ccc4[nH]7)C=C6)C=C5)cc3)C2)no1
REMARK SMILES IDX 20 1 19 2 18 3 16 4 17 5 15 7 6 8 7 9 88 10 8 11 9 12 5 14
REMARK SMILES IDX 3 15 4 16 90 17 89 18 2 19 1 20 10 21 11 22 12 23 13 24
REMARK SMILES IDX 14 25 21 26 22 27 23 28 24 30 25 31 26 32 87 33 27 34 86 35
REMARK SMILES IDX 28 36 29 37 30 38 80 39 31 40 85 41 79 42 81 43 32 44 84 45
REMARK SMILES IDX 78 46 77 47 33 49 65 50 45 51 64 52 46 53 49 54 63 55 82 56
REMARK SMILES IDX 47 57 48 58 62 60 83 61 50 62 34 63 35 64 43 65 36 66 38 67
REMARK SMILES IDX 44 68 37 69 39 70 40 71 41 72 42 73 66 74 67 75 75 76 68 77
REMARK SMILES IDX 70 78 76 79 69 80 71 81 72 82 73 83 74 84 51 85 52 86 60 87
REMARK SMILES IDX 53 88 55 89 61 90 54 91 56 92 57 93 58 94 59 95
REMARK H PARENT 18 6 9 13 22 29 81 48 49 59
REMARK Flexibility Score: inf
ROOT
ATOM      1  C   UNL A   1      37.881  20.554  25.108  1.00  0.00     0.042 C 
ENDROOT
BRANCH   1   2
ATOM      2  C   UNL A   1      36.848  21.663  25.258  1.00  0.00     0.118 C 
BRANCH   2   3
ATOM      3  N   UNL A   1      35.937  21.424  26.366  1.00  0.00    -0.351 N 
ATOM      4  C   UNL A   1      34.598  21.693  26.452  1.00  0.00     0.280 C 
ATOM      5  O   UNL A   1      34.007  21.352  27.480  1.00  0.00    -0.268 OA
ATOM      6  H   UNL A   1      36.340  21.012  27.165  1.00  0.00     0.163 HD
BRANCH   4   7
ATOM      7  C   UNL A   1      33.878  22.353  25.264  1.00  0.00     0.294 C 
ATOM      8  N   UNL A   1      31.978  23.868  24.666  1.00  0.00    -0.326 N 
ATOM      9  C   UNL A   1      31.512  22.918  23.662  1.00  0.00     0.181 C 
ATOM     10  C   UNL A   1      32.786  23.333  25.770  1.00  0.00     0.195 C 
ATOM     11  C   UNL A   1      32.661  21.998  23.195  1.00  0.00     0.284 C 
ATOM     12  N   UNL A   1      33.439  21.336  24.258  1.00  0.00    -0.318 N 
ATOM     13  H   UNL A   1      34.301  20.957  23.870  1.00  0.00     0.349 HD
BRANCH   8  14
ATOM     14  C   UNL A   1      31.391  25.081  24.756  1.00  0.00     0.266 A 
ATOM     15  C   UNL A   1      31.333  27.159  24.981  1.00  0.00     0.227 A 
ATOM     16  N   UNL A   1      32.109  26.136  25.249  1.00  0.00    -0.176 NA
ATOM     17  O   UNL A   1      30.137  26.799  24.441  1.00  0.00    -0.337 OA
ATOM     18  N   UNL A   1      30.177  25.419  24.292  1.00  0.00    -0.038 NA
BRANCH  15  19
ATOM     19  C   UNL A   1      31.635  28.608  25.037  1.00  0.00     0.097 C 
ATOM     20  C   UNL A   1      33.068  28.908  25.441  1.00  0.00     0.014 C 
ENDBRANCH  15  19
ENDBRANCH   8  14
BRANCH  12  21
ATOM     21  C   UNL A   1      32.832  20.099  24.756  1.00  0.00     0.291 C 
BRANCH  21  22
ATOM     22  C   UNL A   1      33.558  18.821  24.457  1.00  0.00     0.032 C 
ATOM     23  C   UNL A   1      33.326  17.976  23.432  1.00  0.00    -0.075 C 
ATOM     24  C   UNL A   1      34.075  16.678  23.326  1.00  0.00     0.039 C 
ATOM     25  C   UNL A   1      32.286  18.221  22.377  1.00  0.00     0.039 C 
ENDBRANCH  21  22
ENDBRANCH  12  21
ENDBRANCH   4   7
ENDBRANCH   2   3
ENDBRANCH   1   2
BRANCH   1  26
ATOM     26  C   UNL A   1      39.163  20.766  25.906  1.00  0.00     0.118 C 
BRANCH  26  27
ATOM     27  N   UNL A   1      40.047  19.608  25.904  1.00  0.00    -0.352 N 
ATOM     28  C   UNL A   1      41.414  19.559  26.077  1.00  0.00     0.251 C 
ATOM     29  H   UNL A   1      39.608  18.739  25.757  1.00  0.00     0.163 HD
ATOM     30  O   UNL A   1      42.014  18.503  25.933  1.00  0.00    -0.269 OA
BRANCH  28  31
ATOM     31  C   UNL A   1      42.154  20.799  26.409  1.00  0.00     0.039 A 
ATOM     32  C   UNL A   1      42.602  21.619  25.369  1.00  0.00     0.014 A 
ATOM     33  C   UNL A   1      42.382  21.161  27.738  1.00  0.00     0.014 A 
ATOM     34  C   UNL A   1      43.208  22.844  25.663  1.00  0.00     0.010 A 
ATOM     35  C   UNL A   1      42.922  22.410  28.028  1.00  0.00     0.010 A 
ATOM     36  C   UNL A   1      43.337  23.268  26.996  1.00  0.00    -0.014 A 
BRANCH  36  37
ATOM     37  C   UNL A   1      43.894  24.597  27.358  1.00  0.00     0.031 A 
ATOM     38  C   UNL A   1      42.980  25.662  27.897  1.00  0.00     0.074 A 
ATOM     39  C   UNL A   1      45.180  24.889  27.075  1.00  0.00     0.049 A 
ATOM     40  N   UNL A   1      43.216  26.933  28.091  1.00  0.00    -0.248 NA
ATOM     41  C   UNL A   1      41.607  25.249  28.232  1.00  0.00     0.031 C 
ATOM     42  C   UNL A   1      46.154  23.960  26.499  1.00  0.00     0.029 A 
ATOM     43  N   UNL A   1      45.875  26.069  27.189  1.00  0.00    -0.354 N 
ATOM     44  C   UNL A   1      42.011  27.481  28.515  1.00  0.00     0.074 A 
ATOM     45  C   UNL A   1      41.041  26.408  28.535  1.00  0.00     0.031 C 
ATOM     46  C   UNL A   1      47.313  24.607  26.295  1.00  0.00     0.029 A 
ATOM     47  C   UNL A   1      47.154  26.005  26.685  1.00  0.00     0.049 A 
ATOM     48  H   UNL A   1      45.494  26.882  27.592  1.00  0.00     0.167 HD
ATOM     49  C   UNL A   1      41.740  28.758  28.873  1.00  0.00     0.034 A 
ATOM     50  C   UNL A   1      48.086  26.969  26.531  1.00  0.00     0.034 A 
ATOM     51  C   UNL A   1      42.721  29.808  28.908  1.00  0.00     0.049 A 
ATOM     52  C   UNL A   1      47.772  28.372  26.978  1.00  0.00     0.074 A 
ATOM     53  C   UNL A   1      42.565  31.114  29.338  1.00  0.00     0.029 A 
ATOM     54  N   UNL A   1      44.038  29.674  28.501  1.00  0.00    -0.354 N 
ATOM     55  N   UNL A   1      46.665  28.842  27.501  1.00  0.00    -0.248 NA
ATOM     56  C   UNL A   1      48.842  29.373  26.844  1.00  0.00     0.031 C 
ATOM     57  C   UNL A   1      43.787  31.774  29.177  1.00  0.00     0.029 A 
ATOM     58  C   UNL A   1      44.708  30.872  28.670  1.00  0.00     0.049 A 
ATOM     59  H   UNL A   1      44.438  28.848  28.144  1.00  0.00     0.167 HD
ATOM     60  C   UNL A   1      46.921  30.174  27.804  1.00  0.00     0.074 A 
ATOM     61  C   UNL A   1      48.289  30.438  27.410  1.00  0.00     0.031 C 
ATOM     62  C   UNL A   1      46.094  31.097  28.350  1.00  0.00     0.034 A 
BRANCH  49  63
ATOM     63  C   UNL A   1      40.337  29.084  29.310  1.00  0.00     0.023 A 
ATOM     64  C   UNL A   1      39.386  29.488  28.350  1.00  0.00     0.012 A 
ATOM     65  C   UNL A   1      39.941  28.924  30.652  1.00  0.00     0.148 A 
ATOM     66  C   UNL A   1      38.072  29.761  28.725  1.00  0.00     0.002 A 
ATOM     67  C   UNL A   1      38.617  29.154  31.009  1.00  0.00     0.091 A 
ATOM     68  F   UNL A   1      40.863  28.559  31.553  1.00  0.00    -0.205 F 
ATOM     69  C   UNL A   1      37.685  29.582  30.050  1.00  0.00     0.022 A 
BRANCH  67  70
ATOM     70  S   UNL A   1      38.001  28.874  32.674  1.00  0.00     0.127 S 
ATOM     71  O   UNL A   1      36.628  29.365  32.567  1.00  0.00    -0.237 OA
ATOM     72  O   UNL A   1      38.121  27.422  32.808  1.00  0.00    -0.237 OA
ATOM     73  O   UNL A   1      38.872  29.638  33.557  1.00  0.00    -0.744 OA
ENDBRANCH  67  70
ENDBRANCH  49  63
BRANCH  50  74
ATOM     74  C   UNL A   1      49.428  26.627  25.978  1.00  0.00     0.023 A 
ATOM     75  C   UNL A   1      50.302  25.829  26.742  1.00  0.00     0.012 A 
ATOM     76  C   UNL A   1      49.837  27.065  24.704  1.00  0.00     0.148 A 
ATOM     77  C   UNL A   1      51.570  25.499  26.261  1.00  0.00     0.002 A 
ATOM     78  C   UNL A   1      51.079  26.688  24.208  1.00  0.00     0.091 A 
ATOM     79  F   UNL A   1      48.997  27.834  23.996  1.00  0.00    -0.205 F 
ATOM     80  C   UNL A   1      51.954  25.920  24.992  1.00  0.00     0.022 A 
BRANCH  78  81
ATOM     81  S   UNL A   1      51.606  27.076  22.533  1.00  0.00     0.127 S 
ATOM     82  O   UNL A   1      50.425  26.714  21.756  1.00  0.00    -0.237 OA
ATOM     83  O   UNL A   1      51.870  28.513  22.623  1.00  0.00    -0.237 OA
ATOM     84  O   UNL A   1      52.794  26.265  22.301  1.00  0.00    -0.744 OA
ENDBRANCH  78  81
ENDBRANCH  50  74
BRANCH  62  85
ATOM     85  C   UNL A   1      46.643  32.470  28.631  1.00  0.00     0.023 A 
ATOM     86  C   UNL A   1      47.257  32.743  29.868  1.00  0.00     0.012 A 
ATOM     87  C   UNL A   1      46.662  33.447  27.615  1.00  0.00     0.148 A 
ATOM     88  C   UNL A   1      47.869  33.975  30.095  1.00  0.00     0.002 A 
ATOM     89  C   UNL A   1      47.316  34.654  27.832  1.00  0.00     0.091 A 
ATOM     90  F   UNL A   1      46.056  33.169  26.451  1.00  0.00    -0.205 F 
ATOM     91  C   UNL A   1      47.912  34.922  29.075  1.00  0.00     0.022 A 
BRANCH  89  92
ATOM     92  S   UNL A   1      47.509  35.892  26.545  1.00  0.00     0.127 S 
ATOM     93  O   UNL A   1      46.119  36.239  26.254  1.00  0.00    -0.237 OA
ATOM     94  O   UNL A   1      48.269  36.936  27.233  1.00  0.00    -0.237 OA
ATOM     95  O   UNL A   1      48.226  35.237  25.459  1.00  0.00    -0.744 OA
ENDBRANCH  89  92
ENDBRANCH  62  85
ENDBRANCH  36  37
ENDBRANCH  28  31
ENDBRANCH  26  27
ENDBRANCH   1  26
TORSDOF 17
ENDMDL
MODEL 3
REMARK VINA RESULT:     -12.0      1.496      1.867
REMARK SMILES CCc1nc(N2CC[N@H+](CC=C(C)C)[C@H](C(=O)NCCCNC(=O)c3ccc(-c4c5nc(c(-c6cccc(S(=O)(=O)[O-])c6F)c6ccc([nH]6)c(-c6cccc(S(=O)(=O)[O-])c6F)c6nc(c(-c7cccc(S(=O)(=O)[O-])c7F)c7ccc4[nH]7)C=C6)C=C5)cc3)C2)no1
REMARK SMILES IDX 20 1 19 2 18 3 16 4 17 5 15 7 6 8 7 9 88 10 8 11 9 12 5 14
REMARK SMILES IDX 3 15 4 16 90 17 89 18 2 19 1 20 10 21 11 22 12 23 13 24
REMARK SMILES IDX 14 25 21 26 22 27 23 28 24 30 25 31 26 32 87 33 27 34 86 35
REMARK SMILES IDX 28 36 29 37 30 38 80 39 31 40 85 41 79 42 81 43 32 44 84 45
REMARK SMILES IDX 78 46 77 47 33 49 65 50 45 51 64 52 46 53 49 54 63 55 82 56
REMARK SMILES IDX 47 57 48 58 62 60 83 61 50 62 34 63 35 64 43 65 36 66 38 67
REMARK SMILES IDX 44 68 37 69 39 70 40 71 41 72 42 73 66 74 67 75 75 76 68 77
REMARK SMILES IDX 70 78 76 79 69 80 71 81 72 82 73 83 74 84 51 85 52 86 60 87
REMARK SMILES IDX 53 88 55 89 61 90 54 91 56 92 57 93 58 94 59 95
REMARK H PARENT 18 6 9 13 22 29 81 48 49 59
REMARK Flexibility Score: inf
ROOT
ATOM      1  C   UNL A   1      31.338  31.516  26.308  1.00  0.00     0.042 C 
ENDROOT
BRANCH   1   2
ATOM      2  C   UNL A   1      31.472  30.086  25.802  1.00  0.00     0.118 C 
BRANCH   2   3
ATOM      3  N   UNL A   1      32.358  29.986  24.654  1.00  0.00    -0.351 N 
ATOM      4  C   UNL A   1      32.621  28.901  23.862  1.00  0.00     0.280 C 
ATOM      5  O   UNL A   1      33.374  29.061  22.898  1.00  0.00    -0.268 OA
ATOM      6  H   UNL A   1      32.835  30.814  24.413  1.00  0.00     0.163 HD
BRANCH   4   7
ATOM      7  C   UNL A   1      31.940  27.556  24.166  1.00  0.00     0.294 C 
ATOM      8  N   UNL A   1      31.993  25.116  23.614  1.00  0.00    -0.326 N 
ATOM      9  C   UNL A   1      30.554  25.120  23.373  1.00  0.00     0.181 C 
ATOM     10  C   UNL A   1      32.700  26.395  23.470  1.00  0.00     0.195 C 
ATOM     11  C   UNL A   1      29.872  26.288  24.117  1.00  0.00     0.284 C 
ATOM     12  N   UNL A   1      30.466  27.623  23.919  1.00  0.00    -0.318 N 
ATOM     13  H   UNL A   1      30.108  28.267  24.623  1.00  0.00     0.349 HD
BRANCH   8  14
ATOM     14  C   UNL A   1      32.664  23.944  23.607  1.00  0.00     0.266 A 
ATOM     15  C   UNL A   1      34.297  22.679  23.941  1.00  0.00     0.227 A 
ATOM     16  N   UNL A   1      34.023  23.951  23.771  1.00  0.00    -0.176 NA
ATOM     17  O   UNL A   1      33.210  21.872  23.796  1.00  0.00    -0.337 OA
ATOM     18  N   UNL A   1      32.127  22.714  23.575  1.00  0.00    -0.038 NA
BRANCH  15  19
ATOM     19  C   UNL A   1      35.549  22.041  24.408  1.00  0.00     0.097 C 
ATOM     20  C   UNL A   1      36.779  22.502  23.646  1.00  0.00     0.014 C 
ENDBRANCH  15  19
ENDBRANCH   8  14
BRANCH  12  21
ATOM     21  C   UNL A   1      30.005  28.304  22.707  1.00  0.00     0.291 C 
BRANCH  21  22
ATOM     22  C   UNL A   1      29.355  29.644  22.890  1.00  0.00     0.032 C 
ATOM     23  C   UNL A   1      28.042  29.890  23.074  1.00  0.00    -0.075 C 
ATOM     24  C   UNL A   1      27.530  31.302  23.139  1.00  0.00     0.039 C 
ATOM     25  C   UNL A   1      27.001  28.811  23.163  1.00  0.00     0.039 C 
ENDBRANCH  21  22
ENDBRANCH  12  21
ENDBRANCH   4   7
ENDBRANCH   2   3
ENDBRANCH   1   2
BRANCH   1  26
ATOM     26  C   UNL A   1      32.634  32.134  26.822  1.00  0.00     0.118 C 
BRANCH  26  27
ATOM     27  N   UNL A   1      32.454  33.454  27.411  1.00  0.00    -0.352 N 
ATOM     28  C   UNL A   1      33.217  34.089  28.368  1.00  0.00     0.251 C 
ATOM     29  H   UNL A   1      31.680  33.964  27.081  1.00  0.00     0.163 HD
ATOM     30  O   UNL A   1      32.854  35.161  28.831  1.00  0.00    -0.269 OA
BRANCH  28  31
ATOM     31  C   UNL A   1      34.463  33.450  28.852  1.00  0.00     0.039 A 
ATOM     32  C   UNL A   1      35.691  34.050  28.560  1.00  0.00     0.014 A 
ATOM     33  C   UNL A   1      34.416  32.279  29.611  1.00  0.00     0.014 A 
ATOM     34  C   UNL A   1      36.868  33.520  29.098  1.00  0.00     0.010 A 
ATOM     35  C   UNL A   1      35.578  31.794  30.202  1.00  0.00     0.010 A 
ATOM     36  C   UNL A   1      36.817  32.410  29.956  1.00  0.00    -0.014 A 
BRANCH  36  37
ATOM     37  C   UNL A   1      38.027  31.863  30.622  1.00  0.00     0.031 A 
ATOM     38  C   UNL A   1      38.832  30.793  29.935  1.00  0.00     0.074 A 
ATOM     39  C   UNL A   1      38.320  32.221  31.888  1.00  0.00     0.049 A 
ATOM     40  N   UNL A   1      39.796  30.051  30.411  1.00  0.00    -0.248 NA
ATOM     41  C   UNL A   1      38.483  30.499  28.535  1.00  0.00     0.031 C 
ATOM     42  C   UNL A   1      37.585  33.206  32.683  1.00  0.00     0.029 A 
ATOM     43  N   UNL A   1      39.290  31.760  32.747  1.00  0.00    -0.354 N 
ATOM     44  C   UNL A   1      40.130  29.165  29.394  1.00  0.00     0.074 A 
ATOM     45  C   UNL A   1      39.255  29.453  28.278  1.00  0.00     0.031 C 
ATOM     46  C   UNL A   1      38.116  33.264  33.915  1.00  0.00     0.029 A 
ATOM     47  C   UNL A   1      39.202  32.293  34.013  1.00  0.00     0.049 A 
ATOM     48  H   UNL A   1      39.980  31.111  32.481  1.00  0.00     0.167 HD
ATOM     49  C   UNL A   1      41.091  28.212  29.381  1.00  0.00     0.034 A 
ATOM     50  C   UNL A   1      39.900  32.013  35.133  1.00  0.00     0.034 A 
ATOM     51  C   UNL A   1      41.996  27.969  30.469  1.00  0.00     0.049 A 
ATOM     52  C   UNL A   1      40.992  30.977  35.078  1.00  0.00     0.074 A 
ATOM     53  C   UNL A   1      43.059  27.084  30.521  1.00  0.00     0.029 A 
ATOM     54  N   UNL A   1      41.950  28.612  31.696  1.00  0.00    -0.354 N 
ATOM     55  N   UNL A   1      41.380  30.242  34.064  1.00  0.00    -0.248 NA
ATOM     56  C   UNL A   1      41.763  30.752  36.311  1.00  0.00     0.031 C 
ATOM     57  C   UNL A   1      43.647  27.182  31.786  1.00  0.00     0.029 A 
ATOM     58  C   UNL A   1      42.965  28.146  32.511  1.00  0.00     0.049 A 
ATOM     59  H   UNL A   1      41.292  29.300  31.948  1.00  0.00     0.167 HD
ATOM     60  C   UNL A   1      42.469  29.508  34.520  1.00  0.00     0.074 A 
ATOM     61  C   UNL A   1      42.682  29.888  35.901  1.00  0.00     0.031 C 
ATOM     62  C   UNL A   1      43.217  28.594  33.857  1.00  0.00     0.034 A 
BRANCH  49  63
ATOM     63  C   UNL A   1      41.251  27.390  28.129  1.00  0.00     0.023 A 
ATOM     64  C   UNL A   1      41.922  27.941  27.018  1.00  0.00     0.012 A 
ATOM     65  C   UNL A   1      40.803  26.057  28.076  1.00  0.00     0.148 A 
ATOM     66  C   UNL A   1      42.114  27.188  25.861  1.00  0.00     0.002 A 
ATOM     67  C   UNL A   1      41.039  25.298  26.935  1.00  0.00     0.091 A 
ATOM     68  F   UNL A   1      40.149  25.557  29.134  1.00  0.00    -0.205 F 
ATOM     69  C   UNL A   1      41.684  25.864  25.824  1.00  0.00     0.022 A 
BRANCH  67  70
ATOM     70  S   UNL A   1      40.595  23.560  26.820  1.00  0.00     0.127 S 
ATOM     71  O   UNL A   1      39.167  23.640  26.517  1.00  0.00    -0.237 OA
ATOM     72  O   UNL A   1      41.430  23.101  25.710  1.00  0.00    -0.237 OA
ATOM     73  O   UNL A   1      40.929  22.975  28.111  1.00  0.00    -0.744 OA
ENDBRANCH  67  70
ENDBRANCH  49  63
BRANCH  50  74
ATOM     74  C   UNL A   1      39.626  32.767  36.390  1.00  0.00     0.023 A 
ATOM     75  C   UNL A   1      40.286  33.992  36.614  1.00  0.00     0.012 A 
ATOM     76  C   UNL A   1      38.710  32.297  37.350  1.00  0.00     0.148 A 
ATOM     77  C   UNL A   1      40.062  34.718  37.784  1.00  0.00     0.002 A 
ATOM     78  C   UNL A   1      38.451  33.051  38.488  1.00  0.00     0.091 A 
ATOM     79  F   UNL A   1      38.101  31.123  37.126  1.00  0.00    -0.205 F 
ATOM     80  C   UNL A   1      39.139  34.253  38.716  1.00  0.00     0.022 A 
BRANCH  78  81
ATOM     81  S   UNL A   1      37.185  32.595  39.680  1.00  0.00     0.127 S 
ATOM     82  O   UNL A   1      37.315  33.655  40.676  1.00  0.00    -0.237 OA
ATOM     83  O   UNL A   1      35.969  32.655  38.869  1.00  0.00    -0.237 OA
ATOM     84  O   UNL A   1      37.538  31.254  40.129  1.00  0.00    -0.744 OA
ENDBRANCH  78  81
ENDBRANCH  50  74
BRANCH  62  85
ATOM     85  C   UNL A   1      44.389  27.978  34.571  1.00  0.00     0.023 A 
ATOM     86  C   UNL A   1      45.625  28.650  34.605  1.00  0.00     0.012 A 
ATOM     87  C   UNL A   1      44.221  26.793  35.315  1.00  0.00     0.148 A 
ATOM     88  C   UNL A   1      46.683  28.144  35.360  1.00  0.00     0.002 A 
ATOM     89  C   UNL A   1      45.265  26.320  36.102  1.00  0.00     0.091 A 
ATOM     90  F   UNL A   1      43.040  26.161  35.253  1.00  0.00    -0.205 F 
ATOM     91  C   UNL A   1      46.499  26.990  36.118  1.00  0.00     0.022 A 
BRANCH  89  92
ATOM     92  S   UNL A   1      45.089  24.900  37.188  1.00  0.00     0.127 S 
ATOM     93  O   UNL A   1      46.428  24.799  37.765  1.00  0.00    -0.237 OA
ATOM     94  O   UNL A   1      44.055  25.351  38.120  1.00  0.00    -0.237 OA
ATOM     95  O   UNL A   1      44.694  23.786  36.337  1.00  0.00    -0.744 OA
ENDBRANCH  89  92
ENDBRANCH  62  85
ENDBRANCH  36  37
ENDBRANCH  28  31
ENDBRANCH  26  27
ENDBRANCH   1  26
TORSDOF 17
ENDMDL
