MODEL 1
REMARK VINA RESULT:     -13.1      0.000      0.000
REMARK SMILES O=C(CCCN1C(=O)C(=O)/C(=C(/[O-])c2ccc(Cl)cc2)[C@@H]1c1ccccc1[N+](=O)[O-])NCCCNC(=O)c1ccc(-c2c3nc(c(-c4cccc(S(=O)(=O)[O-])c4F)c4ccc([nH]4)c(-c4cccc(S(=O)(=O)[O-])c4F)c4nc(c(-c5cccc(S(=O)(=O)[O-])c5F)c5ccc2[nH]5)C=C4)C=C3)cc1
REMARK SMILES IDX 32 1 31 2 1 3 2 4 3 6 4 7 5 8 6 9 7 10 21 11 8 12 9 13 11 14
REMARK SMILES IDX 10 15 12 16 13 17 22 18 23 19 27 20 24 21 26 22 25 23 28 24
REMARK SMILES IDX 29 25 30 26 14 27 15 28 20 29 16 30 19 31 17 32 18 33 33 34
REMARK SMILES IDX 34 35 35 36 36 37 37 39 38 40 39 41 100 42 40 43 99 44 41 45
REMARK SMILES IDX 42 46 43 47 93 48 44 49 98 50 92 51 94 52 45 53 97 54 91 55
REMARK SMILES IDX 90 56 46 58 78 59 58 60 77 61 59 62 62 63 76 64 95 65 60 66
REMARK SMILES IDX 61 67 75 69 96 70 63 71 47 72 48 73 56 74 49 75 51 76 57 77
REMARK SMILES IDX 50 78 52 79 53 80 54 81 55 82 79 83 80 84 88 85 81 86 83 87
REMARK SMILES IDX 89 88 82 89 84 90 85 91 86 92 87 93 64 94 65 95 73 96 66 97
REMARK SMILES IDX 68 98 74 99 67 100 69 101 70 102 71 103 72 104
REMARK H PARENT 31 5 35 38 94 57 62 68
REMARK Flexibility Score: inf
ROOT
ATOM      1  C   UNL A   1      30.327  30.102  24.496  1.00  0.00     0.117 C 
ENDROOT
BRANCH   1   2
ATOM      2  N   UNL A   1      30.675  28.779  24.002  1.00  0.00    -0.356 N 
ATOM      3  O   UNL A   1      29.919  29.150  21.867  1.00  0.00    -0.275 OA
ATOM      4  C   UNL A   1      30.537  28.457  22.668  1.00  0.00     0.220 C 
ATOM      5  H   UNL A   1      31.016  28.103  24.631  1.00  0.00     0.163 HD
BRANCH   4   6
ATOM      6  C   UNL A   1      31.223  27.169  22.263  1.00  0.00     0.102 C 
BRANCH   6   7
ATOM      7  C   UNL A   1      32.709  27.335  21.856  1.00  0.00     0.031 C 
BRANCH   7   8
ATOM      8  C   UNL A   1      33.557  26.083  21.456  1.00  0.00     0.121 C 
BRANCH   8   9
ATOM      9  N   UNL A   1      33.522  25.026  22.440  1.00  0.00    -0.324 N 
ATOM     10  C   UNL A   1      33.429  23.750  21.914  1.00  0.00     0.295 C 
ATOM     11  C   UNL A   1      33.988  25.034  23.862  1.00  0.00     0.157 C 
ATOM     12  O   UNL A   1      33.492  23.369  20.763  1.00  0.00    -0.265 OA
ATOM     13  C   UNL A   1      33.164  22.868  23.083  1.00  0.00     0.248 C 
ATOM     14  C   UNL A   1      33.902  23.503  24.197  1.00  0.00     0.025 C 
ATOM     15  O   UNL A   1      32.346  21.976  23.073  1.00  0.00    -0.283 OA
ATOM     16  C   UNL A   1      34.437  22.669  25.115  1.00  0.00    -0.092 C 
ATOM     17  O   UNL A   1      35.315  23.062  26.098  1.00  0.00    -0.872 OA
BRANCH  11  18
ATOM     18  C   UNL A   1      33.211  25.911  24.898  1.00  0.00     0.057 A 
ATOM     19  C   UNL A   1      34.135  27.334  25.573  1.00  0.00     0.013 A 
ATOM     20  C   UNL A   1      31.616  25.504  25.692  1.00  0.00     0.275 A 
ATOM     21  C   UNL A   1      33.499  28.315  26.984  1.00  0.00     0.001 A 
ATOM     22  C   UNL A   1      30.933  26.532  27.024  1.00  0.00     0.086 A 
ATOM     23  C   UNL A   1      31.882  27.931  27.676  1.00  0.00     0.007 A 
BRANCH  20  24
ATOM     24  N   UNL A   1      30.631  24.605  25.166  1.00  0.00     0.063 N 
ATOM     25  O   UNL A   1      30.597  23.471  25.650  1.00  0.00    -0.258 OA
ATOM     26  O   UNL A   1      29.960  25.004  24.215  1.00  0.00    -0.258 OA
ENDBRANCH  20  24
ENDBRANCH  11  18
BRANCH  16  27
ATOM     27  C   UNL A   1      34.085  21.229  25.213  1.00  0.00    -0.033 A 
ATOM     28  C   UNL A   1      34.927  20.242  24.675  1.00  0.00     0.009 A 
ATOM     29  C   UNL A   1      32.864  20.833  25.786  1.00  0.00     0.009 A 
ATOM     30  C   UNL A   1      34.556  18.892  24.712  1.00  0.00     0.021 A 
ATOM     31  C   UNL A   1      32.498  19.479  25.829  1.00  0.00     0.021 A 
ATOM     32  C   UNL A   1      33.347  18.516  25.292  1.00  0.00     0.041 A 
ATOM     33  Cl  UNL A   1      32.903  16.852  25.338  1.00  0.00    -0.084 Cl
ENDBRANCH  16  27
ENDBRANCH   8   9
ENDBRANCH   7   8
ENDBRANCH   6   7
ENDBRANCH   4   6
ENDBRANCH   1   2
BRANCH   1  34
ATOM     34  C   UNL A   1      31.346  30.706  25.482  1.00  0.00     0.042 C 
BRANCH  34  35
ATOM     35  C   UNL A   1      31.004  32.280  25.994  1.00  0.00     0.118 C 
BRANCH  35  36
ATOM     36  N   UNL A   1      31.952  33.632  27.280  1.00  0.00    -0.352 N 
ATOM     37  C   UNL A   1      33.006  34.029  28.193  1.00  0.00     0.251 C 
ATOM     38  H   UNL A   1      31.367  34.423  27.249  1.00  0.00     0.163 HD
ATOM     39  O   UNL A   1      32.804  35.082  28.812  1.00  0.00    -0.269 OA
BRANCH  37  40
ATOM     40  C   UNL A   1      34.310  33.372  28.427  1.00  0.00     0.039 A 
ATOM     41  C   UNL A   1      35.530  34.017  28.188  1.00  0.00     0.014 A 
ATOM     42  C   UNL A   1      34.284  32.131  29.048  1.00  0.00     0.014 A 
ATOM     43  C   UNL A   1      36.708  33.479  28.734  1.00  0.00     0.010 A 
ATOM     44  C   UNL A   1      35.412  31.707  29.730  1.00  0.00     0.010 A 
ATOM     45  C   UNL A   1      36.651  32.362  29.585  1.00  0.00    -0.014 A 
BRANCH  45  46
ATOM     46  C   UNL A   1      37.826  31.817  30.338  1.00  0.00     0.031 A 
ATOM     47  C   UNL A   1      38.675  30.739  29.693  1.00  0.00     0.074 A 
ATOM     48  C   UNL A   1      38.055  32.140  31.630  1.00  0.00     0.049 A 
ATOM     49  N   UNL A   1      39.565  29.948  30.234  1.00  0.00    -0.248 NA
ATOM     50  C   UNL A   1      38.427  30.461  28.265  1.00  0.00     0.031 C 
ATOM     51  C   UNL A   1      37.280  33.091  32.432  1.00  0.00     0.029 A 
ATOM     52  N   UNL A   1      39.001  31.668  32.516  1.00  0.00    -0.354 N 
ATOM     53  C   UNL A   1      39.905  29.032  29.243  1.00  0.00     0.074 A 
ATOM     54  C   UNL A   1      39.068  29.316  28.100  1.00  0.00     0.031 C 
ATOM     55  C   UNL A   1      37.793  33.149  33.673  1.00  0.00     0.029 A 
ATOM     56  C   UNL A   1      38.900  32.204  33.782  1.00  0.00     0.049 A 
ATOM     57  H   UNL A   1      39.686  31.007  32.267  1.00  0.00     0.167 HD
ATOM     58  C   UNL A   1      40.860  28.074  29.248  1.00  0.00     0.034 A 
ATOM     59  C   UNL A   1      39.606  31.957  34.907  1.00  0.00     0.034 A 
ATOM     60  C   UNL A   1      41.771  27.862  30.335  1.00  0.00     0.049 A 
ATOM     61  C   UNL A   1      40.717  30.937  34.873  1.00  0.00     0.074 A 
ATOM     62  C   UNL A   1      42.859  27.010  30.390  1.00  0.00     0.029 A 
ATOM     63  N   UNL A   1      41.707  28.514  31.555  1.00  0.00    -0.354 N 
ATOM     64  N   UNL A   1      41.114  30.183  33.877  1.00  0.00    -0.248 NA
ATOM     65  C   UNL A   1      41.498  30.754  36.108  1.00  0.00     0.031 C 
ATOM     66  C   UNL A   1      43.433  27.120  31.659  1.00  0.00     0.029 A 
ATOM     67  C   UNL A   1      42.731  28.077  32.373  1.00  0.00     0.049 A 
ATOM     68  H   UNL A   1      41.033  29.188  31.802  1.00  0.00     0.167 HD
ATOM     69  C   UNL A   1      42.216  29.475  34.349  1.00  0.00     0.074 A 
ATOM     70  C   UNL A   1      42.431  29.897  35.717  1.00  0.00     0.031 C 
ATOM     71  C   UNL A   1      42.975  28.552  33.710  1.00  0.00     0.034 A 
BRANCH  58  72
ATOM     72  C   UNL A   1      41.013  27.228  28.008  1.00  0.00     0.023 A 
ATOM     73  C   UNL A   1      41.692  27.742  26.883  1.00  0.00     0.012 A 
ATOM     74  C   UNL A   1      40.518  25.910  27.971  1.00  0.00     0.148 A 
ATOM     75  C   UNL A   1      41.821  26.985  25.721  1.00  0.00     0.002 A 
ATOM     76  C   UNL A   1      40.705  25.138  26.831  1.00  0.00     0.091 A 
ATOM     77  F   UNL A   1      39.866  25.441  29.044  1.00  0.00    -0.205 F 
ATOM     78  C   UNL A   1      41.338  25.680  25.700  1.00  0.00     0.022 A 
BRANCH  76  79
ATOM     79  S   UNL A   1      40.208  23.416  26.731  1.00  0.00     0.127 S 
ATOM     80  O   UNL A   1      40.317  22.998  28.129  1.00  0.00    -0.237 OA
ATOM     81  O   UNL A   1      38.838  23.524  26.231  1.00  0.00    -0.237 OA
ATOM     82  O   UNL A   1      41.145  22.779  25.817  1.00  0.00    -0.744 OA
ENDBRANCH  76  79
ENDBRANCH  58  72
BRANCH  59  83
ATOM     83  C   UNL A   1      39.333  32.726  36.159  1.00  0.00     0.023 A 
ATOM     84  C   UNL A   1      39.954  33.976  36.353  1.00  0.00     0.012 A 
ATOM     85  C   UNL A   1      38.472  32.230  37.156  1.00  0.00     0.148 A 
ATOM     86  C   UNL A   1      39.758  34.698  37.533  1.00  0.00     0.002 A 
ATOM     87  C   UNL A   1      38.235  32.980  38.304  1.00  0.00     0.091 A 
ATOM     88  F   UNL A   1      37.895  31.035  36.960  1.00  0.00    -0.205 F 
ATOM     89  C   UNL A   1      38.893  34.204  38.505  1.00  0.00     0.022 A 
BRANCH  87  90
ATOM     90  S   UNL A   1      37.039  32.488  39.551  1.00  0.00     0.127 S 
ATOM     91  O   UNL A   1      37.532  31.169  39.936  1.00  0.00    -0.237 OA
ATOM     92  O   UNL A   1      37.215  33.533  40.560  1.00  0.00    -0.237 OA
ATOM     93  O   UNL A   1      35.743  32.509  38.884  1.00  0.00    -0.744 OA
ENDBRANCH  87  90
ENDBRANCH  59  83
BRANCH  71  94
ATOM     94  C   UNL A   1      44.162  27.974  34.435  1.00  0.00     0.023 A 
ATOM     95  C   UNL A   1      45.352  28.718  34.555  1.00  0.00     0.012 A 
ATOM     96  C   UNL A   1      44.047  26.737  35.100  1.00  0.00     0.148 A 
ATOM     97  C   UNL A   1      46.417  28.226  35.310  1.00  0.00     0.002 A 
ATOM     98  C   UNL A   1      45.089  26.281  35.894  1.00  0.00     0.091 A 
ATOM     99  F   UNL A   1      42.908  26.042  34.959  1.00  0.00    -0.205 F 
ATOM    100  C   UNL A   1      46.280  27.018  35.991  1.00  0.00     0.022 A 
BRANCH  98 101
ATOM    101  S   UNL A   1      44.963  24.792  36.891  1.00  0.00     0.127 S 
ATOM    102  O   UNL A   1      46.356  24.571  37.273  1.00  0.00    -0.237 OA
ATOM    103  O   UNL A   1      44.092  25.228  37.984  1.00  0.00    -0.237 OA
ATOM    104  O   UNL A   1      44.387  23.772  36.026  1.00  0.00    -0.744 OA
ENDBRANCH  98 101
ENDBRANCH  71  94
ENDBRANCH  45  46
ENDBRANCH  37  40
ENDBRANCH  35  36
ENDBRANCH  34  35
ENDBRANCH   1  34
TORSDOF 19
ENDMDL
MODEL 2
REMARK VINA RESULT:     -12.9      1.844      7.527
REMARK SMILES O=C(CCCN1C(=O)C(=O)/C(=C(/[O-])c2ccc(Cl)cc2)[C@@H]1c1ccccc1[N+](=O)[O-])NCCCNC(=O)c1ccc(-c2c3nc(c(-c4cccc(S(=O)(=O)[O-])c4F)c4ccc([nH]4)c(-c4cccc(S(=O)(=O)[O-])c4F)c4nc(c(-c5cccc(S(=O)(=O)[O-])c5F)c5ccc2[nH]5)C=C4)C=C3)cc1
REMARK SMILES IDX 32 1 31 2 1 3 2 4 3 6 4 7 5 8 6 9 7 10 21 11 8 12 9 13 11 14
REMARK SMILES IDX 10 15 12 16 13 17 22 18 23 19 27 20 24 21 26 22 25 23 28 24
REMARK SMILES IDX 29 25 30 26 14 27 15 28 20 29 16 30 19 31 17 32 18 33 33 34
REMARK SMILES IDX 34 35 35 36 36 37 37 39 38 40 39 41 100 42 40 43 99 44 41 45
REMARK SMILES IDX 42 46 43 47 93 48 44 49 98 50 92 51 94 52 45 53 97 54 91 55
REMARK SMILES IDX 90 56 46 58 78 59 58 60 77 61 59 62 62 63 76 64 95 65 60 66
REMARK SMILES IDX 61 67 75 69 96 70 63 71 47 72 48 73 56 74 49 75 51 76 57 77
REMARK SMILES IDX 50 78 52 79 53 80 54 81 55 82 79 83 80 84 88 85 81 86 83 87
REMARK SMILES IDX 89 88 82 89 84 90 85 91 86 92 87 93 64 94 65 95 73 96 66 97
REMARK SMILES IDX 68 98 74 99 67 100 69 101 70 102 71 103 72 104
REMARK H PARENT 31 5 35 38 94 57 62 68
REMARK Flexibility Score: inf
ROOT
ATOM      1  C   UNL A   1      30.744  29.929  24.531  1.00  0.00     0.117 C 
ENDROOT
BRANCH   1   2
ATOM      2  N   UNL A   1      31.817  29.326  25.304  1.00  0.00    -0.356 N 
ATOM      3  O   UNL A   1      33.352  29.372  23.598  1.00  0.00    -0.275 OA
ATOM      4  C   UNL A   1      33.089  29.204  24.783  1.00  0.00     0.220 C 
ATOM      5  H   UNL A   1      31.633  29.001  26.214  1.00  0.00     0.163 HD
BRANCH   4   6
ATOM      6  C   UNL A   1      34.150  28.849  25.805  1.00  0.00     0.102 C 
BRANCH   6   7
ATOM      7  C   UNL A   1      33.967  27.457  26.463  1.00  0.00     0.031 C 
BRANCH   7   8
ATOM      8  C   UNL A   1      34.963  26.298  26.135  1.00  0.00     0.121 C 
BRANCH   8   9
ATOM      9  N   UNL A   1      34.316  25.106  25.638  1.00  0.00    -0.324 N 
ATOM     10  C   UNL A   1      35.145  24.004  25.525  1.00  0.00     0.295 C 
ATOM     11  C   UNL A   1      32.865  24.743  25.631  1.00  0.00     0.157 C 
ATOM     12  O   UNL A   1      36.292  23.844  25.887  1.00  0.00    -0.265 OA
ATOM     13  C   UNL A   1      34.345  22.994  24.779  1.00  0.00     0.248 C 
ATOM     14  C   UNL A   1      32.953  23.231  25.218  1.00  0.00     0.025 C 
ATOM     15  O   UNL A   1      34.796  22.317  23.883  1.00  0.00    -0.283 OA
ATOM     16  C   UNL A   1      32.158  22.143  25.309  1.00  0.00    -0.092 C 
ATOM     17  O   UNL A   1      30.908  22.143  25.884  1.00  0.00    -0.872 OA
BRANCH  11  18
ATOM     18  C   UNL A   1      31.896  25.554  24.709  1.00  0.00     0.057 A 
ATOM     19  C   UNL A   1      30.296  26.014  25.460  1.00  0.00     0.013 A 
ATOM     20  C   UNL A   1      32.081  25.834  22.912  1.00  0.00     0.275 A 
ATOM     21  C   UNL A   1      28.933  26.724  24.465  1.00  0.00     0.001 A 
ATOM     22  C   UNL A   1      30.771  26.631  21.939  1.00  0.00     0.086 A 
ATOM     23  C   UNL A   1      29.193  27.065  22.716  1.00  0.00     0.007 A 
BRANCH  20  24
ATOM     24  N   UNL A   1      33.316  25.783  22.186  1.00  0.00     0.063 N 
ATOM     25  O   UNL A   1      33.511  24.784  21.489  1.00  0.00    -0.258 OA
ATOM     26  O   UNL A   1      34.120  26.692  22.385  1.00  0.00    -0.258 OA
ENDBRANCH  20  24
ENDBRANCH  11  18
BRANCH  16  27
ATOM     27  C   UNL A   1      32.516  20.820  24.734  1.00  0.00    -0.033 A 
ATOM     28  C   UNL A   1      32.186  20.497  23.408  1.00  0.00     0.009 A 
ATOM     29  C   UNL A   1      33.130  19.840  25.533  1.00  0.00     0.009 A 
ATOM     30  C   UNL A   1      32.466  19.225  22.894  1.00  0.00     0.021 A 
ATOM     31  C   UNL A   1      33.417  18.569  25.015  1.00  0.00     0.021 A 
ATOM     32  C   UNL A   1      33.084  18.268  23.697  1.00  0.00     0.041 A 
ATOM     33  Cl  UNL A   1      33.430  16.709  23.053  1.00  0.00    -0.084 Cl
ENDBRANCH  16  27
ENDBRANCH   8   9
ENDBRANCH   7   8
ENDBRANCH   6   7
ENDBRANCH   4   6
ENDBRANCH   1   2
BRANCH   1  34
ATOM     34  C   UNL A   1      30.403  31.378  24.930  1.00  0.00     0.042 C 
BRANCH  34  35
ATOM     35  C   UNL A   1      30.883  31.827  26.488  1.00  0.00     0.118 C 
BRANCH  35  36
ATOM     36  N   UNL A   1      32.169  33.290  27.252  1.00  0.00    -0.352 N 
ATOM     37  C   UNL A   1      33.401  33.735  27.872  1.00  0.00     0.251 C 
ATOM     38  H   UNL A   1      31.667  34.126  27.118  1.00  0.00     0.163 HD
ATOM     39  O   UNL A   1      33.415  34.916  28.242  1.00  0.00    -0.269 OA
BRANCH  37  40
ATOM     40  C   UNL A   1      34.658  32.977  28.059  1.00  0.00     0.039 A 
ATOM     41  C   UNL A   1      35.914  33.596  28.081  1.00  0.00     0.014 A 
ATOM     42  C   UNL A   1      34.535  31.630  28.373  1.00  0.00     0.014 A 
ATOM     43  C   UNL A   1      37.018  32.889  28.587  1.00  0.00     0.010 A 
ATOM     44  C   UNL A   1      35.580  31.006  29.034  1.00  0.00     0.010 A 
ATOM     45  C   UNL A   1      36.846  31.612  29.150  1.00  0.00    -0.014 A 
BRANCH  45  46
ATOM     46  C   UNL A   1      37.928  30.852  29.855  1.00  0.00     0.031 A 
ATOM     47  C   UNL A   1      38.247  31.197  31.296  1.00  0.00     0.074 A 
ATOM     48  C   UNL A   1      38.730  29.984  29.200  1.00  0.00     0.049 A 
ATOM     49  N   UNL A   1      39.286  30.867  32.019  1.00  0.00    -0.248 NA
ATOM     50  C   UNL A   1      37.311  32.103  31.987  1.00  0.00     0.031 C 
ATOM     51  C   UNL A   1      38.621  29.605  27.788  1.00  0.00     0.029 A 
ATOM     52  N   UNL A   1      39.834  29.282  29.636  1.00  0.00    -0.354 N 
ATOM     53  C   UNL A   1      39.170  31.595  33.199  1.00  0.00     0.074 A 
ATOM     54  C   UNL A   1      38.007  32.440  33.060  1.00  0.00     0.031 C 
ATOM     55  C   UNL A   1      39.594  28.728  27.486  1.00  0.00     0.029 A 
ATOM     56  C   UNL A   1      40.435  28.517  28.660  1.00  0.00     0.049 A 
ATOM     57  H   UNL A   1      40.164  29.324  30.563  1.00  0.00     0.167 HD
ATOM     58  C   UNL A   1      39.919  31.536  34.324  1.00  0.00     0.034 A 
ATOM     59  C   UNL A   1      41.542  27.744  28.697  1.00  0.00     0.034 A 
ATOM     60  C   UNL A   1      41.004  30.617  34.512  1.00  0.00     0.049 A 
ATOM     61  C   UNL A   1      42.324  27.633  29.983  1.00  0.00     0.074 A 
ATOM     62  C   UNL A   1      41.742  30.384  35.658  1.00  0.00     0.029 A 
ATOM     63  N   UNL A   1      41.501  29.774  33.532  1.00  0.00    -0.354 N 
ATOM     64  N   UNL A   1      42.108  28.224  31.133  1.00  0.00    -0.248 NA
ATOM     65  C   UNL A   1      43.484  26.726  29.987  1.00  0.00     0.031 C 
ATOM     66  C   UNL A   1      42.712  29.422  35.361  1.00  0.00     0.029 A 
ATOM     67  C   UNL A   1      42.542  29.024  34.045  1.00  0.00     0.049 A 
ATOM     68  H   UNL A   1      41.163  29.718  32.609  1.00  0.00     0.167 HD
ATOM     69  C   UNL A   1      43.071  27.726  32.005  1.00  0.00     0.074 A 
ATOM     70  C   UNL A   1      43.866  26.778  31.255  1.00  0.00     0.031 C 
ATOM     71  C   UNL A   1      43.284  28.035  33.308  1.00  0.00     0.034 A 
BRANCH  58  72
ATOM     72  C   UNL A   1      39.543  32.446  35.466  1.00  0.00     0.023 A 
ATOM     73  C   UNL A   1      38.726  31.966  36.511  1.00  0.00     0.012 A 
ATOM     74  C   UNL A   1      40.032  33.766  35.525  1.00  0.00     0.148 A 
ATOM     75  C   UNL A   1      38.348  32.800  37.561  1.00  0.00     0.002 A 
ATOM     76  C   UNL A   1      39.702  34.573  36.607  1.00  0.00     0.091 A 
ATOM     77  F   UNL A   1      40.798  34.211  34.519  1.00  0.00    -0.205 F 
ATOM     78  C   UNL A   1      38.845  34.098  37.614  1.00  0.00     0.022 A 
BRANCH  76  79
ATOM     79  S   UNL A   1      40.365  36.227  36.824  1.00  0.00     0.127 S 
ATOM     80  O   UNL A   1      39.944  36.877  35.583  1.00  0.00    -0.237 OA
ATOM     81  O   UNL A   1      39.659  36.682  38.021  1.00  0.00    -0.237 OA
ATOM     82  O   UNL A   1      41.803  36.067  36.986  1.00  0.00    -0.744 OA
ENDBRANCH  76  79
ENDBRANCH  58  72
BRANCH  59  83
ATOM     83  C   UNL A   1      41.960  26.958  27.497  1.00  0.00     0.023 A 
ATOM     84  C   UNL A   1      42.561  27.623  26.408  1.00  0.00     0.012 A 
ATOM     85  C   UNL A   1      41.765  25.566  27.422  1.00  0.00     0.148 A 
ATOM     86  C   UNL A   1      42.919  26.926  25.252  1.00  0.00     0.002 A 
ATOM     87  C   UNL A   1      42.177  24.867  26.292  1.00  0.00     0.091 A 
ATOM     88  F   UNL A   1      41.186  24.950  28.462  1.00  0.00    -0.205 F 
ATOM     89  C   UNL A   1      42.735  25.547  25.197  1.00  0.00     0.022 A 
BRANCH  87  90
ATOM     90  S   UNL A   1      42.101  23.076  26.179  1.00  0.00     0.127 S 
ATOM     91  O   UNL A   1      42.867  22.668  27.354  1.00  0.00    -0.237 OA
ATOM     92  O   UNL A   1      40.661  22.833  26.267  1.00  0.00    -0.237 OA
ATOM     93  O   UNL A   1      42.691  22.736  24.891  1.00  0.00    -0.744 OA
ENDBRANCH  87  90
ENDBRANCH  59  83
BRANCH  71  94
ATOM     94  C   UNL A   1      44.367  27.298  34.051  1.00  0.00     0.023 A 
ATOM     95  C   UNL A   1      45.654  27.857  34.166  1.00  0.00     0.012 A 
ATOM     96  C   UNL A   1      44.064  26.105  34.736  1.00  0.00     0.148 A 
ATOM     97  C   UNL A   1      46.630  27.224  34.938  1.00  0.00     0.002 A 
ATOM     98  C   UNL A   1      45.022  25.512  35.545  1.00  0.00     0.091 A 
ATOM     99  F   UNL A   1      42.834  25.586  34.599  1.00  0.00    -0.205 F 
ATOM    100  C   UNL A   1      46.310  26.063  35.638  1.00  0.00     0.022 A 
BRANCH  98 101
ATOM    101  S   UNL A   1      44.669  24.077  36.567  1.00  0.00     0.127 S 
ATOM    102  O   UNL A   1      43.713  23.348  35.736  1.00  0.00    -0.237 OA
ATOM    103  O   UNL A   1      45.985  23.448  36.680  1.00  0.00    -0.237 OA
ATOM    104  O   UNL A   1      44.134  24.594  37.820  1.00  0.00    -0.744 OA
ENDBRANCH  98 101
ENDBRANCH  71  94
ENDBRANCH  45  46
ENDBRANCH  37  40
ENDBRANCH  35  36
ENDBRANCH  34  35
ENDBRANCH   1  34
TORSDOF 19
ENDMDL
MODEL 3
REMARK VINA RESULT:     -12.6      1.746      7.502
REMARK SMILES O=C(CCCN1C(=O)C(=O)/C(=C(/[O-])c2ccc(Cl)cc2)[C@@H]1c1ccccc1[N+](=O)[O-])NCCCNC(=O)c1ccc(-c2c3nc(c(-c4cccc(S(=O)(=O)[O-])c4F)c4ccc([nH]4)c(-c4cccc(S(=O)(=O)[O-])c4F)c4nc(c(-c5cccc(S(=O)(=O)[O-])c5F)c5ccc2[nH]5)C=C4)C=C3)cc1
REMARK SMILES IDX 32 1 31 2 1 3 2 4 3 6 4 7 5 8 6 9 7 10 21 11 8 12 9 13 11 14
REMARK SMILES IDX 10 15 12 16 13 17 22 18 23 19 27 20 24 21 26 22 25 23 28 24
REMARK SMILES IDX 29 25 30 26 14 27 15 28 20 29 16 30 19 31 17 32 18 33 33 34
REMARK SMILES IDX 34 35 35 36 36 37 37 39 38 40 39 41 100 42 40 43 99 44 41 45
REMARK SMILES IDX 42 46 43 47 93 48 44 49 98 50 92 51 94 52 45 53 97 54 91 55
REMARK SMILES IDX 90 56 46 58 78 59 58 60 77 61 59 62 62 63 76 64 95 65 60 66
REMARK SMILES IDX 61 67 75 69 96 70 63 71 47 72 48 73 56 74 49 75 51 76 57 77
REMARK SMILES IDX 50 78 52 79 53 80 54 81 55 82 79 83 80 84 88 85 81 86 83 87
REMARK SMILES IDX 89 88 82 89 84 90 85 91 86 92 87 93 64 94 65 95 73 96 66 97
REMARK SMILES IDX 68 98 74 99 67 100 69 101 70 102 71 103 72 104
REMARK H PARENT 31 5 35 38 94 57 62 68
REMARK Flexibility Score: inf
ROOT
ATOM      1  C   UNL A   1      30.829  29.929  24.577  1.00  0.00     0.117 C 
ENDROOT
BRANCH   1   2
ATOM      2  N   UNL A   1      31.885  29.308  25.359  1.00  0.00    -0.356 N 
ATOM      3  O   UNL A   1      33.461  29.408  23.693  1.00  0.00    -0.275 OA
ATOM      4  C   UNL A   1      33.170  29.205  24.867  1.00  0.00     0.220 C 
ATOM      5  H   UNL A   1      31.680  28.955  26.254  1.00  0.00     0.163 HD
BRANCH   4   6
ATOM      6  C   UNL A   1      34.207  28.824  25.904  1.00  0.00     0.102 C 
BRANCH   6   7
ATOM      7  C   UNL A   1      34.009  27.417  26.522  1.00  0.00     0.031 C 
BRANCH   7   8
ATOM      8  C   UNL A   1      34.986  26.254  26.153  1.00  0.00     0.121 C 
BRANCH   8   9
ATOM      9  N   UNL A   1      34.315  25.076  25.653  1.00  0.00    -0.324 N 
ATOM     10  C   UNL A   1      35.117  23.952  25.558  1.00  0.00     0.295 C 
ATOM     11  C   UNL A   1      32.855  24.750  25.628  1.00  0.00     0.157 C 
ATOM     12  O   UNL A   1      36.254  23.765  25.937  1.00  0.00    -0.265 OA
ATOM     13  C   UNL A   1      34.302  22.958  24.806  1.00  0.00     0.248 C 
ATOM     14  C   UNL A   1      32.910  23.234  25.224  1.00  0.00     0.025 C 
ATOM     15  O   UNL A   1      34.747  22.265  23.920  1.00  0.00    -0.283 OA
ATOM     16  C   UNL A   1      32.086  22.167  25.310  1.00  0.00    -0.092 C 
ATOM     17  O   UNL A   1      30.829  22.203  25.867  1.00  0.00    -0.872 OA
BRANCH  11  18
ATOM     18  C   UNL A   1      31.920  25.580  24.687  1.00  0.00     0.057 A 
ATOM     19  C   UNL A   1      30.304  26.046  25.397  1.00  0.00     0.013 A 
ATOM     20  C   UNL A   1      32.160  25.879  22.900  1.00  0.00     0.275 A 
ATOM     21  C   UNL A   1      28.976  26.780  24.372  1.00  0.00     0.001 A 
ATOM     22  C   UNL A   1      30.885  26.699  21.899  1.00  0.00     0.086 A 
ATOM     23  C   UNL A   1      29.290  27.138  22.635  1.00  0.00     0.007 A 
BRANCH  20  24
ATOM     24  N   UNL A   1      33.415  25.825  22.209  1.00  0.00     0.063 N 
ATOM     25  O   UNL A   1      34.000  26.896  22.033  1.00  0.00    -0.258 OA
ATOM     26  O   UNL A   1      33.764  24.731  21.767  1.00  0.00    -0.258 OA
ENDBRANCH  20  24
ENDBRANCH  11  18
BRANCH  16  27
ATOM     27  C   UNL A   1      32.418  20.833  24.747  1.00  0.00    -0.033 A 
ATOM     28  C   UNL A   1      32.195  20.545  23.391  1.00  0.00     0.009 A 
ATOM     29  C   UNL A   1      32.896  19.807  25.582  1.00  0.00     0.009 A 
ATOM     30  C   UNL A   1      32.447  19.265  22.883  1.00  0.00     0.021 A 
ATOM     31  C   UNL A   1      33.154  18.527  25.070  1.00  0.00     0.021 A 
ATOM     32  C   UNL A   1      32.930  18.263  23.722  1.00  0.00     0.041 A 
ATOM     33  Cl  UNL A   1      33.241  16.694  23.085  1.00  0.00    -0.084 Cl
ENDBRANCH  16  27
ENDBRANCH   8   9
ENDBRANCH   7   8
ENDBRANCH   6   7
ENDBRANCH   4   6
ENDBRANCH   1   2
BRANCH   1  34
ATOM     34  C   UNL A   1      30.481  31.369  25.001  1.00  0.00     0.042 C 
BRANCH  34  35
ATOM     35  C   UNL A   1      31.004  31.810  26.546  1.00  0.00     0.118 C 
BRANCH  35  36
ATOM     36  N   UNL A   1      32.309  33.271  27.281  1.00  0.00    -0.352 N 
ATOM     37  C   UNL A   1      33.550  33.713  27.888  1.00  0.00     0.251 C 
ATOM     38  H   UNL A   1      31.815  34.110  27.139  1.00  0.00     0.163 HD
ATOM     39  O   UNL A   1      33.578  34.898  28.240  1.00  0.00    -0.269 OA
BRANCH  37  40
ATOM     40  C   UNL A   1      34.800  32.944  28.078  1.00  0.00     0.039 A 
ATOM     41  C   UNL A   1      36.053  33.561  28.183  1.00  0.00     0.014 A 
ATOM     42  C   UNL A   1      34.668  31.582  28.308  1.00  0.00     0.014 A 
ATOM     43  C   UNL A   1      37.138  32.825  28.689  1.00  0.00     0.010 A 
ATOM     44  C   UNL A   1      35.689  30.920  28.970  1.00  0.00     0.010 A 
ATOM     45  C   UNL A   1      36.948  31.518  29.169  1.00  0.00    -0.014 A 
BRANCH  45  46
ATOM     46  C   UNL A   1      38.004  30.718  29.870  1.00  0.00     0.031 A 
ATOM     47  C   UNL A   1      38.283  30.994  31.334  1.00  0.00     0.074 A 
ATOM     48  C   UNL A   1      38.819  29.875  29.199  1.00  0.00     0.049 A 
ATOM     49  N   UNL A   1      39.298  30.623  32.070  1.00  0.00    -0.248 NA
ATOM     50  C   UNL A   1      37.332  31.874  32.039  1.00  0.00     0.031 C 
ATOM     51  C   UNL A   1      38.750  29.562  27.769  1.00  0.00     0.029 A 
ATOM     52  N   UNL A   1      39.906  29.145  29.634  1.00  0.00    -0.354 N 
ATOM     53  C   UNL A   1      39.152  31.297  33.279  1.00  0.00     0.074 A 
ATOM     54  C   UNL A   1      37.999  32.156  33.146  1.00  0.00     0.031 C 
ATOM     55  C   UNL A   1      39.726  28.693  27.455  1.00  0.00     0.029 A 
ATOM     56  C   UNL A   1      40.530  28.421  28.641  1.00  0.00     0.049 A 
ATOM     57  H   UNL A   1      40.209  29.142  30.571  1.00  0.00     0.167 HD
ATOM     58  C   UNL A   1      39.867  31.180  34.422  1.00  0.00     0.034 A 
ATOM     59  C   UNL A   1      41.631  27.639  28.674  1.00  0.00     0.034 A 
ATOM     60  C   UNL A   1      40.941  30.245  34.599  1.00  0.00     0.049 A 
ATOM     61  C   UNL A   1      42.374  27.463  29.976  1.00  0.00     0.074 A 
ATOM     62  C   UNL A   1      41.643  29.953  35.753  1.00  0.00     0.029 A 
ATOM     63  N   UNL A   1      41.461  29.444  33.595  1.00  0.00    -0.354 N 
ATOM     64  N   UNL A   1      42.128  28.002  31.145  1.00  0.00    -0.248 NA
ATOM     65  C   UNL A   1      43.527  26.548  29.972  1.00  0.00     0.031 C 
ATOM     66  C   UNL A   1      42.615  28.999  35.440  1.00  0.00     0.029 A 
ATOM     67  C   UNL A   1      42.481  28.663  34.103  1.00  0.00     0.049 A 
ATOM     68  H   UNL A   1      41.149  29.433  32.662  1.00  0.00     0.167 HD
ATOM     69  C   UNL A   1      43.062  27.457  32.022  1.00  0.00     0.074 A 
ATOM     70  C   UNL A   1      43.873  26.538  31.252  1.00  0.00     0.031 C 
ATOM     71  C   UNL A   1      43.238  27.703  33.342  1.00  0.00     0.034 A 
BRANCH  58  72
ATOM     72  C   UNL A   1      39.464  32.039  35.594  1.00  0.00     0.023 A 
ATOM     73  C   UNL A   1      39.896  33.380  35.668  1.00  0.00     0.012 A 
ATOM     74  C   UNL A   1      38.624  31.530  36.604  1.00  0.00     0.148 A 
ATOM     75  C   UNL A   1      39.553  34.181  36.755  1.00  0.00     0.002 A 
ATOM     76  C   UNL A   1      38.236  32.352  37.653  1.00  0.00     0.091 A 
ATOM     77  F   UNL A   1      38.232  30.250  36.525  1.00  0.00    -0.205 F 
ATOM     78  C   UNL A   1      38.715  33.670  37.741  1.00  0.00     0.022 A 
BRANCH  76  79
ATOM     79  S   UNL A   1      37.082  31.826  38.924  1.00  0.00     0.127 S 
ATOM     80  O   UNL A   1      37.861  32.055  40.141  1.00  0.00    -0.237 OA
ATOM     81  O   UNL A   1      35.970  32.756  38.728  1.00  0.00    -0.237 OA
ATOM     82  O   UNL A   1      36.773  30.433  38.636  1.00  0.00    -0.744 OA
ENDBRANCH  76  79
ENDBRANCH  58  72
BRANCH  59  83
ATOM     83  C   UNL A   1      42.079  26.906  27.452  1.00  0.00     0.023 A 
ATOM     84  C   UNL A   1      42.680  27.622  26.396  1.00  0.00     0.012 A 
ATOM     85  C   UNL A   1      41.912  25.515  27.323  1.00  0.00     0.148 A 
ATOM     86  C   UNL A   1      43.066  26.975  25.220  1.00  0.00     0.002 A 
ATOM     87  C   UNL A   1      42.352  24.866  26.174  1.00  0.00     0.091 A 
ATOM     88  F   UNL A   1      41.332  24.849  28.333  1.00  0.00    -0.205 F 
ATOM     89  C   UNL A   1      42.910  25.596  25.112  1.00  0.00     0.022 A 
BRANCH  87  90
ATOM     90  S   UNL A   1      42.312  23.079  25.995  1.00  0.00     0.127 S 
ATOM     91  O   UNL A   1      42.955  22.892  24.697  1.00  0.00    -0.237 OA
ATOM     92  O   UNL A   1      43.104  22.646  27.146  1.00  0.00    -0.237 OA
ATOM     93  O   UNL A   1      40.904  22.708  26.061  1.00  0.00    -0.744 OA
ENDBRANCH  87  90
ENDBRANCH  59  83
BRANCH  71  94
ATOM     94  C   UNL A   1      44.294  26.925  34.082  1.00  0.00     0.023 A 
ATOM     95  C   UNL A   1      43.995  25.661  34.624  1.00  0.00     0.012 A 
ATOM     96  C   UNL A   1      45.618  27.405  34.129  1.00  0.00     0.148 A 
ATOM     97  C   UNL A   1      44.997  24.895  35.222  1.00  0.00     0.002 A 
ATOM     98  C   UNL A   1      46.619  26.615  34.676  1.00  0.00     0.091 A 
ATOM     99  F   UNL A   1      45.875  28.619  33.617  1.00  0.00    -0.205 F 
ATOM    100  C   UNL A   1      46.310  25.365  35.234  1.00  0.00     0.022 A 
BRANCH  98 101
ATOM    101  S   UNL A   1      48.352  27.089  34.638  1.00  0.00     0.127 S 
ATOM    102  O   UNL A   1      48.317  28.394  35.296  1.00  0.00    -0.237 OA
ATOM    103  O   UNL A   1      48.979  26.025  35.423  1.00  0.00    -0.237 OA
ATOM    104  O   UNL A   1      48.735  27.113  33.233  1.00  0.00    -0.744 OA
ENDBRANCH  98 101
ENDBRANCH  71  94
ENDBRANCH  45  46
ENDBRANCH  37  40
ENDBRANCH  35  36
ENDBRANCH  34  35
ENDBRANCH   1  34
TORSDOF 19
ENDMDL
