MODEL 1
REMARK VINA RESULT:     -12.0      0.000      0.000
REMARK SMILES C[C@@H]1[C@@H](C(=O)NCCCNC(=O)c2ccc(-c3c4nc(c(-c5cccc(S(=O)(=O)[O-])c5F)c5ccc([nH]5)c(-c5cccc(S(=O)(=O)[O-])c5F)c5nc(c(-c6cccc(S(=O)(=O)[O-])c6F)c6ccc3[nH]6)C=C5)C=C4)cc2)CCN1C(=O)[C@]1([NH3+])CCOC1
REMARK SMILES IDX 8 1 7 2 6 3 4 4 5 5 3 7 1 8 2 9 78 10 76 11 77 12 79 13
REMARK SMILES IDX 80 14 81 15 83 16 86 17 84 18 85 19 82 20 9 24 10 25 11 26
REMARK SMILES IDX 12 28 13 29 14 30 75 31 15 32 74 33 16 34 17 35 18 36 68 37
REMARK SMILES IDX 19 38 73 39 67 40 69 41 20 42 72 43 66 44 65 45 21 47 53 48
REMARK SMILES IDX 33 49 52 50 34 51 37 52 51 53 70 54 35 55 36 56 50 58 71 59
REMARK SMILES IDX 38 60 22 61 23 62 31 63 24 64 26 65 32 66 25 67 27 68 28 69
REMARK SMILES IDX 29 70 30 71 54 72 55 73 63 74 56 75 58 76 64 77 57 78 59 79
REMARK SMILES IDX 60 80 61 81 62 82 39 83 40 84 48 85 41 86 43 87 49 88 42 89
REMARK SMILES IDX 44 90 45 91 46 92 47 93
REMARK H PARENT 6 6 82 21 82 22 82 23 10 27 69 46 37 57
REMARK Flexibility Score: inf
ROOT
ATOM      1  C   UNL A   1      31.589  31.869  26.659  1.00  0.00     0.042 C 
ENDROOT
BRANCH   1   2
ATOM      2  C   UNL A   1      31.808  30.385  26.393  1.00  0.00     0.117 C 
BRANCH   2   3
ATOM      3  N   UNL A   1      32.322  30.133  25.057  1.00  0.00    -0.356 N 
ATOM      4  C   UNL A   1      32.386  28.974  24.346  1.00  0.00     0.225 C 
ATOM      5  O   UNL A   1      32.812  29.030  23.193  1.00  0.00    -0.275 OA
ATOM      6  H   UNL A   1      32.680  30.924  24.595  1.00  0.00     0.163 HD
BRANCH   4   7
ATOM      7  C   UNL A   1      31.888  27.679  24.972  1.00  0.00     0.102 C 
ATOM      8  C   UNL A   1      32.687  25.478  25.857  1.00  0.00     0.032 C 
ATOM      9  C   UNL A   1      32.848  26.500  24.725  1.00  0.00     0.094 C 
ATOM     10  N   UNL A   1      32.412  25.932  23.443  1.00  0.00    -0.334 N 
ATOM     11  C   UNL A   1      30.590  27.198  24.318  1.00  0.00     0.037 C 
ATOM     12  C   UNL A   1      31.069  26.400  23.116  1.00  0.00     0.121 C 
BRANCH  10  13
ATOM     13  C   UNL A   1      33.072  25.170  22.499  1.00  0.00     0.286 C 
ATOM     14  O   UNL A   1      33.707  25.767  21.608  1.00  0.00    -0.267 OA
BRANCH  13  15
ATOM     15  C   UNL A   1      33.106  23.592  22.471  1.00  0.00     0.199 C 
ATOM     16  C   UNL A   1      32.020  22.911  23.283  1.00  0.00     0.110 C 
ATOM     17  C   UNL A   1      34.400  22.997  23.015  1.00  0.00     0.239 C 
ATOM     18  C   UNL A   1      32.727  22.285  24.469  1.00  0.00     0.167 C 
ATOM     19  O   UNL A   1      34.132  22.499  24.334  1.00  0.00    -0.374 OA
BRANCH  15  20
ATOM     20  N   UNL A   1      32.960  23.192  21.029  1.00  0.00    -0.343 N 
ATOM     21  H   UNL A   1      33.850  23.325  20.548  1.00  0.00     0.345 HD
ATOM     22  H   UNL A   1      32.247  23.771  20.586  1.00  0.00     0.345 HD
ATOM     23  H   UNL A   1      32.686  22.211  20.973  1.00  0.00     0.345 HD
ENDBRANCH  15  20
ENDBRANCH  13  15
ENDBRANCH  10  13
ENDBRANCH   4   7
ENDBRANCH   2   3
ENDBRANCH   1   2
BRANCH   1  24
ATOM     24  C   UNL A   1      32.785  32.596  27.267  1.00  0.00     0.118 C 
BRANCH  24  25
ATOM     25  N   UNL A   1      32.498  33.981  27.621  1.00  0.00    -0.352 N 
ATOM     26  C   UNL A   1      33.068  34.782  28.583  1.00  0.00     0.251 C 
ATOM     27  H   UNL A   1      31.789  34.408  27.090  1.00  0.00     0.163 HD
ATOM     28  O   UNL A   1      32.581  35.883  28.816  1.00  0.00    -0.269 OA
BRANCH  26  29
ATOM     29  C   UNL A   1      34.243  34.314  29.355  1.00  0.00     0.039 A 
ATOM     30  C   UNL A   1      34.032  33.674  30.580  1.00  0.00     0.014 A 
ATOM     31  C   UNL A   1      35.546  34.507  28.888  1.00  0.00     0.014 A 
ATOM     32  C   UNL A   1      35.119  33.164  31.295  1.00  0.00     0.010 A 
ATOM     33  C   UNL A   1      36.619  33.926  29.560  1.00  0.00     0.010 A 
ATOM     34  C   UNL A   1      36.420  33.248  30.772  1.00  0.00    -0.014 A 
BRANCH  34  35
ATOM     35  C   UNL A   1      37.574  32.613  31.463  1.00  0.00     0.031 A 
ATOM     36  C   UNL A   1      38.303  31.457  30.832  1.00  0.00     0.074 A 
ATOM     37  C   UNL A   1      37.914  33.024  32.702  1.00  0.00     0.049 A 
ATOM     38  N   UNL A   1      39.292  30.746  31.311  1.00  0.00    -0.248 NA
ATOM     39  C   UNL A   1      37.848  31.028  29.500  1.00  0.00     0.031 C 
ATOM     40  C   UNL A   1      37.242  34.084  33.457  1.00  0.00     0.029 A 
ATOM     41  N   UNL A   1      38.893  32.580  33.558  1.00  0.00    -0.354 N 
ATOM     42  C   UNL A   1      39.554  29.767  30.359  1.00  0.00     0.074 A 
ATOM     43  C   UNL A   1      38.598  29.956  29.289  1.00  0.00     0.031 C 
ATOM     44  C   UNL A   1      37.831  34.214  34.656  1.00  0.00     0.029 A 
ATOM     45  C   UNL A   1      38.897  33.224  34.774  1.00  0.00     0.049 A 
ATOM     46  H   UNL A   1      39.533  31.870  33.323  1.00  0.00     0.167 HD
ATOM     47  C   UNL A   1      40.518  28.816  30.359  1.00  0.00     0.034 A 
ATOM     48  C   UNL A   1      39.661  33.033  35.868  1.00  0.00     0.034 A 
ATOM     49  C   UNL A   1      41.487  28.649  31.409  1.00  0.00     0.049 A 
ATOM     50  C   UNL A   1      40.737  31.981  35.835  1.00  0.00     0.074 A 
ATOM     51  C   UNL A   1      42.552  27.767  31.463  1.00  0.00     0.029 A 
ATOM     52  N   UNL A   1      41.503  29.368  32.594  1.00  0.00    -0.354 N 
ATOM     53  N   UNL A   1      41.067  31.168  34.861  1.00  0.00    -0.248 NA
ATOM     54  C   UNL A   1      41.570  31.844  37.038  1.00  0.00     0.031 C 
ATOM     55  C   UNL A   1      43.192  27.929  32.697  1.00  0.00     0.029 A 
ATOM     56  C   UNL A   1      42.551  28.941  33.392  1.00  0.00     0.049 A 
ATOM     57  H   UNL A   1      40.864  30.077  32.833  1.00  0.00     0.167 HD
ATOM     58  C   UNL A   1      42.168  30.452  35.318  1.00  0.00     0.074 A 
ATOM     59  C   UNL A   1      42.462  30.942  36.648  1.00  0.00     0.031 C 
ATOM     60  C   UNL A   1      42.867  29.470  34.695  1.00  0.00     0.034 A 
BRANCH  47  61
ATOM     61  C   UNL A   1      40.602  27.901  29.163  1.00  0.00     0.023 A 
ATOM     62  C   UNL A   1      39.720  26.805  29.059  1.00  0.00     0.012 A 
ATOM     63  C   UNL A   1      41.506  28.160  28.114  1.00  0.00     0.148 A 
ATOM     64  C   UNL A   1      39.762  25.960  27.951  1.00  0.00     0.002 A 
ATOM     65  C   UNL A   1      41.509  27.341  26.990  1.00  0.00     0.091 A 
ATOM     66  F   UNL A   1      42.348  29.195  28.236  1.00  0.00    -0.205 F 
ATOM     67  C   UNL A   1      40.648  26.234  26.913  1.00  0.00     0.022 A 
BRANCH  65  68
ATOM     68  S   UNL A   1      42.551  27.657  25.561  1.00  0.00     0.127 S 
ATOM     69  O   UNL A   1      42.286  26.478  24.737  1.00  0.00    -0.237 OA
ATOM     70  O   UNL A   1      41.988  28.904  25.041  1.00  0.00    -0.237 OA
ATOM     71  O   UNL A   1      43.910  27.769  26.071  1.00  0.00    -0.744 OA
ENDBRANCH  65  68
ENDBRANCH  47  61
BRANCH  48  72
ATOM     72  C   UNL A   1      39.476  33.895  37.070  1.00  0.00     0.023 A 
ATOM     73  C   UNL A   1      39.924  35.230  37.040  1.00  0.00     0.012 A 
ATOM     74  C   UNL A   1      38.847  33.408  38.233  1.00  0.00     0.148 A 
ATOM     75  C   UNL A   1      39.784  36.054  38.157  1.00  0.00     0.002 A 
ATOM     76  C   UNL A   1      38.658  34.252  39.322  1.00  0.00     0.091 A 
ATOM     77  F   UNL A   1      38.436  32.133  38.246  1.00  0.00    -0.205 F 
ATOM     78  C   UNL A   1      39.144  35.568  39.294  1.00  0.00     0.022 A 
BRANCH  76  79
ATOM     79  S   UNL A   1      37.731  33.755  40.779  1.00  0.00     0.127 S 
ATOM     80  O   UNL A   1      36.546  33.141  40.185  1.00  0.00    -0.237 OA
ATOM     81  O   UNL A   1      38.656  32.819  41.418  1.00  0.00    -0.237 OA
ATOM     82  O   UNL A   1      37.496  34.978  41.534  1.00  0.00    -0.744 OA
ENDBRANCH  76  79
ENDBRANCH  48  72
BRANCH  60  83
ATOM     83  C   UNL A   1      44.051  28.885  35.420  1.00  0.00     0.023 A 
ATOM     84  C   UNL A   1      45.331  29.452  35.257  1.00  0.00     0.012 A 
ATOM     85  C   UNL A   1      43.880  27.815  36.321  1.00  0.00     0.148 A 
ATOM     86  C   UNL A   1      46.427  28.939  35.951  1.00  0.00     0.002 A 
ATOM     87  C   UNL A   1      44.965  27.344  37.049  1.00  0.00     0.091 A 
ATOM     88  F   UNL A   1      42.658  27.277  36.451  1.00  0.00    -0.205 F 
ATOM     89  C   UNL A   1      46.242  27.896  36.854  1.00  0.00     0.022 A 
BRANCH  87  90
ATOM     90  S   UNL A   1      44.806  26.071  38.306  1.00  0.00     0.127 S 
ATOM     91  O   UNL A   1      43.852  26.681  39.229  1.00  0.00    -0.237 OA
ATOM     92  O   UNL A   1      44.277  24.943  37.538  1.00  0.00    -0.237 OA
ATOM     93  O   UNL A   1      46.145  25.863  38.841  1.00  0.00    -0.744 OA
ENDBRANCH  87  90
ENDBRANCH  60  83
ENDBRANCH  34  35
ENDBRANCH  26  29
ENDBRANCH  24  25
ENDBRANCH   1  24
TORSDOF 16
ENDMDL
MODEL 2
REMARK VINA RESULT:     -11.9      1.627      2.836
REMARK SMILES C[C@@H]1[C@@H](C(=O)NCCCNC(=O)c2ccc(-c3c4nc(c(-c5cccc(S(=O)(=O)[O-])c5F)c5ccc([nH]5)c(-c5cccc(S(=O)(=O)[O-])c5F)c5nc(c(-c6cccc(S(=O)(=O)[O-])c6F)c6ccc3[nH]6)C=C5)C=C4)cc2)CCN1C(=O)[C@]1([NH3+])CCOC1
REMARK SMILES IDX 8 1 7 2 6 3 4 4 5 5 3 7 1 8 2 9 78 10 76 11 77 12 79 13
REMARK SMILES IDX 80 14 81 15 83 16 86 17 84 18 85 19 82 20 9 24 10 25 11 26
REMARK SMILES IDX 12 28 13 29 14 30 75 31 15 32 74 33 16 34 17 35 18 36 68 37
REMARK SMILES IDX 19 38 73 39 67 40 69 41 20 42 72 43 66 44 65 45 21 47 53 48
REMARK SMILES IDX 33 49 52 50 34 51 37 52 51 53 70 54 35 55 36 56 50 58 71 59
REMARK SMILES IDX 38 60 22 61 23 62 31 63 24 64 26 65 32 66 25 67 27 68 28 69
REMARK SMILES IDX 29 70 30 71 54 72 55 73 63 74 56 75 58 76 64 77 57 78 59 79
REMARK SMILES IDX 60 80 61 81 62 82 39 83 40 84 48 85 41 86 43 87 49 88 42 89
REMARK SMILES IDX 44 90 45 91 46 92 47 93
REMARK H PARENT 6 6 82 21 82 22 82 23 10 27 69 46 37 57
REMARK Flexibility Score: inf
ROOT
ATOM      1  C   UNL A   1      32.300  31.430  27.267  1.00  0.00     0.042 C 
ENDROOT
BRANCH   1   2
ATOM      2  C   UNL A   1      32.977  30.066  27.257  1.00  0.00     0.117 C 
BRANCH   2   3
ATOM      3  N   UNL A   1      32.051  28.986  27.553  1.00  0.00    -0.356 N 
ATOM      4  C   UNL A   1      31.731  27.880  26.827  1.00  0.00     0.225 C 
ATOM      5  O   UNL A   1      30.954  27.069  27.329  1.00  0.00    -0.275 OA
ATOM      6  H   UNL A   1      31.581  29.069  28.413  1.00  0.00     0.163 HD
BRANCH   4   7
ATOM      7  C   UNL A   1      32.376  27.663  25.466  1.00  0.00     0.102 C 
ATOM      8  C   UNL A   1      32.887  28.834  23.313  1.00  0.00     0.032 C 
ATOM      9  C   UNL A   1      31.820  28.621  24.394  1.00  0.00     0.094 C 
ATOM     10  N   UNL A   1      30.652  27.920  23.843  1.00  0.00    -0.334 N 
ATOM     11  C   UNL A   1      32.036  26.284  24.893  1.00  0.00     0.037 C 
ATOM     12  C   UNL A   1      30.702  26.505  24.197  1.00  0.00     0.121 C 
BRANCH  10  13
ATOM     13  C   UNL A   1      29.526  28.378  23.189  1.00  0.00     0.286 C 
ATOM     14  O   UNL A   1      28.561  27.597  23.071  1.00  0.00    -0.267 OA
BRANCH  13  15
ATOM     15  C   UNL A   1      29.352  29.829  22.592  1.00  0.00     0.199 C 
ATOM     16  C   UNL A   1      29.334  30.947  23.617  1.00  0.00     0.110 C 
ATOM     17  C   UNL A   1      28.054  30.020  21.816  1.00  0.00     0.239 C 
ATOM     18  C   UNL A   1      27.907  31.460  23.640  1.00  0.00     0.167 C 
ATOM     19  O   UNL A   1      27.151  30.764  22.649  1.00  0.00    -0.374 OA
BRANCH  15  20
ATOM     20  N   UNL A   1      30.509  30.042  21.656  1.00  0.00    -0.343 N 
ATOM     21  H   UNL A   1      30.274  29.674  20.735  1.00  0.00     0.345 HD
ATOM     22  H   UNL A   1      31.331  29.557  22.015  1.00  0.00     0.345 HD
ATOM     23  H   UNL A   1      30.709  31.040  21.584  1.00  0.00     0.345 HD
ENDBRANCH  15  20
ENDBRANCH  13  15
ENDBRANCH  10  13
ENDBRANCH   4   7
ENDBRANCH   2   3
ENDBRANCH   1   2
BRANCH   1  24
ATOM     24  C   UNL A   1      33.226  32.610  26.984  1.00  0.00     0.118 C 
BRANCH  24  25
ATOM     25  N   UNL A   1      32.735  33.871  27.526  1.00  0.00    -0.352 N 
ATOM     26  C   UNL A   1      33.125  34.559  28.651  1.00  0.00     0.251 C 
ATOM     27  H   UNL A   1      32.013  34.294  27.008  1.00  0.00     0.163 HD
ATOM     28  O   UNL A   1      32.482  35.539  29.011  1.00  0.00    -0.269 OA
BRANCH  26  29
ATOM     29  C   UNL A   1      34.295  34.110  29.442  1.00  0.00     0.039 A 
ATOM     30  C   UNL A   1      34.080  33.284  30.550  1.00  0.00     0.014 A 
ATOM     31  C   UNL A   1      35.593  34.502  29.109  1.00  0.00     0.014 A 
ATOM     32  C   UNL A   1      35.171  32.793  31.273  1.00  0.00     0.010 A 
ATOM     33  C   UNL A   1      36.681  33.945  29.778  1.00  0.00     0.010 A 
ATOM     34  C   UNL A   1      36.484  33.085  30.869  1.00  0.00    -0.014 A 
BRANCH  34  35
ATOM     35  C   UNL A   1      37.657  32.481  31.556  1.00  0.00     0.031 A 
ATOM     36  C   UNL A   1      38.412  31.342  30.924  1.00  0.00     0.074 A 
ATOM     37  C   UNL A   1      37.992  32.903  32.793  1.00  0.00     0.049 A 
ATOM     38  N   UNL A   1      39.420  30.656  31.401  1.00  0.00    -0.248 NA
ATOM     39  C   UNL A   1      37.961  30.897  29.596  1.00  0.00     0.031 C 
ATOM     40  C   UNL A   1      37.297  33.948  33.548  1.00  0.00     0.029 A 
ATOM     41  N   UNL A   1      38.986  32.486  33.645  1.00  0.00    -0.354 N 
ATOM     42  C   UNL A   1      39.702  29.682  30.450  1.00  0.00     0.074 A 
ATOM     43  C   UNL A   1      38.737  29.844  29.384  1.00  0.00     0.031 C 
ATOM     44  C   UNL A   1      37.888  34.096  34.744  1.00  0.00     0.029 A 
ATOM     45  C   UNL A   1      38.979  33.133  34.860  1.00  0.00     0.049 A 
ATOM     46  H   UNL A   1      39.642  31.791  33.409  1.00  0.00     0.167 HD
ATOM     47  C   UNL A   1      40.690  28.755  30.448  1.00  0.00     0.034 A 
ATOM     48  C   UNL A   1      39.753  32.964  35.950  1.00  0.00     0.034 A 
ATOM     49  C   UNL A   1      41.668  28.616  31.494  1.00  0.00     0.049 A 
ATOM     50  C   UNL A   1      40.855  31.939  35.915  1.00  0.00     0.074 A 
ATOM     51  C   UNL A   1      42.755  27.761  31.546  1.00  0.00     0.029 A 
ATOM     52  N   UNL A   1      41.671  29.338  32.677  1.00  0.00    -0.354 N 
ATOM     53  N   UNL A   1      41.201  31.132  34.941  1.00  0.00    -0.248 NA
ATOM     54  C   UNL A   1      41.696  31.826  37.115  1.00  0.00     0.031 C 
ATOM     55  C   UNL A   1      43.396  27.942  32.776  1.00  0.00     0.029 A 
ATOM     56  C   UNL A   1      42.733  28.939  33.472  1.00  0.00     0.049 A 
ATOM     57  H   UNL A   1      41.016  30.031  32.917  1.00  0.00     0.167 HD
ATOM     58  C   UNL A   1      42.321  30.445  35.395  1.00  0.00     0.074 A 
ATOM     59  C   UNL A   1      42.608  30.946  36.722  1.00  0.00     0.031 C 
ATOM     60  C   UNL A   1      43.041  29.479  34.772  1.00  0.00     0.034 A 
BRANCH  47  61
ATOM     61  C   UNL A   1      40.792  27.840  29.254  1.00  0.00     0.023 A 
ATOM     62  C   UNL A   1      39.984  26.686  29.189  1.00  0.00     0.012 A 
ATOM     63  C   UNL A   1      41.636  28.152  28.170  1.00  0.00     0.148 A 
ATOM     64  C   UNL A   1      40.042  25.837  28.084  1.00  0.00     0.002 A 
ATOM     65  C   UNL A   1      41.652  27.328  27.050  1.00  0.00     0.091 A 
ATOM     66  F   UNL A   1      42.408  29.244  28.255  1.00  0.00    -0.205 F 
ATOM     67  C   UNL A   1      40.867  26.163  27.011  1.00  0.00     0.022 A 
BRANCH  65  68
ATOM     68  S   UNL A   1      42.615  27.704  25.582  1.00  0.00     0.127 S 
ATOM     69  O   UNL A   1      42.009  28.961  25.145  1.00  0.00    -0.237 OA
ATOM     70  O   UNL A   1      43.967  27.837  26.128  1.00  0.00    -0.237 OA
ATOM     71  O   UNL A   1      42.432  26.576  24.680  1.00  0.00    -0.744 OA
ENDBRANCH  65  68
ENDBRANCH  47  61
BRANCH  48  72
ATOM     72  C   UNL A   1      39.551  33.824  37.151  1.00  0.00     0.023 A 
ATOM     73  C   UNL A   1      40.033  35.148  37.143  1.00  0.00     0.012 A 
ATOM     74  C   UNL A   1      38.875  33.348  38.291  1.00  0.00     0.148 A 
ATOM     75  C   UNL A   1      39.879  35.969  38.260  1.00  0.00     0.002 A 
ATOM     76  C   UNL A   1      38.673  34.190  39.378  1.00  0.00     0.091 A 
ATOM     77  F   UNL A   1      38.431  32.083  38.283  1.00  0.00    -0.205 F 
ATOM     78  C   UNL A   1      39.192  35.494  39.374  1.00  0.00     0.022 A 
BRANCH  76  79
ATOM     79  S   UNL A   1      37.688  33.710  40.803  1.00  0.00     0.127 S 
ATOM     80  O   UNL A   1      37.530  34.983  41.501  1.00  0.00    -0.237 OA
ATOM     81  O   UNL A   1      36.472  33.201  40.167  1.00  0.00    -0.237 OA
ATOM     82  O   UNL A   1      38.469  32.698  41.501  1.00  0.00    -0.744 OA
ENDBRANCH  76  79
ENDBRANCH  48  72
BRANCH  60  83
ATOM     83  C   UNL A   1      44.244  28.926  35.492  1.00  0.00     0.023 A 
ATOM     84  C   UNL A   1      45.515  29.499  35.291  1.00  0.00     0.012 A 
ATOM     85  C   UNL A   1      44.098  27.881  36.426  1.00  0.00     0.148 A 
ATOM     86  C   UNL A   1      46.627  29.017  35.981  1.00  0.00     0.002 A 
ATOM     87  C   UNL A   1      45.200  27.441  37.149  1.00  0.00     0.091 A 
ATOM     88  F   UNL A   1      42.883  27.336  36.592  1.00  0.00    -0.205 F 
ATOM     89  C   UNL A   1      46.468  27.998  36.917  1.00  0.00     0.022 A 
BRANCH  87  90
ATOM     90  S   UNL A   1      45.074  26.203  38.445  1.00  0.00     0.127 S 
ATOM     91  O   UNL A   1      44.879  24.979  37.670  1.00  0.00    -0.237 OA
ATOM     92  O   UNL A   1      46.378  26.310  39.101  1.00  0.00    -0.237 OA
ATOM     93  O   UNL A   1      43.945  26.602  39.274  1.00  0.00    -0.744 OA
ENDBRANCH  87  90
ENDBRANCH  60  83
ENDBRANCH  34  35
ENDBRANCH  26  29
ENDBRANCH  24  25
ENDBRANCH   1  24
TORSDOF 16
ENDMDL
MODEL 3
REMARK VINA RESULT:     -11.8      4.042      9.188
REMARK SMILES C[C@@H]1[C@@H](C(=O)NCCCNC(=O)c2ccc(-c3c4nc(c(-c5cccc(S(=O)(=O)[O-])c5F)c5ccc([nH]5)c(-c5cccc(S(=O)(=O)[O-])c5F)c5nc(c(-c6cccc(S(=O)(=O)[O-])c6F)c6ccc3[nH]6)C=C5)C=C4)cc2)CCN1C(=O)[C@]1([NH3+])CCOC1
REMARK SMILES IDX 8 1 7 2 6 3 4 4 5 5 3 7 1 8 2 9 78 10 76 11 77 12 79 13
REMARK SMILES IDX 80 14 81 15 83 16 86 17 84 18 85 19 82 20 9 24 10 25 11 26
REMARK SMILES IDX 12 28 13 29 14 30 75 31 15 32 74 33 16 34 17 35 18 36 68 37
REMARK SMILES IDX 19 38 73 39 67 40 69 41 20 42 72 43 66 44 65 45 21 47 53 48
REMARK SMILES IDX 33 49 52 50 34 51 37 52 51 53 70 54 35 55 36 56 50 58 71 59
REMARK SMILES IDX 38 60 22 61 23 62 31 63 24 64 26 65 32 66 25 67 27 68 28 69
REMARK SMILES IDX 29 70 30 71 54 72 55 73 63 74 56 75 58 76 64 77 57 78 59 79
REMARK SMILES IDX 60 80 61 81 62 82 39 83 40 84 48 85 41 86 43 87 49 88 42 89
REMARK SMILES IDX 44 90 45 91 46 92 47 93
REMARK H PARENT 6 6 82 21 82 22 82 23 10 27 69 46 37 57
REMARK Flexibility Score: inf
ROOT
ATOM      1  C   UNL A   1      33.962  28.349  25.760  1.00  0.00     0.042 C 
ENDROOT
BRANCH   1   2
ATOM      2  C   UNL A   1      32.914  28.360  24.654  1.00  0.00     0.117 C 
BRANCH   2   3
ATOM      3  N   UNL A   1      33.428  27.835  23.401  1.00  0.00    -0.356 N 
ATOM      4  C   UNL A   1      33.472  26.556  22.938  1.00  0.00     0.225 C 
ATOM      5  O   UNL A   1      33.904  26.372  21.800  1.00  0.00    -0.275 OA
ATOM      6  H   UNL A   1      33.804  28.511  22.792  1.00  0.00     0.163 HD
BRANCH   4   7
ATOM      7  C   UNL A   1      32.946  25.423  23.808  1.00  0.00     0.102 C 
ATOM      8  C   UNL A   1      33.378  24.223  25.961  1.00  0.00     0.032 C 
ATOM      9  C   UNL A   1      34.038  24.824  24.715  1.00  0.00     0.094 C 
ATOM     10  N   UNL A   1      34.660  23.774  23.897  1.00  0.00    -0.334 N 
ATOM     11  C   UNL A   1      32.510  24.221  22.966  1.00  0.00     0.037 C 
ATOM     12  C   UNL A   1      33.797  23.436  22.770  1.00  0.00     0.121 C 
BRANCH  10  13
ATOM     13  C   UNL A   1      35.905  23.179  23.951  1.00  0.00     0.286 C 
ATOM     14  O   UNL A   1      36.683  23.363  22.994  1.00  0.00    -0.267 OA
BRANCH  13  15
ATOM     15  C   UNL A   1      36.436  22.296  25.148  1.00  0.00     0.199 C 
ATOM     16  C   UNL A   1      37.720  21.539  24.868  1.00  0.00     0.110 C 
ATOM     17  C   UNL A   1      35.458  21.213  25.589  1.00  0.00     0.239 C 
ATOM     18  C   UNL A   1      37.324  20.078  24.782  1.00  0.00     0.167 C 
ATOM     19  O   UNL A   1      35.932  19.959  25.074  1.00  0.00    -0.374 OA
BRANCH  15  20
ATOM     20  N   UNL A   1      36.665  23.237  26.298  1.00  0.00    -0.343 N 
ATOM     21  H   UNL A   1      36.285  22.830  27.152  1.00  0.00     0.345 HD
ATOM     22  H   UNL A   1      36.198  24.125  26.109  1.00  0.00     0.345 HD
ATOM     23  H   UNL A   1      37.665  23.397  26.413  1.00  0.00     0.345 HD
ENDBRANCH  15  20
ENDBRANCH  13  15
ENDBRANCH  10  13
ENDBRANCH   4   7
ENDBRANCH   2   3
ENDBRANCH   1   2
BRANCH   1  24
ATOM     24  C   UNL A   1      33.441  28.731  27.143  1.00  0.00     0.118 C 
BRANCH  24  25
ATOM     25  N   UNL A   1      33.525  30.160  27.416  1.00  0.00    -0.352 N 
ATOM     26  C   UNL A   1      34.513  30.882  28.044  1.00  0.00     0.251 C 
ATOM     27  H   UNL A   1      32.757  30.690  27.104  1.00  0.00     0.163 HD
ATOM     28  O   UNL A   1      34.324  32.066  28.301  1.00  0.00    -0.269 OA
BRANCH  26  29
ATOM     29  C   UNL A   1      35.787  30.234  28.436  1.00  0.00     0.039 A 
ATOM     30  C   UNL A   1      36.858  30.258  27.536  1.00  0.00     0.014 A 
ATOM     31  C   UNL A   1      35.932  29.599  29.671  1.00  0.00     0.014 A 
ATOM     32  C   UNL A   1      38.091  29.713  27.907  1.00  0.00     0.010 A 
ATOM     33  C   UNL A   1      37.183  29.131  30.070  1.00  0.00     0.010 A 
ATOM     34  C   UNL A   1      38.277  29.181  29.194  1.00  0.00    -0.014 A 
BRANCH  34  35
ATOM     35  C   UNL A   1      39.610  28.699  29.646  1.00  0.00     0.031 A 
ATOM     36  C   UNL A   1      40.364  29.433  30.722  1.00  0.00     0.074 A 
ATOM     37  C   UNL A   1      40.181  27.646  29.026  1.00  0.00     0.049 A 
ATOM     38  N   UNL A   1      41.559  29.193  31.202  1.00  0.00    -0.248 NA
ATOM     39  C   UNL A   1      39.704  30.605  31.321  1.00  0.00     0.031 C 
ATOM     40  C   UNL A   1      39.588  26.892  27.919  1.00  0.00     0.029 A 
ATOM     41  N   UNL A   1      41.400  27.043  29.220  1.00  0.00    -0.354 N 
ATOM     42  C   UNL A   1      41.806  30.197  32.130  1.00  0.00     0.074 A 
ATOM     43  C   UNL A   1      40.652  31.070  32.123  1.00  0.00     0.031 C 
ATOM     44  C   UNL A   1      40.438  25.925  27.538  1.00  0.00     0.029 A 
ATOM     45  C   UNL A   1      41.652  26.012  28.344  1.00  0.00     0.049 A 
ATOM     46  H   UNL A   1      42.034  27.322  29.920  1.00  0.00     0.167 HD
ATOM     47  C   UNL A   1      42.882  30.365  32.936  1.00  0.00     0.034 A 
ATOM     48  C   UNL A   1      42.740  25.231  28.195  1.00  0.00     0.034 A 
ATOM     49  C   UNL A   1      44.015  29.479  32.965  1.00  0.00     0.049 A 
ATOM     50  C   UNL A   1      43.914  25.427  29.116  1.00  0.00     0.074 A 
ATOM     51  C   UNL A   1      45.116  29.520  33.802  1.00  0.00     0.029 A 
ATOM     52  N   UNL A   1      44.201  28.404  32.111  1.00  0.00    -0.354 N 
ATOM     53  N   UNL A   1      44.062  26.289  30.093  1.00  0.00    -0.248 NA
ATOM     54  C   UNL A   1      45.057  24.520  28.939  1.00  0.00     0.031 C 
ATOM     55  C   UNL A   1      45.985  28.489  33.432  1.00  0.00     0.029 A 
ATOM     56  C   UNL A   1      45.405  27.780  32.393  1.00  0.00     0.049 A 
ATOM     57  H   UNL A   1      43.571  28.124  31.410  1.00  0.00     0.167 HD
ATOM     58  C   UNL A   1      45.294  26.003  30.670  1.00  0.00     0.074 A 
ATOM     59  C   UNL A   1      45.842  24.875  29.948  1.00  0.00     0.031 C 
ATOM     60  C   UNL A   1      45.920  26.625  31.700  1.00  0.00     0.034 A 
BRANCH  47  61
ATOM     61  C   UNL A   1      42.868  31.533  33.891  1.00  0.00     0.023 A 
ATOM     62  C   UNL A   1      43.381  32.779  33.475  1.00  0.00     0.012 A 
ATOM     63  C   UNL A   1      42.293  31.416  35.172  1.00  0.00     0.148 A 
ATOM     64  C   UNL A   1      43.357  33.880  34.331  1.00  0.00     0.002 A 
ATOM     65  C   UNL A   1      42.228  32.531  36.001  1.00  0.00     0.091 A 
ATOM     66  F   UNL A   1      41.826  30.221  35.556  1.00  0.00    -0.205 F 
ATOM     67  C   UNL A   1      42.772  33.759  35.588  1.00  0.00     0.022 A 
BRANCH  65  68
ATOM     68  S   UNL A   1      41.420  32.502  37.605  1.00  0.00     0.127 S 
ATOM     69  O   UNL A   1      41.525  33.902  38.013  1.00  0.00    -0.237 OA
ATOM     70  O   UNL A   1      40.066  32.068  37.258  1.00  0.00    -0.237 OA
ATOM     71  O   UNL A   1      42.173  31.557  38.418  1.00  0.00    -0.744 OA
ENDBRANCH  65  68
ENDBRANCH  47  61
BRANCH  48  72
ATOM     72  C   UNL A   1      42.750  24.151  27.167  1.00  0.00     0.023 A 
ATOM     73  C   UNL A   1      43.370  24.384  25.924  1.00  0.00     0.012 A 
ATOM     74  C   UNL A   1      42.165  22.893  27.417  1.00  0.00     0.148 A 
ATOM     75  C   UNL A   1      43.376  23.400  24.935  1.00  0.00     0.002 A 
ATOM     76  C   UNL A   1      42.226  21.898  26.449  1.00  0.00     0.091 A 
ATOM     77  F   UNL A   1      41.572  22.694  28.602  1.00  0.00    -0.205 F 
ATOM     78  C   UNL A   1      42.812  22.155  25.200  1.00  0.00     0.022 A 
BRANCH  76  79
ATOM     79  S   UNL A   1      41.644  20.224  26.747  1.00  0.00     0.127 S 
ATOM     80  O   UNL A   1      40.234  20.448  27.060  1.00  0.00    -0.237 OA
ATOM     81  O   UNL A   1      41.894  19.586  25.454  1.00  0.00    -0.237 OA
ATOM     82  O   UNL A   1      42.459  19.710  27.838  1.00  0.00    -0.744 OA
ENDBRANCH  76  79
ENDBRANCH  48  72
BRANCH  60  83
ATOM     83  C   UNL A   1      47.250  26.076  32.148  1.00  0.00     0.023 A 
ATOM     84  C   UNL A   1      47.316  25.175  33.229  1.00  0.00     0.012 A 
ATOM     85  C   UNL A   1      48.429  26.401  31.446  1.00  0.00     0.148 A 
ATOM     86  C   UNL A   1      48.539  24.635  33.626  1.00  0.00     0.002 A 
ATOM     87  C   UNL A   1      49.634  25.818  31.814  1.00  0.00     0.091 A 
ATOM     88  F   UNL A   1      48.348  27.273  30.430  1.00  0.00    -0.205 F 
ATOM     89  C   UNL A   1      49.694  24.945  32.913  1.00  0.00     0.022 A 
BRANCH  87  90
ATOM     90  S   UNL A   1      51.155  26.080  30.894  1.00  0.00     0.127 S 
ATOM     91  O   UNL A   1      51.345  27.522  31.037  1.00  0.00    -0.237 OA
ATOM     92  O   UNL A   1      52.112  25.260  31.639  1.00  0.00    -0.237 OA
ATOM     93  O   UNL A   1      50.890  25.617  29.538  1.00  0.00    -0.744 OA
ENDBRANCH  87  90
ENDBRANCH  60  83
ENDBRANCH  34  35
ENDBRANCH  26  29
ENDBRANCH  24  25
ENDBRANCH   1  24
TORSDOF 16
ENDMDL
