MODEL 1
REMARK VINA RESULT:     -12.8      0.000      0.000
REMARK SMILES Cc1cccc(C(=O)NCCCNC(=O)c2ccc(-c3c4nc(c(-c5cccc(S(=O)(=O)[O-])c5F)c5ccc([nH]5)c(-c5cccc(S(=O)(=O)[O-])c5F)c5nc(c(-c6cccc(S(=O)(=O)[O-])c6F)c6ccc3[nH]6)C=C5)C=C4)cc2)c1NC(=O)Cc1ccccc1
REMARK SMILES IDX 11 1 10 2 9 3 7 4 8 5 6 7 1 8 2 9 3 10 79 11 4 12 5 13 80 14
REMARK SMILES IDX 81 15 82 17 83 18 84 19 85 20 89 21 86 22 88 23 87 24 12 25
REMARK SMILES IDX 13 26 14 27 15 29 16 30 17 31 78 32 18 33 77 34 19 35 20 36
REMARK SMILES IDX 21 37 71 38 22 39 76 40 70 41 72 42 23 43 75 44 69 45 68 46
REMARK SMILES IDX 24 48 56 49 36 50 55 51 37 52 40 53 54 54 73 55 38 56 39 57
REMARK SMILES IDX 53 59 74 60 41 61 25 62 26 63 34 64 27 65 29 66 35 67 28 68
REMARK SMILES IDX 30 69 31 70 32 71 33 72 57 73 58 74 66 75 59 76 61 77 67 78
REMARK SMILES IDX 60 79 62 80 63 81 64 82 65 83 42 84 43 85 51 86 44 87 46 88
REMARK SMILES IDX 52 89 45 90 47 91 48 92 49 93 50 94
REMARK H PARENT 9 6 80 16 13 28 72 47 40 58
REMARK Flexibility Score: inf
ROOT
ATOM      1  C   UNL A   1      33.784  29.372  26.185  1.00  0.00     0.042 C 
ENDROOT
BRANCH   1   2
ATOM      2  C   UNL A   1      32.575  29.084  25.281  1.00  0.00     0.118 C 
BRANCH   2   3
ATOM      3  N   UNL A   1      31.512  28.186  25.732  1.00  0.00    -0.352 N 
ATOM      4  C   UNL A   1      31.525  26.854  26.118  1.00  0.00     0.253 C 
ATOM      5  O   UNL A   1      30.706  26.465  26.949  1.00  0.00    -0.269 OA
ATOM      6  H   UNL A   1      30.621  28.603  25.768  1.00  0.00     0.163 HD
BRANCH   4   7
ATOM      7  C   UNL A   1      32.499  25.870  25.581  1.00  0.00     0.063 A 
ATOM      8  C   UNL A   1      32.398  23.703  22.616  1.00  0.00     0.046 C 
ATOM      9  C   UNL A   1      32.940  24.248  23.903  1.00  0.00    -0.027 A 
ATOM     10  C   UNL A   1      34.315  24.404  24.087  1.00  0.00     0.005 A 
ATOM     11  C   UNL A   1      32.100  24.736  24.902  1.00  0.00     0.056 A 
ATOM     12  C   UNL A   1      34.782  25.217  25.117  1.00  0.00     0.001 A 
ATOM     13  C   UNL A   1      33.873  26.034  25.794  1.00  0.00     0.016 A 
BRANCH  11  14
ATOM     14  N   UNL A   1      31.066  23.888  25.333  1.00  0.00    -0.325 N 
ATOM     15  C   UNL A   1      30.974  23.045  26.407  1.00  0.00     0.228 C 
ATOM     16  H   UNL A   1      30.265  23.904  24.762  1.00  0.00     0.169 HD
ATOM     17  O   UNL A   1      29.870  22.509  26.568  1.00  0.00    -0.274 OA
BRANCH  15  18
ATOM     18  C   UNL A   1      32.173  22.682  27.290  1.00  0.00     0.135 C 
BRANCH  18  19
ATOM     19  C   UNL A   1      33.214  21.851  26.591  1.00  0.00    -0.039 A 
ATOM     20  C   UNL A   1      34.570  22.028  26.890  1.00  0.00     0.004 A 
ATOM     21  C   UNL A   1      32.853  20.955  25.587  1.00  0.00     0.004 A 
ATOM     22  C   UNL A   1      35.530  21.501  26.046  1.00  0.00     0.000 A 
ATOM     23  C   UNL A   1      33.802  20.426  24.744  1.00  0.00     0.000 A 
ATOM     24  C   UNL A   1      35.126  20.773  24.941  1.00  0.00     0.000 A 
ENDBRANCH  18  19
ENDBRANCH  15  18
ENDBRANCH  11  14
ENDBRANCH   4   7
ENDBRANCH   2   3
ENDBRANCH   1   2
BRANCH   1  25
ATOM     25  C   UNL A   1      33.623  30.308  27.379  1.00  0.00     0.118 C 
BRANCH  25  26
ATOM     26  N   UNL A   1      34.640  31.332  27.426  1.00  0.00    -0.352 N 
ATOM     27  C   UNL A   1      35.817  31.339  28.160  1.00  0.00     0.251 C 
ATOM     28  H   UNL A   1      34.477  32.126  26.867  1.00  0.00     0.163 HD
ATOM     29  O   UNL A   1      36.214  32.392  28.601  1.00  0.00    -0.269 OA
BRANCH  27  30
ATOM     30  C   UNL A   1      36.665  30.113  28.188  1.00  0.00     0.039 A 
ATOM     31  C   UNL A   1      36.821  29.518  29.451  1.00  0.00     0.014 A 
ATOM     32  C   UNL A   1      37.464  29.699  27.126  1.00  0.00     0.014 A 
ATOM     33  C   UNL A   1      37.927  28.717  29.716  1.00  0.00     0.010 A 
ATOM     34  C   UNL A   1      38.573  28.918  27.391  1.00  0.00     0.010 A 
ATOM     35  C   UNL A   1      38.853  28.519  28.704  1.00  0.00    -0.014 A 
BRANCH  35  36
ATOM     36  C   UNL A   1      40.173  27.953  28.929  1.00  0.00     0.031 A 
ATOM     37  C   UNL A   1      40.399  26.516  28.734  1.00  0.00     0.074 A 
ATOM     38  C   UNL A   1      41.212  28.801  29.062  1.00  0.00     0.049 A 
ATOM     39  N   UNL A   1      41.506  25.913  28.994  1.00  0.00    -0.248 NA
ATOM     40  C   UNL A   1      39.358  25.632  28.237  1.00  0.00     0.031 C 
ATOM     41  C   UNL A   1      42.614  28.525  28.774  1.00  0.00     0.029 A 
ATOM     42  N   UNL A   1      41.220  30.112  29.540  1.00  0.00    -0.354 N 
ATOM     43  C   UNL A   1      41.437  24.659  28.434  1.00  0.00     0.074 A 
ATOM     44  C   UNL A   1      40.047  24.499  28.074  1.00  0.00     0.031 C 
ATOM     45  C   UNL A   1      43.368  29.553  29.195  1.00  0.00     0.029 A 
ATOM     46  C   UNL A   1      42.509  30.370  30.029  1.00  0.00     0.049 A 
ATOM     47  H   UNL A   1      40.461  30.739  29.537  1.00  0.00     0.167 HD
ATOM     48  C   UNL A   1      42.601  23.983  28.210  1.00  0.00     0.034 A 
ATOM     49  C   UNL A   1      42.777  30.669  31.334  1.00  0.00     0.034 A 
ATOM     50  C   UNL A   1      43.758  24.752  28.720  1.00  0.00     0.049 A 
ATOM     51  C   UNL A   1      43.676  29.599  31.936  1.00  0.00     0.074 A 
ATOM     52  C   UNL A   1      44.697  25.565  28.102  1.00  0.00     0.029 A 
ATOM     53  N   UNL A   1      43.883  24.992  30.089  1.00  0.00    -0.354 N 
ATOM     54  N   UNL A   1      43.836  28.420  31.399  1.00  0.00    -0.248 NA
ATOM     55  C   UNL A   1      44.509  29.772  33.120  1.00  0.00     0.031 C 
ATOM     56  C   UNL A   1      45.320  26.363  29.105  1.00  0.00     0.029 A 
ATOM     57  C   UNL A   1      44.787  26.016  30.339  1.00  0.00     0.049 A 
ATOM     58  H   UNL A   1      43.394  24.500  30.788  1.00  0.00     0.167 HD
ATOM     59  C   UNL A   1      44.762  27.697  32.082  1.00  0.00     0.074 A 
ATOM     60  C   UNL A   1      45.154  28.590  33.164  1.00  0.00     0.031 C 
ATOM     61  C   UNL A   1      45.108  26.427  31.708  1.00  0.00     0.034 A 
BRANCH  48  62
ATOM     62  C   UNL A   1      42.747  22.785  27.274  1.00  0.00     0.023 A 
ATOM     63  C   UNL A   1      42.005  21.622  27.581  1.00  0.00     0.012 A 
ATOM     64  C   UNL A   1      43.586  22.684  26.138  1.00  0.00     0.148 A 
ATOM     65  C   UNL A   1      42.153  20.419  26.877  1.00  0.00     0.002 A 
ATOM     66  C   UNL A   1      43.784  21.470  25.469  1.00  0.00     0.091 A 
ATOM     67  F   UNL A   1      44.137  23.781  25.617  1.00  0.00    -0.205 F 
ATOM     68  C   UNL A   1      43.068  20.332  25.840  1.00  0.00     0.022 A 
BRANCH  66  69
ATOM     69  S   UNL A   1      44.991  21.278  24.141  1.00  0.00     0.127 S 
ATOM     70  O   UNL A   1      44.795  19.880  23.745  1.00  0.00    -0.237 OA
ATOM     71  O   UNL A   1      44.532  22.255  23.156  1.00  0.00    -0.237 OA
ATOM     72  O   UNL A   1      46.296  21.549  24.731  1.00  0.00    -0.744 OA
ENDBRANCH  66  69
ENDBRANCH  48  62
BRANCH  49  73
ATOM     73  C   UNL A   1      41.647  31.395  31.989  1.00  0.00     0.023 A 
ATOM     74  C   UNL A   1      41.254  32.610  31.367  1.00  0.00     0.012 A 
ATOM     75  C   UNL A   1      40.708  30.701  32.769  1.00  0.00     0.148 A 
ATOM     76  C   UNL A   1      39.916  33.006  31.350  1.00  0.00     0.002 A 
ATOM     77  C   UNL A   1      39.373  31.109  32.753  1.00  0.00     0.091 A 
ATOM     78  F   UNL A   1      41.101  29.599  33.419  1.00  0.00    -0.205 F 
ATOM     79  C   UNL A   1      38.967  32.226  32.004  1.00  0.00     0.022 A 
BRANCH  77  80
ATOM     80  S   UNL A   1      38.107  30.121  33.559  1.00  0.00     0.127 S 
ATOM     81  O   UNL A   1      38.444  28.778  33.099  1.00  0.00    -0.237 OA
ATOM     82  O   UNL A   1      38.361  30.363  34.979  1.00  0.00    -0.237 OA
ATOM     83  O   UNL A   1      36.852  30.680  33.078  1.00  0.00    -0.744 OA
ENDBRANCH  77  80
ENDBRANCH  49  73
BRANCH  61  84
ATOM     84  C   UNL A   1      45.802  25.443  32.619  1.00  0.00     0.023 A 
ATOM     85  C   UNL A   1      47.162  25.592  32.957  1.00  0.00     0.012 A 
ATOM     86  C   UNL A   1      45.064  24.470  33.336  1.00  0.00     0.148 A 
ATOM     87  C   UNL A   1      47.774  24.788  33.919  1.00  0.00     0.002 A 
ATOM     88  C   UNL A   1      45.648  23.759  34.379  1.00  0.00     0.091 A 
ATOM     89  F   UNL A   1      43.788  24.218  33.008  1.00  0.00    -0.205 F 
ATOM     90  C   UNL A   1      47.011  23.892  34.652  1.00  0.00     0.022 A 
BRANCH  88  91
ATOM     91  S   UNL A   1      44.644  22.800  35.522  1.00  0.00     0.127 S 
ATOM     92  O   UNL A   1      44.540  21.518  34.831  1.00  0.00    -0.237 OA
ATOM     93  O   UNL A   1      45.478  22.779  36.726  1.00  0.00    -0.237 OA
ATOM     94  O   UNL A   1      43.406  23.554  35.670  1.00  0.00    -0.744 OA
ENDBRANCH  88  91
ENDBRANCH  61  84
ENDBRANCH  35  36
ENDBRANCH  27  30
ENDBRANCH  25  26
ENDBRANCH   1  25
TORSDOF 16
ENDMDL
MODEL 2
REMARK VINA RESULT:     -12.5      1.504      2.068
REMARK SMILES Cc1cccc(C(=O)NCCCNC(=O)c2ccc(-c3c4nc(c(-c5cccc(S(=O)(=O)[O-])c5F)c5ccc([nH]5)c(-c5cccc(S(=O)(=O)[O-])c5F)c5nc(c(-c6cccc(S(=O)(=O)[O-])c6F)c6ccc3[nH]6)C=C5)C=C4)cc2)c1NC(=O)Cc1ccccc1
REMARK SMILES IDX 11 1 10 2 9 3 7 4 8 5 6 7 1 8 2 9 3 10 79 11 4 12 5 13 80 14
REMARK SMILES IDX 81 15 82 17 83 18 84 19 85 20 89 21 86 22 88 23 87 24 12 25
REMARK SMILES IDX 13 26 14 27 15 29 16 30 17 31 78 32 18 33 77 34 19 35 20 36
REMARK SMILES IDX 21 37 71 38 22 39 76 40 70 41 72 42 23 43 75 44 69 45 68 46
REMARK SMILES IDX 24 48 56 49 36 50 55 51 37 52 40 53 54 54 73 55 38 56 39 57
REMARK SMILES IDX 53 59 74 60 41 61 25 62 26 63 34 64 27 65 29 66 35 67 28 68
REMARK SMILES IDX 30 69 31 70 32 71 33 72 57 73 58 74 66 75 59 76 61 77 67 78
REMARK SMILES IDX 60 79 62 80 63 81 64 82 65 83 42 84 43 85 51 86 44 87 46 88
REMARK SMILES IDX 52 89 45 90 47 91 48 92 49 93 50 94
REMARK H PARENT 9 6 80 16 13 28 72 47 40 58
REMARK Flexibility Score: inf
ROOT
ATOM      1  C   UNL A   1      32.706  30.959  26.842  1.00  0.00     0.042 C 
ENDROOT
BRANCH   1   2
ATOM      2  C   UNL A   1      31.620  30.037  26.264  1.00  0.00     0.118 C 
BRANCH   2   3
ATOM      3  N   UNL A   1      31.028  30.322  24.956  1.00  0.00    -0.352 N 
ATOM      4  C   UNL A   1      30.925  29.564  23.800  1.00  0.00     0.253 C 
ATOM      5  O   UNL A   1      29.964  29.740  23.054  1.00  0.00    -0.269 OA
ATOM      6  H   UNL A   1      30.629  31.219  24.883  1.00  0.00     0.163 HD
BRANCH   4   7
ATOM      7  C   UNL A   1      31.922  28.529  23.424  1.00  0.00     0.063 A 
ATOM      8  C   UNL A   1      31.529  25.044  22.331  1.00  0.00     0.046 C 
ATOM      9  C   UNL A   1      32.268  26.274  22.764  1.00  0.00    -0.027 A 
ATOM     10  C   UNL A   1      33.489  26.613  22.180  1.00  0.00     0.005 A 
ATOM     11  C   UNL A   1      31.711  27.186  23.659  1.00  0.00     0.056 A 
ATOM     12  C   UNL A   1      33.987  27.906  22.328  1.00  0.00     0.001 A 
ATOM     13  C   UNL A   1      33.150  28.891  22.857  1.00  0.00     0.016 A 
BRANCH  11  14
ATOM     14  N   UNL A   1      31.227  26.669  24.873  1.00  0.00    -0.325 N 
ATOM     15  C   UNL A   1      31.877  26.238  25.997  1.00  0.00     0.228 C 
ATOM     16  H   UNL A   1      30.246  26.607  24.924  1.00  0.00     0.169 HD
ATOM     17  O   UNL A   1      31.147  25.936  26.950  1.00  0.00    -0.274 OA
BRANCH  15  18
ATOM     18  C   UNL A   1      33.393  26.023  26.056  1.00  0.00     0.135 C 
BRANCH  18  19
ATOM     19  C   UNL A   1      33.846  24.723  25.449  1.00  0.00    -0.039 A 
ATOM     20  C   UNL A   1      35.108  24.630  24.851  1.00  0.00     0.004 A 
ATOM     21  C   UNL A   1      32.993  23.622  25.404  1.00  0.00     0.004 A 
ATOM     22  C   UNL A   1      35.401  23.553  24.034  1.00  0.00     0.000 A 
ATOM     23  C   UNL A   1      33.276  22.547  24.595  1.00  0.00     0.000 A 
ATOM     24  C   UNL A   1      34.447  22.567  23.858  1.00  0.00     0.000 A 
ENDBRANCH  18  19
ENDBRANCH  15  18
ENDBRANCH  11  14
ENDBRANCH   4   7
ENDBRANCH   2   3
ENDBRANCH   1   2
BRANCH   1  25
ATOM     25  C   UNL A   1      34.112  30.413  27.066  1.00  0.00     0.118 C 
BRANCH  25  26
ATOM     26  N   UNL A   1      35.052  31.437  27.462  1.00  0.00    -0.352 N 
ATOM     27  C   UNL A   1      36.115  31.329  28.346  1.00  0.00     0.251 C 
ATOM     28  H   UNL A   1      34.920  32.322  27.052  1.00  0.00     0.163 HD
ATOM     29  O   UNL A   1      36.386  32.282  29.038  1.00  0.00    -0.269 OA
BRANCH  27  30
ATOM     30  C   UNL A   1      37.022  30.149  28.256  1.00  0.00     0.039 A 
ATOM     31  C   UNL A   1      37.115  29.372  29.422  1.00  0.00     0.014 A 
ATOM     32  C   UNL A   1      37.917  29.938  27.211  1.00  0.00     0.014 A 
ATOM     33  C   UNL A   1      38.239  28.585  29.650  1.00  0.00     0.010 A 
ATOM     34  C   UNL A   1      39.043  29.171  27.443  1.00  0.00     0.010 A 
ATOM     35  C   UNL A   1      39.246  28.584  28.698  1.00  0.00    -0.014 A 
BRANCH  35  36
ATOM     36  C   UNL A   1      40.573  28.043  28.940  1.00  0.00     0.031 A 
ATOM     37  C   UNL A   1      40.850  26.627  28.672  1.00  0.00     0.074 A 
ATOM     38  C   UNL A   1      41.581  28.911  29.161  1.00  0.00     0.049 A 
ATOM     39  N   UNL A   1      41.965  26.042  28.939  1.00  0.00    -0.248 NA
ATOM     40  C   UNL A   1      39.856  25.744  28.086  1.00  0.00     0.031 C 
ATOM     41  C   UNL A   1      43.000  28.692  28.911  1.00  0.00     0.029 A 
ATOM     42  N   UNL A   1      41.532  30.192  29.714  1.00  0.00    -0.354 N 
ATOM     43  C   UNL A   1      41.955  24.821  28.305  1.00  0.00     0.074 A 
ATOM     44  C   UNL A   1      40.584  24.643  27.884  1.00  0.00     0.031 C 
ATOM     45  C   UNL A   1      43.707  29.715  29.418  1.00  0.00     0.029 A 
ATOM     46  C   UNL A   1      42.794  30.457  30.265  1.00  0.00     0.049 A 
ATOM     47  H   UNL A   1      40.754  30.796  29.717  1.00  0.00     0.167 HD
ATOM     48  C   UNL A   1      43.146  24.192  28.087  1.00  0.00     0.034 A 
ATOM     49  C   UNL A   1      43.005  30.686  31.594  1.00  0.00     0.034 A 
ATOM     50  C   UNL A   1      44.260  24.963  28.684  1.00  0.00     0.049 A 
ATOM     51  C   UNL A   1      43.913  29.610  32.168  1.00  0.00     0.074 A 
ATOM     52  C   UNL A   1      45.196  25.837  28.149  1.00  0.00     0.029 A 
ATOM     53  N   UNL A   1      44.328  25.126  30.068  1.00  0.00    -0.354 N 
ATOM     54  N   UNL A   1      44.129  28.468  31.570  1.00  0.00    -0.248 NA
ATOM     55  C   UNL A   1      44.697  29.737  33.390  1.00  0.00     0.031 C 
ATOM     56  C   UNL A   1      45.757  26.592  29.220  1.00  0.00     0.029 A 
ATOM     57  C   UNL A   1      45.191  26.159  30.410  1.00  0.00     0.049 A 
ATOM     58  H   UNL A   1      43.829  24.580  30.718  1.00  0.00     0.167 HD
ATOM     59  C   UNL A   1      45.051  27.733  32.245  1.00  0.00     0.074 A 
ATOM     60  C   UNL A   1      45.376  28.572  33.391  1.00  0.00     0.031 C 
ATOM     61  C   UNL A   1      45.449  26.498  31.812  1.00  0.00     0.034 A 
BRANCH  48  62
ATOM     62  C   UNL A   1      43.362  23.056  27.090  1.00  0.00     0.023 A 
ATOM     63  C   UNL A   1      44.024  23.366  25.880  1.00  0.00     0.012 A 
ATOM     64  C   UNL A   1      42.931  21.713  27.216  1.00  0.00     0.148 A 
ATOM     65  C   UNL A   1      44.166  22.444  24.835  1.00  0.00     0.002 A 
ATOM     66  C   UNL A   1      43.015  20.806  26.153  1.00  0.00     0.091 A 
ATOM     67  F   UNL A   1      42.521  21.253  28.399  1.00  0.00    -0.205 F 
ATOM     68  C   UNL A   1      43.631  21.171  24.956  1.00  0.00     0.022 A 
BRANCH  66  69
ATOM     69  S   UNL A   1      42.301  19.150  26.230  1.00  0.00     0.127 S 
ATOM     70  O   UNL A   1      40.916  19.390  25.816  1.00  0.00    -0.237 OA
ATOM     71  O   UNL A   1      43.105  18.416  25.255  1.00  0.00    -0.237 OA
ATOM     72  O   UNL A   1      42.438  18.709  27.613  1.00  0.00    -0.744 OA
ENDBRANCH  66  69
ENDBRANCH  48  62
BRANCH  49  73
ATOM     73  C   UNL A   1      41.830  31.340  32.246  1.00  0.00     0.023 A 
ATOM     74  C   UNL A   1      41.459  32.606  31.718  1.00  0.00     0.012 A 
ATOM     75  C   UNL A   1      40.857  30.571  32.903  1.00  0.00     0.148 A 
ATOM     76  C   UNL A   1      40.119  32.992  31.659  1.00  0.00     0.002 A 
ATOM     77  C   UNL A   1      39.520  30.969  32.846  1.00  0.00     0.091 A 
ATOM     78  F   UNL A   1      41.225  29.415  33.470  1.00  0.00    -0.205 F 
ATOM     79  C   UNL A   1      39.144  32.148  32.181  1.00  0.00     0.022 A 
BRANCH  77  80
ATOM     80  S   UNL A   1      38.221  29.901  33.483  1.00  0.00     0.127 S 
ATOM     81  O   UNL A   1      38.656  28.593  33.005  1.00  0.00    -0.237 OA
ATOM     82  O   UNL A   1      38.326  30.090  34.929  1.00  0.00    -0.237 OA
ATOM     83  O   UNL A   1      36.998  30.436  32.903  1.00  0.00    -0.744 OA
ENDBRANCH  77  80
ENDBRANCH  49  73
BRANCH  61  84
ATOM     84  C   UNL A   1      46.140  25.483  32.691  1.00  0.00     0.023 A 
ATOM     85  C   UNL A   1      47.523  25.558  32.949  1.00  0.00     0.012 A 
ATOM     86  C   UNL A   1      45.391  24.556  33.458  1.00  0.00     0.148 A 
ATOM     87  C   UNL A   1      48.145  24.727  33.882  1.00  0.00     0.002 A 
ATOM     88  C   UNL A   1      45.995  23.821  34.473  1.00  0.00     0.091 A 
ATOM     89  F   UNL A   1      44.087  24.373  33.206  1.00  0.00    -0.205 F 
ATOM     90  C   UNL A   1      47.376  23.879  34.666  1.00  0.00     0.022 A 
BRANCH  88  91
ATOM     91  S   UNL A   1      45.008  22.926  35.680  1.00  0.00     0.127 S 
ATOM     92  O   UNL A   1      44.174  23.988  36.237  1.00  0.00    -0.237 OA
ATOM     93  O   UNL A   1      44.290  21.962  34.842  1.00  0.00    -0.237 OA
ATOM     94  O   UNL A   1      45.971  22.321  36.590  1.00  0.00    -0.744 OA
ENDBRANCH  88  91
ENDBRANCH  61  84
ENDBRANCH  35  36
ENDBRANCH  27  30
ENDBRANCH  25  26
ENDBRANCH   1  25
TORSDOF 16
ENDMDL
MODEL 3
REMARK VINA RESULT:     -12.3      1.770      2.139
REMARK SMILES Cc1cccc(C(=O)NCCCNC(=O)c2ccc(-c3c4nc(c(-c5cccc(S(=O)(=O)[O-])c5F)c5ccc([nH]5)c(-c5cccc(S(=O)(=O)[O-])c5F)c5nc(c(-c6cccc(S(=O)(=O)[O-])c6F)c6ccc3[nH]6)C=C5)C=C4)cc2)c1NC(=O)Cc1ccccc1
REMARK SMILES IDX 11 1 10 2 9 3 7 4 8 5 6 7 1 8 2 9 3 10 79 11 4 12 5 13 80 14
REMARK SMILES IDX 81 15 82 17 83 18 84 19 85 20 89 21 86 22 88 23 87 24 12 25
REMARK SMILES IDX 13 26 14 27 15 29 16 30 17 31 78 32 18 33 77 34 19 35 20 36
REMARK SMILES IDX 21 37 71 38 22 39 76 40 70 41 72 42 23 43 75 44 69 45 68 46
REMARK SMILES IDX 24 48 56 49 36 50 55 51 37 52 40 53 54 54 73 55 38 56 39 57
REMARK SMILES IDX 53 59 74 60 41 61 25 62 26 63 34 64 27 65 29 66 35 67 28 68
REMARK SMILES IDX 30 69 31 70 32 71 33 72 57 73 58 74 66 75 59 76 61 77 67 78
REMARK SMILES IDX 60 79 62 80 63 81 64 82 65 83 42 84 43 85 51 86 44 87 46 88
REMARK SMILES IDX 52 89 45 90 47 91 48 92 49 93 50 94
REMARK H PARENT 9 6 80 16 13 28 72 47 40 58
REMARK Flexibility Score: inf
ROOT
ATOM      1  C   UNL A   1      33.375  30.106  25.749  1.00  0.00     0.042 C 
ENDROOT
BRANCH   1   2
ATOM      2  C   UNL A   1      32.344  29.251  24.994  1.00  0.00     0.118 C 
BRANCH   2   3
ATOM      3  N   UNL A   1      31.402  28.408  25.731  1.00  0.00    -0.352 N 
ATOM      4  C   UNL A   1      31.521  27.137  26.270  1.00  0.00     0.253 C 
ATOM      5  O   UNL A   1      30.869  26.849  27.272  1.00  0.00    -0.269 OA
ATOM      6  H   UNL A   1      30.518  28.820  25.869  1.00  0.00     0.163 HD
BRANCH   4   7
ATOM      7  C   UNL A   1      32.418  26.100  25.698  1.00  0.00     0.063 A 
ATOM      8  C   UNL A   1      31.958  23.733  22.927  1.00  0.00     0.046 C 
ATOM      9  C   UNL A   1      32.648  24.357  24.101  1.00  0.00    -0.027 A 
ATOM     10  C   UNL A   1      34.036  24.502  24.117  1.00  0.00     0.005 A 
ATOM     11  C   UNL A   1      31.933  24.929  25.152  1.00  0.00     0.056 A 
ATOM     12  C   UNL A   1      34.626  25.377  25.026  1.00  0.00     0.001 A 
ATOM     13  C   UNL A   1      33.809  26.255  25.741  1.00  0.00     0.016 A 
BRANCH  11  14
ATOM     14  N   UNL A   1      30.947  24.132  25.758  1.00  0.00    -0.325 N 
ATOM     15  C   UNL A   1      30.991  23.310  26.851  1.00  0.00     0.228 C 
ATOM     16  H   UNL A   1      30.068  24.172  25.317  1.00  0.00     0.169 HD
ATOM     17  O   UNL A   1      29.907  22.823  27.194  1.00  0.00    -0.274 OA
BRANCH  15  18
ATOM     18  C   UNL A   1      32.299  22.913  27.546  1.00  0.00     0.135 C 
BRANCH  18  19
ATOM     19  C   UNL A   1      33.172  22.005  26.724  1.00  0.00    -0.039 A 
ATOM     20  C   UNL A   1      34.563  22.050  26.867  1.00  0.00     0.004 A 
ATOM     21  C   UNL A   1      32.618  21.165  25.759  1.00  0.00     0.004 A 
ATOM     22  C   UNL A   1      35.369  21.455  25.913  1.00  0.00     0.000 A 
ATOM     23  C   UNL A   1      33.411  20.569  24.808  1.00  0.00     0.000 A 
ATOM     24  C   UNL A   1      34.776  20.790  24.855  1.00  0.00     0.000 A 
ENDBRANCH  18  19
ENDBRANCH  15  18
ENDBRANCH  11  14
ENDBRANCH   4   7
ENDBRANCH   2   3
ENDBRANCH   1   2
BRANCH   1  25
ATOM     25  C   UNL A   1      33.130  30.458  27.213  1.00  0.00     0.118 C 
BRANCH  25  26
ATOM     26  N   UNL A   1      33.980  31.528  27.679  1.00  0.00    -0.352 N 
ATOM     27  C   UNL A   1      34.981  31.473  28.638  1.00  0.00     0.251 C 
ATOM     28  H   UNL A   1      33.829  32.408  27.265  1.00  0.00     0.163 HD
ATOM     29  O   UNL A   1      35.149  32.435  29.351  1.00  0.00    -0.269 OA
BRANCH  27  30
ATOM     30  C   UNL A   1      35.957  30.345  28.609  1.00  0.00     0.039 A 
ATOM     31  C   UNL A   1      36.150  29.686  29.833  1.00  0.00     0.014 A 
ATOM     32  C   UNL A   1      36.817  30.093  27.544  1.00  0.00     0.014 A 
ATOM     33  C   UNL A   1      37.331  28.992  30.076  1.00  0.00     0.010 A 
ATOM     34  C   UNL A   1      37.999  29.419  27.788  1.00  0.00     0.010 A 
ATOM     35  C   UNL A   1      38.294  28.963  29.079  1.00  0.00    -0.014 A 
BRANCH  35  36
ATOM     36  C   UNL A   1      39.662  28.527  29.303  1.00  0.00     0.031 A 
ATOM     37  C   UNL A   1      40.060  27.154  28.969  1.00  0.00     0.074 A 
ATOM     38  C   UNL A   1      40.591  29.467  29.571  1.00  0.00     0.049 A 
ATOM     39  N   UNL A   1      41.220  26.655  29.215  1.00  0.00    -0.248 NA
ATOM     40  C   UNL A   1      39.146  26.219  28.336  1.00  0.00     0.031 C 
ATOM     41  C   UNL A   1      42.024  29.382  29.319  1.00  0.00     0.029 A 
ATOM     42  N   UNL A   1      40.431  30.710  30.183  1.00  0.00    -0.354 N 
ATOM     43  C   UNL A   1      41.316  25.469  28.524  1.00  0.00     0.074 A 
ATOM     44  C   UNL A   1      39.966  25.195  28.086  1.00  0.00     0.031 C 
ATOM     45  C   UNL A   1      42.640  30.436  29.878  1.00  0.00     0.029 A 
ATOM     46  C   UNL A   1      41.665  31.056  30.754  1.00  0.00     0.049 A 
ATOM     47  H   UNL A   1      39.605  31.245  30.211  1.00  0.00     0.167 HD
ATOM     48  C   UNL A   1      42.557  24.956  28.283  1.00  0.00     0.034 A 
ATOM     49  C   UNL A   1      41.853  31.239  32.094  1.00  0.00     0.034 A 
ATOM     50  C   UNL A   1      43.599  25.790  28.922  1.00  0.00     0.049 A 
ATOM     51  C   UNL A   1      42.849  30.217  32.621  1.00  0.00     0.074 A 
ATOM     52  C   UNL A   1      44.458  26.765  28.435  1.00  0.00     0.029 A 
ATOM     53  N   UNL A   1      43.651  25.891  30.313  1.00  0.00    -0.354 N 
ATOM     54  N   UNL A   1      43.163  29.129  31.970  1.00  0.00    -0.248 NA
ATOM     55  C   UNL A   1      43.618  30.353  33.852  1.00  0.00     0.031 C 
ATOM     56  C   UNL A   1      44.950  27.514  29.544  1.00  0.00     0.029 A 
ATOM     57  C   UNL A   1      44.422  26.976  30.709  1.00  0.00     0.049 A 
ATOM     58  H   UNL A   1      43.200  25.274  30.934  1.00  0.00     0.167 HD
ATOM     59  C   UNL A   1      44.144  28.444  32.616  1.00  0.00     0.074 A 
ATOM     60  C   UNL A   1      44.394  29.252  33.802  1.00  0.00     0.031 C 
ATOM     61  C   UNL A   1      44.647  27.269  32.126  1.00  0.00     0.034 A 
BRANCH  48  62
ATOM     62  C   UNL A   1      42.872  23.891  27.234  1.00  0.00     0.023 A 
ATOM     63  C   UNL A   1      43.519  24.312  26.050  1.00  0.00     0.012 A 
ATOM     64  C   UNL A   1      42.546  22.514  27.288  1.00  0.00     0.148 A 
ATOM     65  C   UNL A   1      43.743  23.457  24.963  1.00  0.00     0.002 A 
ATOM     66  C   UNL A   1      42.711  21.670  26.183  1.00  0.00     0.091 A 
ATOM     67  F   UNL A   1      42.161  21.965  28.441  1.00  0.00    -0.205 F 
ATOM     68  C   UNL A   1      43.308  22.142  25.014  1.00  0.00     0.022 A 
BRANCH  66  69
ATOM     69  S   UNL A   1      42.128  19.963  26.169  1.00  0.00     0.127 S 
ATOM     70  O   UNL A   1      42.644  19.449  27.440  1.00  0.00    -0.237 OA
ATOM     71  O   UNL A   1      40.677  20.126  26.127  1.00  0.00    -0.237 OA
ATOM     72  O   UNL A   1      42.721  19.337  24.993  1.00  0.00    -0.744 OA
ENDBRANCH  66  69
ENDBRANCH  48  62
BRANCH  49  73
ATOM     73  C   UNL A   1      40.625  31.758  32.769  1.00  0.00     0.023 A 
ATOM     74  C   UNL A   1      39.684  30.775  33.176  1.00  0.00     0.012 A 
ATOM     75  C   UNL A   1      40.646  32.991  33.439  1.00  0.00     0.148 A 
ATOM     76  C   UNL A   1      38.939  30.937  34.345  1.00  0.00     0.002 A 
ATOM     77  C   UNL A   1      39.891  33.148  34.603  1.00  0.00     0.091 A 
ATOM     78  F   UNL A   1      41.478  33.946  33.004  1.00  0.00    -0.205 F 
ATOM     79  C   UNL A   1      39.080  32.107  35.085  1.00  0.00     0.022 A 
BRANCH  77  80
ATOM     80  S   UNL A   1      40.058  34.629  35.607  1.00  0.00     0.127 S 
ATOM     81  O   UNL A   1      39.240  34.293  36.767  1.00  0.00    -0.237 OA
ATOM     82  O   UNL A   1      41.496  34.683  35.868  1.00  0.00    -0.237 OA
ATOM     83  O   UNL A   1      39.571  35.702  34.753  1.00  0.00    -0.744 OA
ENDBRANCH  77  80
ENDBRANCH  49  73
BRANCH  61  84
ATOM     84  C   UNL A   1      45.421  26.276  32.960  1.00  0.00     0.023 A 
ATOM     85  C   UNL A   1      46.807  26.417  33.168  1.00  0.00     0.012 A 
ATOM     86  C   UNL A   1      44.749  25.300  33.738  1.00  0.00     0.148 A 
ATOM     87  C   UNL A   1      47.505  25.603  34.062  1.00  0.00     0.002 A 
ATOM     88  C   UNL A   1      45.427  24.580  34.715  1.00  0.00     0.091 A 
ATOM     89  F   UNL A   1      43.447  25.056  33.532  1.00  0.00    -0.205 F 
ATOM     90  C   UNL A   1      46.811  24.705  34.858  1.00  0.00     0.022 A 
BRANCH  88  91
ATOM     91  S   UNL A   1      44.533  23.616  35.942  1.00  0.00     0.127 S 
ATOM     92  O   UNL A   1      43.707  24.635  36.584  1.00  0.00    -0.237 OA
ATOM     93  O   UNL A   1      43.792  22.664  35.111  1.00  0.00    -0.237 OA
ATOM     94  O   UNL A   1      45.562  23.005  36.773  1.00  0.00    -0.744 OA
ENDBRANCH  88  91
ENDBRANCH  61  84
ENDBRANCH  35  36
ENDBRANCH  27  30
ENDBRANCH  25  26
ENDBRANCH   1  25
TORSDOF 16
ENDMDL
