MODEL 1
REMARK VINA RESULT:     -11.6      0.000      0.000
REMARK SMILES Cc1cc(N(C)[C@H](C)C(=O)NCCCNC(=O)c2ccc(-c3c4nc(c(-c5cccc(S(=O)(=O)[O-])c5F)c5ccc([nH]5)c(-c5cccc(S(=O)(=O)[O-])c5F)c5nc(c(-c6cccc(S(=O)(=O)[O-])c6F)c6ccc3[nH]6)C=C5)C=C4)cc2)ncc1[N+](=O)[O-]
REMARK SMILES IDX 13 1 12 2 11 3 9 4 10 5 7 7 8 8 5 9 6 10 4 11 1 12 2 13 3 14
REMARK SMILES IDX 83 15 82 16 81 17 84 18 85 19 86 20 14 21 15 22 16 23 17 25
REMARK SMILES IDX 18 26 19 27 80 28 20 29 79 30 21 31 22 32 23 33 73 34 24 35
REMARK SMILES IDX 78 36 72 37 74 38 25 39 77 40 71 41 70 42 26 44 58 45 38 46
REMARK SMILES IDX 57 47 39 48 42 49 56 50 75 51 40 52 41 53 55 55 76 56 43 57
REMARK SMILES IDX 27 58 28 59 36 60 29 61 31 62 37 63 30 64 32 65 33 66 34 67
REMARK SMILES IDX 35 68 59 69 60 70 68 71 61 72 63 73 69 74 62 75 64 76 65 77
REMARK SMILES IDX 66 78 67 79 44 80 45 81 53 82 46 83 48 84 54 85 47 86 49 87
REMARK SMILES IDX 50 88 51 89 52 90
REMARK H PARENT 11 6 15 24 74 43 42 54
REMARK Flexibility Score: inf
ROOT
ATOM      1  C   UNL A   1      37.807  20.331  25.028  1.00  0.00     0.042 C 
ENDROOT
BRANCH   1   2
ATOM      2  C   UNL A   1      36.665  21.283  25.316  1.00  0.00     0.117 C 
BRANCH   2   3
ATOM      3  N   UNL A   1      36.230  22.016  24.140  1.00  0.00    -0.354 N 
ATOM      4  C   UNL A   1      35.139  22.809  23.936  1.00  0.00     0.242 C 
ATOM      5  O   UNL A   1      35.151  23.488  22.901  1.00  0.00    -0.273 OA
ATOM      6  H   UNL A   1      36.822  21.927  23.359  1.00  0.00     0.163 HD
BRANCH   4   7
ATOM      7  C   UNL A   1      33.945  22.882  24.916  1.00  0.00     0.169 C 
ATOM      8  C   UNL A   1      33.702  24.300  25.439  1.00  0.00     0.042 C 
BRANCH   7   9
ATOM      9  N   UNL A   1      32.695  22.218  24.449  1.00  0.00    -0.348 N 
ATOM     10  C   UNL A   1      31.623  22.950  23.797  1.00  0.00     0.146 C 
BRANCH   9  11
ATOM     11  C   UNL A   1      32.645  20.830  24.482  1.00  0.00     0.129 A 
ATOM     12  C   UNL A   1      32.255  18.031  21.971  1.00  0.00     0.052 C 
ATOM     13  C   UNL A   1      32.479  18.670  23.311  1.00  0.00     0.032 A 
ATOM     14  C   UNL A   1      32.350  20.074  23.343  1.00  0.00     0.057 A 
ATOM     15  C   UNL A   1      32.825  18.042  24.510  1.00  0.00     0.290 A 
ATOM     16  C   UNL A   1      33.031  18.837  25.630  1.00  0.00     0.199 A 
ATOM     17  N   UNL A   1      32.945  20.191  25.630  1.00  0.00    -0.232 NA
BRANCH  15  18
ATOM     18  N   UNL A   1      32.988  16.601  24.679  1.00  0.00     0.064 N 
ATOM     19  O   UNL A   1      32.187  16.018  25.423  1.00  0.00    -0.258 OA
ATOM     20  O   UNL A   1      33.896  16.030  24.063  1.00  0.00    -0.258 OA
ENDBRANCH  15  18
ENDBRANCH   9  11
ENDBRANCH   7   9
ENDBRANCH   4   7
ENDBRANCH   2   3
ENDBRANCH   1   2
BRANCH   1  21
ATOM     21  C   UNL A   1      39.078  20.674  25.794  1.00  0.00     0.118 C 
BRANCH  21  22
ATOM     22  N   UNL A   1      39.986  19.538  25.944  1.00  0.00    -0.352 N 
ATOM     23  C   UNL A   1      41.352  19.499  26.122  1.00  0.00     0.251 C 
ATOM     24  H   UNL A   1      39.550  18.656  25.912  1.00  0.00     0.163 HD
ATOM     25  O   UNL A   1      41.944  18.434  26.040  1.00  0.00    -0.269 OA
BRANCH  23  26
ATOM     26  C   UNL A   1      42.093  20.752  26.387  1.00  0.00     0.039 A 
ATOM     27  C   UNL A   1      42.466  21.570  25.318  1.00  0.00     0.014 A 
ATOM     28  C   UNL A   1      42.398  21.129  27.695  1.00  0.00     0.014 A 
ATOM     29  C   UNL A   1      43.056  22.810  25.574  1.00  0.00     0.010 A 
ATOM     30  C   UNL A   1      42.863  22.410  27.950  1.00  0.00     0.010 A 
ATOM     31  C   UNL A   1      43.209  23.264  26.894  1.00  0.00    -0.014 A 
BRANCH  31  32
ATOM     32  C   UNL A   1      43.733  24.618  27.208  1.00  0.00     0.031 A 
ATOM     33  C   UNL A   1      42.798  25.683  27.724  1.00  0.00     0.074 A 
ATOM     34  C   UNL A   1      45.016  24.924  26.922  1.00  0.00     0.049 A 
ATOM     35  N   UNL A   1      43.034  26.949  27.948  1.00  0.00    -0.248 NA
ATOM     36  C   UNL A   1      41.405  25.280  27.988  1.00  0.00     0.031 C 
ATOM     37  C   UNL A   1      45.996  24.008  26.333  1.00  0.00     0.029 A 
ATOM     38  N   UNL A   1      45.708  26.101  27.061  1.00  0.00    -0.354 N 
ATOM     39  C   UNL A   1      41.817  27.499  28.331  1.00  0.00     0.074 A 
ATOM     40  C   UNL A   1      40.833  26.443  28.266  1.00  0.00     0.031 C 
ATOM     41  C   UNL A   1      47.163  24.653  26.173  1.00  0.00     0.029 A 
ATOM     42  C   UNL A   1      47.007  26.035  26.610  1.00  0.00     0.049 A 
ATOM     43  H   UNL A   1      45.312  26.916  27.447  1.00  0.00     0.167 HD
ATOM     44  C   UNL A   1      41.545  28.761  28.740  1.00  0.00     0.034 A 
ATOM     45  C   UNL A   1      47.961  26.985  26.551  1.00  0.00     0.034 A 
ATOM     46  C   UNL A   1      42.538  29.791  28.866  1.00  0.00     0.049 A 
ATOM     47  C   UNL A   1      47.646  28.366  27.062  1.00  0.00     0.074 A 
ATOM     48  C   UNL A   1      42.386  31.076  29.358  1.00  0.00     0.029 A 
ATOM     49  N   UNL A   1      43.867  29.656  28.500  1.00  0.00    -0.354 N 
ATOM     50  N   UNL A   1      46.525  28.823  27.566  1.00  0.00    -0.248 NA
ATOM     51  C   UNL A   1      48.736  29.351  27.031  1.00  0.00     0.031 C 
ATOM     52  C   UNL A   1      43.622  31.723  29.271  1.00  0.00     0.029 A 
ATOM     53  C   UNL A   1      44.548  30.833  28.752  1.00  0.00     0.049 A 
ATOM     54  H   UNL A   1      44.267  28.842  28.116  1.00  0.00     0.167 HD
ATOM     55  C   UNL A   1      46.786  30.133  27.949  1.00  0.00     0.074 A 
ATOM     56  C   UNL A   1      48.178  30.389  27.638  1.00  0.00     0.031 C 
ATOM     57  C   UNL A   1      45.947  31.048  28.494  1.00  0.00     0.034 A 
BRANCH  44  58
ATOM     58  C   UNL A   1      40.130  29.078  29.151  1.00  0.00     0.023 A 
ATOM     59  C   UNL A   1      39.165  29.353  28.160  1.00  0.00     0.012 A 
ATOM     60  C   UNL A   1      39.740  29.038  30.504  1.00  0.00     0.148 A 
ATOM     61  C   UNL A   1      37.843  29.618  28.511  1.00  0.00     0.002 A 
ATOM     62  C   UNL A   1      38.410  29.256  30.841  1.00  0.00     0.091 A 
ATOM     63  F   UNL A   1      40.676  28.794  31.432  1.00  0.00    -0.205 F 
ATOM     64  C   UNL A   1      37.463  29.558  29.848  1.00  0.00     0.022 A 
BRANCH  62  65
ATOM     65  S   UNL A   1      37.799  29.121  32.525  1.00  0.00     0.127 S 
ATOM     66  O   UNL A   1      38.758  29.952  33.254  1.00  0.00    -0.237 OA
ATOM     67  O   UNL A   1      36.458  29.696  32.411  1.00  0.00    -0.237 OA
ATOM     68  O   UNL A   1      37.829  27.703  32.852  1.00  0.00    -0.744 OA
ENDBRANCH  62  65
ENDBRANCH  44  58
BRANCH  45  69
ATOM     69  C   UNL A   1      49.325  26.651  26.049  1.00  0.00     0.023 A 
ATOM     70  C   UNL A   1      50.177  25.857  26.843  1.00  0.00     0.012 A 
ATOM     71  C   UNL A   1      49.782  27.103  24.797  1.00  0.00     0.148 A 
ATOM     72  C   UNL A   1      51.471  25.555  26.419  1.00  0.00     0.002 A 
ATOM     73  C   UNL A   1      51.052  26.751  24.354  1.00  0.00     0.091 A 
ATOM     74  F   UNL A   1      48.963  27.866  24.059  1.00  0.00    -0.205 F 
ATOM     75  C   UNL A   1      51.906  25.994  25.171  1.00  0.00     0.022 A 
BRANCH  73  76
ATOM     76  S   UNL A   1      51.643  27.159  22.707  1.00  0.00     0.127 S 
ATOM     77  O   UNL A   1      51.796  28.609  22.795  1.00  0.00    -0.237 OA
ATOM     78  O   UNL A   1      52.896  26.408  22.640  1.00  0.00    -0.237 OA
ATOM     79  O   UNL A   1      50.611  26.681  21.795  1.00  0.00    -0.744 OA
ENDBRANCH  73  76
ENDBRANCH  45  69
BRANCH  57  80
ATOM     80  C   UNL A   1      46.516  32.399  28.840  1.00  0.00     0.023 A 
ATOM     81  C   UNL A   1      47.114  32.609  30.098  1.00  0.00     0.012 A 
ATOM     82  C   UNL A   1      46.531  33.434  27.884  1.00  0.00     0.148 A 
ATOM     83  C   UNL A   1      47.688  33.839  30.412  1.00  0.00     0.002 A 
ATOM     84  C   UNL A   1      47.150  34.640  28.185  1.00  0.00     0.091 A 
ATOM     85  F   UNL A   1      45.942  33.218  26.699  1.00  0.00    -0.205 F 
ATOM     86  C   UNL A   1      47.717  34.849  29.453  1.00  0.00     0.022 A 
BRANCH  84  87
ATOM     87  S   UNL A   1      47.323  35.960  26.979  1.00  0.00     0.127 S 
ATOM     88  O   UNL A   1      48.118  36.938  27.720  1.00  0.00    -0.237 OA
ATOM     89  O   UNL A   1      48.037  35.291  25.890  1.00  0.00    -0.237 OA
ATOM     90  O   UNL A   1      45.969  36.379  26.645  1.00  0.00    -0.744 OA
ENDBRANCH  84  87
ENDBRANCH  57  80
ENDBRANCH  31  32
ENDBRANCH  23  26
ENDBRANCH  21  22
ENDBRANCH   1  21
TORSDOF 16
ENDMDL
MODEL 2
REMARK VINA RESULT:     -11.4      6.314      9.690
REMARK SMILES Cc1cc(N(C)[C@H](C)C(=O)NCCCNC(=O)c2ccc(-c3c4nc(c(-c5cccc(S(=O)(=O)[O-])c5F)c5ccc([nH]5)c(-c5cccc(S(=O)(=O)[O-])c5F)c5nc(c(-c6cccc(S(=O)(=O)[O-])c6F)c6ccc3[nH]6)C=C5)C=C4)cc2)ncc1[N+](=O)[O-]
REMARK SMILES IDX 13 1 12 2 11 3 9 4 10 5 7 7 8 8 5 9 6 10 4 11 1 12 2 13 3 14
REMARK SMILES IDX 83 15 82 16 81 17 84 18 85 19 86 20 14 21 15 22 16 23 17 25
REMARK SMILES IDX 18 26 19 27 80 28 20 29 79 30 21 31 22 32 23 33 73 34 24 35
REMARK SMILES IDX 78 36 72 37 74 38 25 39 77 40 71 41 70 42 26 44 58 45 38 46
REMARK SMILES IDX 57 47 39 48 42 49 56 50 75 51 40 52 41 53 55 55 76 56 43 57
REMARK SMILES IDX 27 58 28 59 36 60 29 61 31 62 37 63 30 64 32 65 33 66 34 67
REMARK SMILES IDX 35 68 59 69 60 70 68 71 61 72 63 73 69 74 62 75 64 76 65 77
REMARK SMILES IDX 66 78 67 79 44 80 45 81 53 82 46 83 48 84 54 85 47 86 49 87
REMARK SMILES IDX 50 88 51 89 52 90
REMARK H PARENT 11 6 15 24 74 43 42 54
REMARK Flexibility Score: inf
ROOT
ATOM      1  C   UNL A   1      33.144  29.784  25.413  1.00  0.00     0.042 C 
ENDROOT
BRANCH   1   2
ATOM      2  C   UNL A   1      33.639  28.362  25.574  1.00  0.00     0.117 C 
BRANCH   2   3
ATOM      3  N   UNL A   1      32.679  27.502  26.243  1.00  0.00    -0.354 N 
ATOM      4  C   UNL A   1      32.148  26.300  25.873  1.00  0.00     0.242 C 
ATOM      5  O   UNL A   1      31.527  25.691  26.753  1.00  0.00    -0.273 OA
ATOM      6  H   UNL A   1      32.357  27.842  27.108  1.00  0.00     0.163 HD
BRANCH   4   7
ATOM      7  C   UNL A   1      32.296  25.706  24.453  1.00  0.00     0.169 C 
ATOM      8  C   UNL A   1      33.050  24.373  24.452  1.00  0.00     0.042 C 
BRANCH   7   9
ATOM      9  N   UNL A   1      31.043  25.660  23.647  1.00  0.00    -0.348 N 
ATOM     10  C   UNL A   1      30.299  24.431  23.436  1.00  0.00     0.146 C 
BRANCH   9  11
ATOM     11  C   UNL A   1      30.487  26.867  23.243  1.00  0.00     0.129 A 
ATOM     12  C   UNL A   1      27.085  28.511  23.383  1.00  0.00     0.052 C 
ATOM     13  C   UNL A   1      28.556  28.391  23.108  1.00  0.00     0.032 A 
ATOM     14  C   UNL A   1      29.113  27.115  23.334  1.00  0.00     0.057 A 
ATOM     15  C   UNL A   1      29.432  29.394  22.688  1.00  0.00     0.290 A 
ATOM     16  C   UNL A   1      30.775  29.072  22.539  1.00  0.00     0.199 A 
ATOM     17  N   UNL A   1      31.298  27.849  22.804  1.00  0.00    -0.232 NA
BRANCH  15  18
ATOM     18  N   UNL A   1      29.041  30.768  22.388  1.00  0.00     0.064 N 
ATOM     19  O   UNL A   1      28.663  31.017  21.234  1.00  0.00    -0.258 OA
ATOM     20  O   UNL A   1      29.085  31.610  23.293  1.00  0.00    -0.258 OA
ENDBRANCH  15  18
ENDBRANCH   9  11
ENDBRANCH   7   9
ENDBRANCH   4   7
ENDBRANCH   2   3
ENDBRANCH   1   2
BRANCH   1  21
ATOM     21  C   UNL A   1      32.272  30.249  26.572  1.00  0.00     0.118 C 
BRANCH  21  22
ATOM     22  N   UNL A   1      32.320  31.694  26.787  1.00  0.00    -0.352 N 
ATOM     23  C   UNL A   1      33.228  32.468  27.477  1.00  0.00     0.251 C 
ATOM     24  H   UNL A   1      31.584  32.197  26.371  1.00  0.00     0.163 HD
ATOM     25  O   UNL A   1      32.983  33.645  27.691  1.00  0.00    -0.269 OA
BRANCH  23  26
ATOM     26  C   UNL A   1      34.482  31.860  27.973  1.00  0.00     0.039 A 
ATOM     27  C   UNL A   1      35.657  32.616  27.981  1.00  0.00     0.014 A 
ATOM     28  C   UNL A   1      34.492  30.550  28.450  1.00  0.00     0.014 A 
ATOM     29  C   UNL A   1      36.812  32.086  28.561  1.00  0.00     0.010 A 
ATOM     30  C   UNL A   1      35.599  30.076  29.137  1.00  0.00     0.010 A 
ATOM     31  C   UNL A   1      36.778  30.832  29.193  1.00  0.00    -0.014 A 
BRANCH  31  32
ATOM     32  C   UNL A   1      37.953  30.279  29.914  1.00  0.00     0.031 A 
ATOM     33  C   UNL A   1      38.269  30.754  31.310  1.00  0.00     0.074 A 
ATOM     34  C   UNL A   1      38.796  29.441  29.277  1.00  0.00     0.049 A 
ATOM     35  N   UNL A   1      39.305  30.481  32.058  1.00  0.00    -0.248 NA
ATOM     36  C   UNL A   1      37.314  31.691  31.930  1.00  0.00     0.031 C 
ATOM     37  C   UNL A   1      38.651  28.978  27.894  1.00  0.00     0.029 A 
ATOM     38  N   UNL A   1      39.961  28.851  29.699  1.00  0.00    -0.354 N 
ATOM     39  C   UNL A   1      39.150  31.242  33.212  1.00  0.00     0.074 A 
ATOM     40  C   UNL A   1      37.946  32.024  33.046  1.00  0.00     0.031 C 
ATOM     41  C   UNL A   1      39.678  28.170  27.588  1.00  0.00     0.029 A 
ATOM     42  C   UNL A   1      40.575  28.085  28.735  1.00  0.00     0.049 A 
ATOM     43  H   UNL A   1      40.325  28.966  30.607  1.00  0.00     0.167 HD
ATOM     44  C   UNL A   1      39.918  31.261  34.327  1.00  0.00     0.034 A 
ATOM     45  C   UNL A   1      41.734  27.397  28.770  1.00  0.00     0.034 A 
ATOM     46  C   UNL A   1      41.077  30.435  34.513  1.00  0.00     0.049 A 
ATOM     47  C   UNL A   1      42.539  27.394  30.041  1.00  0.00     0.074 A 
ATOM     48  C   UNL A   1      41.871  30.310  35.639  1.00  0.00     0.029 A 
ATOM     49  N   UNL A   1      41.608  29.591  33.552  1.00  0.00    -0.354 N 
ATOM     50  N   UNL A   1      42.292  28.002  31.176  1.00  0.00    -0.248 NA
ATOM     51  C   UNL A   1      43.764  26.583  30.051  1.00  0.00     0.031 C 
ATOM     52  C   UNL A   1      42.895  29.402  35.351  1.00  0.00     0.029 A 
ATOM     53  C   UNL A   1      42.720  28.942  34.056  1.00  0.00     0.049 A 
ATOM     54  H   UNL A   1      41.247  29.471  32.643  1.00  0.00     0.167 HD
ATOM     55  C   UNL A   1      43.304  27.614  32.046  1.00  0.00     0.074 A 
ATOM     56  C   UNL A   1      44.157  26.702  31.312  1.00  0.00     0.031 C 
ATOM     57  C   UNL A   1      43.520  27.990  33.331  1.00  0.00     0.034 A 
BRANCH  44  58
ATOM     58  C   UNL A   1      39.486  32.154  35.461  1.00  0.00     0.023 A 
ATOM     59  C   UNL A   1      38.676  31.629  36.489  1.00  0.00     0.012 A 
ATOM     60  C   UNL A   1      39.933  33.487  35.547  1.00  0.00     0.148 A 
ATOM     61  C   UNL A   1      38.288  32.424  37.565  1.00  0.00     0.002 A 
ATOM     62  C   UNL A   1      39.582  34.259  36.648  1.00  0.00     0.091 A 
ATOM     63  F   UNL A   1      40.686  33.974  34.551  1.00  0.00    -0.205 F 
ATOM     64  C   UNL A   1      38.750  33.734  37.651  1.00  0.00     0.022 A 
BRANCH  62  65
ATOM     65  S   UNL A   1      40.189  35.931  36.896  1.00  0.00     0.127 S 
ATOM     66  O   UNL A   1      39.667  36.614  35.713  1.00  0.00    -0.237 OA
ATOM     67  O   UNL A   1      39.543  36.309  38.153  1.00  0.00    -0.237 OA
ATOM     68  O   UNL A   1      41.640  35.826  36.965  1.00  0.00    -0.744 OA
ENDBRANCH  62  65
ENDBRANCH  44  58
BRANCH  45  69
ATOM     69  C   UNL A   1      42.171  26.599  27.588  1.00  0.00     0.023 A 
ATOM     70  C   UNL A   1      42.896  27.232  26.559  1.00  0.00     0.012 A 
ATOM     71  C   UNL A   1      41.884  25.225  27.479  1.00  0.00     0.148 A 
ATOM     72  C   UNL A   1      43.289  26.522  25.424  1.00  0.00     0.002 A 
ATOM     73  C   UNL A   1      42.329  24.511  26.372  1.00  0.00     0.091 A 
ATOM     74  F   UNL A   1      41.185  24.641  28.461  1.00  0.00    -0.205 F 
ATOM     75  C   UNL A   1      43.014  25.161  25.334  1.00  0.00     0.022 A 
BRANCH  73  76
ATOM     76  S   UNL A   1      42.136  22.729  26.238  1.00  0.00     0.127 S 
ATOM     77  O   UNL A   1      42.869  22.260  27.411  1.00  0.00    -0.237 OA
ATOM     78  O   UNL A   1      40.683  22.575  26.314  1.00  0.00    -0.237 OA
ATOM     79  O   UNL A   1      42.708  22.373  24.946  1.00  0.00    -0.744 OA
ENDBRANCH  73  76
ENDBRANCH  45  69
BRANCH  57  80
ATOM     80  C   UNL A   1      44.694  27.381  34.049  1.00  0.00     0.023 A 
ATOM     81  C   UNL A   1      45.943  28.032  34.032  1.00  0.00     0.012 A 
ATOM     82  C   UNL A   1      44.536  26.205  34.808  1.00  0.00     0.148 A 
ATOM     83  C   UNL A   1      47.026  27.504  34.733  1.00  0.00     0.002 A 
ATOM     84  C   UNL A   1      45.605  25.713  35.546  1.00  0.00     0.091 A 
ATOM     85  F   UNL A   1      43.343  25.591  34.796  1.00  0.00    -0.205 F 
ATOM     86  C   UNL A   1      46.854  26.353  35.499  1.00  0.00     0.022 A 
BRANCH  84  87
ATOM     87  S   UNL A   1      45.449  24.295  36.637  1.00  0.00     0.127 S 
ATOM     88  O   UNL A   1      44.885  23.288  35.739  1.00  0.00    -0.237 OA
ATOM     89  O   UNL A   1      46.838  24.053  37.031  1.00  0.00    -0.237 OA
ATOM     90  O   UNL A   1      44.579  24.719  37.725  1.00  0.00    -0.744 OA
ENDBRANCH  84  87
ENDBRANCH  57  80
ENDBRANCH  31  32
ENDBRANCH  23  26
ENDBRANCH  21  22
ENDBRANCH   1  21
TORSDOF 16
ENDMDL
MODEL 3
REMARK VINA RESULT:     -11.4      2.906      8.748
REMARK SMILES Cc1cc(N(C)[C@H](C)C(=O)NCCCNC(=O)c2ccc(-c3c4nc(c(-c5cccc(S(=O)(=O)[O-])c5F)c5ccc([nH]5)c(-c5cccc(S(=O)(=O)[O-])c5F)c5nc(c(-c6cccc(S(=O)(=O)[O-])c6F)c6ccc3[nH]6)C=C5)C=C4)cc2)ncc1[N+](=O)[O-]
REMARK SMILES IDX 13 1 12 2 11 3 9 4 10 5 7 7 8 8 5 9 6 10 4 11 1 12 2 13 3 14
REMARK SMILES IDX 83 15 82 16 81 17 84 18 85 19 86 20 14 21 15 22 16 23 17 25
REMARK SMILES IDX 18 26 19 27 80 28 20 29 79 30 21 31 22 32 23 33 73 34 24 35
REMARK SMILES IDX 78 36 72 37 74 38 25 39 77 40 71 41 70 42 26 44 58 45 38 46
REMARK SMILES IDX 57 47 39 48 42 49 56 50 75 51 40 52 41 53 55 55 76 56 43 57
REMARK SMILES IDX 27 58 28 59 36 60 29 61 31 62 37 63 30 64 32 65 33 66 34 67
REMARK SMILES IDX 35 68 59 69 60 70 68 71 61 72 63 73 69 74 62 75 64 76 65 77
REMARK SMILES IDX 66 78 67 79 44 80 45 81 53 82 46 83 48 84 54 85 47 86 49 87
REMARK SMILES IDX 50 88 51 89 52 90
REMARK H PARENT 11 6 15 24 74 43 42 54
REMARK Flexibility Score: inf
ROOT
ATOM      1  C   UNL A   1      35.793  21.851  25.342  1.00  0.00     0.042 C 
ENDROOT
BRANCH   1   2
ATOM      2  C   UNL A   1      35.454  23.120  26.095  1.00  0.00     0.117 C 
BRANCH   2   3
ATOM      3  N   UNL A   1      34.555  22.893  27.212  1.00  0.00    -0.354 N 
ATOM      4  C   UNL A   1      33.217  22.626  27.240  1.00  0.00     0.242 C 
ATOM      5  O   UNL A   1      32.765  22.250  28.330  1.00  0.00    -0.273 OA
ATOM      6  H   UNL A   1      34.981  22.938  28.098  1.00  0.00     0.163 HD
BRANCH   4   7
ATOM      7  C   UNL A   1      32.294  22.770  26.008  1.00  0.00     0.169 C 
ATOM      8  C   UNL A   1      31.978  21.424  25.352  1.00  0.00     0.042 C 
BRANCH   7   9
ATOM      9  N   UNL A   1      31.080  23.610  26.215  1.00  0.00    -0.348 N 
ATOM     10  C   UNL A   1      29.915  23.127  26.937  1.00  0.00     0.146 C 
BRANCH   9  11
ATOM     11  C   UNL A   1      31.149  24.951  25.859  1.00  0.00     0.129 A 
ATOM     12  C   UNL A   1      33.531  27.829  26.435  1.00  0.00     0.052 C 
ATOM     13  C   UNL A   1      32.340  27.107  25.876  1.00  0.00     0.032 A 
ATOM     14  C   UNL A   1      32.139  25.800  26.366  1.00  0.00     0.057 A 
ATOM     15  C   UNL A   1      31.435  27.565  24.916  1.00  0.00     0.290 A 
ATOM     16  C   UNL A   1      30.424  26.706  24.505  1.00  0.00     0.199 A 
ATOM     17  N   UNL A   1      30.274  25.435  24.957  1.00  0.00    -0.232 NA
BRANCH  15  18
ATOM     18  N   UNL A   1      31.470  28.891  24.305  1.00  0.00     0.064 N 
ATOM     19  O   UNL A   1      31.047  29.842  24.978  1.00  0.00    -0.258 OA
ATOM     20  O   UNL A   1      31.933  29.008  23.164  1.00  0.00    -0.258 OA
ENDBRANCH  15  18
ENDBRANCH   9  11
ENDBRANCH   7   9
ENDBRANCH   4   7
ENDBRANCH   2   3
ENDBRANCH   1   2
BRANCH   1  21
ATOM     21  C   UNL A   1      37.200  21.860  24.758  1.00  0.00     0.118 C 
BRANCH  21  22
ATOM     22  N   UNL A   1      38.059  20.812  25.306  1.00  0.00    -0.352 N 
ATOM     23  C   UNL A   1      39.227  20.899  26.033  1.00  0.00     0.251 C 
ATOM     24  H   UNL A   1      37.755  19.894  25.127  1.00  0.00     0.163 HD
ATOM     25  O   UNL A   1      39.890  19.895  26.238  1.00  0.00    -0.269 OA
BRANCH  23  26
ATOM     26  C   UNL A   1      39.679  22.214  26.539  1.00  0.00     0.039 A 
ATOM     27  C   UNL A   1      40.760  22.277  27.421  1.00  0.00     0.014 A 
ATOM     28  C   UNL A   1      39.048  23.386  26.123  1.00  0.00     0.014 A 
ATOM     29  C   UNL A   1      41.265  23.522  27.802  1.00  0.00     0.010 A 
ATOM     30  C   UNL A   1      39.628  24.614  26.399  1.00  0.00     0.010 A 
ATOM     31  C   UNL A   1      40.737  24.701  27.251  1.00  0.00    -0.014 A 
BRANCH  31  32
ATOM     32  C   UNL A   1      41.314  26.038  27.547  1.00  0.00     0.031 A 
ATOM     33  C   UNL A   1      42.734  26.347  27.148  1.00  0.00     0.074 A 
ATOM     34  C   UNL A   1      40.604  26.928  28.271  1.00  0.00     0.049 A 
ATOM     35  N   UNL A   1      43.453  27.406  27.415  1.00  0.00    -0.248 NA
ATOM     36  C   UNL A   1      43.455  25.315  26.382  1.00  0.00     0.031 C 
ATOM     37  C   UNL A   1      39.253  26.712  28.796  1.00  0.00     0.029 A 
ATOM     38  N   UNL A   1      40.933  28.184  28.717  1.00  0.00    -0.354 N 
ATOM     39  C   UNL A   1      44.716  27.149  26.892  1.00  0.00     0.074 A 
ATOM     40  C   UNL A   1      44.680  25.816  26.334  1.00  0.00     0.031 C 
ATOM     41  C   UNL A   1      38.866  27.800  29.480  1.00  0.00     0.029 A 
ATOM     42  C   UNL A   1      39.950  28.776  29.477  1.00  0.00     0.049 A 
ATOM     43  H   UNL A   1      41.792  28.620  28.513  1.00  0.00     0.167 HD
ATOM     44  C   UNL A   1      45.798  27.961  26.844  1.00  0.00     0.034 A 
ATOM     45  C   UNL A   1      39.929  29.968  30.106  1.00  0.00     0.034 A 
ATOM     46  C   UNL A   1      45.808  29.308  27.342  1.00  0.00     0.049 A 
ATOM     47  C   UNL A   1      41.127  30.872  29.991  1.00  0.00     0.074 A 
ATOM     48  C   UNL A   1      46.822  30.246  27.260  1.00  0.00     0.029 A 
ATOM     49  N   UNL A   1      44.757  29.910  28.012  1.00  0.00    -0.354 N 
ATOM     50  N   UNL A   1      42.257  30.668  29.358  1.00  0.00    -0.248 NA
ATOM     51  C   UNL A   1      41.034  32.185  30.644  1.00  0.00     0.031 C 
ATOM     52  C   UNL A   1      46.388  31.411  27.899  1.00  0.00     0.029 A 
ATOM     53  C   UNL A   1      45.095  31.207  28.353  1.00  0.00     0.049 A 
ATOM     54  H   UNL A   1      43.895  29.479  28.217  1.00  0.00     0.167 HD
ATOM     55  C   UNL A   1      42.991  31.839  29.501  1.00  0.00     0.074 A 
ATOM     56  C   UNL A   1      42.169  32.756  30.263  1.00  0.00     0.031 C 
ATOM     57  C   UNL A   1      44.240  32.126  29.056  1.00  0.00     0.034 A 
BRANCH  44  58
ATOM     58  C   UNL A   1      47.038  27.439  26.166  1.00  0.00     0.023 A 
ATOM     59  C   UNL A   1      47.258  27.728  24.804  1.00  0.00     0.012 A 
ATOM     60  C   UNL A   1      48.013  26.723  26.888  1.00  0.00     0.148 A 
ATOM     61  C   UNL A   1      48.412  27.284  24.160  1.00  0.00     0.002 A 
ATOM     62  C   UNL A   1      49.183  26.326  26.251  1.00  0.00     0.091 A 
ATOM     63  F   UNL A   1      47.777  26.441  28.176  1.00  0.00    -0.205 F 
ATOM     64  C   UNL A   1      49.379  26.594  24.886  1.00  0.00     0.022 A 
BRANCH  62  65
ATOM     65  S   UNL A   1      50.527  25.503  27.113  1.00  0.00     0.127 S 
ATOM     66  O   UNL A   1      50.880  26.498  28.126  1.00  0.00    -0.237 OA
ATOM     67  O   UNL A   1      49.869  24.306  27.636  1.00  0.00    -0.237 OA
ATOM     68  O   UNL A   1      51.551  25.247  26.110  1.00  0.00    -0.744 OA
ENDBRANCH  62  65
ENDBRANCH  44  58
BRANCH  45  69
ATOM     69  C   UNL A   1      38.711  30.407  30.846  1.00  0.00     0.023 A 
ATOM     70  C   UNL A   1      38.597  30.117  32.221  1.00  0.00     0.012 A 
ATOM     71  C   UNL A   1      37.673  31.110  30.207  1.00  0.00     0.148 A 
ATOM     72  C   UNL A   1      37.456  30.482  32.934  1.00  0.00     0.002 A 
ATOM     73  C   UNL A   1      36.563  31.523  30.937  1.00  0.00     0.091 A 
ATOM     74  F   UNL A   1      37.792  31.368  28.897  1.00  0.00    -0.205 F 
ATOM     75  C   UNL A   1      36.443  31.192  32.295  1.00  0.00     0.022 A 
BRANCH  73  76
ATOM     76  S   UNL A   1      35.276  32.556  30.227  1.00  0.00     0.127 S 
ATOM     77  O   UNL A   1      34.825  31.741  29.102  1.00  0.00    -0.237 OA
ATOM     78  O   UNL A   1      34.326  32.660  31.334  1.00  0.00    -0.237 OA
ATOM     79  O   UNL A   1      35.932  33.811  29.882  1.00  0.00    -0.744 OA
ENDBRANCH  73  76
ENDBRANCH  45  69
BRANCH  57  80
ATOM     80  C   UNL A   1      44.781  33.503  29.335  1.00  0.00     0.023 A 
ATOM     81  C   UNL A   1      45.541  33.737  30.497  1.00  0.00     0.012 A 
ATOM     82  C   UNL A   1      44.604  34.543  28.402  1.00  0.00     0.148 A 
ATOM     83  C   UNL A   1      46.089  34.995  30.743  1.00  0.00     0.002 A 
ATOM     84  C   UNL A   1      45.195  35.779  28.627  1.00  0.00     0.091 A 
ATOM     85  F   UNL A   1      43.861  34.303  27.310  1.00  0.00    -0.205 F 
ATOM     86  C   UNL A   1      45.927  36.011  29.803  1.00  0.00     0.022 A 
BRANCH  84  87
ATOM     87  S   UNL A   1      45.123  37.113  27.427  1.00  0.00     0.127 S 
ATOM     88  O   UNL A   1      45.615  38.246  28.211  1.00  0.00    -0.237 OA
ATOM     89  O   UNL A   1      46.042  36.644  26.388  1.00  0.00    -0.237 OA
ATOM     90  O   UNL A   1      43.731  37.201  27.008  1.00  0.00    -0.744 OA
ENDBRANCH  84  87
ENDBRANCH  57  80
ENDBRANCH  31  32
ENDBRANCH  23  26
ENDBRANCH  21  22
ENDBRANCH   1  21
TORSDOF 16
ENDMDL
