MODEL 1
REMARK VINA RESULT:     -12.1      0.000      0.000
REMARK SMILES C[C@H]([NH2+][C@@H](C)[C@]12C[C@H]3C[C@H](C[C@H](C3)C1)C2)[C@@H](C)C(=O)NCCCNC(=O)c1ccc(-c2c3nc(c(-c4cccc(S(=O)(=O)[O-])c4F)c4ccc([nH]4)c(-c4cccc(S(=O)(=O)[O-])c4F)c4nc(c(-c5cccc(S(=O)(=O)[O-])c5F)c5ccc2[nH]5)C=C4)C=C3)cc1
REMARK SMILES IDX 21 1 20 2 18 3 19 4 16 6 17 7 2 8 1 9 3 10 4 13 5 14 6 15
REMARK SMILES IDX 7 16 14 17 15 18 8 19 12 20 10 21 9 22 13 23 11 24 22 25
REMARK SMILES IDX 23 26 24 27 25 28 26 30 27 31 28 32 89 33 29 34 88 35 30 36
REMARK SMILES IDX 31 37 32 38 82 39 33 40 87 41 81 42 83 43 34 44 86 45 80 46
REMARK SMILES IDX 79 47 35 49 67 50 47 51 66 52 48 53 51 54 65 55 84 56 49 57
REMARK SMILES IDX 50 58 64 60 85 61 52 62 36 63 37 64 45 65 38 66 40 67 46 68
REMARK SMILES IDX 39 69 41 70 42 71 43 72 44 73 68 74 69 75 77 76 70 77 72 78
REMARK SMILES IDX 78 79 71 80 73 81 74 82 75 83 76 84 53 85 54 86 62 87 55 88
REMARK SMILES IDX 57 89 63 90 56 91 58 92 59 93 60 94 61 95
REMARK H PARENT 20 5 3 11 3 12 24 29 83 48 51 59
REMARK Flexibility Score: inf
ROOT
ATOM      1  C   UNL A   1      35.131  22.080  24.637  1.00  0.00     0.117 C 
ENDROOT
BRANCH   1   2
ATOM      2  N   UNL A   1      33.963  21.250  24.876  1.00  0.00    -0.356 N 
ATOM      3  C   UNL A   1      32.668  21.574  25.140  1.00  0.00     0.228 C 
ATOM      4  O   UNL A   1      31.854  20.646  25.184  1.00  0.00    -0.275 OA
ATOM      5  H   UNL A   1      34.140  20.282  24.843  1.00  0.00     0.163 HD
BRANCH   3   6
ATOM      6  C   UNL A   1      32.212  23.012  25.402  1.00  0.00     0.133 C 
ATOM      7  C   UNL A   1      32.171  23.291  26.904  1.00  0.00     0.024 C 
BRANCH   6   8
ATOM      8  C   UNL A   1      30.939  23.371  24.583  1.00  0.00     0.191 C 
ATOM      9  C   UNL A   1      31.385  23.577  23.121  1.00  0.00     0.076 C 
BRANCH   8  10
ATOM     10  N   UNL A   1      30.282  24.568  25.132  1.00  0.00    -0.341 N 
ATOM     11  H   UNL A   1      30.699  24.748  26.045  1.00  0.00     0.346 HD
ATOM     12  H   UNL A   1      29.289  24.331  25.130  1.00  0.00     0.346 HD
BRANCH  10  13
ATOM     13  C   UNL A   1      30.354  25.831  24.360  1.00  0.00     0.185 C 
ATOM     14  C   UNL A   1      28.899  26.313  24.239  1.00  0.00     0.076 C 
BRANCH  13  15
ATOM     15  C   UNL A   1      31.340  26.955  24.887  1.00  0.00     0.023 C 
ATOM     16  C   UNL A   1      31.421  26.860  26.440  1.00  0.00     0.016 C 
ATOM     17  C   UNL A   1      30.923  28.379  24.419  1.00  0.00     0.016 C 
ATOM     18  C   UNL A   1      32.818  26.792  24.391  1.00  0.00     0.016 C 
ATOM     19  C   UNL A   1      32.303  27.962  27.034  1.00  0.00    -0.010 C 
ATOM     20  C   UNL A   1      31.789  29.464  25.075  1.00  0.00    -0.010 C 
ATOM     21  C   UNL A   1      33.739  27.892  24.978  1.00  0.00    -0.010 C 
ATOM     22  C   UNL A   1      33.736  27.795  26.509  1.00  0.00     0.007 C 
ATOM     23  C   UNL A   1      31.747  29.326  26.606  1.00  0.00     0.007 C 
ATOM     24  C   UNL A   1      33.226  29.286  24.579  1.00  0.00     0.007 C 
ENDBRANCH  13  15
ENDBRANCH  10  13
ENDBRANCH   8  10
ENDBRANCH   6   8
ENDBRANCH   3   6
ENDBRANCH   1   2
BRANCH   1  25
ATOM     25  C   UNL A   1      36.254  21.862  25.647  1.00  0.00     0.042 C 
BRANCH  25  26
ATOM     26  C   UNL A   1      37.649  21.786  25.044  1.00  0.00     0.118 C 
BRANCH  26  27
ATOM     27  N   UNL A   1      38.516  20.850  25.746  1.00  0.00    -0.352 N 
ATOM     28  C   UNL A   1      39.666  21.061  26.462  1.00  0.00     0.251 C 
ATOM     29  H   UNL A   1      38.229  19.909  25.699  1.00  0.00     0.163 HD
ATOM     30  O   UNL A   1      40.350  20.091  26.793  1.00  0.00    -0.269 OA
BRANCH  28  31
ATOM     31  C   UNL A   1      40.100  22.426  26.831  1.00  0.00     0.039 A 
ATOM     32  C   UNL A   1      41.064  22.581  27.833  1.00  0.00     0.014 A 
ATOM     33  C   UNL A   1      39.538  23.554  26.230  1.00  0.00     0.014 A 
ATOM     34  C   UNL A   1      41.501  23.860  28.189  1.00  0.00     0.010 A 
ATOM     35  C   UNL A   1      40.038  24.820  26.522  1.00  0.00     0.010 A 
ATOM     36  C   UNL A   1      41.016  24.990  27.512  1.00  0.00    -0.014 A 
BRANCH  36  37
ATOM     37  C   UNL A   1      41.522  26.354  27.819  1.00  0.00     0.031 A 
ATOM     38  C   UNL A   1      42.936  26.737  27.475  1.00  0.00     0.074 A 
ATOM     39  C   UNL A   1      40.735  27.216  28.493  1.00  0.00     0.049 A 
ATOM     40  N   UNL A   1      43.571  27.854  27.721  1.00  0.00    -0.248 NA
ATOM     41  C   UNL A   1      43.755  25.722  26.790  1.00  0.00     0.031 C 
ATOM     42  C   UNL A   1      39.376  26.935  28.957  1.00  0.00     0.029 A 
ATOM     43  N   UNL A   1      40.978  28.494  28.931  1.00  0.00    -0.354 N 
ATOM     44  C   UNL A   1      44.870  27.663  27.262  1.00  0.00     0.074 A 
ATOM     45  C   UNL A   1      44.942  26.311  26.754  1.00  0.00     0.031 C 
ATOM     46  C   UNL A   1      38.903  28.007  29.611  1.00  0.00     0.029 A 
ATOM     47  C   UNL A   1      39.934  29.040  29.642  1.00  0.00     0.049 A 
ATOM     48  H   UNL A   1      41.818  28.975  28.753  1.00  0.00     0.167 HD
ATOM     49  C   UNL A   1      45.901  28.542  27.241  1.00  0.00     0.034 A 
ATOM     50  C   UNL A   1      39.822  30.232  30.259  1.00  0.00     0.034 A 
ATOM     51  C   UNL A   1      45.811  29.899  27.709  1.00  0.00     0.049 A 
ATOM     52  C   UNL A   1      40.965  31.207  30.180  1.00  0.00     0.074 A 
ATOM     53  C   UNL A   1      46.767  30.896  27.638  1.00  0.00     0.029 A 
ATOM     54  N   UNL A   1      44.706  30.447  28.341  1.00  0.00    -0.354 N 
ATOM     55  N   UNL A   1      42.129  31.067  29.594  1.00  0.00    -0.248 NA
ATOM     56  C   UNL A   1      40.766  32.519  30.813  1.00  0.00     0.031 C 
ATOM     57  C   UNL A   1      46.250  32.041  28.257  1.00  0.00     0.029 A 
ATOM     58  C   UNL A   1      44.960  31.765  28.681  1.00  0.00     0.049 A 
ATOM     59  H   UNL A   1      43.865  29.969  28.523  1.00  0.00     0.167 HD
ATOM     60  C   UNL A   1      42.788  32.280  29.758  1.00  0.00     0.074 A 
ATOM     61  C   UNL A   1      41.882  33.152  30.479  1.00  0.00     0.031 C 
ATOM     62  C   UNL A   1      44.034  32.637  29.358  1.00  0.00     0.034 A 
BRANCH  49  63
ATOM     63  C   UNL A   1      47.206  28.073  26.649  1.00  0.00     0.023 A 
ATOM     64  C   UNL A   1      48.262  27.692  27.502  1.00  0.00     0.012 A 
ATOM     65  C   UNL A   1      47.372  27.961  25.255  1.00  0.00     0.148 A 
ATOM     66  C   UNL A   1      49.476  27.248  26.978  1.00  0.00     0.002 A 
ATOM     67  C   UNL A   1      48.568  27.473  24.741  1.00  0.00     0.091 A 
ATOM     68  F   UNL A   1      46.366  28.347  24.458  1.00  0.00    -0.205 F 
ATOM     69  C   UNL A   1      49.625  27.130  25.599  1.00  0.00     0.022 A 
BRANCH  67  70
ATOM     70  S   UNL A   1      48.827  27.206  22.983  1.00  0.00     0.127 S 
ATOM     71  O   UNL A   1      50.287  27.233  22.893  1.00  0.00    -0.237 OA
ATOM     72  O   UNL A   1      48.231  25.883  22.783  1.00  0.00    -0.237 OA
ATOM     73  O   UNL A   1      48.137  28.291  22.306  1.00  0.00    -0.744 OA
ENDBRANCH  67  70
ENDBRANCH  49  63
BRANCH  50  74
ATOM     74  C   UNL A   1      38.551  30.592  30.949  1.00  0.00     0.023 A 
ATOM     75  C   UNL A   1      38.397  30.295  32.316  1.00  0.00     0.012 A 
ATOM     76  C   UNL A   1      37.515  31.264  30.269  1.00  0.00     0.148 A 
ATOM     77  C   UNL A   1      37.223  30.633  32.990  1.00  0.00     0.002 A 
ATOM     78  C   UNL A   1      36.372  31.650  30.961  1.00  0.00     0.091 A 
ATOM     79  F   UNL A   1      37.679  31.530  28.967  1.00  0.00    -0.205 F 
ATOM     80  C   UNL A   1      36.217  31.320  32.316  1.00  0.00     0.022 A 
BRANCH  78  81
ATOM     81  S   UNL A   1      35.088  32.656  30.208  1.00  0.00     0.127 S 
ATOM     82  O   UNL A   1      34.156  32.833  31.322  1.00  0.00    -0.237 OA
ATOM     83  O   UNL A   1      35.833  33.861  29.834  1.00  0.00    -0.237 OA
ATOM     84  O   UNL A   1      34.589  31.885  29.082  1.00  0.00    -0.744 OA
ENDBRANCH  78  81
ENDBRANCH  50  74
BRANCH  62  85
ATOM     85  C   UNL A   1      44.489  34.042  29.657  1.00  0.00     0.023 A 
ATOM     86  C   UNL A   1      45.124  34.328  30.881  1.00  0.00     0.012 A 
ATOM     87  C   UNL A   1      44.354  35.060  28.692  1.00  0.00     0.148 A 
ATOM     88  C   UNL A   1      45.587  35.615  31.155  1.00  0.00     0.002 A 
ATOM     89  C   UNL A   1      44.864  36.326  28.951  1.00  0.00     0.091 A 
ATOM     90  F   UNL A   1      43.730  34.771  27.541  1.00  0.00    -0.205 F 
ATOM     91  C   UNL A   1      45.469  36.609  30.187  1.00  0.00     0.022 A 
BRANCH  89  92
ATOM     92  S   UNL A   1      44.844  37.640  27.726  1.00  0.00     0.127 S 
ATOM     93  O   UNL A   1      45.448  38.747  28.467  1.00  0.00    -0.237 OA
ATOM     94  O   UNL A   1      45.685  37.086  26.664  1.00  0.00    -0.237 OA
ATOM     95  O   UNL A   1      43.448  37.823  27.355  1.00  0.00    -0.744 OA
ENDBRANCH  89  92
ENDBRANCH  62  85
ENDBRANCH  36  37
ENDBRANCH  28  31
ENDBRANCH  26  27
ENDBRANCH  25  26
ENDBRANCH   1  25
TORSDOF 17
ENDMDL
MODEL 2
REMARK VINA RESULT:     -12.1      1.737      2.381
REMARK SMILES C[C@H]([NH2+][C@@H](C)[C@]12C[C@H]3C[C@H](C[C@H](C3)C1)C2)[C@@H](C)C(=O)NCCCNC(=O)c1ccc(-c2c3nc(c(-c4cccc(S(=O)(=O)[O-])c4F)c4ccc([nH]4)c(-c4cccc(S(=O)(=O)[O-])c4F)c4nc(c(-c5cccc(S(=O)(=O)[O-])c5F)c5ccc2[nH]5)C=C4)C=C3)cc1
REMARK SMILES IDX 21 1 20 2 18 3 19 4 16 6 17 7 2 8 1 9 3 10 4 13 5 14 6 15
REMARK SMILES IDX 7 16 14 17 15 18 8 19 12 20 10 21 9 22 13 23 11 24 22 25
REMARK SMILES IDX 23 26 24 27 25 28 26 30 27 31 28 32 89 33 29 34 88 35 30 36
REMARK SMILES IDX 31 37 32 38 82 39 33 40 87 41 81 42 83 43 34 44 86 45 80 46
REMARK SMILES IDX 79 47 35 49 67 50 47 51 66 52 48 53 51 54 65 55 84 56 49 57
REMARK SMILES IDX 50 58 64 60 85 61 52 62 36 63 37 64 45 65 38 66 40 67 46 68
REMARK SMILES IDX 39 69 41 70 42 71 43 72 44 73 68 74 69 75 77 76 70 77 72 78
REMARK SMILES IDX 78 79 71 80 73 81 74 82 75 83 76 84 53 85 54 86 62 87 55 88
REMARK SMILES IDX 57 89 63 90 56 91 58 92 59 93 60 94 61 95
REMARK H PARENT 20 5 3 11 3 12 24 29 83 48 51 59
REMARK Flexibility Score: inf
ROOT
ATOM      1  C   UNL A   1      35.192  22.933  23.793  1.00  0.00     0.117 C 
ENDROOT
BRANCH   1   2
ATOM      2  N   UNL A   1      34.416  21.934  24.507  1.00  0.00    -0.356 N 
ATOM      3  C   UNL A   1      33.228  22.018  25.163  1.00  0.00     0.228 C 
ATOM      4  O   UNL A   1      32.741  20.964  25.585  1.00  0.00    -0.275 OA
ATOM      5  H   UNL A   1      34.823  21.037  24.519  1.00  0.00     0.163 HD
BRANCH   3   6
ATOM      6  C   UNL A   1      32.512  23.349  25.411  1.00  0.00     0.133 C 
ATOM      7  C   UNL A   1      32.510  23.683  26.902  1.00  0.00     0.024 C 
BRANCH   6   8
ATOM      8  C   UNL A   1      31.144  23.413  24.673  1.00  0.00     0.191 C 
ATOM      9  C   UNL A   1      31.447  23.454  23.161  1.00  0.00     0.076 C 
BRANCH   8  10
ATOM     10  N   UNL A   1      30.366  24.584  25.110  1.00  0.00    -0.341 N 
ATOM     11  H   UNL A   1      30.631  24.778  26.075  1.00  0.00     0.346 HD
ATOM     12  H   UNL A   1      29.396  24.311  24.956  1.00  0.00     0.346 HD
BRANCH  10  13
ATOM     13  C   UNL A   1      30.510  25.851  24.353  1.00  0.00     0.185 C 
ATOM     14  C   UNL A   1      29.073  26.321  24.077  1.00  0.00     0.076 C 
BRANCH  13  15
ATOM     15  C   UNL A   1      31.424  26.982  24.985  1.00  0.00     0.023 C 
ATOM     16  C   UNL A   1      30.902  28.370  24.506  1.00  0.00     0.016 C 
ATOM     17  C   UNL A   1      32.930  26.787  24.650  1.00  0.00     0.016 C 
ATOM     18  C   UNL A   1      31.370  27.045  26.551  1.00  0.00     0.016 C 
ATOM     19  C   UNL A   1      31.779  29.517  25.020  1.00  0.00    -0.010 C 
ATOM     20  C   UNL A   1      33.773  27.977  25.127  1.00  0.00    -0.010 C 
ATOM     21  C   UNL A   1      32.246  28.199  27.103  1.00  0.00    -0.010 C 
ATOM     22  C   UNL A   1      31.731  29.536  26.554  1.00  0.00     0.007 C 
ATOM     23  C   UNL A   1      33.220  29.290  24.546  1.00  0.00     0.007 C 
ATOM     24  C   UNL A   1      33.707  28.021  26.656  1.00  0.00     0.007 C 
ENDBRANCH  13  15
ENDBRANCH  10  13
ENDBRANCH   8  10
ENDBRANCH   6   8
ENDBRANCH   3   6
ENDBRANCH   1   2
BRANCH   1  25
ATOM     25  C   UNL A   1      36.139  23.727  24.688  1.00  0.00     0.042 C 
BRANCH  25  26
ATOM     26  C   UNL A   1      36.415  23.096  26.045  1.00  0.00     0.118 C 
BRANCH  26  27
ATOM     27  N   UNL A   1      37.616  22.273  26.049  1.00  0.00    -0.352 N 
ATOM     28  C   UNL A   1      38.930  22.609  26.251  1.00  0.00     0.251 C 
ATOM     29  H   UNL A   1      37.459  21.316  25.879  1.00  0.00     0.163 HD
ATOM     30  O   UNL A   1      39.804  21.778  25.999  1.00  0.00    -0.269 OA
BRANCH  28  31
ATOM     31  C   UNL A   1      39.311  23.948  26.752  1.00  0.00     0.039 A 
ATOM     32  C   UNL A   1      39.142  24.234  28.110  1.00  0.00     0.014 A 
ATOM     33  C   UNL A   1      39.791  24.936  25.890  1.00  0.00     0.014 A 
ATOM     34  C   UNL A   1      39.508  25.486  28.610  1.00  0.00     0.010 A 
ATOM     35  C   UNL A   1      40.238  26.150  26.404  1.00  0.00     0.010 A 
ATOM     36  C   UNL A   1      40.091  26.445  27.767  1.00  0.00    -0.014 A 
BRANCH  36  37
ATOM     37  C   UNL A   1      40.560  27.755  28.290  1.00  0.00     0.031 A 
ATOM     38  C   UNL A   1      42.031  28.032  28.444  1.00  0.00     0.074 A 
ATOM     39  C   UNL A   1      39.656  28.661  28.714  1.00  0.00     0.049 A 
ATOM     40  N   UNL A   1      42.624  29.087  28.939  1.00  0.00    -0.248 NA
ATOM     41  C   UNL A   1      42.959  26.972  28.012  1.00  0.00     0.031 C 
ATOM     42  C   UNL A   1      38.204  28.478  28.696  1.00  0.00     0.029 A 
ATOM     43  N   UNL A   1      39.828  29.903  29.271  1.00  0.00    -0.354 N 
ATOM     44  C   UNL A   1      43.985  28.805  28.918  1.00  0.00     0.074 A 
ATOM     45  C   UNL A   1      44.129  27.465  28.394  1.00  0.00     0.031 C 
ATOM     46  C   UNL A   1      37.617  29.568  29.214  1.00  0.00     0.029 A 
ATOM     47  C   UNL A   1      38.648  30.513  29.630  1.00  0.00     0.049 A 
ATOM     48  H   UNL A   1      40.710  30.319  29.400  1.00  0.00     0.167 HD
ATOM     49  C   UNL A   1      45.023  29.598  29.278  1.00  0.00     0.034 A 
ATOM     50  C   UNL A   1      38.421  31.694  30.237  1.00  0.00     0.034 A 
ATOM     51  C   UNL A   1      44.878  30.945  29.758  1.00  0.00     0.049 A 
ATOM     52  C   UNL A   1      39.590  32.576  30.582  1.00  0.00     0.074 A 
ATOM     53  C   UNL A   1      45.869  31.864  30.053  1.00  0.00     0.029 A 
ATOM     54  N   UNL A   1      43.666  31.565  30.024  1.00  0.00    -0.354 N 
ATOM     55  N   UNL A   1      40.869  32.357  30.400  1.00  0.00    -0.248 NA
ATOM     56  C   UNL A   1      39.283  33.883  31.181  1.00  0.00     0.031 C 
ATOM     57  C   UNL A   1      45.257  33.030  30.527  1.00  0.00     0.029 A 
ATOM     58  C   UNL A   1      43.883  32.848  30.494  1.00  0.00     0.049 A 
ATOM     59  H   UNL A   1      42.782  31.151  29.898  1.00  0.00     0.167 HD
ATOM     60  C   UNL A   1      41.518  33.509  30.830  1.00  0.00     0.074 A 
ATOM     61  C   UNL A   1      40.487  34.432  31.261  1.00  0.00     0.031 C 
ATOM     62  C   UNL A   1      42.847  33.775  30.875  1.00  0.00     0.034 A 
BRANCH  49  63
ATOM     63  C   UNL A   1      46.415  29.041  29.119  1.00  0.00     0.023 A 
ATOM     64  C   UNL A   1      47.043  28.408  30.212  1.00  0.00     0.012 A 
ATOM     65  C   UNL A   1      47.083  29.097  27.881  1.00  0.00     0.148 A 
ATOM     66  C   UNL A   1      48.327  27.879  30.089  1.00  0.00     0.002 A 
ATOM     67  C   UNL A   1      48.345  28.525  27.752  1.00  0.00     0.091 A 
ATOM     68  F   UNL A   1      46.482  29.720  26.857  1.00  0.00    -0.205 F 
ATOM     69  C   UNL A   1      48.973  27.929  28.856  1.00  0.00     0.022 A 
BRANCH  67  70
ATOM     70  S   UNL A   1      49.223  28.466  26.185  1.00  0.00     0.127 S 
ATOM     71  O   UNL A   1      49.908  29.759  26.183  1.00  0.00    -0.237 OA
ATOM     72  O   UNL A   1      50.105  27.312  26.371  1.00  0.00    -0.237 OA
ATOM     73  O   UNL A   1      48.206  28.294  25.161  1.00  0.00    -0.744 OA
ENDBRANCH  67  70
ENDBRANCH  49  63
BRANCH  50  74
ATOM     74  C   UNL A   1      37.021  32.138  30.493  1.00  0.00     0.023 A 
ATOM     75  C   UNL A   1      36.495  32.052  31.796  1.00  0.00     0.012 A 
ATOM     76  C   UNL A   1      36.227  32.682  29.464  1.00  0.00     0.148 A 
ATOM     77  C   UNL A   1      35.192  32.473  32.066  1.00  0.00     0.002 A 
ATOM     78  C   UNL A   1      34.950  33.153  29.753  1.00  0.00     0.091 A 
ATOM     79  F   UNL A   1      36.743  32.747  28.230  1.00  0.00    -0.205 F 
ATOM     80  C   UNL A   1      34.426  33.033  31.048  1.00  0.00     0.022 A 
BRANCH  78  81
ATOM     81  S   UNL A   1      33.946  34.013  28.536  1.00  0.00     0.127 S 
ATOM     82  O   UNL A   1      33.522  32.913  27.670  1.00  0.00    -0.237 OA
ATOM     83  O   UNL A   1      32.884  34.580  29.372  1.00  0.00    -0.237 OA
ATOM     84  O   UNL A   1      34.819  34.999  27.925  1.00  0.00    -0.744 OA
ENDBRANCH  78  81
ENDBRANCH  50  74
BRANCH  62  85
ATOM     85  C   UNL A   1      43.274  35.130  31.377  1.00  0.00     0.023 A 
ATOM     86  C   UNL A   1      43.554  35.317  32.745  1.00  0.00     0.012 A 
ATOM     87  C   UNL A   1      43.468  36.198  30.479  1.00  0.00     0.148 A 
ATOM     88  C   UNL A   1      43.988  36.556  33.216  1.00  0.00     0.002 A 
ATOM     89  C   UNL A   1      43.950  37.414  30.947  1.00  0.00     0.091 A 
ATOM     90  F   UNL A   1      43.178  36.005  29.184  1.00  0.00    -0.205 F 
ATOM     91  C   UNL A   1      44.198  37.598  32.318  1.00  0.00     0.022 A 
BRANCH  89  92
ATOM     92  S   UNL A   1      44.344  38.781  29.850  1.00  0.00     0.127 S 
ATOM     93  O   UNL A   1      43.027  39.119  29.313  1.00  0.00    -0.237 OA
ATOM     94  O   UNL A   1      44.898  39.771  30.775  1.00  0.00    -0.237 OA
ATOM     95  O   UNL A   1      45.298  38.258  28.883  1.00  0.00    -0.744 OA
ENDBRANCH  89  92
ENDBRANCH  62  85
ENDBRANCH  36  37
ENDBRANCH  28  31
ENDBRANCH  26  27
ENDBRANCH  25  26
ENDBRANCH   1  25
TORSDOF 17
ENDMDL
MODEL 3
REMARK VINA RESULT:     -12.0      1.575      7.775
REMARK SMILES C[C@H]([NH2+][C@@H](C)[C@]12C[C@H]3C[C@H](C[C@H](C3)C1)C2)[C@@H](C)C(=O)NCCCNC(=O)c1ccc(-c2c3nc(c(-c4cccc(S(=O)(=O)[O-])c4F)c4ccc([nH]4)c(-c4cccc(S(=O)(=O)[O-])c4F)c4nc(c(-c5cccc(S(=O)(=O)[O-])c5F)c5ccc2[nH]5)C=C4)C=C3)cc1
REMARK SMILES IDX 21 1 20 2 18 3 19 4 16 6 17 7 2 8 1 9 3 10 4 13 5 14 6 15
REMARK SMILES IDX 7 16 14 17 15 18 8 19 12 20 10 21 9 22 13 23 11 24 22 25
REMARK SMILES IDX 23 26 24 27 25 28 26 30 27 31 28 32 89 33 29 34 88 35 30 36
REMARK SMILES IDX 31 37 32 38 82 39 33 40 87 41 81 42 83 43 34 44 86 45 80 46
REMARK SMILES IDX 79 47 35 49 67 50 47 51 66 52 48 53 51 54 65 55 84 56 49 57
REMARK SMILES IDX 50 58 64 60 85 61 52 62 36 63 37 64 45 65 38 66 40 67 46 68
REMARK SMILES IDX 39 69 41 70 42 71 43 72 44 73 68 74 69 75 77 76 70 77 72 78
REMARK SMILES IDX 78 79 71 80 73 81 74 82 75 83 76 84 53 85 54 86 62 87 55 88
REMARK SMILES IDX 57 89 63 90 56 91 58 92 59 93 60 94 61 95
REMARK H PARENT 20 5 3 11 3 12 24 29 83 48 51 59
REMARK Flexibility Score: inf
ROOT
ATOM      1  C   UNL A   1      36.410  19.913  24.996  1.00  0.00     0.117 C 
ENDROOT
BRANCH   1   2
ATOM      2  N   UNL A   1      36.457  21.276  25.496  1.00  0.00    -0.356 N 
ATOM      3  C   UNL A   1      35.729  22.379  25.171  1.00  0.00     0.228 C 
ATOM      4  O   UNL A   1      35.910  23.393  25.852  1.00  0.00    -0.275 OA
ATOM      5  H   UNL A   1      37.136  21.429  26.192  1.00  0.00     0.163 HD
BRANCH   3   6
ATOM      6  C   UNL A   1      34.743  22.403  24.000  1.00  0.00     0.133 C 
ATOM      7  C   UNL A   1      34.876  23.710  23.219  1.00  0.00     0.024 C 
BRANCH   6   8
ATOM      8  C   UNL A   1      33.310  21.992  24.446  1.00  0.00     0.191 C 
ATOM      9  C   UNL A   1      32.385  22.178  23.226  1.00  0.00     0.076 C 
BRANCH   8  10
ATOM     10  N   UNL A   1      32.868  22.794  25.599  1.00  0.00    -0.341 N 
ATOM     11  H   UNL A   1      33.671  23.340  25.911  1.00  0.00     0.346 HD
ATOM     12  H   UNL A   1      32.509  22.105  26.259  1.00  0.00     0.346 HD
BRANCH  10  13
ATOM     13  C   UNL A   1      31.741  23.739  25.412  1.00  0.00     0.185 C 
ATOM     14  C   UNL A   1      30.723  23.373  26.505  1.00  0.00     0.076 C 
BRANCH  13  15
ATOM     15  C   UNL A   1      32.082  25.286  25.373  1.00  0.00     0.023 C 
ATOM     16  C   UNL A   1      31.063  26.045  26.277  1.00  0.00     0.016 C 
ATOM     17  C   UNL A   1      32.101  25.855  23.925  1.00  0.00     0.016 C 
ATOM     18  C   UNL A   1      33.492  25.645  25.958  1.00  0.00     0.016 C 
ATOM     19  C   UNL A   1      31.284  27.560  26.236  1.00  0.00    -0.010 C 
ATOM     20  C   UNL A   1      32.266  27.381  23.920  1.00  0.00    -0.010 C 
ATOM     21  C   UNL A   1      33.744  27.174  25.934  1.00  0.00    -0.010 C 
ATOM     22  C   UNL A   1      32.681  27.879  26.787  1.00  0.00     0.007 C 
ATOM     23  C   UNL A   1      31.175  28.039  24.782  1.00  0.00     0.007 C 
ATOM     24  C   UNL A   1      33.646  27.709  24.496  1.00  0.00     0.007 C 
ENDBRANCH  13  15
ENDBRANCH  10  13
ENDBRANCH   8  10
ENDBRANCH   6   8
ENDBRANCH   3   6
ENDBRANCH   1   2
BRANCH   1  25
ATOM     25  C   UNL A   1      37.772  19.226  24.964  1.00  0.00     0.042 C 
BRANCH  25  26
ATOM     26  C   UNL A   1      38.910  20.035  25.568  1.00  0.00     0.118 C 
BRANCH  26  27
ATOM     27  N   UNL A   1      40.041  19.207  25.963  1.00  0.00    -0.352 N 
ATOM     28  C   UNL A   1      41.312  19.554  26.347  1.00  0.00     0.251 C 
ATOM     29  H   UNL A   1      39.866  18.239  25.953  1.00  0.00     0.163 HD
ATOM     30  O   UNL A   1      42.170  18.673  26.433  1.00  0.00    -0.269 OA
BRANCH  28  31
ATOM     31  C   UNL A   1      41.667  20.958  26.645  1.00  0.00     0.039 A 
ATOM     32  C   UNL A   1      42.112  21.284  27.930  1.00  0.00     0.014 A 
ATOM     33  C   UNL A   1      41.525  21.962  25.685  1.00  0.00     0.014 A 
ATOM     34  C   UNL A   1      42.468  22.601  28.232  1.00  0.00     0.010 A 
ATOM     35  C   UNL A   1      41.963  23.255  25.960  1.00  0.00     0.010 A 
ATOM     36  C   UNL A   1      42.428  23.593  27.239  1.00  0.00    -0.014 A 
BRANCH  36  37
ATOM     37  C   UNL A   1      42.874  24.984  27.515  1.00  0.00     0.031 A 
ATOM     38  C   UNL A   1      41.932  25.976  28.141  1.00  0.00     0.074 A 
ATOM     39  C   UNL A   1      44.099  25.379  27.114  1.00  0.00     0.049 A 
ATOM     40  N   UNL A   1      42.121  27.245  28.397  1.00  0.00    -0.248 NA
ATOM     41  C   UNL A   1      40.589  25.488  28.499  1.00  0.00     0.031 C 
ATOM     42  C   UNL A   1      45.075  24.536  26.421  1.00  0.00     0.029 A 
ATOM     43  N   UNL A   1      44.721  26.599  27.206  1.00  0.00    -0.354 N 
ATOM     44  C   UNL A   1      40.915  27.715  28.906  1.00  0.00     0.074 A 
ATOM     45  C   UNL A   1      39.990  26.604  28.889  1.00  0.00     0.031 C 
ATOM     46  C   UNL A   1      46.172  25.260  26.154  1.00  0.00     0.029 A 
ATOM     47  C   UNL A   1      45.968  26.626  26.625  1.00  0.00     0.049 A 
ATOM     48  H   UNL A   1      44.315  27.379  27.646  1.00  0.00     0.167 HD
ATOM     49  C   UNL A   1      40.613  28.952  29.370  1.00  0.00     0.034 A 
ATOM     50  C   UNL A   1      46.844  27.638  26.478  1.00  0.00     0.034 A 
ATOM     51  C   UNL A   1      41.550  30.042  29.423  1.00  0.00     0.049 A 
ATOM     52  C   UNL A   1      46.503  28.990  27.044  1.00  0.00     0.074 A 
ATOM     53  C   UNL A   1      41.372  31.301  29.967  1.00  0.00     0.029 A 
ATOM     54  N   UNL A   1      42.836  30.006  28.909  1.00  0.00    -0.354 N 
ATOM     55  N   UNL A   1      45.417  29.370  27.672  1.00  0.00    -0.248 NA
ATOM     56  C   UNL A   1      47.522  30.042  26.916  1.00  0.00     0.031 C 
ATOM     57  C   UNL A   1      42.542  32.039  29.753  1.00  0.00     0.029 A 
ATOM     58  C   UNL A   1      43.460  31.226  29.107  1.00  0.00     0.049 A 
ATOM     59  H   UNL A   1      43.246  29.228  28.466  1.00  0.00     0.167 HD
ATOM     60  C   UNL A   1      45.634  30.692  28.043  1.00  0.00     0.074 A 
ATOM     61  C   UNL A   1      46.966  31.040  27.588  1.00  0.00     0.031 C 
ATOM     62  C   UNL A   1      44.803  31.545  28.691  1.00  0.00     0.034 A 
BRANCH  49  63
ATOM     63  C   UNL A   1      39.220  29.178  29.900  1.00  0.00     0.023 A 
ATOM     64  C   UNL A   1      38.894  28.755  31.205  1.00  0.00     0.012 A 
ATOM     65  C   UNL A   1      38.251  29.850  29.131  1.00  0.00     0.148 A 
ATOM     66  C   UNL A   1      37.614  28.959  31.721  1.00  0.00     0.002 A 
ATOM     67  C   UNL A   1      36.991  30.092  29.669  1.00  0.00     0.091 A 
ATOM     68  F   UNL A   1      38.571  30.226  27.885  1.00  0.00    -0.205 F 
ATOM     69  C   UNL A   1      36.666  29.636  30.956  1.00  0.00     0.022 A 
BRANCH  67  70
ATOM     70  S   UNL A   1      35.731  31.027  28.795  1.00  0.00     0.127 S 
ATOM     71  O   UNL A   1      35.080  29.980  28.008  1.00  0.00    -0.237 OA
ATOM     72  O   UNL A   1      34.920  31.553  29.895  1.00  0.00    -0.237 OA
ATOM     73  O   UNL A   1      36.440  32.038  28.028  1.00  0.00    -0.744 OA
ENDBRANCH  67  70
ENDBRANCH  49  63
BRANCH  50  74
ATOM     74  C   UNL A   1      48.159  27.389  25.822  1.00  0.00     0.023 A 
ATOM     75  C   UNL A   1      49.243  26.933  26.595  1.00  0.00     0.012 A 
ATOM     76  C   UNL A   1      48.328  27.560  24.433  1.00  0.00     0.148 A 
ATOM     77  C   UNL A   1      50.482  26.679  26.004  1.00  0.00     0.002 A 
ATOM     78  C   UNL A   1      49.547  27.249  23.842  1.00  0.00     0.091 A 
ATOM     79  F   UNL A   1      47.286  28.002  23.717  1.00  0.00    -0.205 F 
ATOM     80  C   UNL A   1      50.630  26.825  24.628  1.00  0.00     0.022 A 
BRANCH  78  81
ATOM     81  S   UNL A   1      49.787  27.277  22.061  1.00  0.00     0.127 S 
ATOM     82  O   UNL A   1      51.170  26.818  21.939  1.00  0.00    -0.237 OA
ATOM     83  O   UNL A   1      48.779  26.314  21.609  1.00  0.00    -0.237 OA
ATOM     84  O   UNL A   1      49.535  28.647  21.649  1.00  0.00    -0.744 OA
ENDBRANCH  78  81
ENDBRANCH  50  74
BRANCH  62  85
ATOM     85  C   UNL A   1      45.312  32.933  28.983  1.00  0.00     0.023 A 
ATOM     86  C   UNL A   1      46.099  33.166  30.128  1.00  0.00     0.012 A 
ATOM     87  C   UNL A   1      45.071  33.989  28.082  1.00  0.00     0.148 A 
ATOM     88  C   UNL A   1      46.611  34.437  30.389  1.00  0.00     0.002 A 
ATOM     89  C   UNL A   1      45.627  35.240  28.322  1.00  0.00     0.091 A 
ATOM     90  F   UNL A   1      44.304  33.751  27.008  1.00  0.00    -0.205 F 
ATOM     91  C   UNL A   1      46.386  35.469  29.481  1.00  0.00     0.022 A 
BRANCH  89  92
ATOM     92  S   UNL A   1      45.472  36.601  27.159  1.00  0.00     0.127 S 
ATOM     93  O   UNL A   1      46.358  36.171  26.078  1.00  0.00    -0.237 OA
ATOM     94  O   UNL A   1      44.046  36.565  26.829  1.00  0.00    -0.237 OA
ATOM     95  O   UNL A   1      45.895  37.794  27.878  1.00  0.00    -0.744 OA
ENDBRANCH  89  92
ENDBRANCH  62  85
ENDBRANCH  36  37
ENDBRANCH  28  31
ENDBRANCH  26  27
ENDBRANCH  25  26
ENDBRANCH   1  25
TORSDOF 17
ENDMDL
