MODEL 1
REMARK VINA RESULT:     -12.0      0.000      0.000
REMARK SMILES NS(=O)(=O)c1ccc(N2N=C(C(=O)NCCCNC(=O)c3ccc(-c4c5nc(c(-c6cccc(S(=O)(=O)[O-])c6F)c6ccc([nH]6)c(-c6cccc(S(=O)(=O)[O-])c6F)c6nc(c(-c7cccc(S(=O)(=O)[O-])c7F)c7ccc4[nH]7)C=C6)C=C5)cc3)C[C@H]2c2ccco2)cc1
REMARK SMILES IDX 16 1 15 2 14 3 12 4 13 5 11 7 9 8 10 9 85 10 84 11 8 12 5 13
REMARK SMILES IDX 6 14 92 15 7 16 91 17 2 18 3 19 4 20 1 21 86 24 87 25 90 26
REMARK SMILES IDX 88 27 89 28 17 29 18 30 19 31 20 33 21 34 22 35 83 36 23 37
REMARK SMILES IDX 82 38 24 39 25 40 26 41 76 42 27 43 81 44 75 45 77 46 28 47
REMARK SMILES IDX 80 48 74 49 73 50 29 52 61 53 41 54 60 55 42 56 45 57 59 58
REMARK SMILES IDX 78 59 43 60 44 61 58 63 79 64 46 65 30 66 31 67 39 68 32 69
REMARK SMILES IDX 34 70 40 71 33 72 35 73 36 74 37 75 38 76 62 77 63 78 71 79
REMARK SMILES IDX 64 80 66 81 72 82 65 83 67 84 68 85 69 86 70 87 47 88 48 89
REMARK SMILES IDX 56 90 49 91 51 92 57 93 50 94 52 95 53 96 54 97 55 98
REMARK H PARENT 14 6 1 22 1 23 18 32 77 51 45 62
REMARK Flexibility Score: inf
ROOT
ATOM      1  C   UNL A   1      32.512  28.375  25.533  1.00  0.00     0.042 C 
ENDROOT
BRANCH   1   2
ATOM      2  C   UNL A   1      31.981  27.033  26.016  1.00  0.00     0.118 C 
BRANCH   2   3
ATOM      3  N   UNL A   1      31.081  26.432  25.046  1.00  0.00    -0.351 N 
ATOM      4  C   UNL A   1      31.161  25.368  24.183  1.00  0.00     0.267 C 
ATOM      5  O   UNL A   1      30.208  25.176  23.430  1.00  0.00    -0.268 OA
ATOM      6  H   UNL A   1      30.213  26.894  24.998  1.00  0.00     0.163 HD
BRANCH   4   7
ATOM      7  C   UNL A   1      32.323  24.390  24.147  1.00  0.00     0.128 C 
ATOM      8  N   UNL A   1      33.408  22.578  24.487  1.00  0.00    -0.254 N 
ATOM      9  N   UNL A   1      32.164  23.140  24.461  1.00  0.00    -0.171 NA
ATOM     10  C   UNL A   1      34.457  23.462  23.953  1.00  0.00     0.180 C 
ATOM     11  C   UNL A   1      33.712  24.790  23.800  1.00  0.00     0.099 C 
BRANCH   8  12
ATOM     12  C   UNL A   1      33.540  21.193  24.387  1.00  0.00     0.060 A 
ATOM     13  C   UNL A   1      33.697  18.393  24.254  1.00  0.00     0.082 A 
ATOM     14  C   UNL A   1      34.725  19.116  24.864  1.00  0.00     0.024 A 
ATOM     15  C   UNL A   1      32.610  19.052  23.684  1.00  0.00     0.024 A 
ATOM     16  C   UNL A   1      34.646  20.513  24.917  1.00  0.00     0.029 A 
ATOM     17  C   UNL A   1      32.544  20.443  23.748  1.00  0.00     0.029 A 
BRANCH  13  18
ATOM     18  S   UNL A   1      33.772  16.631  24.185  1.00  0.00     0.238 S 
ATOM     19  O   UNL A   1      34.158  16.221  22.851  1.00  0.00    -0.207 OA
ATOM     20  O   UNL A   1      32.618  16.087  24.855  1.00  0.00    -0.207 OA
BRANCH  18  21
ATOM     21  N   UNL A   1      35.098  16.271  25.148  1.00  0.00    -0.225 NA
ATOM     22  H   UNL A   1      35.871  15.959  24.559  1.00  0.00     0.137 HD
ATOM     23  H   UNL A   1      34.851  15.532  25.806  1.00  0.00     0.137 HD
ENDBRANCH  18  21
ENDBRANCH  13  18
ENDBRANCH   8  12
BRANCH  10  24
ATOM     24  C   UNL A   1      35.722  23.612  24.757  1.00  0.00     0.128 A 
ATOM     25  C   UNL A   1      35.978  24.076  26.034  1.00  0.00     0.048 A 
ATOM     26  O   UNL A   1      36.897  23.196  24.191  1.00  0.00    -0.467 OA
ATOM     27  C   UNL A   1      37.375  23.961  26.239  1.00  0.00     0.042 A 
ATOM     28  C   UNL A   1      37.884  23.398  25.096  1.00  0.00     0.195 A 
ENDBRANCH  10  24
ENDBRANCH   4   7
ENDBRANCH   2   3
ENDBRANCH   1   2
BRANCH   1  29
ATOM     29  C   UNL A   1      33.795  28.791  26.240  1.00  0.00     0.118 C 
BRANCH  29  30
ATOM     30  N   UNL A   1      33.735  30.171  26.714  1.00  0.00    -0.352 N 
ATOM     31  C   UNL A   1      34.529  30.830  27.619  1.00  0.00     0.251 C 
ATOM     32  H   UNL A   1      33.012  30.713  26.323  1.00  0.00     0.163 HD
ATOM     33  O   UNL A   1      34.163  31.914  28.066  1.00  0.00    -0.269 OA
BRANCH  31  34
ATOM     34  C   UNL A   1      35.810  30.239  28.054  1.00  0.00     0.039 A 
ATOM     35  C   UNL A   1      36.933  30.361  27.232  1.00  0.00     0.014 A 
ATOM     36  C   UNL A   1      35.900  29.546  29.263  1.00  0.00     0.014 A 
ATOM     37  C   UNL A   1      38.159  29.842  27.655  1.00  0.00     0.010 A 
ATOM     38  C   UNL A   1      37.138  29.120  29.727  1.00  0.00     0.010 A 
ATOM     39  C   UNL A   1      38.278  29.249  28.922  1.00  0.00    -0.014 A 
BRANCH  39  40
ATOM     40  C   UNL A   1      39.581  28.749  29.428  1.00  0.00     0.031 A 
ATOM     41  C   UNL A   1      40.283  29.473  30.547  1.00  0.00     0.074 A 
ATOM     42  C   UNL A   1      40.174  27.703  28.821  1.00  0.00     0.049 A 
ATOM     43  N   UNL A   1      41.458  29.240  31.069  1.00  0.00    -0.248 NA
ATOM     44  C   UNL A   1      39.585  30.630  31.136  1.00  0.00     0.031 C 
ATOM     45  C   UNL A   1      39.629  26.967  27.678  1.00  0.00     0.029 A 
ATOM     46  N   UNL A   1      41.380  27.095  29.061  1.00  0.00    -0.354 N 
ATOM     47  C   UNL A   1      41.658  30.239  32.016  1.00  0.00     0.074 A 
ATOM     48  C   UNL A   1      40.500  31.104  31.968  1.00  0.00     0.031 C 
ATOM     49  C   UNL A   1      40.493  26.003  27.322  1.00  0.00     0.029 A 
ATOM     50  C   UNL A   1      41.669  26.075  28.183  1.00  0.00     0.049 A 
ATOM     51  H   UNL A   1      41.983  27.362  29.792  1.00  0.00     0.167 HD
ATOM     52  C   UNL A   1      42.695  30.405  32.869  1.00  0.00     0.034 A 
ATOM     53  C   UNL A   1      42.762  25.295  28.076  1.00  0.00     0.034 A 
ATOM     54  C   UNL A   1      43.825  29.519  32.939  1.00  0.00     0.049 A 
ATOM     55  C   UNL A   1      43.890  25.485  29.054  1.00  0.00     0.074 A 
ATOM     56  C   UNL A   1      44.889  29.549  33.823  1.00  0.00     0.029 A 
ATOM     57  N   UNL A   1      44.044  28.448  32.086  1.00  0.00    -0.354 N 
ATOM     58  N   UNL A   1      43.992  26.343  30.040  1.00  0.00    -0.248 NA
ATOM     59  C   UNL A   1      45.038  24.575  28.928  1.00  0.00     0.031 C 
ATOM     60  C   UNL A   1      45.768  28.516  33.484  1.00  0.00     0.029 A 
ATOM     61  C   UNL A   1      45.231  27.817  32.415  1.00  0.00     0.049 A 
ATOM     62  H   UNL A   1      43.443  28.177  31.355  1.00  0.00     0.167 HD
ATOM     63  C   UNL A   1      45.193  26.049  30.677  1.00  0.00     0.074 A 
ATOM     64  C   UNL A   1      45.772  24.923  29.976  1.00  0.00     0.031 C 
ATOM     65  C   UNL A   1      45.768  26.663  31.741  1.00  0.00     0.034 A 
BRANCH  52  66
ATOM     66  C   UNL A   1      42.635  31.564  33.830  1.00  0.00     0.023 A 
ATOM     67  C   UNL A   1      43.107  32.831  33.428  1.00  0.00     0.012 A 
ATOM     68  C   UNL A   1      42.066  31.415  35.110  1.00  0.00     0.148 A 
ATOM     69  C   UNL A   1      43.049  33.920  34.296  1.00  0.00     0.002 A 
ATOM     70  C   UNL A   1      41.964  32.517  35.951  1.00  0.00     0.091 A 
ATOM     71  F   UNL A   1      41.640  30.200  35.483  1.00  0.00    -0.205 F 
ATOM     72  C   UNL A   1      42.468  33.766  35.552  1.00  0.00     0.022 A 
BRANCH  70  73
ATOM     73  S   UNL A   1      41.158  32.445  37.554  1.00  0.00     0.127 S 
ATOM     74  O   UNL A   1      39.851  31.893  37.201  1.00  0.00    -0.237 OA
ATOM     75  O   UNL A   1      42.027  31.529  38.292  1.00  0.00    -0.237 OA
ATOM     76  O   UNL A   1      41.143  33.810  38.059  1.00  0.00    -0.744 OA
ENDBRANCH  70  73
ENDBRANCH  52  66
BRANCH  53  77
ATOM     77  C   UNL A   1      42.820  24.226  27.039  1.00  0.00     0.023 A 
ATOM     78  C   UNL A   1      43.617  24.415  25.894  1.00  0.00     0.012 A 
ATOM     79  C   UNL A   1      42.107  23.020  27.189  1.00  0.00     0.148 A 
ATOM     80  C   UNL A   1      43.672  23.441  24.897  1.00  0.00     0.002 A 
ATOM     81  C   UNL A   1      42.213  22.030  26.219  1.00  0.00     0.091 A 
ATOM     82  F   UNL A   1      41.349  22.862  28.283  1.00  0.00    -0.205 F 
ATOM     83  C   UNL A   1      42.978  22.246  25.063  1.00  0.00     0.022 A 
BRANCH  81  84
ATOM     84  S   UNL A   1      41.464  20.409  26.413  1.00  0.00     0.127 S 
ATOM     85  O   UNL A   1      40.056  20.698  26.150  1.00  0.00    -0.237 OA
ATOM     86  O   UNL A   1      42.141  19.637  25.370  1.00  0.00    -0.237 OA
ATOM     87  O   UNL A   1      41.780  19.988  27.771  1.00  0.00    -0.744 OA
ENDBRANCH  81  84
ENDBRANCH  53  77
BRANCH  65  88
ATOM     88  C   UNL A   1      47.070  26.103  32.252  1.00  0.00     0.023 A 
ATOM     89  C   UNL A   1      48.295  26.619  31.786  1.00  0.00     0.012 A 
ATOM     90  C   UNL A   1      47.073  25.113  33.255  1.00  0.00     0.148 A 
ATOM     91  C   UNL A   1      49.503  26.135  32.285  1.00  0.00     0.002 A 
ATOM     92  C   UNL A   1      48.279  24.673  33.786  1.00  0.00     0.091 A 
ATOM     93  F   UNL A   1      45.896  24.622  33.672  1.00  0.00    -0.205 F 
ATOM     94  C   UNL A   1      49.495  25.172  33.293  1.00  0.00     0.022 A 
BRANCH  92  95
ATOM     95  S   UNL A   1      48.363  23.514  35.155  1.00  0.00     0.127 S 
ATOM     96  O   UNL A   1      47.624  24.226  36.195  1.00  0.00    -0.237 OA
ATOM     97  O   UNL A   1      47.676  22.343  34.610  1.00  0.00    -0.237 OA
ATOM     98  O   UNL A   1      49.781  23.312  35.425  1.00  0.00    -0.744 OA
ENDBRANCH  92  95
ENDBRANCH  65  88
ENDBRANCH  39  40
ENDBRANCH  31  34
ENDBRANCH  29  30
ENDBRANCH   1  29
TORSDOF 17
ENDMDL
MODEL 2
REMARK VINA RESULT:     -12.0      2.058      7.640
REMARK SMILES NS(=O)(=O)c1ccc(N2N=C(C(=O)NCCCNC(=O)c3ccc(-c4c5nc(c(-c6cccc(S(=O)(=O)[O-])c6F)c6ccc([nH]6)c(-c6cccc(S(=O)(=O)[O-])c6F)c6nc(c(-c7cccc(S(=O)(=O)[O-])c7F)c7ccc4[nH]7)C=C6)C=C5)cc3)C[C@H]2c2ccco2)cc1
REMARK SMILES IDX 16 1 15 2 14 3 12 4 13 5 11 7 9 8 10 9 85 10 84 11 8 12 5 13
REMARK SMILES IDX 6 14 92 15 7 16 91 17 2 18 3 19 4 20 1 21 86 24 87 25 90 26
REMARK SMILES IDX 88 27 89 28 17 29 18 30 19 31 20 33 21 34 22 35 83 36 23 37
REMARK SMILES IDX 82 38 24 39 25 40 26 41 76 42 27 43 81 44 75 45 77 46 28 47
REMARK SMILES IDX 80 48 74 49 73 50 29 52 61 53 41 54 60 55 42 56 45 57 59 58
REMARK SMILES IDX 78 59 43 60 44 61 58 63 79 64 46 65 30 66 31 67 39 68 32 69
REMARK SMILES IDX 34 70 40 71 33 72 35 73 36 74 37 75 38 76 62 77 63 78 71 79
REMARK SMILES IDX 64 80 66 81 72 82 65 83 67 84 68 85 69 86 70 87 47 88 48 89
REMARK SMILES IDX 56 90 49 91 51 92 57 93 50 94 52 95 53 96 54 97 55 98
REMARK H PARENT 14 6 1 22 1 23 18 32 77 51 45 62
REMARK Flexibility Score: inf
ROOT
ATOM      1  C   UNL A   1      32.164  28.283  24.572  1.00  0.00     0.042 C 
ENDROOT
BRANCH   1   2
ATOM      2  C   UNL A   1      31.662  27.050  25.309  1.00  0.00     0.118 C 
BRANCH   2   3
ATOM      3  N   UNL A   1      30.747  26.271  24.491  1.00  0.00    -0.351 N 
ATOM      4  C   UNL A   1      30.837  25.088  23.801  1.00  0.00     0.267 C 
ATOM      5  O   UNL A   1      29.861  24.744  23.136  1.00  0.00    -0.268 OA
ATOM      6  H   UNL A   1      29.859  26.687  24.414  1.00  0.00     0.163 HD
BRANCH   4   7
ATOM      7  C   UNL A   1      32.039  24.160  23.859  1.00  0.00     0.128 C 
ATOM      8  N   UNL A   1      33.181  22.413  24.331  1.00  0.00    -0.254 N 
ATOM      9  N   UNL A   1      31.918  22.920  24.228  1.00  0.00    -0.171 NA
ATOM     10  C   UNL A   1      34.214  23.315  23.797  1.00  0.00     0.180 C 
ATOM     11  C   UNL A   1      33.423  24.601  23.549  1.00  0.00     0.099 C 
BRANCH   8  12
ATOM     12  C   UNL A   1      33.374  21.032  24.304  1.00  0.00     0.060 A 
ATOM     13  C   UNL A   1      33.655  18.238  24.323  1.00  0.00     0.082 A 
ATOM     14  C   UNL A   1      34.666  19.040  24.860  1.00  0.00     0.024 A 
ATOM     15  C   UNL A   1      32.523  18.815  23.751  1.00  0.00     0.024 A 
ATOM     16  C   UNL A   1      34.525  20.433  24.837  1.00  0.00     0.029 A 
ATOM     17  C   UNL A   1      32.395  20.204  23.740  1.00  0.00     0.029 A 
BRANCH  13  18
ATOM     18  S   UNL A   1      33.808  16.481  24.351  1.00  0.00     0.238 S 
ATOM     19  O   UNL A   1      34.266  16.020  23.056  1.00  0.00    -0.207 OA
ATOM     20  O   UNL A   1      32.653  15.920  25.004  1.00  0.00    -0.207 OA
BRANCH  18  21
ATOM     21  N   UNL A   1      35.108  16.231  25.382  1.00  0.00    -0.225 NA
ATOM     22  H   UNL A   1      35.218  17.042  25.993  1.00  0.00     0.137 HD
ATOM     23  H   UNL A   1      35.958  16.102  24.832  1.00  0.00     0.137 HD
ENDBRANCH  18  21
ENDBRANCH  13  18
ENDBRANCH   8  12
BRANCH  10  24
ATOM     24  C   UNL A   1      35.437  23.557  24.642  1.00  0.00     0.128 A 
ATOM     25  C   UNL A   1      35.615  23.843  25.983  1.00  0.00     0.048 A 
ATOM     26  O   UNL A   1      36.665  23.459  24.043  1.00  0.00    -0.467 OA
ATOM     27  C   UNL A   1      37.011  23.950  26.197  1.00  0.00     0.042 A 
ATOM     28  C   UNL A   1      37.605  23.684  24.990  1.00  0.00     0.195 A 
ENDBRANCH  10  24
ENDBRANCH   4   7
ENDBRANCH   2   3
ENDBRANCH   1   2
BRANCH   1  29
ATOM     29  C   UNL A   1      33.214  29.054  25.359  1.00  0.00     0.118 C 
BRANCH  29  30
ATOM     30  N   UNL A   1      32.710  30.343  25.826  1.00  0.00    -0.352 N 
ATOM     31  C   UNL A   1      33.119  31.123  26.879  1.00  0.00     0.251 C 
ATOM     32  H   UNL A   1      31.960  30.709  25.304  1.00  0.00     0.163 HD
ATOM     33  O   UNL A   1      32.406  32.050  27.255  1.00  0.00    -0.269 OA
BRANCH  31  34
ATOM     34  C   UNL A   1      34.402  30.847  27.555  1.00  0.00     0.039 A 
ATOM     35  C   UNL A   1      35.307  31.893  27.754  1.00  0.00     0.014 A 
ATOM     36  C   UNL A   1      34.722  29.555  27.974  1.00  0.00     0.014 A 
ATOM     37  C   UNL A   1      36.505  31.650  28.431  1.00  0.00     0.010 A 
ATOM     38  C   UNL A   1      35.864  29.336  28.734  1.00  0.00     0.010 A 
ATOM     39  C   UNL A   1      36.776  30.376  28.958  1.00  0.00    -0.014 A 
BRANCH  39  40
ATOM     40  C   UNL A   1      38.008  30.103  29.739  1.00  0.00     0.031 A 
ATOM     41  C   UNL A   1      39.053  29.165  29.196  1.00  0.00     0.074 A 
ATOM     42  C   UNL A   1      38.142  30.624  30.975  1.00  0.00     0.049 A 
ATOM     43  N   UNL A   1      40.152  28.739  29.761  1.00  0.00    -0.248 NA
ATOM     44  C   UNL A   1      38.817  28.608  27.852  1.00  0.00     0.031 C 
ATOM     45  C   UNL A   1      37.163  31.486  31.641  1.00  0.00     0.029 A 
ATOM     46  N   UNL A   1      39.143  30.482  31.902  1.00  0.00    -0.354 N 
ATOM     47  C   UNL A   1      40.716  27.839  28.865  1.00  0.00     0.074 A 
ATOM     48  C   UNL A   1      39.818  27.748  27.734  1.00  0.00     0.031 C 
ATOM     49  C   UNL A   1      37.614  31.802  32.865  1.00  0.00     0.029 A 
ATOM     50  C   UNL A   1      38.894  31.136  33.088  1.00  0.00     0.049 A 
ATOM     51  H   UNL A   1      39.962  29.962  31.737  1.00  0.00     0.167 HD
ATOM     52  C   UNL A   1      41.889  27.170  28.957  1.00  0.00     0.034 A 
ATOM     53  C   UNL A   1      39.609  31.183  34.228  1.00  0.00     0.034 A 
ATOM     54  C   UNL A   1      42.797  27.294  30.065  1.00  0.00     0.049 A 
ATOM     55  C   UNL A   1      40.923  30.451  34.295  1.00  0.00     0.074 A 
ATOM     56  C   UNL A   1      44.048  26.726  30.220  1.00  0.00     0.029 A 
ATOM     57  N   UNL A   1      42.547  28.030  31.213  1.00  0.00    -0.354 N 
ATOM     58  N   UNL A   1      41.509  29.723  33.376  1.00  0.00    -0.248 NA
ATOM     59  C   UNL A   1      41.689  30.576  35.543  1.00  0.00     0.031 C 
ATOM     60  C   UNL A   1      44.542  27.092  31.475  1.00  0.00     0.029 A 
ATOM     61  C   UNL A   1      43.615  27.921  32.086  1.00  0.00     0.049 A 
ATOM     62  H   UNL A   1      41.730  28.552  31.382  1.00  0.00     0.167 HD
ATOM     63  C   UNL A   1      42.731  29.339  33.917  1.00  0.00     0.074 A 
ATOM     64  C   UNL A   1      42.807  29.931  35.237  1.00  0.00     0.031 C 
ATOM     65  C   UNL A   1      43.699  28.560  33.374  1.00  0.00     0.034 A 
BRANCH  52  66
ATOM     66  C   UNL A   1      42.282  26.279  27.807  1.00  0.00     0.023 A 
ATOM     67  C   UNL A   1      43.108  26.784  26.781  1.00  0.00     0.012 A 
ATOM     68  C   UNL A   1      41.880  24.930  27.767  1.00  0.00     0.148 A 
ATOM     69  C   UNL A   1      43.494  25.973  25.716  1.00  0.00     0.002 A 
ATOM     70  C   UNL A   1      42.312  24.113  26.728  1.00  0.00     0.091 A 
ATOM     71  F   UNL A   1      41.079  24.471  28.739  1.00  0.00    -0.205 F 
ATOM     72  C   UNL A   1      43.106  24.636  25.695  1.00  0.00     0.022 A 
BRANCH  70  73
ATOM     73  S   UNL A   1      41.937  22.358  26.652  1.00  0.00     0.127 S 
ATOM     74  O   UNL A   1      40.475  22.371  26.605  1.00  0.00    -0.237 OA
ATOM     75  O   UNL A   1      42.583  21.961  25.401  1.00  0.00    -0.237 OA
ATOM     76  O   UNL A   1      42.517  21.770  27.850  1.00  0.00    -0.744 OA
ENDBRANCH  70  73
ENDBRANCH  52  66
BRANCH  53  77
ATOM     77  C   UNL A   1      39.128  31.997  35.380  1.00  0.00     0.023 A 
ATOM     78  C   UNL A   1      39.317  33.393  35.369  1.00  0.00     0.012 A 
ATOM     79  C   UNL A   1      38.470  31.403  36.475  1.00  0.00     0.148 A 
ATOM     80  C   UNL A   1      38.897  34.177  36.443  1.00  0.00     0.002 A 
ATOM     81  C   UNL A   1      38.003  32.197  37.515  1.00  0.00     0.091 A 
ATOM     82  F   UNL A   1      38.306  30.072  36.471  1.00  0.00    -0.205 F 
ATOM     83  C   UNL A   1      38.233  33.581  37.511  1.00  0.00     0.022 A 
BRANCH  81  84
ATOM     84  S   UNL A   1      37.021  31.535  38.865  1.00  0.00     0.127 S 
ATOM     85  O   UNL A   1      37.931  31.683  39.998  1.00  0.00    -0.237 OA
ATOM     86  O   UNL A   1      35.871  32.440  38.874  1.00  0.00    -0.237 OA
ATOM     87  O   UNL A   1      36.701  30.165  38.486  1.00  0.00    -0.744 OA
ENDBRANCH  81  84
ENDBRANCH  53  77
BRANCH  65  88
ATOM     88  C   UNL A   1      44.953  28.338  34.180  1.00  0.00     0.023 A 
ATOM     89  C   UNL A   1      46.045  29.217  34.046  1.00  0.00     0.012 A 
ATOM     90  C   UNL A   1      45.014  27.296  35.126  1.00  0.00     0.148 A 
ATOM     91  C   UNL A   1      47.193  29.042  34.818  1.00  0.00     0.002 A 
ATOM     92  C   UNL A   1      46.139  27.160  35.930  1.00  0.00     0.091 A 
ATOM     93  F   UNL A   1      43.970  26.460  35.225  1.00  0.00    -0.205 F 
ATOM     94  C   UNL A   1      47.235  28.023  35.767  1.00  0.00     0.022 A 
BRANCH  92  95
ATOM     95  S   UNL A   1      46.242  25.944  37.247  1.00  0.00     0.127 S 
ATOM     96  O   UNL A   1      47.426  26.394  37.976  1.00  0.00    -0.237 OA
ATOM     97  O   UNL A   1      44.976  26.145  37.952  1.00  0.00    -0.237 OA
ATOM     98  O   UNL A   1      46.370  24.649  36.590  1.00  0.00    -0.744 OA
ENDBRANCH  92  95
ENDBRANCH  65  88
ENDBRANCH  39  40
ENDBRANCH  31  34
ENDBRANCH  29  30
ENDBRANCH   1  29
TORSDOF 17
ENDMDL
MODEL 3
REMARK VINA RESULT:     -11.9      4.726      9.944
REMARK SMILES NS(=O)(=O)c1ccc(N2N=C(C(=O)NCCCNC(=O)c3ccc(-c4c5nc(c(-c6cccc(S(=O)(=O)[O-])c6F)c6ccc([nH]6)c(-c6cccc(S(=O)(=O)[O-])c6F)c6nc(c(-c7cccc(S(=O)(=O)[O-])c7F)c7ccc4[nH]7)C=C6)C=C5)cc3)C[C@H]2c2ccco2)cc1
REMARK SMILES IDX 16 1 15 2 14 3 12 4 13 5 11 7 9 8 10 9 85 10 84 11 8 12 5 13
REMARK SMILES IDX 6 14 92 15 7 16 91 17 2 18 3 19 4 20 1 21 86 24 87 25 90 26
REMARK SMILES IDX 88 27 89 28 17 29 18 30 19 31 20 33 21 34 22 35 83 36 23 37
REMARK SMILES IDX 82 38 24 39 25 40 26 41 76 42 27 43 81 44 75 45 77 46 28 47
REMARK SMILES IDX 80 48 74 49 73 50 29 52 61 53 41 54 60 55 42 56 45 57 59 58
REMARK SMILES IDX 78 59 43 60 44 61 58 63 79 64 46 65 30 66 31 67 39 68 32 69
REMARK SMILES IDX 34 70 40 71 33 72 35 73 36 74 37 75 38 76 62 77 63 78 71 79
REMARK SMILES IDX 64 80 66 81 72 82 65 83 67 84 68 85 69 86 70 87 47 88 48 89
REMARK SMILES IDX 56 90 49 91 51 92 57 93 50 94 52 95 53 96 54 97 55 98
REMARK H PARENT 14 6 1 22 1 23 18 32 77 51 45 62
REMARK Flexibility Score: inf
ROOT
ATOM      1  C   UNL A   1      35.146  23.098  25.980  1.00  0.00     0.042 C 
ENDROOT
BRANCH   1   2
ATOM      2  C   UNL A   1      34.463  22.919  24.632  1.00  0.00     0.118 C 
BRANCH   2   3
ATOM      3  N   UNL A   1      33.096  22.448  24.782  1.00  0.00    -0.351 N 
ATOM      4  C   UNL A   1      31.903  23.037  25.118  1.00  0.00     0.267 C 
ATOM      5  O   UNL A   1      30.919  22.306  25.221  1.00  0.00    -0.268 OA
ATOM      6  H   UNL A   1      33.005  21.486  24.599  1.00  0.00     0.163 HD
BRANCH   4   7
ATOM      7  C   UNL A   1      31.719  24.533  25.311  1.00  0.00     0.128 C 
ATOM      8  N   UNL A   1      31.389  26.580  24.783  1.00  0.00    -0.254 N 
ATOM      9  N   UNL A   1      31.287  25.290  24.348  1.00  0.00    -0.171 NA
ATOM     10  C   UNL A   1      31.721  26.686  26.213  1.00  0.00     0.180 C 
ATOM     11  C   UNL A   1      32.054  25.238  26.576  1.00  0.00     0.099 C 
BRANCH   8  12
ATOM     12  C   UNL A   1      30.642  27.579  24.161  1.00  0.00     0.060 A 
ATOM     13  C   UNL A   1      29.126  29.651  23.022  1.00  0.00     0.082 A 
ATOM     14  C   UNL A   1      28.659  28.335  22.959  1.00  0.00     0.024 A 
ATOM     15  C   UNL A   1      30.353  29.938  23.617  1.00  0.00     0.024 A 
ATOM     16  C   UNL A   1      29.425  27.305  23.519  1.00  0.00     0.029 A 
ATOM     17  C   UNL A   1      31.102  28.902  24.174  1.00  0.00     0.029 A 
BRANCH  13  18
ATOM     18  S   UNL A   1      28.172  30.965  22.332  1.00  0.00     0.238 S 
ATOM     19  O   UNL A   1      29.051  32.061  21.982  1.00  0.00    -0.207 OA
ATOM     20  O   UNL A   1      26.987  31.152  23.129  1.00  0.00    -0.207 OA
BRANCH  18  21
ATOM     21  N   UNL A   1      27.665  30.332  20.863  1.00  0.00    -0.225 NA
ATOM     22  H   UNL A   1      28.467  30.238  20.239  1.00  0.00     0.137 HD
ATOM     23  H   UNL A   1      26.978  30.958  20.442  1.00  0.00     0.137 HD
ENDBRANCH  18  21
ENDBRANCH  13  18
ENDBRANCH   8  12
BRANCH  10  24
ATOM     24  C   UNL A   1      32.821  27.636  26.608  1.00  0.00     0.128 A 
ATOM     25  C   UNL A   1      34.139  27.770  26.211  1.00  0.00     0.048 A 
ATOM     26  O   UNL A   1      32.529  28.618  27.517  1.00  0.00    -0.467 OA
ATOM     27  C   UNL A   1      34.675  28.865  26.933  1.00  0.00     0.042 A 
ATOM     28  C   UNL A   1      33.647  29.360  27.695  1.00  0.00     0.195 A 
ENDBRANCH  10  24
ENDBRANCH   4   7
ENDBRANCH   2   3
ENDBRANCH   1   2
BRANCH   1  29
ATOM     29  C   UNL A   1      36.552  23.669  25.859  1.00  0.00     0.118 C 
BRANCH  29  30
ATOM     30  N   UNL A   1      37.576  22.644  26.045  1.00  0.00    -0.352 N 
ATOM     31  C   UNL A   1      38.910  22.771  26.343  1.00  0.00     0.251 C 
ATOM     32  H   UNL A   1      37.260  21.718  25.940  1.00  0.00     0.163 HD
ATOM     33  O   UNL A   1      39.652  21.802  26.213  1.00  0.00    -0.269 OA
BRANCH  31  34
ATOM     34  C   UNL A   1      39.448  24.064  26.813  1.00  0.00     0.039 A 
ATOM     35  C   UNL A   1      40.045  24.930  25.893  1.00  0.00     0.014 A 
ATOM     36  C   UNL A   1      39.383  24.413  28.163  1.00  0.00     0.014 A 
ATOM     37  C   UNL A   1      40.518  26.172  26.322  1.00  0.00     0.010 A 
ATOM     38  C   UNL A   1      39.761  25.687  28.568  1.00  0.00     0.010 A 
ATOM     39  C   UNL A   1      40.347  26.575  27.656  1.00  0.00    -0.014 A 
BRANCH  39  40
ATOM     40  C   UNL A   1      40.778  27.915  28.126  1.00  0.00     0.031 A 
ATOM     41  C   UNL A   1      42.242  28.264  28.170  1.00  0.00     0.074 A 
ATOM     42  C   UNL A   1      39.861  28.781  28.601  1.00  0.00     0.049 A 
ATOM     43  N   UNL A   1      42.818  29.346  28.622  1.00  0.00    -0.248 NA
ATOM     44  C   UNL A   1      43.186  27.250  27.666  1.00  0.00     0.031 C 
ATOM     45  C   UNL A   1      38.420  28.529  28.681  1.00  0.00     0.029 A 
ATOM     46  N   UNL A   1      40.007  30.037  29.132  1.00  0.00    -0.354 N 
ATOM     47  C   UNL A   1      44.186  29.130  28.496  1.00  0.00     0.074 A 
ATOM     48  C   UNL A   1      44.355  27.796  27.962  1.00  0.00     0.031 C 
ATOM     49  C   UNL A   1      37.815  29.599  29.221  1.00  0.00     0.029 A 
ATOM     50  C   UNL A   1      38.825  30.596  29.561  1.00  0.00     0.049 A 
ATOM     51  H   UNL A   1      40.875  30.497  29.200  1.00  0.00     0.167 HD
ATOM     52  C   UNL A   1      45.208  29.974  28.770  1.00  0.00     0.034 A 
ATOM     53  C   UNL A   1      38.583  31.773  30.171  1.00  0.00     0.034 A 
ATOM     54  C   UNL A   1      45.031  31.312  29.264  1.00  0.00     0.049 A 
ATOM     55  C   UNL A   1      39.735  32.703  30.440  1.00  0.00     0.074 A 
ATOM     56  C   UNL A   1      45.995  32.278  29.496  1.00  0.00     0.029 A 
ATOM     57  N   UNL A   1      43.812  31.873  29.612  1.00  0.00    -0.354 N 
ATOM     58  N   UNL A   1      41.008  32.538  30.176  1.00  0.00    -0.248 NA
ATOM     59  C   UNL A   1      39.413  33.996  31.061  1.00  0.00     0.031 C 
ATOM     60  C   UNL A   1      45.361  33.411  30.014  1.00  0.00     0.029 A 
ATOM     61  C   UNL A   1      43.998  33.166  30.067  1.00  0.00     0.049 A 
ATOM     62  H   UNL A   1      42.942  31.417  29.544  1.00  0.00     0.167 HD
ATOM     63  C   UNL A   1      41.632  33.721  30.557  1.00  0.00     0.074 A 
ATOM     64  C   UNL A   1      40.594  34.599  31.054  1.00  0.00     0.031 C 
ATOM     65  C   UNL A   1      42.948  34.047  30.508  1.00  0.00     0.034 A 
BRANCH  52  66
ATOM     66  C   UNL A   1      46.609  29.491  28.498  1.00  0.00     0.023 A 
ATOM     67  C   UNL A   1      47.208  29.750  27.247  1.00  0.00     0.012 A 
ATOM     68  C   UNL A   1      47.353  28.829  29.494  1.00  0.00     0.148 A 
ATOM     69  C   UNL A   1      48.507  29.324  26.978  1.00  0.00     0.002 A 
ATOM     70  C   UNL A   1      48.667  28.453  29.236  1.00  0.00     0.091 A 
ATOM     71  F   UNL A   1      46.763  28.573  30.670  1.00  0.00    -0.205 F 
ATOM     72  C   UNL A   1      49.240  28.687  27.976  1.00  0.00     0.022 A 
BRANCH  70  73
ATOM     73  S   UNL A   1      49.723  27.701  30.479  1.00  0.00     0.127 S 
ATOM     74  O   UNL A   1      48.847  26.663  31.021  1.00  0.00    -0.237 OA
ATOM     75  O   UNL A   1      50.836  27.200  29.673  1.00  0.00    -0.237 OA
ATOM     76  O   UNL A   1      50.074  28.767  31.407  1.00  0.00    -0.744 OA
ENDBRANCH  70  73
ENDBRANCH  52  66
BRANCH  53  77
ATOM     77  C   UNL A   1      37.187  32.164  30.517  1.00  0.00     0.023 A 
ATOM     78  C   UNL A   1      36.700  31.917  31.815  1.00  0.00     0.012 A 
ATOM     79  C   UNL A   1      36.347  32.793  29.577  1.00  0.00     0.148 A 
ATOM     80  C   UNL A   1      35.390  32.252  32.159  1.00  0.00     0.002 A 
ATOM     81  C   UNL A   1      35.063  33.176  29.944  1.00  0.00     0.091 A 
ATOM     82  F   UNL A   1      36.827  33.013  28.344  1.00  0.00    -0.205 F 
ATOM     83  C   UNL A   1      34.576  32.889  31.228  1.00  0.00     0.022 A 
BRANCH  81  84
ATOM     84  S   UNL A   1      33.992  34.120  28.855  1.00  0.00     0.127 S 
ATOM     85  O   UNL A   1      32.994  34.635  29.790  1.00  0.00    -0.237 OA
ATOM     86  O   UNL A   1      34.913  35.123  28.320  1.00  0.00    -0.237 OA
ATOM     87  O   UNL A   1      33.500  33.171  27.865  1.00  0.00    -0.744 OA
ENDBRANCH  81  84
ENDBRANCH  53  77
BRANCH  65  88
ATOM     88  C   UNL A   1      43.343  35.430  30.955  1.00  0.00     0.023 A 
ATOM     89  C   UNL A   1      43.691  35.667  32.300  1.00  0.00     0.012 A 
ATOM     90  C   UNL A   1      43.441  36.479  30.020  1.00  0.00     0.148 A 
ATOM     91  C   UNL A   1      44.097  36.935  32.713  1.00  0.00     0.002 A 
ATOM     92  C   UNL A   1      43.899  37.726  30.427  1.00  0.00     0.091 A 
ATOM     93  F   UNL A   1      43.089  36.237  28.748  1.00  0.00    -0.205 F 
ATOM     94  C   UNL A   1      44.213  37.960  31.776  1.00  0.00     0.022 A 
BRANCH  92  95
ATOM     95  S   UNL A   1      44.177  39.075  29.275  1.00  0.00     0.127 S 
ATOM     96  O   UNL A   1      45.014  39.974  30.067  1.00  0.00    -0.237 OA
ATOM     97  O   UNL A   1      44.872  38.403  28.176  1.00  0.00    -0.237 OA
ATOM     98  O   UNL A   1      42.858  39.590  28.932  1.00  0.00    -0.744 OA
ENDBRANCH  92  95
ENDBRANCH  65  88
ENDBRANCH  39  40
ENDBRANCH  31  34
ENDBRANCH  29  30
ENDBRANCH   1  29
TORSDOF 17
ENDMDL
