MODEL 1
REMARK VINA RESULT:     -12.4      0.000      0.000
REMARK SMILES Cc1ccc(NC(=O)C[C@@H](C(=O)NCCCNC(=O)c2ccc(-c3c4nc(c(-c5cccc(S(=O)(=O)[O-])c5F)c5ccc([nH]5)c(-c5cccc(S(=O)(=O)[O-])c5F)c5nc(c(-c6cccc(S(=O)(=O)[O-])c6F)c6ccc3[nH]6)C=C5)C=C4)cc2)[C@@H](C)c2ccccc2)cc1Br
REMARK SMILES IDX 15 1 14 2 13 3 11 4 12 5 10 7 9 8 7 9 6 10 8 12 5 13 1 14
REMARK SMILES IDX 2 15 3 16 92 17 4 18 91 19 93 20 83 21 84 22 85 23 86 24
REMARK SMILES IDX 90 25 87 26 89 27 88 28 16 29 17 30 18 31 19 33 20 34 21 35
REMARK SMILES IDX 82 36 22 37 81 38 23 39 24 40 25 41 75 42 26 43 80 44 74 45
REMARK SMILES IDX 76 46 27 47 79 48 73 49 72 50 28 52 60 53 40 54 59 55 41 56
REMARK SMILES IDX 44 57 58 58 77 59 42 60 43 61 57 63 78 64 45 65 29 66 30 67
REMARK SMILES IDX 38 68 31 69 33 70 39 71 32 72 34 73 35 74 36 75 37 76 61 77
REMARK SMILES IDX 62 78 70 79 63 80 65 81 71 82 64 83 66 84 67 85 68 86 69 87
REMARK SMILES IDX 46 88 47 89 55 90 48 91 50 92 56 93 49 94 51 95 52 96 53 97
REMARK SMILES IDX 54 98
REMARK H PARENT 13 6 6 11 17 32 76 51 44 62
REMARK Flexibility Score: inf
ROOT
ATOM      1  C   UNL A   1      34.614  21.454  26.702  1.00  0.00     0.042 C 
ENDROOT
BRANCH   1   2
ATOM      2  C   UNL A   1      34.034  22.319  27.835  1.00  0.00     0.117 C 
BRANCH   2   3
ATOM      3  N   UNL A   1      32.589  22.453  27.791  1.00  0.00    -0.356 N 
ATOM      4  C   UNL A   1      31.713  23.107  26.989  1.00  0.00     0.224 C 
ATOM      5  O   UNL A   1      30.533  22.952  27.306  1.00  0.00    -0.275 OA
ATOM      6  H   UNL A   1      32.141  21.952  28.510  1.00  0.00     0.163 HD
BRANCH   4   7
ATOM      7  C   UNL A   1      32.140  23.960  25.791  1.00  0.00     0.095 C 
BRANCH   7   8
ATOM      8  C   UNL A   1      32.575  23.149  24.541  1.00  0.00     0.114 C 
BRANCH   8   9
ATOM      9  C   UNL A   1      31.736  23.074  23.290  1.00  0.00     0.225 C 
ATOM     10  N   UNL A   1      31.076  24.134  22.750  1.00  0.00    -0.326 N 
ATOM     11  H   UNL A   1      30.539  23.907  21.956  1.00  0.00     0.169 HD
ATOM     12  O   UNL A   1      31.658  21.988  22.706  1.00  0.00    -0.275 OA
BRANCH  10  13
ATOM     13  C   UNL A   1      31.013  25.488  23.111  1.00  0.00     0.042 A 
ATOM     14  C   UNL A   1      30.160  29.696  23.501  1.00  0.00     0.045 C 
ATOM     15  C   UNL A   1      30.523  28.238  23.477  1.00  0.00    -0.037 A 
ATOM     16  C   UNL A   1      29.555  27.287  23.826  1.00  0.00     0.007 A 
ATOM     17  C   UNL A   1      31.785  27.782  23.074  1.00  0.00     0.022 A 
ATOM     18  C   UNL A   1      29.813  25.923  23.679  1.00  0.00     0.026 A 
ATOM     19  C   UNL A   1      32.028  26.413  22.888  1.00  0.00     0.042 A 
ATOM     20  Br  UNL A   1      33.219  28.982  22.724  1.00  0.00    -0.050 Br
ENDBRANCH  10  13
ENDBRANCH   8   9
ENDBRANCH   7   8
BRANCH   7  21
ATOM     21  C   UNL A   1      33.317  24.979  26.111  1.00  0.00     0.029 C 
ATOM     22  C   UNL A   1      34.399  24.938  25.001  1.00  0.00     0.013 C 
BRANCH  21  23
ATOM     23  C   UNL A   1      32.971  26.435  26.434  1.00  0.00    -0.044 A 
ATOM     24  C   UNL A   1      31.702  26.853  26.860  1.00  0.00     0.004 A 
ATOM     25  C   UNL A   1      33.927  27.435  26.178  1.00  0.00     0.004 A 
ATOM     26  C   UNL A   1      31.404  28.215  27.004  1.00  0.00     0.000 A 
ATOM     27  C   UNL A   1      33.646  28.790  26.356  1.00  0.00     0.000 A 
ATOM     28  C   UNL A   1      32.377  29.182  26.759  1.00  0.00     0.000 A 
ENDBRANCH  21  23
ENDBRANCH   7  21
ENDBRANCH   4   7
ENDBRANCH   2   3
ENDBRANCH   1   2
BRANCH   1  29
ATOM     29  C   UNL A   1      35.873  21.963  25.998  1.00  0.00     0.118 C 
BRANCH  29  30
ATOM     30  N   UNL A   1      36.857  20.928  25.745  1.00  0.00    -0.352 N 
ATOM     31  C   UNL A   1      38.230  20.999  25.752  1.00  0.00     0.251 C 
ATOM     32  H   UNL A   1      36.485  20.040  25.536  1.00  0.00     0.163 HD
ATOM     33  O   UNL A   1      38.879  20.026  25.373  1.00  0.00    -0.269 OA
BRANCH  31  34
ATOM     34  C   UNL A   1      38.945  22.229  26.181  1.00  0.00     0.039 A 
ATOM     35  C   UNL A   1      38.453  23.464  25.748  1.00  0.00     0.014 A 
ATOM     36  C   UNL A   1      40.121  22.186  26.937  1.00  0.00     0.014 A 
ATOM     37  C   UNL A   1      39.108  24.649  26.103  1.00  0.00     0.010 A 
ATOM     38  C   UNL A   1      40.742  23.376  27.342  1.00  0.00     0.010 A 
ATOM     39  C   UNL A   1      40.250  24.622  26.921  1.00  0.00    -0.014 A 
BRANCH  39  40
ATOM     40  C   UNL A   1      40.920  25.890  27.328  1.00  0.00     0.031 A 
ATOM     41  C   UNL A   1      42.349  26.173  26.938  1.00  0.00     0.074 A 
ATOM     42  C   UNL A   1      40.255  26.786  28.087  1.00  0.00     0.049 A 
ATOM     43  N   UNL A   1      43.078  27.232  27.187  1.00  0.00    -0.248 NA
ATOM     44  C   UNL A   1      43.059  25.125  26.188  1.00  0.00     0.031 C 
ATOM     45  C   UNL A   1      38.895  26.612  28.600  1.00  0.00     0.029 A 
ATOM     46  N   UNL A   1      40.639  28.011  28.576  1.00  0.00    -0.354 N 
ATOM     47  C   UNL A   1      44.335  26.969  26.655  1.00  0.00     0.074 A 
ATOM     48  C   UNL A   1      44.278  25.637  26.092  1.00  0.00     0.031 C 
ATOM     49  C   UNL A   1      38.557  27.691  29.324  1.00  0.00     0.029 A 
ATOM     50  C   UNL A   1      39.679  28.625  29.346  1.00  0.00     0.049 A 
ATOM     51  H   UNL A   1      41.519  28.413  28.392  1.00  0.00     0.167 HD
ATOM     52  C   UNL A   1      45.428  27.769  26.611  1.00  0.00     0.034 A 
ATOM     53  C   UNL A   1      39.695  29.806  29.998  1.00  0.00     0.034 A 
ATOM     54  C   UNL A   1      45.475  29.112  27.126  1.00  0.00     0.049 A 
ATOM     55  C   UNL A   1      40.904  30.695  29.894  1.00  0.00     0.074 A 
ATOM     56  C   UNL A   1      46.508  30.029  27.039  1.00  0.00     0.029 A 
ATOM     57  N   UNL A   1      44.455  29.728  27.832  1.00  0.00    -0.354 N 
ATOM     58  N   UNL A   1      42.020  30.496  29.236  1.00  0.00    -0.248 NA
ATOM     59  C   UNL A   1      40.842  31.991  30.588  1.00  0.00     0.031 C 
ATOM     60  C   UNL A   1      46.121  31.193  27.712  1.00  0.00     0.029 A 
ATOM     61  C   UNL A   1      44.837  31.008  28.197  1.00  0.00     0.049 A 
ATOM     62  H   UNL A   1      43.586  29.317  28.042  1.00  0.00     0.167 HD
ATOM     63  C   UNL A   1      42.778  31.650  29.409  1.00  0.00     0.074 A 
ATOM     64  C   UNL A   1      41.984  32.554  30.214  1.00  0.00     0.031 C 
ATOM     65  C   UNL A   1      44.024  31.927  28.953  1.00  0.00     0.034 A 
BRANCH  52  66
ATOM     66  C   UNL A   1      46.661  27.234  25.928  1.00  0.00     0.023 A 
ATOM     67  C   UNL A   1      46.797  27.376  24.532  1.00  0.00     0.012 A 
ATOM     68  C   UNL A   1      47.714  26.663  26.670  1.00  0.00     0.148 A 
ATOM     69  C   UNL A   1      47.947  26.928  23.880  1.00  0.00     0.002 A 
ATOM     70  C   UNL A   1      48.874  26.257  26.019  1.00  0.00     0.091 A 
ATOM     71  F   UNL A   1      47.560  26.521  27.994  1.00  0.00    -0.205 F 
ATOM     72  C   UNL A   1      48.987  26.379  24.624  1.00  0.00     0.022 A 
BRANCH  70  73
ATOM     73  S   UNL A   1      50.302  25.610  26.897  1.00  0.00     0.127 S 
ATOM     74  O   UNL A   1      51.221  25.325  25.794  1.00  0.00    -0.237 OA
ATOM     75  O   UNL A   1      50.690  26.744  27.735  1.00  0.00    -0.237 OA
ATOM     76  O   UNL A   1      49.827  24.446  27.631  1.00  0.00    -0.744 OA
ENDBRANCH  70  73
ENDBRANCH  52  66
BRANCH  53  77
ATOM     77  C   UNL A   1      38.489  30.248  30.759  1.00  0.00     0.023 A 
ATOM     78  C   UNL A   1      38.358  29.892  32.115  1.00  0.00     0.012 A 
ATOM     79  C   UNL A   1      37.494  31.040  30.156  1.00  0.00     0.148 A 
ATOM     80  C   UNL A   1      37.242  30.293  32.850  1.00  0.00     0.002 A 
ATOM     81  C   UNL A   1      36.413  31.483  30.909  1.00  0.00     0.091 A 
ATOM     82  F   UNL A   1      37.631  31.354  28.860  1.00  0.00    -0.205 F 
ATOM     83  C   UNL A   1      36.276  31.099  32.251  1.00  0.00     0.022 A 
BRANCH  81  84
ATOM     84  S   UNL A   1      35.193  32.629  30.255  1.00  0.00     0.127 S 
ATOM     85  O   UNL A   1      34.319  32.825  31.411  1.00  0.00    -0.237 OA
ATOM     86  O   UNL A   1      36.022  33.785  29.909  1.00  0.00    -0.237 OA
ATOM     87  O   UNL A   1      34.595  31.956  29.115  1.00  0.00    -0.744 OA
ENDBRANCH  81  84
ENDBRANCH  53  77
BRANCH  65  88
ATOM     88  C   UNL A   1      44.612  33.274  29.286  1.00  0.00     0.023 A 
ATOM     89  C   UNL A   1      45.350  33.441  30.475  1.00  0.00     0.012 A 
ATOM     90  C   UNL A   1      44.502  34.351  28.385  1.00  0.00     0.148 A 
ATOM     91  C   UNL A   1      45.941  34.667  30.776  1.00  0.00     0.002 A 
ATOM     92  C   UNL A   1      45.134  35.556  28.669  1.00  0.00     0.091 A 
ATOM     93  F   UNL A   1      43.781  34.180  27.267  1.00  0.00    -0.205 F 
ATOM     94  C   UNL A   1      45.845  35.720  29.869  1.00  0.00     0.022 A 
BRANCH  92  95
ATOM     95  S   UNL A   1      45.142  36.935  27.517  1.00  0.00     0.127 S 
ATOM     96  O   UNL A   1      45.698  38.008  28.338  1.00  0.00    -0.237 OA
ATOM     97  O   UNL A   1      46.032  36.453  26.459  1.00  0.00    -0.237 OA
ATOM     98  O   UNL A   1      43.757  37.117  27.101  1.00  0.00    -0.744 OA
ENDBRANCH  92  95
ENDBRANCH  65  88
ENDBRANCH  39  40
ENDBRANCH  31  34
ENDBRANCH  29  30
ENDBRANCH   1  29
TORSDOF 18
ENDMDL
MODEL 2
REMARK VINA RESULT:     -12.0      1.695      2.521
REMARK SMILES Cc1ccc(NC(=O)C[C@@H](C(=O)NCCCNC(=O)c2ccc(-c3c4nc(c(-c5cccc(S(=O)(=O)[O-])c5F)c5ccc([nH]5)c(-c5cccc(S(=O)(=O)[O-])c5F)c5nc(c(-c6cccc(S(=O)(=O)[O-])c6F)c6ccc3[nH]6)C=C5)C=C4)cc2)[C@@H](C)c2ccccc2)cc1Br
REMARK SMILES IDX 15 1 14 2 13 3 11 4 12 5 10 7 9 8 7 9 6 10 8 12 5 13 1 14
REMARK SMILES IDX 2 15 3 16 92 17 4 18 91 19 93 20 83 21 84 22 85 23 86 24
REMARK SMILES IDX 90 25 87 26 89 27 88 28 16 29 17 30 18 31 19 33 20 34 21 35
REMARK SMILES IDX 82 36 22 37 81 38 23 39 24 40 25 41 75 42 26 43 80 44 74 45
REMARK SMILES IDX 76 46 27 47 79 48 73 49 72 50 28 52 60 53 40 54 59 55 41 56
REMARK SMILES IDX 44 57 58 58 77 59 42 60 43 61 57 63 78 64 45 65 29 66 30 67
REMARK SMILES IDX 38 68 31 69 33 70 39 71 32 72 34 73 35 74 36 75 37 76 61 77
REMARK SMILES IDX 62 78 70 79 63 80 65 81 71 82 64 83 66 84 67 85 68 86 69 87
REMARK SMILES IDX 46 88 47 89 55 90 48 91 50 92 56 93 49 94 51 95 52 96 53 97
REMARK SMILES IDX 54 98
REMARK H PARENT 13 6 6 11 17 32 76 51 44 62
REMARK Flexibility Score: inf
ROOT
ATOM      1  C   UNL A   1      35.805  21.682  25.837  1.00  0.00     0.042 C 
ENDROOT
BRANCH   1   2
ATOM      2  C   UNL A   1      35.368  20.464  25.004  1.00  0.00     0.117 C 
BRANCH   2   3
ATOM      3  N   UNL A   1      33.966  20.119  25.160  1.00  0.00    -0.356 N 
ATOM      4  C   UNL A   1      32.801  20.811  25.133  1.00  0.00     0.224 C 
ATOM      5  O   UNL A   1      31.801  20.115  25.313  1.00  0.00    -0.275 OA
ATOM      6  H   UNL A   1      33.830  19.157  25.323  1.00  0.00     0.163 HD
BRANCH   4   7
ATOM      7  C   UNL A   1      32.723  22.323  24.894  1.00  0.00     0.095 C 
BRANCH   7   8
ATOM      8  C   UNL A   1      31.344  22.958  25.216  1.00  0.00     0.114 C 
BRANCH   8   9
ATOM      9  C   UNL A   1      31.010  23.533  26.570  1.00  0.00     0.225 C 
ATOM     10  N   UNL A   1      30.672  24.834  26.783  1.00  0.00    -0.326 N 
ATOM     11  H   UNL A   1      30.525  25.057  27.731  1.00  0.00     0.169 HD
ATOM     12  O   UNL A   1      31.025  22.774  27.545  1.00  0.00    -0.275 OA
BRANCH  10  13
ATOM     13  C   UNL A   1      30.494  25.916  25.909  1.00  0.00     0.042 A 
ATOM     14  C   UNL A   1      30.389  28.653  22.580  1.00  0.00     0.045 C 
ATOM     15  C   UNL A   1      30.346  27.781  23.802  1.00  0.00    -0.037 A 
ATOM     16  C   UNL A   1      29.560  26.621  23.785  1.00  0.00     0.007 A 
ATOM     17  C   UNL A   1      31.097  28.056  24.953  1.00  0.00     0.022 A 
ATOM     18  C   UNL A   1      29.607  25.715  24.847  1.00  0.00     0.026 A 
ATOM     19  C   UNL A   1      31.173  27.126  25.999  1.00  0.00     0.042 A 
ATOM     20  Br  UNL A   1      32.076  29.675  25.146  1.00  0.00    -0.050 Br
ENDBRANCH  10  13
ENDBRANCH   8   9
ENDBRANCH   7   8
BRANCH   7  21
ATOM     21  C   UNL A   1      33.098  22.762  23.414  1.00  0.00     0.029 C 
ATOM     22  C   UNL A   1      32.205  22.032  22.378  1.00  0.00     0.013 C 
BRANCH  21  23
ATOM     23  C   UNL A   1      33.157  24.255  23.076  1.00  0.00    -0.044 A 
ATOM     24  C   UNL A   1      32.715  24.791  21.858  1.00  0.00     0.004 A 
ATOM     25  C   UNL A   1      33.799  25.131  23.971  1.00  0.00     0.004 A 
ATOM     26  C   UNL A   1      32.925  26.141  21.549  1.00  0.00     0.000 A 
ATOM     27  C   UNL A   1      33.976  26.484  23.682  1.00  0.00     0.000 A 
ATOM     28  C   UNL A   1      33.548  26.989  22.462  1.00  0.00     0.000 A 
ENDBRANCH  21  23
ENDBRANCH   7  21
ENDBRANCH   4   7
ENDBRANCH   2   3
ENDBRANCH   1   2
BRANCH   1  29
ATOM     29  C   UNL A   1      37.230  22.201  25.636  1.00  0.00     0.118 C 
BRANCH  29  30
ATOM     30  N   UNL A   1      38.255  21.235  25.980  1.00  0.00    -0.352 N 
ATOM     31  C   UNL A   1      39.535  21.436  26.440  1.00  0.00     0.251 C 
ATOM     32  H   UNL A   1      37.995  20.291  25.867  1.00  0.00     0.163 HD
ATOM     33  O   UNL A   1      40.291  20.472  26.541  1.00  0.00    -0.269 OA
BRANCH  31  34
ATOM     34  C   UNL A   1      40.033  22.792  26.792  1.00  0.00     0.039 A 
ATOM     35  C   UNL A   1      40.924  22.910  27.863  1.00  0.00     0.014 A 
ATOM     36  C   UNL A   1      39.588  23.946  26.138  1.00  0.00     0.014 A 
ATOM     37  C   UNL A   1      41.399  24.169  28.249  1.00  0.00     0.010 A 
ATOM     38  C   UNL A   1      40.110  25.198  26.488  1.00  0.00     0.010 A 
ATOM     39  C   UNL A   1      41.013  25.327  27.555  1.00  0.00    -0.014 A 
BRANCH  39  40
ATOM     40  C   UNL A   1      41.554  26.661  27.948  1.00  0.00     0.031 A 
ATOM     41  C   UNL A   1      42.982  27.039  27.646  1.00  0.00     0.074 A 
ATOM     42  C   UNL A   1      40.769  27.532  28.615  1.00  0.00     0.049 A 
ATOM     43  N   UNL A   1      43.608  28.162  27.895  1.00  0.00    -0.248 NA
ATOM     44  C   UNL A   1      43.822  26.020  26.998  1.00  0.00     0.031 C 
ATOM     45  C   UNL A   1      39.392  27.273  29.038  1.00  0.00     0.029 A 
ATOM     46  N   UNL A   1      41.021  28.804  29.070  1.00  0.00    -0.354 N 
ATOM     47  C   UNL A   1      44.917  27.977  27.465  1.00  0.00     0.074 A 
ATOM     48  C   UNL A   1      45.003  26.622  26.964  1.00  0.00     0.031 C 
ATOM     49  C   UNL A   1      38.920  28.352  29.684  1.00  0.00     0.029 A 
ATOM     50  C   UNL A   1      39.964  29.372  29.741  1.00  0.00     0.049 A 
ATOM     51  H   UNL A   1      41.880  29.266  28.929  1.00  0.00     0.167 HD
ATOM     52  C   UNL A   1      45.946  28.859  27.459  1.00  0.00     0.034 A 
ATOM     53  C   UNL A   1      39.841  30.577  30.335  1.00  0.00     0.034 A 
ATOM     54  C   UNL A   1      45.854  30.222  27.912  1.00  0.00     0.049 A 
ATOM     55  C   UNL A   1      40.984  31.554  30.273  1.00  0.00     0.074 A 
ATOM     56  C   UNL A   1      46.818  31.213  27.854  1.00  0.00     0.029 A 
ATOM     57  N   UNL A   1      44.740  30.784  28.515  1.00  0.00    -0.354 N 
ATOM     58  N   UNL A   1      42.157  31.416  29.706  1.00  0.00    -0.248 NA
ATOM     59  C   UNL A   1      40.772  32.869  30.899  1.00  0.00     0.031 C 
ATOM     60  C   UNL A   1      46.295  32.370  28.442  1.00  0.00     0.029 A 
ATOM     61  C   UNL A   1      44.996  32.105  28.845  1.00  0.00     0.049 A 
ATOM     62  H   UNL A   1      43.892  30.315  28.683  1.00  0.00     0.167 HD
ATOM     63  C   UNL A   1      42.810  32.632  29.876  1.00  0.00     0.074 A 
ATOM     64  C   UNL A   1      41.893  33.503  30.580  1.00  0.00     0.031 C 
ATOM     65  C   UNL A   1      44.062  32.987  29.497  1.00  0.00     0.034 A 
BRANCH  52  66
ATOM     66  C   UNL A   1      47.264  28.395  26.891  1.00  0.00     0.023 A 
ATOM     67  C   UNL A   1      48.340  28.131  27.763  1.00  0.00     0.012 A 
ATOM     68  C   UNL A   1      47.416  28.149  25.513  1.00  0.00     0.148 A 
ATOM     69  C   UNL A   1      49.557  27.662  27.269  1.00  0.00     0.002 A 
ATOM     70  C   UNL A   1      48.618  27.641  25.032  1.00  0.00     0.091 A 
ATOM     71  F   UNL A   1      46.388  28.422  24.697  1.00  0.00    -0.205 F 
ATOM     72  C   UNL A   1      49.692  27.407  25.907  1.00  0.00     0.022 A 
BRANCH  70  73
ATOM     73  S   UNL A   1      48.866  27.206  23.306  1.00  0.00     0.127 S 
ATOM     74  O   UNL A   1      48.214  28.325  22.625  1.00  0.00    -0.237 OA
ATOM     75  O   UNL A   1      50.325  27.193  23.197  1.00  0.00    -0.237 OA
ATOM     76  O   UNL A   1      48.232  25.908  23.126  1.00  0.00    -0.744 OA
ENDBRANCH  70  73
ENDBRANCH  52  66
BRANCH  53  77
ATOM     77  C   UNL A   1      38.553  30.953  30.987  1.00  0.00     0.023 A 
ATOM     78  C   UNL A   1      38.375  30.706  32.362  1.00  0.00     0.012 A 
ATOM     79  C   UNL A   1      37.522  31.579  30.262  1.00  0.00     0.148 A 
ATOM     80  C   UNL A   1      37.181  31.050  32.998  1.00  0.00     0.002 A 
ATOM     81  C   UNL A   1      36.357  31.970  30.913  1.00  0.00     0.091 A 
ATOM     82  F   UNL A   1      37.706  31.791  28.951  1.00  0.00    -0.205 F 
ATOM     83  C   UNL A   1      36.178  31.693  32.277  1.00  0.00     0.022 A 
BRANCH  81  84
ATOM     84  S   UNL A   1      35.071  32.918  30.092  1.00  0.00     0.127 S 
ATOM     85  O   UNL A   1      35.829  34.046  29.553  1.00  0.00    -0.237 OA
ATOM     86  O   UNL A   1      34.591  31.966  29.088  1.00  0.00    -0.237 OA
ATOM     87  O   UNL A   1      34.101  33.241  31.124  1.00  0.00    -0.744 OA
ENDBRANCH  81  84
ENDBRANCH  53  77
BRANCH  65  88
ATOM     88  C   UNL A   1      44.521  34.390  29.806  1.00  0.00     0.023 A 
ATOM     89  C   UNL A   1      45.183  34.658  31.020  1.00  0.00     0.012 A 
ATOM     90  C   UNL A   1      44.366  35.423  28.860  1.00  0.00     0.148 A 
ATOM     91  C   UNL A   1      45.656  35.939  31.301  1.00  0.00     0.002 A 
ATOM     92  C   UNL A   1      44.882  36.686  29.128  1.00  0.00     0.091 A 
ATOM     93  F   UNL A   1      43.716  35.154  27.718  1.00  0.00    -0.205 F 
ATOM     94  C   UNL A   1      45.517  36.949  30.352  1.00  0.00     0.022 A 
BRANCH  92  95
ATOM     95  S   UNL A   1      44.832  38.021  27.926  1.00  0.00     0.127 S 
ATOM     96  O   UNL A   1      43.393  38.196  27.734  1.00  0.00    -0.237 OA
ATOM     97  O   UNL A   1      45.488  39.113  28.646  1.00  0.00    -0.237 OA
ATOM     98  O   UNL A   1      45.565  37.540  26.763  1.00  0.00    -0.744 OA
ENDBRANCH  92  95
ENDBRANCH  65  88
ENDBRANCH  39  40
ENDBRANCH  31  34
ENDBRANCH  29  30
ENDBRANCH   1  29
TORSDOF 18
ENDMDL
MODEL 3
REMARK VINA RESULT:     -11.8      2.116      3.086
REMARK SMILES Cc1ccc(NC(=O)C[C@@H](C(=O)NCCCNC(=O)c2ccc(-c3c4nc(c(-c5cccc(S(=O)(=O)[O-])c5F)c5ccc([nH]5)c(-c5cccc(S(=O)(=O)[O-])c5F)c5nc(c(-c6cccc(S(=O)(=O)[O-])c6F)c6ccc3[nH]6)C=C5)C=C4)cc2)[C@@H](C)c2ccccc2)cc1Br
REMARK SMILES IDX 15 1 14 2 13 3 11 4 12 5 10 7 9 8 7 9 6 10 8 12 5 13 1 14
REMARK SMILES IDX 2 15 3 16 92 17 4 18 91 19 93 20 83 21 84 22 85 23 86 24
REMARK SMILES IDX 90 25 87 26 89 27 88 28 16 29 17 30 18 31 19 33 20 34 21 35
REMARK SMILES IDX 82 36 22 37 81 38 23 39 24 40 25 41 75 42 26 43 80 44 74 45
REMARK SMILES IDX 76 46 27 47 79 48 73 49 72 50 28 52 60 53 40 54 59 55 41 56
REMARK SMILES IDX 44 57 58 58 77 59 42 60 43 61 57 63 78 64 45 65 29 66 30 67
REMARK SMILES IDX 38 68 31 69 33 70 39 71 32 72 34 73 35 74 36 75 37 76 61 77
REMARK SMILES IDX 62 78 70 79 63 80 65 81 71 82 64 83 66 84 67 85 68 86 69 87
REMARK SMILES IDX 46 88 47 89 55 90 48 91 50 92 56 93 49 94 51 95 52 96 53 97
REMARK SMILES IDX 54 98
REMARK H PARENT 13 6 6 11 17 32 76 51 44 62
REMARK Flexibility Score: inf
ROOT
ATOM      1  C   UNL A   1      35.624  22.321  26.138  1.00  0.00     0.042 C 
ENDROOT
BRANCH   1   2
ATOM      2  C   UNL A   1      35.445  21.006  25.360  1.00  0.00     0.117 C 
BRANCH   2   3
ATOM      3  N   UNL A   1      34.092  20.481  25.397  1.00  0.00    -0.356 N 
ATOM      4  C   UNL A   1      32.856  21.006  25.213  1.00  0.00     0.224 C 
ATOM      5  O   UNL A   1      31.942  20.189  25.336  1.00  0.00    -0.275 OA
ATOM      6  H   UNL A   1      34.066  19.518  25.605  1.00  0.00     0.163 HD
BRANCH   4   7
ATOM      7  C   UNL A   1      32.607  22.479  24.876  1.00  0.00     0.095 C 
BRANCH   7   8
ATOM      8  C   UNL A   1      31.115  22.907  24.907  1.00  0.00     0.114 C 
BRANCH   8   9
ATOM      9  C   UNL A   1      30.419  23.335  26.174  1.00  0.00     0.225 C 
ATOM     10  N   UNL A   1      30.315  24.627  26.587  1.00  0.00    -0.326 N 
ATOM     11  H   UNL A   1      29.866  24.733  27.458  1.00  0.00     0.169 HD
ATOM     12  O   UNL A   1      29.893  22.462  26.873  1.00  0.00    -0.275 OA
BRANCH  10  13
ATOM     13  C   UNL A   1      30.725  25.837  26.009  1.00  0.00     0.042 A 
ATOM     14  C   UNL A   1      31.510  29.951  24.988  1.00  0.00     0.045 C 
ATOM     15  C   UNL A   1      31.323  28.485  25.253  1.00  0.00    -0.037 A 
ATOM     16  C   UNL A   1      31.918  27.914  26.386  1.00  0.00     0.007 A 
ATOM     17  C   UNL A   1      30.537  27.664  24.433  1.00  0.00     0.022 A 
ATOM     18  C   UNL A   1      31.649  26.591  26.739  1.00  0.00     0.026 A 
ATOM     19  C   UNL A   1      30.236  26.348  24.812  1.00  0.00     0.042 A 
ATOM     20  Br  UNL A   1      29.808  28.292  22.792  1.00  0.00    -0.050 Br
ENDBRANCH  10  13
ENDBRANCH   8   9
ENDBRANCH   7   8
BRANCH   7  21
ATOM     21  C   UNL A   1      33.184  22.925  23.464  1.00  0.00     0.029 C 
ATOM     22  C   UNL A   1      32.516  22.123  22.317  1.00  0.00     0.013 C 
BRANCH  21  23
ATOM     23  C   UNL A   1      33.201  24.413  23.105  1.00  0.00    -0.044 A 
ATOM     24  C   UNL A   1      32.705  24.924  21.897  1.00  0.00     0.004 A 
ATOM     25  C   UNL A   1      33.855  25.314  23.966  1.00  0.00     0.004 A 
ATOM     26  C   UNL A   1      32.876  26.274  21.564  1.00  0.00     0.000 A 
ATOM     27  C   UNL A   1      33.994  26.666  23.654  1.00  0.00     0.000 A 
ATOM     28  C   UNL A   1      33.514  27.146  22.444  1.00  0.00     0.000 A 
ENDBRANCH  21  23
ENDBRANCH   7  21
ENDBRANCH   4   7
ENDBRANCH   2   3
ENDBRANCH   1   2
BRANCH   1  29
ATOM     29  C   UNL A   1      36.959  23.053  25.990  1.00  0.00     0.118 C 
BRANCH  29  30
ATOM     30  N   UNL A   1      38.114  22.181  26.080  1.00  0.00    -0.352 N 
ATOM     31  C   UNL A   1      39.422  22.481  26.381  1.00  0.00     0.251 C 
ATOM     32  H   UNL A   1      37.935  21.230  25.898  1.00  0.00     0.163 HD
ATOM     33  O   UNL A   1      40.276  21.603  26.268  1.00  0.00    -0.269 OA
BRANCH  31  34
ATOM     34  C   UNL A   1      39.830  23.843  26.813  1.00  0.00     0.039 A 
ATOM     35  C   UNL A   1      39.950  24.093  28.184  1.00  0.00     0.014 A 
ATOM     36  C   UNL A   1      40.027  24.889  25.905  1.00  0.00     0.014 A 
ATOM     37  C   UNL A   1      40.305  25.367  28.641  1.00  0.00     0.010 A 
ATOM     38  C   UNL A   1      40.440  26.148  26.361  1.00  0.00     0.010 A 
ATOM     39  C   UNL A   1      40.573  26.406  27.735  1.00  0.00    -0.014 A 
BRANCH  39  40
ATOM     40  C   UNL A   1      40.989  27.751  28.227  1.00  0.00     0.031 A 
ATOM     41  C   UNL A   1      42.442  28.156  28.246  1.00  0.00     0.074 A 
ATOM     42  C   UNL A   1      40.060  28.610  28.697  1.00  0.00     0.049 A 
ATOM     43  N   UNL A   1      42.976  29.292  28.618  1.00  0.00    -0.248 NA
ATOM     44  C   UNL A   1      43.422  27.152  27.807  1.00  0.00     0.031 C 
ATOM     45  C   UNL A   1      38.629  28.326  28.808  1.00  0.00     0.029 A 
ATOM     46  N   UNL A   1      40.183  29.888  29.187  1.00  0.00    -0.354 N 
ATOM     47  C   UNL A   1      44.351  29.131  28.490  1.00  0.00     0.074 A 
ATOM     48  C   UNL A   1      44.571  27.776  28.031  1.00  0.00     0.031 C 
ATOM     49  C   UNL A   1      38.006  29.397  29.325  1.00  0.00     0.029 A 
ATOM     50  C   UNL A   1      38.993  30.438  29.603  1.00  0.00     0.049 A 
ATOM     51  H   UNL A   1      41.043  30.366  29.236  1.00  0.00     0.167 HD
ATOM     52  C   UNL A   1      45.340  30.032  28.705  1.00  0.00     0.034 A 
ATOM     53  C   UNL A   1      38.720  31.642  30.147  1.00  0.00     0.034 A 
ATOM     54  C   UNL A   1      45.125  31.395  29.116  1.00  0.00     0.049 A 
ATOM     55  C   UNL A   1      39.831  32.640  30.332  1.00  0.00     0.074 A 
ATOM     56  C   UNL A   1      46.060  32.405  29.265  1.00  0.00     0.029 A 
ATOM     57  N   UNL A   1      43.896  31.938  29.453  1.00  0.00    -0.354 N 
ATOM     58  N   UNL A   1      41.103  32.523  30.039  1.00  0.00    -0.248 NA
ATOM     59  C   UNL A   1      39.462  33.953  30.885  1.00  0.00     0.031 C 
ATOM     60  C   UNL A   1      45.399  33.553  29.714  1.00  0.00     0.029 A 
ATOM     61  C   UNL A   1      44.049  33.264  29.821  1.00  0.00     0.049 A 
ATOM     62  H   UNL A   1      43.040  31.452  29.433  1.00  0.00     0.167 HD
ATOM     63  C   UNL A   1      41.680  33.752  30.340  1.00  0.00     0.074 A 
ATOM     64  C   UNL A   1      40.614  34.608  30.817  1.00  0.00     0.031 C 
ATOM     65  C   UNL A   1      42.978  34.131  30.244  1.00  0.00     0.034 A 
BRANCH  52  66
ATOM     66  C   UNL A   1      46.759  29.592  28.446  1.00  0.00     0.023 A 
ATOM     67  C   UNL A   1      47.350  29.861  27.194  1.00  0.00     0.012 A 
ATOM     68  C   UNL A   1      47.529  28.985  29.457  1.00  0.00     0.148 A 
ATOM     69  C   UNL A   1      48.675  29.502  26.942  1.00  0.00     0.002 A 
ATOM     70  C   UNL A   1      48.861  28.668  29.212  1.00  0.00     0.091 A 
ATOM     71  F   UNL A   1      46.945  28.721  30.635  1.00  0.00    -0.205 F 
ATOM     72  C   UNL A   1      49.431  28.916  27.953  1.00  0.00     0.022 A 
BRANCH  70  73
ATOM     73  S   UNL A   1      49.942  27.982  30.473  1.00  0.00     0.127 S 
ATOM     74  O   UNL A   1      49.805  26.546  30.228  1.00  0.00    -0.237 OA
ATOM     75  O   UNL A   1      51.242  28.542  30.104  1.00  0.00    -0.237 OA
ATOM     76  O   UNL A   1      49.418  28.452  31.748  1.00  0.00    -0.744 OA
ENDBRANCH  70  73
ENDBRANCH  52  66
BRANCH  53  77
ATOM     77  C   UNL A   1      37.313  31.995  30.495  1.00  0.00     0.023 A 
ATOM     78  C   UNL A   1      36.826  31.707  31.785  1.00  0.00     0.012 A 
ATOM     79  C   UNL A   1      36.471  32.640  29.570  1.00  0.00     0.148 A 
ATOM     80  C   UNL A   1      35.515  32.029  32.138  1.00  0.00     0.002 A 
ATOM     81  C   UNL A   1      35.184  33.008  29.946  1.00  0.00     0.091 A 
ATOM     82  F   UNL A   1      36.950  32.891  28.344  1.00  0.00    -0.205 F 
ATOM     83  C   UNL A   1      34.698  32.690  31.223  1.00  0.00     0.022 A 
BRANCH  81  84
ATOM     84  S   UNL A   1      34.112  33.977  28.878  1.00  0.00     0.127 S 
ATOM     85  O   UNL A   1      33.644  32.966  27.931  1.00  0.00    -0.237 OA
ATOM     86  O   UNL A   1      33.097  34.450  29.821  1.00  0.00    -0.237 OA
ATOM     87  O   UNL A   1      34.952  35.024  28.324  1.00  0.00    -0.744 OA
ENDBRANCH  81  84
ENDBRANCH  53  77
BRANCH  65  88
ATOM     88  C   UNL A   1      43.331  35.542  30.636  1.00  0.00     0.023 A 
ATOM     89  C   UNL A   1      43.759  35.818  31.949  1.00  0.00     0.012 A 
ATOM     90  C   UNL A   1      43.314  36.580  29.683  1.00  0.00     0.148 A 
ATOM     91  C   UNL A   1      44.135  37.110  32.316  1.00  0.00     0.002 A 
ATOM     92  C   UNL A   1      43.736  37.855  30.044  1.00  0.00     0.091 A 
ATOM     93  F   UNL A   1      42.886  36.304  28.442  1.00  0.00    -0.205 F 
ATOM     94  C   UNL A   1      44.136  38.125  31.363  1.00  0.00     0.022 A 
BRANCH  92  95
ATOM     95  S   UNL A   1      43.858  39.200  28.859  1.00  0.00     0.127 S 
ATOM     96  O   UNL A   1      44.390  40.281  29.687  1.00  0.00    -0.237 OA
ATOM     97  O   UNL A   1      44.802  38.665  27.876  1.00  0.00    -0.237 OA
ATOM     98  O   UNL A   1      42.510  39.408  28.348  1.00  0.00    -0.744 OA
ENDBRANCH  92  95
ENDBRANCH  65  88
ENDBRANCH  39  40
ENDBRANCH  31  34
ENDBRANCH  29  30
ENDBRANCH   1  29
TORSDOF 18
ENDMDL
