MODEL 1
REMARK VINA RESULT:     -11.0      0.000      0.000
REMARK SMILES CC(C)(C)N(CC(=O)NCCCNC(=O)c1ccc(-c2c3nc(c(-c4cccc(S(=O)(=O)[O-])c4F)c4ccc([nH]4)c(-c4cccc(S(=O)(=O)[O-])c4F)c4nc(c(-c5cccc(S(=O)(=O)[O-])c5F)c5ccc2[nH]5)C=C4)C=C3)cc1)C(=O)c1ccc(N)cc1
REMARK SMILES IDX 10 1 9 2 7 3 8 4 6 6 5 7 2 8 1 9 3 10 4 11 79 12 80 13 81 14
REMARK SMILES IDX 82 15 87 16 83 17 86 18 84 19 85 20 11 23 12 24 13 25 14 26
REMARK SMILES IDX 15 28 16 29 17 30 78 31 18 32 77 33 19 34 20 35 21 36 71 37
REMARK SMILES IDX 22 38 76 39 70 40 72 41 23 42 75 43 69 44 68 45 24 47 56 48
REMARK SMILES IDX 36 49 55 50 37 51 40 52 54 53 73 54 38 55 39 56 53 58 74 59
REMARK SMILES IDX 41 60 25 61 26 62 34 63 27 64 29 65 35 66 28 67 30 68 31 69
REMARK SMILES IDX 32 70 33 71 57 72 58 73 66 74 59 75 61 76 67 77 60 78 62 79
REMARK SMILES IDX 63 80 64 81 65 82 42 83 43 84 51 85 44 86 46 87 52 88 45 89
REMARK SMILES IDX 47 90 48 91 49 92 50 93
REMARK H PARENT 9 5 85 21 85 22 13 27 72 46 40 57
REMARK Flexibility Score: inf
ROOT
ATOM      1  C   UNL A   1      32.223  27.271  26.504  1.00  0.00     0.117 C 
ENDROOT
BRANCH   1   2
ATOM      2  N   UNL A   1      31.211  26.263  26.729  1.00  0.00    -0.354 N 
ATOM      3  C   UNL A   1      31.261  24.913  26.556  1.00  0.00     0.239 C 
ATOM      4  O   UNL A   1      30.382  24.256  27.127  1.00  0.00    -0.273 OA
ATOM      5  H   UNL A   1      30.349  26.608  27.062  1.00  0.00     0.163 HD
BRANCH   3   6
ATOM      6  C   UNL A   1      32.418  24.186  25.836  1.00  0.00     0.220 C 
BRANCH   6   7
ATOM      7  N   UNL A   1      32.465  24.104  24.361  1.00  0.00    -0.325 N 
BRANCH   7   8
ATOM      8  C   UNL A   1      33.489  23.210  23.674  1.00  0.00     0.035 C 
ATOM      9  C   UNL A   1      33.392  23.176  22.123  1.00  0.00     0.034 C 
ATOM     10  C   UNL A   1      33.371  21.739  24.142  1.00  0.00     0.034 C 
ATOM     11  C   UNL A   1      34.923  23.718  23.969  1.00  0.00     0.034 C 
ENDBRANCH   7   8
BRANCH   7  12
ATOM     12  C   UNL A   1      31.339  24.511  23.593  1.00  0.00     0.254 C 
ATOM     13  O   UNL A   1      30.401  23.767  23.313  1.00  0.00    -0.269 OA
BRANCH  12  14
ATOM     14  C   UNL A   1      31.159  25.916  23.146  1.00  0.00     0.040 A 
ATOM     15  C   UNL A   1      32.264  26.574  22.591  1.00  0.00     0.016 A 
ATOM     16  C   UNL A   1      29.996  26.641  23.396  1.00  0.00     0.016 A 
ATOM     17  C   UNL A   1      32.176  27.923  22.228  1.00  0.00     0.026 A 
ATOM     18  C   UNL A   1      29.902  27.979  22.997  1.00  0.00     0.026 A 
ATOM     19  C   UNL A   1      30.985  28.629  22.400  1.00  0.00     0.031 A 
BRANCH  19  20
ATOM     20  N   UNL A   1      30.901  29.965  22.056  1.00  0.00    -0.399 N 
ATOM     21  H   UNL A   1      30.097  30.307  21.601  1.00  0.00     0.156 HD
ATOM     22  H   UNL A   1      31.645  30.575  22.264  1.00  0.00     0.156 HD
ENDBRANCH  19  20
ENDBRANCH  12  14
ENDBRANCH   7  12
ENDBRANCH   6   7
ENDBRANCH   3   6
ENDBRANCH   1   2
BRANCH   1  23
ATOM     23  C   UNL A   1      31.677  28.623  26.069  1.00  0.00     0.042 C 
BRANCH  23  24
ATOM     24  C   UNL A   1      32.732  29.612  25.592  1.00  0.00     0.118 C 
BRANCH  24  25
ATOM     25  N   UNL A   1      32.477  30.968  26.059  1.00  0.00    -0.352 N 
ATOM     26  C   UNL A   1      33.059  31.721  27.049  1.00  0.00     0.251 C 
ATOM     27  H   UNL A   1      31.756  31.430  25.574  1.00  0.00     0.163 HD
ATOM     28  O   UNL A   1      32.497  32.762  27.391  1.00  0.00    -0.269 OA
BRANCH  26  29
ATOM     29  C   UNL A   1      34.329  31.324  27.705  1.00  0.00     0.039 A 
ATOM     30  C   UNL A   1      34.449  30.016  28.191  1.00  0.00     0.014 A 
ATOM     31  C   UNL A   1      35.363  32.232  27.933  1.00  0.00     0.014 A 
ATOM     32  C   UNL A   1      35.610  29.618  28.865  1.00  0.00     0.010 A 
ATOM     33  C   UNL A   1      36.558  31.809  28.513  1.00  0.00     0.010 A 
ATOM     34  C   UNL A   1      36.685  30.506  29.014  1.00  0.00    -0.014 A 
BRANCH  34  35
ATOM     35  C   UNL A   1      37.934  30.106  29.718  1.00  0.00     0.031 A 
ATOM     36  C   UNL A   1      38.234  30.636  31.097  1.00  0.00     0.074 A 
ATOM     37  C   UNL A   1      38.835  29.324  29.090  1.00  0.00     0.049 A 
ATOM     38  N   UNL A   1      39.289  30.441  31.847  1.00  0.00    -0.248 NA
ATOM     39  C   UNL A   1      37.232  31.530  31.703  1.00  0.00     0.031 C 
ATOM     40  C   UNL A   1      38.704  28.811  27.724  1.00  0.00     0.029 A 
ATOM     41  N   UNL A   1      40.051  28.843  29.508  1.00  0.00    -0.354 N 
ATOM     42  C   UNL A   1      39.098  31.217  32.985  1.00  0.00     0.074 A 
ATOM     43  C   UNL A   1      37.845  31.918  32.812  1.00  0.00     0.031 C 
ATOM     44  C   UNL A   1      39.787  28.077  27.424  1.00  0.00     0.029 A 
ATOM     45  C   UNL A   1      40.702  28.088  28.561  1.00  0.00     0.049 A 
ATOM     46  H   UNL A   1      40.421  29.022  30.403  1.00  0.00     0.167 HD
ATOM     47  C   UNL A   1      39.874  31.313  34.092  1.00  0.00     0.034 A 
ATOM     48  C   UNL A   1      41.900  27.473  28.603  1.00  0.00     0.034 A 
ATOM     49  C   UNL A   1      41.088  30.569  34.287  1.00  0.00     0.049 A 
ATOM     50  C   UNL A   1      42.714  27.542  29.868  1.00  0.00     0.074 A 
ATOM     51  C   UNL A   1      41.900  30.523  35.406  1.00  0.00     0.029 A 
ATOM     52  N   UNL A   1      41.665  29.734  33.342  1.00  0.00    -0.354 N 
ATOM     53  N   UNL A   1      42.439  28.157  30.992  1.00  0.00    -0.248 NA
ATOM     54  C   UNL A   1      43.983  26.800  29.883  1.00  0.00     0.031 C 
ATOM     55  C   UNL A   1      42.976  29.671  35.133  1.00  0.00     0.029 A 
ATOM     56  C   UNL A   1      42.821  29.170  33.850  1.00  0.00     0.049 A 
ATOM     57  H   UNL A   1      41.305  29.569  32.441  1.00  0.00     0.167 HD
ATOM     58  C   UNL A   1      43.477  27.844  31.862  1.00  0.00     0.074 A 
ATOM     59  C   UNL A   1      44.378  26.969  31.138  1.00  0.00     0.031 C 
ATOM     60  C   UNL A   1      43.675  28.253  33.140  1.00  0.00     0.034 A 
BRANCH  47  61
ATOM     61  C   UNL A   1      39.397  32.209  35.208  1.00  0.00     0.023 A 
ATOM     62  C   UNL A   1      38.478  31.707  36.153  1.00  0.00     0.012 A 
ATOM     63  C   UNL A   1      39.889  33.520  35.354  1.00  0.00     0.148 A 
ATOM     64  C   UNL A   1      38.025  32.507  37.201  1.00  0.00     0.002 A 
ATOM     65  C   UNL A   1      39.468  34.297  36.429  1.00  0.00     0.091 A 
ATOM     66  F   UNL A   1      40.746  33.989  34.437  1.00  0.00    -0.205 F 
ATOM     67  C   UNL A   1      38.528  33.797  37.344  1.00  0.00     0.022 A 
BRANCH  65  68
ATOM     68  S   UNL A   1      40.117  35.942  36.747  1.00  0.00     0.127 S 
ATOM     69  O   UNL A   1      39.349  36.340  37.926  1.00  0.00    -0.237 OA
ATOM     70  O   UNL A   1      41.532  35.672  37.006  1.00  0.00    -0.237 OA
ATOM     71  O   UNL A   1      39.860  36.714  35.540  1.00  0.00    -0.744 OA
ENDBRANCH  65  68
ENDBRANCH  47  61
BRANCH  48  72
ATOM     72  C   UNL A   1      42.358  26.658  27.441  1.00  0.00     0.023 A 
ATOM     73  C   UNL A   1      43.148  27.266  26.446  1.00  0.00     0.012 A 
ATOM     74  C   UNL A   1      42.053  25.288  27.335  1.00  0.00     0.148 A 
ATOM     75  C   UNL A   1      43.600  26.532  25.349  1.00  0.00     0.002 A 
ATOM     76  C   UNL A   1      42.552  24.549  26.267  1.00  0.00     0.091 A 
ATOM     77  F   UNL A   1      41.291  24.730  28.287  1.00  0.00    -0.205 F 
ATOM     78  C   UNL A   1      43.312  25.172  25.266  1.00  0.00     0.022 A 
BRANCH  76  79
ATOM     79  S   UNL A   1      42.341  22.769  26.146  1.00  0.00     0.127 S 
ATOM     80  O   UNL A   1      42.977  22.481  24.861  1.00  0.00    -0.237 OA
ATOM     81  O   UNL A   1      43.082  22.297  27.317  1.00  0.00    -0.237 OA
ATOM     82  O   UNL A   1      40.908  22.538  26.210  1.00  0.00    -0.744 OA
ENDBRANCH  76  79
ENDBRANCH  48  72
BRANCH  60  83
ATOM     83  C   UNL A   1      44.888  27.730  33.862  1.00  0.00     0.023 A 
ATOM     84  C   UNL A   1      46.130  28.374  33.704  1.00  0.00     0.012 A 
ATOM     85  C   UNL A   1      44.777  26.650  34.761  1.00  0.00     0.148 A 
ATOM     86  C   UNL A   1      47.252  27.932  34.404  1.00  0.00     0.002 A 
ATOM     87  C   UNL A   1      45.888  26.245  35.491  1.00  0.00     0.091 A 
ATOM     88  F   UNL A   1      43.591  26.037  34.883  1.00  0.00    -0.205 F 
ATOM     89  C   UNL A   1      47.129  26.877  35.305  1.00  0.00     0.022 A 
BRANCH  87  90
ATOM     90  S   UNL A   1      45.797  24.960  36.744  1.00  0.00     0.127 S 
ATOM     91  O   UNL A   1      45.356  23.809  35.958  1.00  0.00    -0.237 OA
ATOM     92  O   UNL A   1      47.181  24.883  37.214  1.00  0.00    -0.237 OA
ATOM     93  O   UNL A   1      44.849  25.441  37.740  1.00  0.00    -0.744 OA
ENDBRANCH  87  90
ENDBRANCH  60  83
ENDBRANCH  34  35
ENDBRANCH  26  29
ENDBRANCH  24  25
ENDBRANCH  23  24
ENDBRANCH   1  23
TORSDOF 18
ENDMDL
MODEL 2
REMARK VINA RESULT:     -10.8      2.813      4.216
REMARK SMILES CC(C)(C)N(CC(=O)NCCCNC(=O)c1ccc(-c2c3nc(c(-c4cccc(S(=O)(=O)[O-])c4F)c4ccc([nH]4)c(-c4cccc(S(=O)(=O)[O-])c4F)c4nc(c(-c5cccc(S(=O)(=O)[O-])c5F)c5ccc2[nH]5)C=C4)C=C3)cc1)C(=O)c1ccc(N)cc1
REMARK SMILES IDX 10 1 9 2 7 3 8 4 6 6 5 7 2 8 1 9 3 10 4 11 79 12 80 13 81 14
REMARK SMILES IDX 82 15 87 16 83 17 86 18 84 19 85 20 11 23 12 24 13 25 14 26
REMARK SMILES IDX 15 28 16 29 17 30 78 31 18 32 77 33 19 34 20 35 21 36 71 37
REMARK SMILES IDX 22 38 76 39 70 40 72 41 23 42 75 43 69 44 68 45 24 47 56 48
REMARK SMILES IDX 36 49 55 50 37 51 40 52 54 53 73 54 38 55 39 56 53 58 74 59
REMARK SMILES IDX 41 60 25 61 26 62 34 63 27 64 29 65 35 66 28 67 30 68 31 69
REMARK SMILES IDX 32 70 33 71 57 72 58 73 66 74 59 75 61 76 67 77 60 78 62 79
REMARK SMILES IDX 63 80 64 81 65 82 42 83 43 84 51 85 44 86 46 87 52 88 45 89
REMARK SMILES IDX 47 90 48 91 49 92 50 93
REMARK H PARENT 9 5 85 21 85 22 13 27 72 46 40 57
REMARK Flexibility Score: inf
ROOT
ATOM      1  C   UNL A   1      32.958  27.740  24.709  1.00  0.00     0.117 C 
ENDROOT
BRANCH   1   2
ATOM      2  N   UNL A   1      33.592  27.259  23.502  1.00  0.00    -0.354 N 
ATOM      3  C   UNL A   1      33.246  26.231  22.678  1.00  0.00     0.239 C 
ATOM      4  O   UNL A   1      33.758  26.238  21.551  1.00  0.00    -0.273 OA
ATOM      5  H   UNL A   1      34.400  27.753  23.233  1.00  0.00     0.163 HD
BRANCH   3   6
ATOM      6  C   UNL A   1      32.161  25.187  23.021  1.00  0.00     0.220 C 
BRANCH   6   7
ATOM      7  N   UNL A   1      32.440  24.079  23.960  1.00  0.00    -0.325 N 
BRANCH   7   8
ATOM      8  C   UNL A   1      31.751  24.031  25.317  1.00  0.00     0.035 C 
ATOM      9  C   UNL A   1      30.574  25.032  25.491  1.00  0.00     0.034 C 
ATOM     10  C   UNL A   1      32.739  24.329  26.471  1.00  0.00     0.034 C 
ATOM     11  C   UNL A   1      31.119  22.635  25.546  1.00  0.00     0.034 C 
ENDBRANCH   7   8
BRANCH   7  12
ATOM     12  C   UNL A   1      33.011  22.869  23.478  1.00  0.00     0.254 C 
ATOM     13  O   UNL A   1      32.451  22.126  22.674  1.00  0.00    -0.269 OA
BRANCH  12  14
ATOM     14  C   UNL A   1      34.390  22.452  23.836  1.00  0.00     0.040 A 
ATOM     15  C   UNL A   1      34.543  21.326  24.656  1.00  0.00     0.016 A 
ATOM     16  C   UNL A   1      35.512  23.216  23.522  1.00  0.00     0.016 A 
ATOM     17  C   UNL A   1      35.813  20.935  25.093  1.00  0.00     0.026 A 
ATOM     18  C   UNL A   1      36.784  22.799  23.932  1.00  0.00     0.026 A 
ATOM     19  C   UNL A   1      36.948  21.650  24.710  1.00  0.00     0.031 A 
BRANCH  19  20
ATOM     20  N   UNL A   1      38.202  21.274  25.153  1.00  0.00    -0.399 N 
ATOM     21  H   UNL A   1      38.964  21.267  24.529  1.00  0.00     0.156 HD
ATOM     22  H   UNL A   1      38.334  21.012  26.093  1.00  0.00     0.156 HD
ENDBRANCH  19  20
ENDBRANCH  12  14
ENDBRANCH   7  12
ENDBRANCH   6   7
ENDBRANCH   3   6
ENDBRANCH   1   2
BRANCH   1  23
ATOM     23  C   UNL A   1      33.878  27.802  25.919  1.00  0.00     0.042 C 
BRANCH  23  24
ATOM     24  C   UNL A   1      33.256  28.429  27.160  1.00  0.00     0.118 C 
BRANCH  24  25
ATOM     25  N   UNL A   1      33.408  29.879  27.188  1.00  0.00    -0.352 N 
ATOM     26  C   UNL A   1      34.389  30.687  27.706  1.00  0.00     0.251 C 
ATOM     27  H   UNL A   1      32.671  30.367  26.755  1.00  0.00     0.163 HD
ATOM     28  O   UNL A   1      34.158  31.893  27.796  1.00  0.00    -0.269 OA
BRANCH  26  29
ATOM     29  C   UNL A   1      35.702  30.158  28.148  1.00  0.00     0.039 A 
ATOM     30  C   UNL A   1      35.808  29.626  29.440  1.00  0.00     0.014 A 
ATOM     31  C   UNL A   1      36.847  30.256  27.357  1.00  0.00     0.014 A 
ATOM     32  C   UNL A   1      37.041  29.166  29.915  1.00  0.00     0.010 A 
ATOM     33  C   UNL A   1      38.053  29.706  27.792  1.00  0.00     0.010 A 
ATOM     34  C   UNL A   1      38.173  29.182  29.086  1.00  0.00    -0.014 A 
BRANCH  34  35
ATOM     35  C   UNL A   1      39.495  28.691  29.563  1.00  0.00     0.031 A 
ATOM     36  C   UNL A   1      40.209  29.398  30.687  1.00  0.00     0.074 A 
ATOM     37  C   UNL A   1      40.089  27.655  28.939  1.00  0.00     0.049 A 
ATOM     38  N   UNL A   1      41.385  29.150  31.206  1.00  0.00    -0.248 NA
ATOM     39  C   UNL A   1      39.528  30.558  31.289  1.00  0.00     0.031 C 
ATOM     40  C   UNL A   1      39.541  26.935  27.786  1.00  0.00     0.029 A 
ATOM     41  N   UNL A   1      41.294  27.040  29.170  1.00  0.00    -0.354 N 
ATOM     42  C   UNL A   1      41.601  30.142  32.157  1.00  0.00     0.074 A 
ATOM     43  C   UNL A   1      40.453  31.020  32.118  1.00  0.00     0.031 C 
ATOM     44  C   UNL A   1      40.401  25.971  27.421  1.00  0.00     0.029 A 
ATOM     45  C   UNL A   1      41.571  26.018  28.292  1.00  0.00     0.049 A 
ATOM     46  H   UNL A   1      41.903  27.306  29.896  1.00  0.00     0.167 HD
ATOM     47  C   UNL A   1      42.641  30.290  33.012  1.00  0.00     0.034 A 
ATOM     48  C   UNL A   1      42.644  25.209  28.200  1.00  0.00     0.034 A 
ATOM     49  C   UNL A   1      43.752  29.381  33.090  1.00  0.00     0.049 A 
ATOM     50  C   UNL A   1      43.757  25.354  29.203  1.00  0.00     0.074 A 
ATOM     51  C   UNL A   1      44.810  29.390  33.981  1.00  0.00     0.029 A 
ATOM     52  N   UNL A   1      43.947  28.297  32.249  1.00  0.00    -0.354 N 
ATOM     53  N   UNL A   1      43.868  26.203  30.195  1.00  0.00    -0.248 NA
ATOM     54  C   UNL A   1      44.875  24.404  29.097  1.00  0.00     0.031 C 
ATOM     55  C   UNL A   1      45.654  28.317  33.669  1.00  0.00     0.029 A 
ATOM     56  C   UNL A   1      45.108  27.630  32.597  1.00  0.00     0.049 A 
ATOM     57  H   UNL A   1      43.348  28.040  31.511  1.00  0.00     0.167 HD
ATOM     58  C   UNL A   1      45.043  25.865  30.858  1.00  0.00     0.074 A 
ATOM     59  C   UNL A   1      45.599  24.722  30.162  1.00  0.00     0.031 C 
ATOM     60  C   UNL A   1      45.617  26.455  31.936  1.00  0.00     0.034 A 
BRANCH  47  61
ATOM     61  C   UNL A   1      42.594  31.447  33.979  1.00  0.00     0.023 A 
ATOM     62  C   UNL A   1      43.343  32.611  33.705  1.00  0.00     0.012 A 
ATOM     63  C   UNL A   1      41.776  31.409  35.125  1.00  0.00     0.148 A 
ATOM     64  C   UNL A   1      43.312  33.699  34.574  1.00  0.00     0.002 A 
ATOM     65  C   UNL A   1      41.714  32.517  35.964  1.00  0.00     0.091 A 
ATOM     66  F   UNL A   1      41.086  30.289  35.383  1.00  0.00    -0.205 F 
ATOM     67  C   UNL A   1      42.490  33.656  35.697  1.00  0.00     0.022 A 
BRANCH  65  68
ATOM     68  S   UNL A   1      40.626  32.591  37.392  1.00  0.00     0.127 S 
ATOM     69  O   UNL A   1      40.157  33.975  37.335  1.00  0.00    -0.237 OA
ATOM     70  O   UNL A   1      39.610  31.591  37.058  1.00  0.00    -0.237 OA
ATOM     71  O   UNL A   1      41.451  32.254  38.542  1.00  0.00    -0.744 OA
ENDBRANCH  65  68
ENDBRANCH  47  61
BRANCH  48  72
ATOM     72  C   UNL A   1      42.672  24.126  27.176  1.00  0.00     0.023 A 
ATOM     73  C   UNL A   1      43.350  24.348  25.961  1.00  0.00     0.012 A 
ATOM     74  C   UNL A   1      42.072  22.874  27.409  1.00  0.00     0.148 A 
ATOM     75  C   UNL A   1      43.403  23.354  24.983  1.00  0.00     0.002 A 
ATOM     76  C   UNL A   1      42.174  21.869  26.452  1.00  0.00     0.091 A 
ATOM     77  F   UNL A   1      41.422  22.685  28.566  1.00  0.00    -0.205 F 
ATOM     78  C   UNL A   1      42.826  22.112  25.233  1.00  0.00     0.022 A 
BRANCH  76  79
ATOM     79  S   UNL A   1      41.576  20.200  26.741  1.00  0.00     0.127 S 
ATOM     80  O   UNL A   1      42.420  19.769  27.854  1.00  0.00    -0.237 OA
ATOM     81  O   UNL A   1      40.174  20.439  27.091  1.00  0.00    -0.237 OA
ATOM     82  O   UNL A   1      41.768  19.491  25.487  1.00  0.00    -0.744 OA
ENDBRANCH  76  79
ENDBRANCH  48  72
BRANCH  60  83
ATOM     83  C   UNL A   1      46.892  25.856  32.465  1.00  0.00     0.023 A 
ATOM     84  C   UNL A   1      46.849  24.973  33.561  1.00  0.00     0.012 A 
ATOM     85  C   UNL A   1      48.121  26.105  31.823  1.00  0.00     0.148 A 
ATOM     86  C   UNL A   1      48.016  24.371  34.032  1.00  0.00     0.002 A 
ATOM     87  C   UNL A   1      49.272  25.465  32.268  1.00  0.00     0.091 A 
ATOM     88  F   UNL A   1      48.144  26.964  30.794  1.00  0.00    -0.205 F 
ATOM     89  C   UNL A   1      49.223  24.607  33.378  1.00  0.00     0.022 A 
BRANCH  87  90
ATOM     90  S   UNL A   1      50.851  25.635  31.426  1.00  0.00     0.127 S 
ATOM     91  O   UNL A   1      51.713  24.773  32.232  1.00  0.00    -0.237 OA
ATOM     92  O   UNL A   1      50.549  25.118  30.090  1.00  0.00    -0.237 OA
ATOM     93  O   UNL A   1      51.172  27.055  31.463  1.00  0.00    -0.744 OA
ENDBRANCH  87  90
ENDBRANCH  60  83
ENDBRANCH  34  35
ENDBRANCH  26  29
ENDBRANCH  24  25
ENDBRANCH  23  24
ENDBRANCH   1  23
TORSDOF 18
ENDMDL
MODEL 3
REMARK VINA RESULT:     -10.8      2.298      3.783
REMARK SMILES CC(C)(C)N(CC(=O)NCCCNC(=O)c1ccc(-c2c3nc(c(-c4cccc(S(=O)(=O)[O-])c4F)c4ccc([nH]4)c(-c4cccc(S(=O)(=O)[O-])c4F)c4nc(c(-c5cccc(S(=O)(=O)[O-])c5F)c5ccc2[nH]5)C=C4)C=C3)cc1)C(=O)c1ccc(N)cc1
REMARK SMILES IDX 10 1 9 2 7 3 8 4 6 6 5 7 2 8 1 9 3 10 4 11 79 12 80 13 81 14
REMARK SMILES IDX 82 15 87 16 83 17 86 18 84 19 85 20 11 23 12 24 13 25 14 26
REMARK SMILES IDX 15 28 16 29 17 30 78 31 18 32 77 33 19 34 20 35 21 36 71 37
REMARK SMILES IDX 22 38 76 39 70 40 72 41 23 42 75 43 69 44 68 45 24 47 56 48
REMARK SMILES IDX 36 49 55 50 37 51 40 52 54 53 73 54 38 55 39 56 53 58 74 59
REMARK SMILES IDX 41 60 25 61 26 62 34 63 27 64 29 65 35 66 28 67 30 68 31 69
REMARK SMILES IDX 32 70 33 71 57 72 58 73 66 74 59 75 61 76 67 77 60 78 62 79
REMARK SMILES IDX 63 80 64 81 65 82 42 83 43 84 51 85 44 86 46 87 52 88 45 89
REMARK SMILES IDX 47 90 48 91 49 92 50 93
REMARK H PARENT 9 5 85 21 85 22 13 27 72 46 40 57
REMARK Flexibility Score: inf
ROOT
ATOM      1  C   UNL A   1      32.919  27.809  24.737  1.00  0.00     0.117 C 
ENDROOT
BRANCH   1   2
ATOM      2  N   UNL A   1      33.583  27.386  23.525  1.00  0.00    -0.354 N 
ATOM      3  C   UNL A   1      33.291  26.363  22.674  1.00  0.00     0.239 C 
ATOM      4  O   UNL A   1      33.810  26.420  21.552  1.00  0.00    -0.273 OA
ATOM      5  H   UNL A   1      34.369  27.923  23.273  1.00  0.00     0.163 HD
BRANCH   3   6
ATOM      6  C   UNL A   1      32.254  25.262  22.985  1.00  0.00     0.220 C 
BRANCH   6   7
ATOM      7  N   UNL A   1      32.508  24.249  24.031  1.00  0.00    -0.325 N 
BRANCH   7   8
ATOM      8  C   UNL A   1      31.606  24.167  25.255  1.00  0.00     0.035 C 
ATOM      9  C   UNL A   1      30.358  25.094  25.214  1.00  0.00     0.034 C 
ATOM     10  C   UNL A   1      32.367  24.533  26.553  1.00  0.00     0.034 C 
ATOM     11  C   UNL A   1      31.030  22.735  25.398  1.00  0.00     0.034 C 
ENDBRANCH   7   8
BRANCH   7  12
ATOM     12  C   UNL A   1      33.308  23.111  23.736  1.00  0.00     0.254 C 
ATOM     13  O   UNL A   1      32.992  22.253  22.914  1.00  0.00    -0.269 OA
BRANCH  12  14
ATOM     14  C   UNL A   1      34.653  22.918  24.334  1.00  0.00     0.040 A 
ATOM     15  C   UNL A   1      34.949  21.668  24.894  1.00  0.00     0.016 A 
ATOM     16  C   UNL A   1      35.561  23.963  24.495  1.00  0.00     0.016 A 
ATOM     17  C   UNL A   1      36.170  21.454  25.544  1.00  0.00     0.026 A 
ATOM     18  C   UNL A   1      36.796  23.732  25.114  1.00  0.00     0.026 A 
ATOM     19  C   UNL A   1      37.116  22.475  25.634  1.00  0.00     0.031 A 
BRANCH  19  20
ATOM     20  N   UNL A   1      38.316  22.270  26.288  1.00  0.00    -0.399 N 
ATOM     21  H   UNL A   1      39.156  22.602  25.894  1.00  0.00     0.156 HD
ATOM     22  H   UNL A   1      38.332  21.791  27.148  1.00  0.00     0.156 HD
ENDBRANCH  19  20
ENDBRANCH  12  14
ENDBRANCH   7  12
ENDBRANCH   6   7
ENDBRANCH   3   6
ENDBRANCH   1   2
BRANCH   1  23
ATOM     23  C   UNL A   1      33.823  27.875  25.958  1.00  0.00     0.042 C 
BRANCH  23  24
ATOM     24  C   UNL A   1      33.212  28.569  27.167  1.00  0.00     0.118 C 
BRANCH  24  25
ATOM     25  N   UNL A   1      33.430  30.010  27.154  1.00  0.00    -0.352 N 
ATOM     26  C   UNL A   1      34.438  30.789  27.665  1.00  0.00     0.251 C 
ATOM     27  H   UNL A   1      32.724  30.517  26.692  1.00  0.00     0.163 HD
ATOM     28  O   UNL A   1      34.262  32.006  27.714  1.00  0.00    -0.269 OA
BRANCH  26  29
ATOM     29  C   UNL A   1      35.717  30.214  28.149  1.00  0.00     0.039 A 
ATOM     30  C   UNL A   1      35.757  29.661  29.435  1.00  0.00     0.014 A 
ATOM     31  C   UNL A   1      36.894  30.289  27.403  1.00  0.00     0.014 A 
ATOM     32  C   UNL A   1      36.958  29.158  29.950  1.00  0.00     0.010 A 
ATOM     33  C   UNL A   1      38.066  29.698  27.875  1.00  0.00     0.010 A 
ATOM     34  C   UNL A   1      38.121  29.152  29.164  1.00  0.00    -0.014 A 
BRANCH  34  35
ATOM     35  C   UNL A   1      39.408  28.615  29.684  1.00  0.00     0.031 A 
ATOM     36  C   UNL A   1      40.078  29.259  30.871  1.00  0.00     0.074 A 
ATOM     37  C   UNL A   1      40.014  27.595  29.044  1.00  0.00     0.049 A 
ATOM     38  N   UNL A   1      41.222  28.965  31.435  1.00  0.00    -0.248 NA
ATOM     39  C   UNL A   1      39.388  30.405  31.489  1.00  0.00     0.031 C 
ATOM     40  C   UNL A   1      39.512  26.936  27.836  1.00  0.00     0.029 A 
ATOM     41  N   UNL A   1      41.196  26.947  29.307  1.00  0.00    -0.354 N 
ATOM     42  C   UNL A   1      41.408  29.911  32.438  1.00  0.00     0.074 A 
ATOM     43  C   UNL A   1      40.279  30.813  32.382  1.00  0.00     0.031 C 
ATOM     44  C   UNL A   1      40.372  25.971  27.471  1.00  0.00     0.029 A 
ATOM     45  C   UNL A   1      41.498  25.958  28.400  1.00  0.00     0.049 A 
ATOM     46  H   UNL A   1      41.772  27.170  30.073  1.00  0.00     0.167 HD
ATOM     47  C   UNL A   1      42.407  30.003  33.349  1.00  0.00     0.034 A 
ATOM     48  C   UNL A   1      42.560  25.133  28.325  1.00  0.00     0.034 A 
ATOM     49  C   UNL A   1      43.496  29.069  33.441  1.00  0.00     0.049 A 
ATOM     50  C   UNL A   1      43.624  25.213  29.386  1.00  0.00     0.074 A 
ATOM     51  C   UNL A   1      44.509  29.019  34.382  1.00  0.00     0.029 A 
ATOM     52  N   UNL A   1      43.714  28.018  32.564  1.00  0.00    -0.354 N 
ATOM     53  N   UNL A   1      43.700  26.016  30.419  1.00  0.00    -0.248 NA
ATOM     54  C   UNL A   1      44.729  24.247  29.294  1.00  0.00     0.031 C 
ATOM     55  C   UNL A   1      45.348  27.944  34.065  1.00  0.00     0.029 A 
ATOM     56  C   UNL A   1      44.844  27.314  32.939  1.00  0.00     0.049 A 
ATOM     57  H   UNL A   1      43.148  27.805  31.787  1.00  0.00     0.167 HD
ATOM     58  C   UNL A   1      44.835  25.628  31.123  1.00  0.00     0.074 A 
ATOM     59  C   UNL A   1      45.404  24.504  30.406  1.00  0.00     0.031 C 
ATOM     60  C   UNL A   1      45.364  26.160  32.252  1.00  0.00     0.034 A 
BRANCH  47  61
ATOM     61  C   UNL A   1      42.332  31.118  34.362  1.00  0.00     0.023 A 
ATOM     62  C   UNL A   1      41.715  30.880  35.608  1.00  0.00     0.012 A 
ATOM     63  C   UNL A   1      42.910  32.376  34.110  1.00  0.00     0.148 A 
ATOM     64  C   UNL A   1      41.638  31.887  36.569  1.00  0.00     0.002 A 
ATOM     65  C   UNL A   1      42.871  33.362  35.091  1.00  0.00     0.091 A 
ATOM     66  F   UNL A   1      43.476  32.593  32.914  1.00  0.00    -0.205 F 
ATOM     67  C   UNL A   1      42.225  33.123  36.314  1.00  0.00     0.022 A 
BRANCH  65  68
ATOM     68  S   UNL A   1      43.667  34.960  34.890  1.00  0.00     0.127 S 
ATOM     69  O   UNL A   1      45.043  34.569  34.585  1.00  0.00    -0.237 OA
ATOM     70  O   UNL A   1      42.932  35.532  33.760  1.00  0.00    -0.237 OA
ATOM     71  O   UNL A   1      43.479  35.662  36.151  1.00  0.00    -0.744 OA
ENDBRANCH  65  68
ENDBRANCH  47  61
BRANCH  48  72
ATOM     72  C   UNL A   1      42.619  24.094  27.257  1.00  0.00     0.023 A 
ATOM     73  C   UNL A   1      43.292  24.385  26.054  1.00  0.00     0.012 A 
ATOM     74  C   UNL A   1      42.055  22.817  27.437  1.00  0.00     0.148 A 
ATOM     75  C   UNL A   1      43.374  23.435  25.036  1.00  0.00     0.002 A 
ATOM     76  C   UNL A   1      42.187  21.856  26.439  1.00  0.00     0.091 A 
ATOM     77  F   UNL A   1      41.410  22.563  28.584  1.00  0.00    -0.205 F 
ATOM     78  C   UNL A   1      42.832  22.168  25.233  1.00  0.00     0.022 A 
BRANCH  76  79
ATOM     79  S   UNL A   1      41.635  20.160  26.658  1.00  0.00     0.127 S 
ATOM     80  O   UNL A   1      42.469  19.718  27.775  1.00  0.00    -0.237 OA
ATOM     81  O   UNL A   1      40.219  20.343  26.983  1.00  0.00    -0.237 OA
ATOM     82  O   UNL A   1      41.878  19.501  25.386  1.00  0.00    -0.744 OA
ENDBRANCH  76  79
ENDBRANCH  48  72
BRANCH  60  83
ATOM     83  C   UNL A   1      46.601  25.513  32.817  1.00  0.00     0.023 A 
ATOM     84  C   UNL A   1      47.873  25.993  32.449  1.00  0.00     0.012 A 
ATOM     85  C   UNL A   1      46.499  24.484  33.774  1.00  0.00     0.148 A 
ATOM     86  C   UNL A   1      49.027  25.437  33.001  1.00  0.00     0.002 A 
ATOM     87  C   UNL A   1      47.651  23.968  34.355  1.00  0.00     0.091 A 
ATOM     88  F   UNL A   1      45.280  24.027  34.096  1.00  0.00    -0.205 F 
ATOM     89  C   UNL A   1      48.915  24.435  33.961  1.00  0.00     0.022 A 
BRANCH  87  90
ATOM     90  S   UNL A   1      47.596  22.744  35.670  1.00  0.00     0.127 S 
ATOM     91  O   UNL A   1      48.793  23.079  36.439  1.00  0.00    -0.237 OA
ATOM     92  O   UNL A   1      46.333  23.060  36.338  1.00  0.00    -0.237 OA
ATOM     93  O   UNL A   1      47.618  21.446  35.009  1.00  0.00    -0.744 OA
ENDBRANCH  87  90
ENDBRANCH  60  83
ENDBRANCH  34  35
ENDBRANCH  26  29
ENDBRANCH  24  25
ENDBRANCH  23  24
ENDBRANCH   1  23
TORSDOF 18
ENDMDL
