MODEL 1
REMARK VINA RESULT:     -13.3      0.000      0.000
REMARK SMILES O=C(NCCCNC(=O)c1ccn(-c2cc(-c3ccncc3)nc(-c3ccccc3F)n2)n1)c1ccc(-c2c3nc(c(-c4cccc(S(=O)(=O)[O-])c4F)c4ccc([nH]4)c(-c4cccc(S(=O)(=O)[O-])c4F)c4nc(c(-c5cccc(S(=O)(=O)[O-])c5F)c5ccc2[nH]5)C=C4)C=C3)cc1
REMARK SMILES IDX 4 1 3 2 1 3 2 4 34 6 35 7 96 8 36 9 95 10 37 11 38 12 39 13
REMARK SMILES IDX 89 14 40 15 94 16 88 17 90 18 41 19 93 20 87 21 86 22 42 24
REMARK SMILES IDX 74 25 54 26 73 27 55 28 58 29 72 30 91 31 56 32 57 33 71 35
REMARK SMILES IDX 92 36 59 37 43 38 44 39 52 40 45 41 47 42 53 43 46 44 48 45
REMARK SMILES IDX 49 46 50 47 51 48 75 49 76 50 84 51 77 52 79 53 85 54 78 55
REMARK SMILES IDX 80 56 81 57 82 58 83 59 60 60 61 61 69 62 62 63 64 64 70 65
REMARK SMILES IDX 63 66 65 67 66 68 67 69 68 70 5 71 6 72 7 73 8 74 9 76 10 77
REMARK SMILES IDX 11 78 33 79 12 80 13 81 14 82 15 83 32 84 16 85 24 86 23 87
REMARK SMILES IDX 17 88 18 89 22 90 19 91 21 92 20 93 25 94 26 95 30 96 27 97
REMARK SMILES IDX 29 98 31 99 28 100
REMARK H PARENT 3 5 90 23 58 34 7 75
REMARK Flexibility Score: inf
ROOT
ATOM      1  C   UNL A   1      36.885  22.547  25.044  1.00  0.00     0.118 C 
ENDROOT
BRANCH   1   2
ATOM      2  N   UNL A   1      38.098  21.813  25.339  1.00  0.00    -0.352 N 
ATOM      3  O   UNL A   1      39.936  21.044  26.265  1.00  0.00    -0.269 OA
ATOM      4  C   UNL A   1      39.177  22.011  26.155  1.00  0.00     0.251 C 
ATOM      5  H   UNL A   1      38.160  20.970  24.833  1.00  0.00     0.163 HD
BRANCH   4   6
ATOM      6  C   UNL A   1      39.532  23.289  26.833  1.00  0.00     0.039 A 
ATOM      7  C   UNL A   1      38.863  24.507  26.698  1.00  0.00     0.014 A 
ATOM      8  C   UNL A   1      40.687  23.246  27.638  1.00  0.00     0.014 A 
ATOM      9  C   UNL A   1      39.385  25.665  27.273  1.00  0.00     0.010 A 
ATOM     10  C   UNL A   1      41.208  24.396  28.220  1.00  0.00     0.010 A 
ATOM     11  C   UNL A   1      40.577  25.615  28.001  1.00  0.00    -0.014 A 
BRANCH  11  12
ATOM     12  C   UNL A   1      41.063  26.835  28.642  1.00  0.00     0.031 A 
ATOM     13  C   UNL A   1      42.408  27.288  28.180  1.00  0.00     0.074 A 
ATOM     14  C   UNL A   1      40.311  27.591  29.472  1.00  0.00     0.049 A 
ATOM     15  N   UNL A   1      43.482  27.444  28.885  1.00  0.00    -0.248 NA
ATOM     16  C   UNL A   1      42.607  27.490  26.736  1.00  0.00     0.031 C 
ATOM     17  C   UNL A   1      38.886  27.440  29.778  1.00  0.00     0.029 A 
ATOM     18  N   UNL A   1      40.640  28.750  30.115  1.00  0.00    -0.354 N 
ATOM     19  C   UNL A   1      44.445  27.952  28.008  1.00  0.00     0.074 A 
ATOM     20  C   UNL A   1      43.897  27.822  26.684  1.00  0.00     0.031 C 
ATOM     21  C   UNL A   1      38.424  28.587  30.325  1.00  0.00     0.029 A 
ATOM     22  C   UNL A   1      39.539  29.495  30.533  1.00  0.00     0.049 A 
ATOM     23  H   UNL A   1      41.570  29.034  30.270  1.00  0.00     0.167 HD
ATOM     24  C   UNL A   1      45.547  28.618  28.448  1.00  0.00     0.034 A 
ATOM     25  C   UNL A   1      39.543  30.790  30.939  1.00  0.00     0.034 A 
ATOM     26  C   UNL A   1      45.773  28.411  29.851  1.00  0.00     0.049 A 
ATOM     27  C   UNL A   1      40.927  31.127  31.333  1.00  0.00     0.074 A 
ATOM     28  C   UNL A   1      46.054  27.321  30.649  1.00  0.00     0.029 A 
ATOM     29  N   UNL A   1      45.369  29.409  30.703  1.00  0.00    -0.354 N 
ATOM     30  N   UNL A   1      41.530  30.611  32.366  1.00  0.00    -0.248 NA
ATOM     31  C   UNL A   1      41.791  31.740  30.340  1.00  0.00     0.031 C 
ATOM     32  C   UNL A   1      45.344  27.565  31.861  1.00  0.00     0.029 A 
ATOM     33  C   UNL A   1      44.723  28.810  31.749  1.00  0.00     0.049 A 
ATOM     34  H   UNL A   1      45.518  30.374  30.582  1.00  0.00     0.167 HD
ATOM     35  C   UNL A   1      42.833  30.415  31.935  1.00  0.00     0.074 A 
ATOM     36  C   UNL A   1      42.961  31.228  30.727  1.00  0.00     0.031 C 
ATOM     37  C   UNL A   1      43.589  29.394  32.432  1.00  0.00     0.034 A 
BRANCH  24  38
ATOM     38  C   UNL A   1      46.266  29.711  27.693  1.00  0.00     0.023 A 
ATOM     39  C   UNL A   1      47.680  29.689  27.690  1.00  0.00     0.012 A 
ATOM     40  C   UNL A   1      45.642  30.890  27.224  1.00  0.00     0.148 A 
ATOM     41  C   UNL A   1      48.433  30.794  27.278  1.00  0.00     0.002 A 
ATOM     42  C   UNL A   1      46.394  31.957  26.745  1.00  0.00     0.091 A 
ATOM     43  F   UNL A   1      44.320  31.039  27.357  1.00  0.00    -0.205 F 
ATOM     44  C   UNL A   1      47.790  31.927  26.797  1.00  0.00     0.022 A 
BRANCH  42  45
ATOM     45  S   UNL A   1      45.621  33.431  26.065  1.00  0.00     0.127 S 
ATOM     46  O   UNL A   1      44.734  32.859  25.057  1.00  0.00    -0.237 OA
ATOM     47  O   UNL A   1      44.947  33.983  27.241  1.00  0.00    -0.237 OA
ATOM     48  O   UNL A   1      46.717  34.251  25.567  1.00  0.00    -0.744 OA
ENDBRANCH  42  45
ENDBRANCH  24  38
BRANCH  25  49
ATOM     49  C   UNL A   1      38.538  31.861  30.719  1.00  0.00     0.023 A 
ATOM     50  C   UNL A   1      38.192  32.229  29.401  1.00  0.00     0.012 A 
ATOM     51  C   UNL A   1      37.691  32.276  31.769  1.00  0.00     0.148 A 
ATOM     52  C   UNL A   1      37.015  32.942  29.134  1.00  0.00     0.002 A 
ATOM     53  C   UNL A   1      36.522  32.980  31.499  1.00  0.00     0.091 A 
ATOM     54  F   UNL A   1      37.980  31.892  33.019  1.00  0.00    -0.205 F 
ATOM     55  C   UNL A   1      36.173  33.304  30.181  1.00  0.00     0.022 A 
BRANCH  53  56
ATOM     56  S   UNL A   1      35.357  33.432  32.793  1.00  0.00     0.127 S 
ATOM     57  O   UNL A   1      35.646  34.856  32.974  1.00  0.00    -0.237 OA
ATOM     58  O   UNL A   1      34.075  33.143  32.156  1.00  0.00    -0.237 OA
ATOM     59  O   UNL A   1      35.695  32.601  33.940  1.00  0.00    -0.744 OA
ENDBRANCH  53  56
ENDBRANCH  25  49
BRANCH  37  60
ATOM     60  C   UNL A   1      43.066  28.638  33.629  1.00  0.00     0.023 A 
ATOM     61  C   UNL A   1      42.002  27.716  33.537  1.00  0.00     0.012 A 
ATOM     62  C   UNL A   1      43.779  28.730  34.836  1.00  0.00     0.148 A 
ATOM     63  C   UNL A   1      41.643  26.922  34.630  1.00  0.00     0.002 A 
ATOM     64  C   UNL A   1      43.454  27.901  35.903  1.00  0.00     0.091 A 
ATOM     65  F   UNL A   1      44.789  29.611  34.911  1.00  0.00    -0.205 F 
ATOM     66  C   UNL A   1      42.379  27.003  35.809  1.00  0.00     0.022 A 
BRANCH  64  67
ATOM     67  S   UNL A   1      44.455  27.860  37.392  1.00  0.00     0.127 S 
ATOM     68  O   UNL A   1      45.766  27.488  36.867  1.00  0.00    -0.237 OA
ATOM     69  O   UNL A   1      44.356  29.239  37.873  1.00  0.00    -0.237 OA
ATOM     70  O   UNL A   1      43.825  26.881  38.269  1.00  0.00    -0.744 OA
ENDBRANCH  64  67
ENDBRANCH  37  60
ENDBRANCH  11  12
ENDBRANCH   4   6
ENDBRANCH   1   2
BRANCH   1  71
ATOM     71  C   UNL A   1      35.628  21.992  25.714  1.00  0.00     0.042 C 
BRANCH  71  72
ATOM     72  C   UNL A   1      34.364  22.820  25.474  1.00  0.00     0.118 C 
BRANCH  72  73
ATOM     73  N   UNL A   1      33.154  22.044  25.681  1.00  0.00    -0.351 N 
ATOM     74  C   UNL A   1      31.846  22.388  25.436  1.00  0.00     0.271 C 
ATOM     75  H   UNL A   1      33.291  21.142  26.051  1.00  0.00     0.163 HD
ATOM     76  O   UNL A   1      30.958  21.649  25.856  1.00  0.00    -0.267 OA
BRANCH  74  77
ATOM     77  C   UNL A   1      31.562  23.581  24.632  1.00  0.00     0.150 A 
ATOM     78  C   UNL A   1      30.808  23.638  23.431  1.00  0.00     0.056 A 
ATOM     79  N   UNL A   1      31.945  24.811  25.021  1.00  0.00    -0.161 NA
ATOM     80  C   UNL A   1      30.630  24.976  23.185  1.00  0.00     0.118 A 
ATOM     81  N   UNL A   1      31.296  25.654  24.178  1.00  0.00    -0.222 N 
BRANCH  81  82
ATOM     82  C   UNL A   1      31.300  27.062  24.368  1.00  0.00     0.158 A 
ATOM     83  C   UNL A   1      30.478  27.839  23.580  1.00  0.00     0.078 A 
ATOM     84  N   UNL A   1      32.109  27.572  25.325  1.00  0.00    -0.209 NA
ATOM     85  C   UNL A   1      30.482  29.191  23.855  1.00  0.00     0.077 A 
ATOM     86  C   UNL A   1      32.105  28.909  25.453  1.00  0.00     0.165 A 
ATOM     87  N   UNL A   1      31.325  29.748  24.751  1.00  0.00    -0.228 NA
BRANCH  85  88
ATOM     88  C   UNL A   1      29.526  30.104  23.224  1.00  0.00     0.003 A 
ATOM     89  C   UNL A   1      28.959  29.799  21.979  1.00  0.00     0.030 A 
ATOM     90  C   UNL A   1      29.140  31.295  23.846  1.00  0.00     0.030 A 
ATOM     91  C   UNL A   1      28.060  30.689  21.414  1.00  0.00     0.111 A 
ATOM     92  C   UNL A   1      28.240  32.125  23.196  1.00  0.00     0.111 A 
ATOM     93  N   UNL A   1      27.696  31.852  21.992  1.00  0.00    -0.265 NA
ENDBRANCH  85  88
BRANCH  86  94
ATOM     94  C   UNL A   1      33.105  29.487  26.341  1.00  0.00     0.055 A 
ATOM     95  C   UNL A   1      34.340  28.845  26.553  1.00  0.00     0.015 A 
ATOM     96  C   UNL A   1      32.868  30.685  27.019  1.00  0.00     0.134 A 
ATOM     97  C   UNL A   1      35.300  29.393  27.412  1.00  0.00     0.001 A 
ATOM     98  C   UNL A   1      33.816  31.232  27.884  1.00  0.00     0.040 A 
ATOM     99  F   UNL A   1      31.698  31.327  26.875  1.00  0.00    -0.206 F 
ATOM    100  C   UNL A   1      35.036  30.586  28.079  1.00  0.00     0.003 A 
ENDBRANCH  86  94
ENDBRANCH  81  82
ENDBRANCH  74  77
ENDBRANCH  72  73
ENDBRANCH  71  72
ENDBRANCH   1  71
TORSDOF 16
ENDMDL
MODEL 2
REMARK VINA RESULT:     -13.3      3.053      9.261
REMARK SMILES O=C(NCCCNC(=O)c1ccn(-c2cc(-c3ccncc3)nc(-c3ccccc3F)n2)n1)c1ccc(-c2c3nc(c(-c4cccc(S(=O)(=O)[O-])c4F)c4ccc([nH]4)c(-c4cccc(S(=O)(=O)[O-])c4F)c4nc(c(-c5cccc(S(=O)(=O)[O-])c5F)c5ccc2[nH]5)C=C4)C=C3)cc1
REMARK SMILES IDX 4 1 3 2 1 3 2 4 34 6 35 7 96 8 36 9 95 10 37 11 38 12 39 13
REMARK SMILES IDX 89 14 40 15 94 16 88 17 90 18 41 19 93 20 87 21 86 22 42 24
REMARK SMILES IDX 74 25 54 26 73 27 55 28 58 29 72 30 91 31 56 32 57 33 71 35
REMARK SMILES IDX 92 36 59 37 43 38 44 39 52 40 45 41 47 42 53 43 46 44 48 45
REMARK SMILES IDX 49 46 50 47 51 48 75 49 76 50 84 51 77 52 79 53 85 54 78 55
REMARK SMILES IDX 80 56 81 57 82 58 83 59 60 60 61 61 69 62 62 63 64 64 70 65
REMARK SMILES IDX 63 66 65 67 66 68 67 69 68 70 5 71 6 72 7 73 8 74 9 76 10 77
REMARK SMILES IDX 11 78 33 79 12 80 13 81 14 82 15 83 32 84 16 85 24 86 23 87
REMARK SMILES IDX 17 88 18 89 22 90 19 91 21 92 20 93 25 94 26 95 30 96 27 97
REMARK SMILES IDX 29 98 31 99 28 100
REMARK H PARENT 3 5 90 23 58 34 7 75
REMARK Flexibility Score: inf
ROOT
ATOM      1  C   UNL A   1      33.825  29.100  25.692  1.00  0.00     0.118 C 
ENDROOT
BRANCH   1   2
ATOM      2  N   UNL A   1      33.504  30.247  26.515  1.00  0.00    -0.352 N 
ATOM      3  O   UNL A   1      33.602  32.058  27.755  1.00  0.00    -0.269 OA
ATOM      4  C   UNL A   1      34.201  31.047  27.378  1.00  0.00     0.251 C 
ATOM      5  H   UNL A   1      32.560  30.515  26.435  1.00  0.00     0.163 HD
BRANCH   4   6
ATOM      6  C   UNL A   1      35.552  30.757  27.934  1.00  0.00     0.039 A 
ATOM      7  C   UNL A   1      36.521  31.701  28.278  1.00  0.00     0.014 A 
ATOM      8  C   UNL A   1      35.872  29.391  28.066  1.00  0.00     0.014 A 
ATOM      9  C   UNL A   1      37.802  31.292  28.651  1.00  0.00     0.010 A 
ATOM     10  C   UNL A   1      37.144  28.978  28.444  1.00  0.00     0.010 A 
ATOM     11  C   UNL A   1      38.122  29.932  28.696  1.00  0.00    -0.014 A 
BRANCH  11  12
ATOM     12  C   UNL A   1      39.454  29.537  29.151  1.00  0.00     0.031 A 
ATOM     13  C   UNL A   1      39.766  29.909  30.563  1.00  0.00     0.074 A 
ATOM     14  C   UNL A   1      40.290  28.764  28.425  1.00  0.00     0.049 A 
ATOM     15  N   UNL A   1      40.719  30.671  30.994  1.00  0.00    -0.248 NA
ATOM     16  C   UNL A   1      38.837  29.463  31.613  1.00  0.00     0.031 C 
ATOM     17  C   UNL A   1      40.006  28.077  27.162  1.00  0.00     0.029 A 
ATOM     18  N   UNL A   1      41.540  28.316  28.741  1.00  0.00    -0.354 N 
ATOM     19  C   UNL A   1      40.629  30.643  32.388  1.00  0.00     0.074 A 
ATOM     20  C   UNL A   1      39.377  30.009  32.703  1.00  0.00     0.031 C 
ATOM     21  C   UNL A   1      40.937  27.117  26.958  1.00  0.00     0.029 A 
ATOM     22  C   UNL A   1      41.950  27.212  27.994  1.00  0.00     0.049 A 
ATOM     23  H   UNL A   1      42.102  28.733  29.433  1.00  0.00     0.167 HD
ATOM     24  C   UNL A   1      41.679  30.975  33.190  1.00  0.00     0.034 A 
ATOM     25  C   UNL A   1      42.998  26.394  28.266  1.00  0.00     0.034 A 
ATOM     26  C   UNL A   1      42.703  31.677  32.467  1.00  0.00     0.049 A 
ATOM     27  C   UNL A   1      43.910  27.126  29.169  1.00  0.00     0.074 A 
ATOM     28  C   UNL A   1      42.779  32.877  31.791  1.00  0.00     0.029 A 
ATOM     29  N   UNL A   1      43.799  30.950  32.074  1.00  0.00    -0.354 N 
ATOM     30  N   UNL A   1      44.590  28.177  28.811  1.00  0.00    -0.248 NA
ATOM     31  C   UNL A   1      43.761  26.926  30.599  1.00  0.00     0.031 C 
ATOM     32  C   UNL A   1      43.628  32.614  30.678  1.00  0.00     0.029 A 
ATOM     33  C   UNL A   1      44.062  31.291  30.774  1.00  0.00     0.049 A 
ATOM     34  H   UNL A   1      44.300  30.307  32.623  1.00  0.00     0.167 HD
ATOM     35  C   UNL A   1      44.544  29.004  29.924  1.00  0.00     0.074 A 
ATOM     36  C   UNL A   1      44.121  28.140  31.024  1.00  0.00     0.031 C 
ATOM     37  C   UNL A   1      44.573  30.362  29.790  1.00  0.00     0.034 A 
BRANCH  24  38
ATOM     38  C   UNL A   1      41.941  30.406  34.564  1.00  0.00     0.023 A 
ATOM     39  C   UNL A   1      42.391  31.295  35.569  1.00  0.00     0.012 A 
ATOM     40  C   UNL A   1      42.029  29.024  34.845  1.00  0.00     0.148 A 
ATOM     41  C   UNL A   1      42.933  30.831  36.773  1.00  0.00     0.002 A 
ATOM     42  C   UNL A   1      42.499  28.569  36.072  1.00  0.00     0.091 A 
ATOM     43  F   UNL A   1      41.779  28.134  33.879  1.00  0.00    -0.205 F 
ATOM     44  C   UNL A   1      42.980  29.467  37.029  1.00  0.00     0.022 A 
BRANCH  42  45
ATOM     45  S   UNL A   1      42.540  26.820  36.483  1.00  0.00     0.127 S 
ATOM     46  O   UNL A   1      43.010  26.852  37.864  1.00  0.00    -0.237 OA
ATOM     47  O   UNL A   1      41.136  26.442  36.315  1.00  0.00    -0.237 OA
ATOM     48  O   UNL A   1      43.440  26.212  35.512  1.00  0.00    -0.744 OA
ENDBRANCH  42  45
ENDBRANCH  24  38
BRANCH  25  49
ATOM     49  C   UNL A   1      43.134  24.926  28.079  1.00  0.00     0.023 A 
ATOM     50  C   UNL A   1      42.381  24.051  28.892  1.00  0.00     0.012 A 
ATOM     51  C   UNL A   1      43.728  24.404  26.912  1.00  0.00     0.148 A 
ATOM     52  C   UNL A   1      42.185  22.713  28.524  1.00  0.00     0.002 A 
ATOM     53  C   UNL A   1      43.528  23.075  26.549  1.00  0.00     0.091 A 
ATOM     54  F   UNL A   1      44.404  25.233  26.106  1.00  0.00    -0.205 F 
ATOM     55  C   UNL A   1      42.746  22.229  27.346  1.00  0.00     0.022 A 
BRANCH  53  56
ATOM     56  S   UNL A   1      44.173  22.395  25.014  1.00  0.00     0.127 S 
ATOM     57  O   UNL A   1      43.905  20.966  25.182  1.00  0.00    -0.237 OA
ATOM     58  O   UNL A   1      43.339  23.062  24.018  1.00  0.00    -0.237 OA
ATOM     59  O   UNL A   1      45.587  22.741  24.989  1.00  0.00    -0.744 OA
ENDBRANCH  53  56
ENDBRANCH  25  49
BRANCH  37  60
ATOM     60  C   UNL A   1      44.900  30.936  28.433  1.00  0.00     0.023 A 
ATOM     61  C   UNL A   1      43.917  31.147  27.443  1.00  0.00     0.012 A 
ATOM     62  C   UNL A   1      46.195  31.436  28.218  1.00  0.00     0.148 A 
ATOM     63  C   UNL A   1      44.225  31.820  26.257  1.00  0.00     0.002 A 
ATOM     64  C   UNL A   1      46.484  32.151  27.063  1.00  0.00     0.091 A 
ATOM     65  F   UNL A   1      47.120  31.229  29.168  1.00  0.00    -0.205 F 
ATOM     66  C   UNL A   1      45.505  32.336  26.073  1.00  0.00     0.022 A 
BRANCH  64  67
ATOM     67  S   UNL A   1      48.069  32.960  26.837  1.00  0.00     0.127 S 
ATOM     68  O   UNL A   1      48.276  33.594  28.136  1.00  0.00    -0.237 OA
ATOM     69  O   UNL A   1      48.959  31.832  26.556  1.00  0.00    -0.237 OA
ATOM     70  O   UNL A   1      47.896  33.870  25.711  1.00  0.00    -0.744 OA
ENDBRANCH  64  67
ENDBRANCH  37  60
ENDBRANCH  11  12
ENDBRANCH   4   6
ENDBRANCH   1   2
BRANCH   1  71
ATOM     71  C   UNL A   1      33.093  27.815  26.079  1.00  0.00     0.042 C 
BRANCH  71  72
ATOM     72  C   UNL A   1      31.641  27.744  25.601  1.00  0.00     0.118 C 
BRANCH  72  73
ATOM     73  N   UNL A   1      31.537  27.843  24.156  1.00  0.00    -0.351 N 
ATOM     74  C   UNL A   1      31.658  26.859  23.204  1.00  0.00     0.271 C 
ATOM     75  H   UNL A   1      31.353  28.745  23.808  1.00  0.00     0.163 HD
ATOM     76  O   UNL A   1      31.717  27.190  22.022  1.00  0.00    -0.267 OA
BRANCH  74  77
ATOM     77  C   UNL A   1      31.648  25.454  23.626  1.00  0.00     0.150 A 
ATOM     78  C   UNL A   1      30.592  24.522  23.457  1.00  0.00     0.056 A 
ATOM     79  N   UNL A   1      32.728  24.866  24.176  1.00  0.00    -0.161 NA
ATOM     80  C   UNL A   1      31.130  23.307  23.797  1.00  0.00     0.118 A 
ATOM     81  N   UNL A   1      32.426  23.543  24.191  1.00  0.00    -0.222 N 
BRANCH  81  82
ATOM     82  C   UNL A   1      33.386  22.555  24.540  1.00  0.00     0.158 A 
ATOM     83  C   UNL A   1      32.989  21.236  24.592  1.00  0.00     0.078 A 
ATOM     84  N   UNL A   1      34.650  22.960  24.797  1.00  0.00    -0.209 NA
ATOM     85  C   UNL A   1      33.980  20.319  24.876  1.00  0.00     0.077 A 
ATOM     86  C   UNL A   1      35.519  21.999  25.151  1.00  0.00     0.165 A 
ATOM     87  N   UNL A   1      35.236  20.686  25.207  1.00  0.00    -0.228 NA
BRANCH  85  88
ATOM     88  C   UNL A   1      33.740  18.877  24.781  1.00  0.00     0.003 A 
ATOM     89  C   UNL A   1      34.728  18.019  24.278  1.00  0.00     0.030 A 
ATOM     90  C   UNL A   1      32.532  18.312  25.197  1.00  0.00     0.030 A 
ATOM     91  C   UNL A   1      34.463  16.661  24.201  1.00  0.00     0.111 A 
ATOM     92  C   UNL A   1      32.358  16.943  25.072  1.00  0.00     0.111 A 
ATOM     93  N   UNL A   1      33.293  16.105  24.578  1.00  0.00    -0.265 NA
ENDBRANCH  85  88
BRANCH  86  94
ATOM     94  C   UNL A   1      36.830  22.436  25.615  1.00  0.00     0.055 A 
ATOM     95  C   UNL A   1      37.021  23.738  26.115  1.00  0.00     0.015 A 
ATOM     96  C   UNL A   1      37.937  21.586  25.567  1.00  0.00     0.134 A 
ATOM     97  C   UNL A   1      38.280  24.165  26.554  1.00  0.00     0.001 A 
ATOM     98  C   UNL A   1      39.197  22.007  25.994  1.00  0.00     0.040 A 
ATOM     99  F   UNL A   1      37.818  20.343  25.077  1.00  0.00    -0.206 F 
ATOM    100  C   UNL A   1      39.369  23.298  26.490  1.00  0.00     0.003 A 
ENDBRANCH  86  94
ENDBRANCH  81  82
ENDBRANCH  74  77
ENDBRANCH  72  73
ENDBRANCH  71  72
ENDBRANCH   1  71
TORSDOF 16
ENDMDL
MODEL 3
REMARK VINA RESULT:     -13.2      5.009     11.105
REMARK SMILES O=C(NCCCNC(=O)c1ccn(-c2cc(-c3ccncc3)nc(-c3ccccc3F)n2)n1)c1ccc(-c2c3nc(c(-c4cccc(S(=O)(=O)[O-])c4F)c4ccc([nH]4)c(-c4cccc(S(=O)(=O)[O-])c4F)c4nc(c(-c5cccc(S(=O)(=O)[O-])c5F)c5ccc2[nH]5)C=C4)C=C3)cc1
REMARK SMILES IDX 4 1 3 2 1 3 2 4 34 6 35 7 96 8 36 9 95 10 37 11 38 12 39 13
REMARK SMILES IDX 89 14 40 15 94 16 88 17 90 18 41 19 93 20 87 21 86 22 42 24
REMARK SMILES IDX 74 25 54 26 73 27 55 28 58 29 72 30 91 31 56 32 57 33 71 35
REMARK SMILES IDX 92 36 59 37 43 38 44 39 52 40 45 41 47 42 53 43 46 44 48 45
REMARK SMILES IDX 49 46 50 47 51 48 75 49 76 50 84 51 77 52 79 53 85 54 78 55
REMARK SMILES IDX 80 56 81 57 82 58 83 59 60 60 61 61 69 62 62 63 64 64 70 65
REMARK SMILES IDX 63 66 65 67 66 68 67 69 68 70 5 71 6 72 7 73 8 74 9 76 10 77
REMARK SMILES IDX 11 78 33 79 12 80 13 81 14 82 15 83 32 84 16 85 24 86 23 87
REMARK SMILES IDX 17 88 18 89 22 90 19 91 21 92 20 93 25 94 26 95 30 96 27 97
REMARK SMILES IDX 29 98 31 99 28 100
REMARK H PARENT 3 5 90 23 58 34 7 75
REMARK Flexibility Score: inf
ROOT
ATOM      1  C   UNL A   1      35.442  34.020  29.361  1.00  0.00     0.118 C 
ENDROOT
BRANCH   1   2
ATOM      2  N   UNL A   1      35.014  33.030  28.395  1.00  0.00    -0.352 N 
ATOM      3  O   UNL A   1      34.678  31.169  27.277  1.00  0.00    -0.269 OA
ATOM      4  C   UNL A   1      35.435  31.779  28.037  1.00  0.00     0.251 C 
ATOM      5  H   UNL A   1      34.233  33.327  27.873  1.00  0.00     0.163 HD
BRANCH   4   6
ATOM      6  C   UNL A   1      36.731  31.155  28.422  1.00  0.00     0.039 A 
ATOM      7  C   UNL A   1      37.787  31.787  29.080  1.00  0.00     0.014 A 
ATOM      8  C   UNL A   1      36.898  29.814  28.023  1.00  0.00     0.014 A 
ATOM      9  C   UNL A   1      39.005  31.130  29.251  1.00  0.00     0.010 A 
ATOM     10  C   UNL A   1      38.108  29.152  28.197  1.00  0.00     0.010 A 
ATOM     11  C   UNL A   1      39.177  29.827  28.775  1.00  0.00    -0.014 A 
BRANCH  11  12
ATOM     12  C   UNL A   1      40.445  29.146  29.026  1.00  0.00     0.031 A 
ATOM     13  C   UNL A   1      40.705  28.821  30.460  1.00  0.00     0.074 A 
ATOM     14  C   UNL A   1      41.258  28.700  28.044  1.00  0.00     0.049 A 
ATOM     15  N   UNL A   1      41.689  29.217  31.202  1.00  0.00    -0.248 NA
ATOM     16  C   UNL A   1      39.686  28.046  31.185  1.00  0.00     0.031 C 
ATOM     17  C   UNL A   1      40.993  28.676  26.603  1.00  0.00     0.029 A 
ATOM     18  N   UNL A   1      42.450  28.041  28.146  1.00  0.00    -0.354 N 
ATOM     19  C   UNL A   1      41.518  28.582  32.435  1.00  0.00     0.074 A 
ATOM     20  C   UNL A   1      40.204  27.996  32.412  1.00  0.00     0.031 C 
ATOM     21  C   UNL A   1      41.856  27.822  26.006  1.00  0.00     0.029 A 
ATOM     22  C   UNL A   1      42.813  27.350  26.991  1.00  0.00     0.049 A 
ATOM     23  H   UNL A   1      43.002  28.052  28.961  1.00  0.00     0.167 HD
ATOM     24  C   UNL A   1      42.543  28.422  33.316  1.00  0.00     0.034 A 
ATOM     25  C   UNL A   1      43.777  26.401  26.885  1.00  0.00     0.034 A 
ATOM     26  C   UNL A   1      43.658  29.270  33.001  1.00  0.00     0.049 A 
ATOM     27  C   UNL A   1      44.691  26.565  28.034  1.00  0.00     0.074 A 
ATOM     28  C   UNL A   1      43.866  30.632  32.934  1.00  0.00     0.029 A 
ATOM     29  N   UNL A   1      44.715  28.694  32.341  1.00  0.00    -0.354 N 
ATOM     30  N   UNL A   1      45.470  27.596  28.196  1.00  0.00    -0.248 NA
ATOM     31  C   UNL A   1      44.446  25.767  29.222  1.00  0.00     0.031 C 
ATOM     32  C   UNL A   1      44.754  30.812  31.834  1.00  0.00     0.029 A 
ATOM     33  C   UNL A   1      45.077  29.548  31.335  1.00  0.00     0.049 A 
ATOM     34  H   UNL A   1      45.132  27.828  32.552  1.00  0.00     0.167 HD
ATOM     35  C   UNL A   1      45.426  27.843  29.560  1.00  0.00     0.074 A 
ATOM     36  C   UNL A   1      44.875  26.625  30.150  1.00  0.00     0.031 C 
ATOM     37  C   UNL A   1      45.568  29.109  30.048  1.00  0.00     0.034 A 
BRANCH  24  38
ATOM     38  C   UNL A   1      42.682  27.280  34.295  1.00  0.00     0.023 A 
ATOM     39  C   UNL A   1      42.418  27.547  35.659  1.00  0.00     0.012 A 
ATOM     40  C   UNL A   1      43.309  26.050  33.992  1.00  0.00     0.148 A 
ATOM     41  C   UNL A   1      42.793  26.654  36.669  1.00  0.00     0.002 A 
ATOM     42  C   UNL A   1      43.611  25.133  34.993  1.00  0.00     0.091 A 
ATOM     43  F   UNL A   1      43.734  25.812  32.747  1.00  0.00    -0.205 F 
ATOM     44  C   UNL A   1      43.383  25.442  36.336  1.00  0.00     0.022 A 
BRANCH  42  45
ATOM     45  S   UNL A   1      44.330  23.528  34.622  1.00  0.00     0.127 S 
ATOM     46  O   UNL A   1      43.344  22.969  33.703  1.00  0.00    -0.237 OA
ATOM     47  O   UNL A   1      45.603  23.908  34.008  1.00  0.00    -0.237 OA
ATOM     48  O   UNL A   1      44.466  22.855  35.907  1.00  0.00    -0.744 OA
ENDBRANCH  42  45
ENDBRANCH  24  38
BRANCH  25  49
ATOM     49  C   UNL A   1      43.808  25.163  26.064  1.00  0.00     0.023 A 
ATOM     50  C   UNL A   1      44.921  24.910  25.233  1.00  0.00     0.012 A 
ATOM     51  C   UNL A   1      42.929  24.095  26.343  1.00  0.00     0.148 A 
ATOM     52  C   UNL A   1      45.176  23.623  24.739  1.00  0.00     0.002 A 
ATOM     53  C   UNL A   1      43.189  22.818  25.853  1.00  0.00     0.091 A 
ATOM     54  F   UNL A   1      41.898  24.309  27.169  1.00  0.00    -0.205 F 
ATOM     55  C   UNL A   1      44.319  22.576  25.061  1.00  0.00     0.022 A 
BRANCH  53  56
ATOM     56  S   UNL A   1      42.160  21.405  26.274  1.00  0.00     0.127 S 
ATOM     57  O   UNL A   1      42.745  20.349  25.446  1.00  0.00    -0.237 OA
ATOM     58  O   UNL A   1      42.408  21.270  27.707  1.00  0.00    -0.237 OA
ATOM     59  O   UNL A   1      40.802  21.777  25.900  1.00  0.00    -0.744 OA
ENDBRANCH  53  56
ENDBRANCH  25  49
BRANCH  37  60
ATOM     60  C   UNL A   1      46.016  30.192  29.096  1.00  0.00     0.023 A 
ATOM     61  C   UNL A   1      47.378  30.455  28.836  1.00  0.00     0.012 A 
ATOM     62  C   UNL A   1      45.042  30.837  28.318  1.00  0.00     0.148 A 
ATOM     63  C   UNL A   1      47.757  31.358  27.838  1.00  0.00     0.002 A 
ATOM     64  C   UNL A   1      45.423  31.692  27.291  1.00  0.00     0.091 A 
ATOM     65  F   UNL A   1      43.750  30.578  28.575  1.00  0.00    -0.205 F 
ATOM     66  C   UNL A   1      46.779  31.965  27.055  1.00  0.00     0.022 A 
BRANCH  64  67
ATOM     67  S   UNL A   1      44.217  32.389  26.160  1.00  0.00     0.127 S 
ATOM     68  O   UNL A   1      43.330  31.254  25.922  1.00  0.00    -0.237 OA
ATOM     69  O   UNL A   1      43.629  33.469  26.955  1.00  0.00    -0.237 OA
ATOM     70  O   UNL A   1      44.975  32.852  25.004  1.00  0.00    -0.744 OA
ENDBRANCH  64  67
ENDBRANCH  37  60
ENDBRANCH  11  12
ENDBRANCH   4   6
ENDBRANCH   1   2
BRANCH   1  71
ATOM     71  C   UNL A   1      34.812  35.401  29.176  1.00  0.00     0.042 C 
BRANCH  71  72
ATOM     72  C   UNL A   1      33.330  35.478  29.547  1.00  0.00     0.118 C 
BRANCH  72  73
ATOM     73  N   UNL A   1      33.036  36.624  30.389  1.00  0.00    -0.351 N 
ATOM     74  C   UNL A   1      33.119  36.745  31.755  1.00  0.00     0.271 C 
ATOM     75  H   UNL A   1      32.734  37.430  29.912  1.00  0.00     0.163 HD
ATOM     76  O   UNL A   1      32.646  37.749  32.284  1.00  0.00    -0.267 OA
BRANCH  74  77
ATOM     77  C   UNL A   1      33.820  35.710  32.522  1.00  0.00     0.150 A 
ATOM     78  C   UNL A   1      33.307  34.446  32.913  1.00  0.00     0.056 A 
ATOM     79  N   UNL A   1      35.112  35.839  32.878  1.00  0.00    -0.161 NA
ATOM     80  C   UNL A   1      34.390  33.756  33.398  1.00  0.00     0.118 A 
ATOM     81  N   UNL A   1      35.466  34.609  33.331  1.00  0.00    -0.222 N 
BRANCH  81  82
ATOM     82  C   UNL A   1      36.812  34.279  33.644  1.00  0.00     0.158 A 
ATOM     83  C   UNL A   1      37.180  34.188  34.969  1.00  0.00     0.078 A 
ATOM     84  N   UNL A   1      37.669  34.062  32.620  1.00  0.00    -0.209 NA
ATOM     85  C   UNL A   1      38.484  33.805  35.208  1.00  0.00     0.077 A 
ATOM     86  C   UNL A   1      38.937  33.783  32.958  1.00  0.00     0.165 A 
ATOM     87  N   UNL A   1      39.388  33.647  34.217  1.00  0.00    -0.228 NA
BRANCH  85  88
ATOM     88  C   UNL A   1      38.956  33.489  36.559  1.00  0.00     0.003 A 
ATOM     89  C   UNL A   1      40.252  32.999  36.768  1.00  0.00     0.030 A 
ATOM     90  C   UNL A   1      38.138  33.677  37.675  1.00  0.00     0.030 A 
ATOM     91  C   UNL A   1      40.661  32.710  38.059  1.00  0.00     0.111 A 
ATOM     92  C   UNL A   1      38.634  33.349  38.927  1.00  0.00     0.111 A 
ATOM     93  N   UNL A   1      39.874  32.865  39.144  1.00  0.00    -0.265 NA
ENDBRANCH  85  88
BRANCH  86  94
ATOM     94  C   UNL A   1      39.911  33.734  31.875  1.00  0.00     0.055 A 
ATOM     95  C   UNL A   1      39.850  34.651  30.808  1.00  0.00     0.015 A 
ATOM     96  C   UNL A   1      40.925  32.774  31.852  1.00  0.00     0.134 A 
ATOM     97  C   UNL A   1      40.779  34.604  29.762  1.00  0.00     0.001 A 
ATOM     98  C   UNL A   1      41.848  32.714  30.808  1.00  0.00     0.040 A 
ATOM     99  F   UNL A   1      41.016  31.859  32.830  1.00  0.00    -0.206 F 
ATOM    100  C   UNL A   1      41.777  33.632  29.762  1.00  0.00     0.003 A 
ENDBRANCH  86  94
ENDBRANCH  81  82
ENDBRANCH  74  77
ENDBRANCH  72  73
ENDBRANCH  71  72
ENDBRANCH   1  71
TORSDOF 16
ENDMDL
