MODEL 1
REMARK VINA RESULT:     -12.2      0.000      0.000
REMARK SMILES CC(=O)N1[C@@H](c2c(F)cccc2Cl)SC[C@H]1C(=O)NCCCNC(=O)c1ccc(-c2c3nc(c(-c4cccc(S(=O)(=O)[O-])c4F)c4ccc([nH]4)c(-c4cccc(S(=O)(=O)[O-])c4F)c4nc(c(-c5cccc(S(=O)(=O)[O-])c5F)c5ccc2[nH]5)C=C4)C=C3)cc1
REMARK SMILES IDX 22 1 21 2 20 3 19 4 17 5 18 6 16 8 4 9 5 10 14 11 15 12 2 13
REMARK SMILES IDX 1 14 3 15 6 16 7 17 12 18 8 19 9 20 11 21 13 22 10 23 23 24
REMARK SMILES IDX 24 25 25 27 26 28 27 29 88 30 28 31 87 32 29 33 30 34 31 35
REMARK SMILES IDX 81 36 32 37 86 38 80 39 82 40 33 41 85 42 79 43 78 44 34 46
REMARK SMILES IDX 66 47 46 48 65 49 47 50 50 51 64 52 83 53 48 54 49 55 63 57
REMARK SMILES IDX 84 58 51 59 35 60 36 61 44 62 37 63 39 64 45 65 38 66 40 67
REMARK SMILES IDX 41 68 42 69 43 70 67 71 68 72 76 73 69 74 71 75 77 76 70 77
REMARK SMILES IDX 72 78 73 79 74 80 75 81 52 82 53 83 61 84 54 85 56 86 62 87
REMARK SMILES IDX 55 88 57 89 58 90 59 91 60 92
REMARK H PARENT 19 7 23 26 82 45 50 56
REMARK Flexibility Score: inf
ROOT
ATOM      1  C   UNL A   1      32.902  28.994  24.826  1.00  0.00     0.118 C 
ENDROOT
BRANCH   1   2
ATOM      2  C   UNL A   1      32.637  28.955  23.330  1.00  0.00     0.042 C 
BRANCH   2   3
ATOM      3  C   UNL A   1      32.409  27.564  22.777  1.00  0.00     0.117 C 
BRANCH   3   4
ATOM      4  N   UNL A   1      33.559  26.699  22.672  1.00  0.00    -0.354 N 
ATOM      5  C   UNL A   1      33.649  25.376  23.007  1.00  0.00     0.243 C 
ATOM      6  O   UNL A   1      34.530  24.721  22.432  1.00  0.00    -0.273 OA
ATOM      7  H   UNL A   1      34.379  27.111  22.314  1.00  0.00     0.163 HD
BRANCH   5   8
ATOM      8  C   UNL A   1      32.744  24.674  24.058  1.00  0.00     0.185 C 
ATOM      9  N   UNL A   1      32.642  23.212  24.169  1.00  0.00    -0.314 N 
ATOM     10  C   UNL A   1      33.186  22.635  25.410  1.00  0.00     0.179 C 
ATOM     11  S   UNL A   1      32.799  23.914  26.652  1.00  0.00    -0.129 SA
ATOM     12  C   UNL A   1      32.922  25.284  25.453  1.00  0.00     0.107 C 
BRANCH   9  13
ATOM     13  C   UNL A   1      31.758  22.626  23.277  1.00  0.00     0.221 C 
ATOM     14  C   UNL A   1      32.153  21.349  22.590  1.00  0.00     0.114 C 
ATOM     15  O   UNL A   1      30.616  23.068  23.126  1.00  0.00    -0.275 OA
ENDBRANCH   9  13
BRANCH  10  16
ATOM     16  C   UNL A   1      34.665  22.226  25.331  1.00  0.00     0.039 A 
ATOM     17  C   UNL A   1      35.731  23.146  25.420  1.00  0.00     0.130 A 
ATOM     18  C   UNL A   1      35.058  20.895  25.056  1.00  0.00     0.050 A 
ATOM     19  F   UNL A   1      35.513  24.446  25.648  1.00  0.00    -0.207 F 
ATOM     20  C   UNL A   1      37.070  22.797  25.203  1.00  0.00     0.040 A 
ATOM     21  C   UNL A   1      36.399  20.545  24.806  1.00  0.00     0.021 A 
ATOM     22  Cl  UNL A   1      33.946  19.580  25.001  1.00  0.00    -0.084 Cl
ATOM     23  C   UNL A   1      37.405  21.497  24.868  1.00  0.00     0.005 A 
ENDBRANCH  10  16
ENDBRANCH   5   8
ENDBRANCH   3   4
ENDBRANCH   2   3
ENDBRANCH   1   2
BRANCH   1  24
ATOM     24  N   UNL A   1      32.399  30.196  25.489  1.00  0.00    -0.352 N 
ATOM     25  C   UNL A   1      32.804  30.956  26.561  1.00  0.00     0.251 C 
ATOM     26  H   UNL A   1      31.578  30.543  25.070  1.00  0.00     0.163 HD
ATOM     27  O   UNL A   1      32.045  31.850  26.938  1.00  0.00    -0.269 OA
BRANCH  25  28
ATOM     28  C   UNL A   1      34.074  30.730  27.300  1.00  0.00     0.039 A 
ATOM     29  C   UNL A   1      34.871  31.840  27.626  1.00  0.00     0.014 A 
ATOM     30  C   UNL A   1      34.543  29.464  27.632  1.00  0.00     0.014 A 
ATOM     31  C   UNL A   1      36.076  31.676  28.325  1.00  0.00     0.010 A 
ATOM     32  C   UNL A   1      35.660  29.312  28.447  1.00  0.00     0.010 A 
ATOM     33  C   UNL A   1      36.463  30.408  28.781  1.00  0.00    -0.014 A 
BRANCH  33  34
ATOM     34  C   UNL A   1      37.710  30.177  29.564  1.00  0.00     0.031 A 
ATOM     35  C   UNL A   1      38.790  29.270  29.018  1.00  0.00     0.074 A 
ATOM     36  C   UNL A   1      37.825  30.676  30.812  1.00  0.00     0.049 A 
ATOM     37  N   UNL A   1      39.869  28.819  29.606  1.00  0.00    -0.248 NA
ATOM     38  C   UNL A   1      38.606  28.760  27.648  1.00  0.00     0.031 C 
ATOM     39  C   UNL A   1      36.818  31.487  31.500  1.00  0.00     0.029 A 
ATOM     40  N   UNL A   1      38.829  30.543  31.739  1.00  0.00    -0.354 N 
ATOM     41  C   UNL A   1      40.446  27.925  28.710  1.00  0.00     0.074 A 
ATOM     42  C   UNL A   1      39.577  27.864  27.558  1.00  0.00     0.031 C 
ATOM     43  C   UNL A   1      37.259  31.788  32.731  1.00  0.00     0.029 A 
ATOM     44  C   UNL A   1      38.560  31.163  32.938  1.00  0.00     0.049 A 
ATOM     45  H   UNL A   1      39.662  30.049  31.563  1.00  0.00     0.167 HD
ATOM     46  C   UNL A   1      41.613  27.244  28.815  1.00  0.00     0.034 A 
ATOM     47  C   UNL A   1      39.277  31.218  34.077  1.00  0.00     0.034 A 
ATOM     48  C   UNL A   1      42.522  27.379  29.920  1.00  0.00     0.049 A 
ATOM     49  C   UNL A   1      40.617  30.534  34.130  1.00  0.00     0.074 A 
ATOM     50  C   UNL A   1      43.784  26.831  30.070  1.00  0.00     0.029 A 
ATOM     51  N   UNL A   1      42.271  28.123  31.062  1.00  0.00    -0.354 N 
ATOM     52  N   UNL A   1      41.215  29.818  33.210  1.00  0.00    -0.248 NA
ATOM     53  C   UNL A   1      41.397  30.700  35.365  1.00  0.00     0.031 C 
ATOM     54  C   UNL A   1      44.290  27.233  31.311  1.00  0.00     0.029 A 
ATOM     55  C   UNL A   1      43.352  28.051  31.922  1.00  0.00     0.049 A 
ATOM     56  H   UNL A   1      41.444  28.629  31.235  1.00  0.00     0.167 HD
ATOM     57  C   UNL A   1      42.454  29.476  33.739  1.00  0.00     0.074 A 
ATOM     58  C   UNL A   1      42.531  30.090  35.050  1.00  0.00     0.031 C 
ATOM     59  C   UNL A   1      43.434  28.709  33.200  1.00  0.00     0.034 A 
BRANCH  46  60
ATOM     60  C   UNL A   1      42.009  26.346  27.667  1.00  0.00     0.023 A 
ATOM     61  C   UNL A   1      42.740  26.877  26.584  1.00  0.00     0.012 A 
ATOM     62  C   UNL A   1      41.703  24.970  27.681  1.00  0.00     0.148 A 
ATOM     63  C   UNL A   1      43.119  26.069  25.514  1.00  0.00     0.002 A 
ATOM     64  C   UNL A   1      42.128  24.160  26.634  1.00  0.00     0.091 A 
ATOM     65  F   UNL A   1      40.992  24.482  28.707  1.00  0.00    -0.205 F 
ATOM     66  C   UNL A   1      42.823  24.710  25.544  1.00  0.00     0.022 A 
BRANCH  64  67
ATOM     67  S   UNL A   1      41.876  22.381  26.614  1.00  0.00     0.127 S 
ATOM     68  O   UNL A   1      40.419  22.290  26.593  1.00  0.00    -0.237 OA
ATOM     69  O   UNL A   1      42.532  21.990  25.368  1.00  0.00    -0.237 OA
ATOM     70  O   UNL A   1      42.517  21.873  27.823  1.00  0.00    -0.744 OA
ENDBRANCH  64  67
ENDBRANCH  46  60
BRANCH  47  71
ATOM     71  C   UNL A   1      38.780  32.018  35.233  1.00  0.00     0.023 A 
ATOM     72  C   UNL A   1      38.790  33.424  35.151  1.00  0.00     0.012 A 
ATOM     73  C   UNL A   1      38.270  31.402  36.393  1.00  0.00     0.148 A 
ATOM     74  C   UNL A   1      38.336  34.204  36.215  1.00  0.00     0.002 A 
ATOM     75  C   UNL A   1      37.765  32.184  37.426  1.00  0.00     0.091 A 
ATOM     76  F   UNL A   1      38.276  30.063  36.456  1.00  0.00    -0.205 F 
ATOM     77  C   UNL A   1      37.814  33.585  37.347  1.00  0.00     0.022 A 
BRANCH  75  78
ATOM     78  S   UNL A   1      36.948  31.478  38.861  1.00  0.00     0.127 S 
ATOM     79  O   UNL A   1      37.954  31.662  39.900  1.00  0.00    -0.237 OA
ATOM     80  O   UNL A   1      35.766  32.328  38.986  1.00  0.00    -0.237 OA
ATOM     81  O   UNL A   1      36.653  30.093  38.500  1.00  0.00    -0.744 OA
ENDBRANCH  75  78
ENDBRANCH  47  71
BRANCH  59  82
ATOM     82  C   UNL A   1      44.689  28.515  34.009  1.00  0.00     0.023 A 
ATOM     83  C   UNL A   1      45.758  29.423  33.875  1.00  0.00     0.012 A 
ATOM     84  C   UNL A   1      44.787  27.465  34.944  1.00  0.00     0.148 A 
ATOM     85  C   UNL A   1      46.920  29.266  34.629  1.00  0.00     0.002 A 
ATOM     86  C   UNL A   1      45.929  27.345  35.727  1.00  0.00     0.091 A 
ATOM     87  F   UNL A   1      43.768  26.599  35.044  1.00  0.00    -0.205 F 
ATOM     88  C   UNL A   1      47.001  28.235  35.561  1.00  0.00     0.022 A 
BRANCH  86  89
ATOM     89  S   UNL A   1      46.075  26.106  37.020  1.00  0.00     0.127 S 
ATOM     90  O   UNL A   1      44.921  26.415  37.861  1.00  0.00    -0.237 OA
ATOM     91  O   UNL A   1      45.963  24.855  36.267  1.00  0.00    -0.237 OA
ATOM     92  O   UNL A   1      47.378  26.323  37.634  1.00  0.00    -0.744 OA
ENDBRANCH  86  89
ENDBRANCH  59  82
ENDBRANCH  33  34
ENDBRANCH  25  28
ENDBRANCH   1  24
TORSDOF 15
ENDMDL
MODEL 2
REMARK VINA RESULT:     -12.0      2.234      2.964
REMARK SMILES CC(=O)N1[C@@H](c2c(F)cccc2Cl)SC[C@H]1C(=O)NCCCNC(=O)c1ccc(-c2c3nc(c(-c4cccc(S(=O)(=O)[O-])c4F)c4ccc([nH]4)c(-c4cccc(S(=O)(=O)[O-])c4F)c4nc(c(-c5cccc(S(=O)(=O)[O-])c5F)c5ccc2[nH]5)C=C4)C=C3)cc1
REMARK SMILES IDX 22 1 21 2 20 3 19 4 17 5 18 6 16 8 4 9 5 10 14 11 15 12 2 13
REMARK SMILES IDX 1 14 3 15 6 16 7 17 12 18 8 19 9 20 11 21 13 22 10 23 23 24
REMARK SMILES IDX 24 25 25 27 26 28 27 29 88 30 28 31 87 32 29 33 30 34 31 35
REMARK SMILES IDX 81 36 32 37 86 38 80 39 82 40 33 41 85 42 79 43 78 44 34 46
REMARK SMILES IDX 66 47 46 48 65 49 47 50 50 51 64 52 83 53 48 54 49 55 63 57
REMARK SMILES IDX 84 58 51 59 35 60 36 61 44 62 37 63 39 64 45 65 38 66 40 67
REMARK SMILES IDX 41 68 42 69 43 70 67 71 68 72 76 73 69 74 71 75 77 76 70 77
REMARK SMILES IDX 72 78 73 79 74 80 75 81 52 82 53 83 61 84 54 85 56 86 62 87
REMARK SMILES IDX 55 88 57 89 58 90 59 91 60 92
REMARK H PARENT 19 7 23 26 82 45 50 56
REMARK Flexibility Score: inf
ROOT
ATOM      1  C   UNL A   1      32.297  32.195  26.886  1.00  0.00     0.118 C 
ENDROOT
BRANCH   1   2
ATOM      2  C   UNL A   1      31.029  31.854  26.121  1.00  0.00     0.042 C 
BRANCH   2   3
ATOM      3  C   UNL A   1      31.122  30.588  25.297  1.00  0.00     0.117 C 
BRANCH   3   4
ATOM      4  N   UNL A   1      32.325  29.803  25.426  1.00  0.00    -0.354 N 
ATOM      5  C   UNL A   1      32.564  28.546  24.943  1.00  0.00     0.243 C 
ATOM      6  O   UNL A   1      33.752  28.246  24.753  1.00  0.00    -0.273 OA
ATOM      7  H   UNL A   1      33.065  30.223  25.922  1.00  0.00     0.163 HD
BRANCH   5   8
ATOM      8  C   UNL A   1      31.459  27.494  24.646  1.00  0.00     0.185 C 
ATOM      9  N   UNL A   1      31.605  26.455  23.618  1.00  0.00    -0.314 N 
ATOM     10  C   UNL A   1      31.682  25.074  24.123  1.00  0.00     0.179 C 
ATOM     11  S   UNL A   1      30.573  25.113  25.571  1.00  0.00    -0.129 SA
ATOM     12  C   UNL A   1      30.917  26.868  25.936  1.00  0.00     0.107 C 
BRANCH   9  13
ATOM     13  C   UNL A   1      31.306  26.872  22.330  1.00  0.00     0.221 C 
ATOM     14  C   UNL A   1      31.893  26.125  21.166  1.00  0.00     0.114 C 
ATOM     15  O   UNL A   1      30.481  27.766  22.123  1.00  0.00    -0.275 OA
ENDBRANCH   9  13
BRANCH  10  16
ATOM     16  C   UNL A   1      33.108  24.575  24.405  1.00  0.00     0.039 A 
ATOM     17  C   UNL A   1      33.850  24.946  25.547  1.00  0.00     0.130 A 
ATOM     18  C   UNL A   1      33.819  23.782  23.474  1.00  0.00     0.050 A 
ATOM     19  F   UNL A   1      33.321  25.718  26.502  1.00  0.00    -0.207 F 
ATOM     20  C   UNL A   1      35.197  24.611  25.732  1.00  0.00     0.040 A 
ATOM     21  C   UNL A   1      35.182  23.468  23.641  1.00  0.00     0.021 A 
ATOM     22  Cl  UNL A   1      33.095  23.124  22.055  1.00  0.00    -0.084 Cl
ATOM     23  C   UNL A   1      35.875  23.892  24.764  1.00  0.00     0.005 A 
ENDBRANCH  10  16
ENDBRANCH   5   8
ENDBRANCH   3   4
ENDBRANCH   2   3
ENDBRANCH   1   2
BRANCH   1  24
ATOM     24  N   UNL A   1      32.343  33.569  27.382  1.00  0.00    -0.352 N 
ATOM     25  C   UNL A   1      33.116  34.246  28.296  1.00  0.00     0.251 C 
ATOM     26  H   UNL A   1      31.660  34.144  26.966  1.00  0.00     0.163 HD
ATOM     27  O   UNL A   1      32.780  35.398  28.576  1.00  0.00    -0.269 OA
BRANCH  25  28
ATOM     28  C   UNL A   1      34.294  33.653  28.982  1.00  0.00     0.039 A 
ATOM     29  C   UNL A   1      35.560  34.216  28.755  1.00  0.00     0.014 A 
ATOM     30  C   UNL A   1      34.211  32.527  29.793  1.00  0.00     0.014 A 
ATOM     31  C   UNL A   1      36.700  33.692  29.383  1.00  0.00     0.010 A 
ATOM     32  C   UNL A   1      35.313  32.096  30.525  1.00  0.00     0.010 A 
ATOM     33  C   UNL A   1      36.581  32.648  30.310  1.00  0.00    -0.014 A 
BRANCH  33  34
ATOM     34  C   UNL A   1      37.748  32.078  31.039  1.00  0.00     0.031 A 
ATOM     35  C   UNL A   1      38.552  30.954  30.422  1.00  0.00     0.074 A 
ATOM     36  C   UNL A   1      38.017  32.476  32.300  1.00  0.00     0.049 A 
ATOM     37  N   UNL A   1      39.497  30.222  30.955  1.00  0.00    -0.248 NA
ATOM     38  C   UNL A   1      38.211  30.568  29.042  1.00  0.00     0.031 C 
ATOM     39  C   UNL A   1      37.264  33.482  33.052  1.00  0.00     0.029 A 
ATOM     40  N   UNL A   1      38.979  32.054  33.185  1.00  0.00    -0.354 N 
ATOM     41  C   UNL A   1      39.807  29.252  30.006  1.00  0.00     0.074 A 
ATOM     42  C   UNL A   1      38.922  29.462  28.884  1.00  0.00     0.031 C 
ATOM     43  C   UNL A   1      37.798  33.608  34.278  1.00  0.00     0.029 A 
ATOM     44  C   UNL A   1      38.906  32.669  34.415  1.00  0.00     0.049 A 
ATOM     45  H   UNL A   1      39.656  31.377  32.962  1.00  0.00     0.167 HD
ATOM     46  C   UNL A   1      40.768  28.297  30.044  1.00  0.00     0.034 A 
ATOM     47  C   UNL A   1      39.642  32.492  35.529  1.00  0.00     0.034 A 
ATOM     48  C   UNL A   1      41.709  28.151  31.120  1.00  0.00     0.049 A 
ATOM     49  C   UNL A   1      40.767  31.492  35.509  1.00  0.00     0.074 A 
ATOM     50  C   UNL A   1      42.796  27.298  31.205  1.00  0.00     0.029 A 
ATOM     51  N   UNL A   1      41.683  28.882  32.297  1.00  0.00    -0.354 N 
ATOM     52  N   UNL A   1      41.143  30.691  34.542  1.00  0.00    -0.248 NA
ATOM     53  C   UNL A   1      41.595  31.402  36.720  1.00  0.00     0.031 C 
ATOM     54  C   UNL A   1      43.419  27.505  32.440  1.00  0.00     0.029 A 
ATOM     55  C   UNL A   1      42.733  28.504  33.114  1.00  0.00     0.049 A 
ATOM     56  H   UNL A   1      41.015  29.571  32.518  1.00  0.00     0.167 HD
ATOM     57  C   UNL A   1      42.269  30.026  35.014  1.00  0.00     0.074 A 
ATOM     58  C   UNL A   1      42.530  30.542  36.342  1.00  0.00     0.031 C 
ATOM     59  C   UNL A   1      43.010  29.063  34.412  1.00  0.00     0.034 A 
BRANCH  46  60
ATOM     60  C   UNL A   1      40.896  27.381  28.851  1.00  0.00     0.023 A 
ATOM     61  C   UNL A   1      40.035  26.270  28.729  1.00  0.00     0.012 A 
ATOM     62  C   UNL A   1      41.830  27.642  27.828  1.00  0.00     0.148 A 
ATOM     63  C   UNL A   1      40.131  25.410  27.636  1.00  0.00     0.002 A 
ATOM     64  C   UNL A   1      41.885  26.809  26.717  1.00  0.00     0.091 A 
ATOM     65  F   UNL A   1      42.654  28.691  27.966  1.00  0.00    -0.205 F 
ATOM     66  C   UNL A   1      41.047  25.685  26.626  1.00  0.00     0.022 A 
BRANCH  64  67
ATOM     67  S   UNL A   1      42.969  27.121  25.318  1.00  0.00     0.127 S 
ATOM     68  O   UNL A   1      42.937  25.835  24.627  1.00  0.00    -0.237 OA
ATOM     69  O   UNL A   1      42.276  28.206  24.626  1.00  0.00    -0.237 OA
ATOM     70  O   UNL A   1      44.261  27.493  25.888  1.00  0.00    -0.744 OA
ENDBRANCH  64  67
ENDBRANCH  46  60
BRANCH  47  71
ATOM     71  C   UNL A   1      39.392  33.338  36.730  1.00  0.00     0.023 A 
ATOM     72  C   UNL A   1      39.832  34.676  36.732  1.00  0.00     0.012 A 
ATOM     73  C   UNL A   1      38.697  32.843  37.851  1.00  0.00     0.148 A 
ATOM     74  C   UNL A   1      39.618  35.496  37.841  1.00  0.00     0.002 A 
ATOM     75  C   UNL A   1      38.436  33.682  38.929  1.00  0.00     0.091 A 
ATOM     76  F   UNL A   1      38.293  31.565  37.835  1.00  0.00    -0.205 F 
ATOM     77  C   UNL A   1      38.912  35.003  38.934  1.00  0.00     0.022 A 
BRANCH  75  78
ATOM     78  S   UNL A   1      37.417  33.179  40.320  1.00  0.00     0.127 S 
ATOM     79  O   UNL A   1      38.196  32.084  40.883  1.00  0.00    -0.237 OA
ATOM     80  O   UNL A   1      37.385  34.397  41.128  1.00  0.00    -0.237 OA
ATOM     81  O   UNL A   1      36.126  32.811  39.744  1.00  0.00    -0.744 OA
ENDBRANCH  75  78
ENDBRANCH  47  71
BRANCH  59  82
ATOM     82  C   UNL A   1      44.196  28.525  35.168  1.00  0.00     0.023 A 
ATOM     83  C   UNL A   1      45.474  29.075  34.951  1.00  0.00     0.012 A 
ATOM     84  C   UNL A   1      44.033  27.514  36.136  1.00  0.00     0.148 A 
ATOM     85  C   UNL A   1      46.580  28.598  35.654  1.00  0.00     0.002 A 
ATOM     86  C   UNL A   1      45.131  27.079  36.868  1.00  0.00     0.091 A 
ATOM     87  F   UNL A   1      42.813  26.989  36.316  1.00  0.00    -0.205 F 
ATOM     88  C   UNL A   1      46.407  27.610  36.619  1.00  0.00     0.022 A 
BRANCH  86  89
ATOM     89  S   UNL A   1      44.979  25.880  38.198  1.00  0.00     0.127 S 
ATOM     90  O   UNL A   1      43.983  26.514  39.058  1.00  0.00    -0.237 OA
ATOM     91  O   UNL A   1      44.506  24.688  37.491  1.00  0.00    -0.237 OA
ATOM     92  O   UNL A   1      46.312  25.749  38.770  1.00  0.00    -0.744 OA
ENDBRANCH  86  89
ENDBRANCH  59  82
ENDBRANCH  33  34
ENDBRANCH  25  28
ENDBRANCH   1  24
TORSDOF 15
ENDMDL
MODEL 3
REMARK VINA RESULT:     -12.0      1.377      1.668
REMARK SMILES CC(=O)N1[C@@H](c2c(F)cccc2Cl)SC[C@H]1C(=O)NCCCNC(=O)c1ccc(-c2c3nc(c(-c4cccc(S(=O)(=O)[O-])c4F)c4ccc([nH]4)c(-c4cccc(S(=O)(=O)[O-])c4F)c4nc(c(-c5cccc(S(=O)(=O)[O-])c5F)c5ccc2[nH]5)C=C4)C=C3)cc1
REMARK SMILES IDX 22 1 21 2 20 3 19 4 17 5 18 6 16 8 4 9 5 10 14 11 15 12 2 13
REMARK SMILES IDX 1 14 3 15 6 16 7 17 12 18 8 19 9 20 11 21 13 22 10 23 23 24
REMARK SMILES IDX 24 25 25 27 26 28 27 29 88 30 28 31 87 32 29 33 30 34 31 35
REMARK SMILES IDX 81 36 32 37 86 38 80 39 82 40 33 41 85 42 79 43 78 44 34 46
REMARK SMILES IDX 66 47 46 48 65 49 47 50 50 51 64 52 83 53 48 54 49 55 63 57
REMARK SMILES IDX 84 58 51 59 35 60 36 61 44 62 37 63 39 64 45 65 38 66 40 67
REMARK SMILES IDX 41 68 42 69 43 70 67 71 68 72 76 73 69 74 71 75 77 76 70 77
REMARK SMILES IDX 72 78 73 79 74 80 75 81 52 82 53 83 61 84 54 85 56 86 62 87
REMARK SMILES IDX 55 88 57 89 58 90 59 91 60 92
REMARK H PARENT 19 7 23 26 82 45 50 56
REMARK Flexibility Score: inf
ROOT
ATOM      1  C   UNL A   1      32.998  29.178  25.134  1.00  0.00     0.118 C 
ENDROOT
BRANCH   1   2
ATOM      2  C   UNL A   1      31.853  28.284  24.689  1.00  0.00     0.042 C 
BRANCH   2   3
ATOM      3  C   UNL A   1      32.129  27.508  23.418  1.00  0.00     0.117 C 
BRANCH   3   4
ATOM      4  N   UNL A   1      33.365  26.768  23.352  1.00  0.00    -0.354 N 
ATOM      5  C   UNL A   1      33.557  25.433  23.575  1.00  0.00     0.243 C 
ATOM      6  O   UNL A   1      34.549  24.922  23.035  1.00  0.00    -0.273 OA
ATOM      7  H   UNL A   1      34.168  27.287  23.116  1.00  0.00     0.163 HD
BRANCH   5   8
ATOM      8  C   UNL A   1      32.638  24.550  24.464  1.00  0.00     0.185 C 
ATOM      9  N   UNL A   1      32.584  23.086  24.345  1.00  0.00    -0.314 N 
ATOM     10  C   UNL A   1      33.098  22.339  25.505  1.00  0.00     0.179 C 
ATOM     11  S   UNL A   1      32.616  23.398  26.910  1.00  0.00    -0.129 SA
ATOM     12  C   UNL A   1      32.737  24.941  25.943  1.00  0.00     0.107 C 
BRANCH   9  13
ATOM     13  C   UNL A   1      31.758  22.619  23.334  1.00  0.00     0.221 C 
ATOM     14  C   UNL A   1      32.149  21.377  22.585  1.00  0.00     0.114 C 
ATOM     15  O   UNL A   1      30.659  23.137  23.118  1.00  0.00    -0.275 OA
ENDBRANCH   9  13
BRANCH  10  16
ATOM     16  C   UNL A   1      34.593  21.992  25.430  1.00  0.00     0.039 A 
ATOM     17  C   UNL A   1      35.620  22.924  25.684  1.00  0.00     0.130 A 
ATOM     18  C   UNL A   1      35.043  20.723  24.996  1.00  0.00     0.050 A 
ATOM     19  F   UNL A   1      35.348  24.174  26.075  1.00  0.00    -0.207 F 
ATOM     20  C   UNL A   1      36.978  22.649  25.475  1.00  0.00     0.040 A 
ATOM     21  C   UNL A   1      36.404  20.451  24.755  1.00  0.00     0.021 A 
ATOM     22  Cl  UNL A   1      33.982  19.393  24.722  1.00  0.00    -0.084 Cl
ATOM     23  C   UNL A   1      37.372  21.418  24.983  1.00  0.00     0.005 A 
ENDBRANCH  10  16
ENDBRANCH   5   8
ENDBRANCH   3   4
ENDBRANCH   2   3
ENDBRANCH   1   2
BRANCH   1  24
ATOM     24  N   UNL A   1      32.570  30.413  25.789  1.00  0.00    -0.352 N 
ATOM     25  C   UNL A   1      33.040  31.170  26.836  1.00  0.00     0.251 C 
ATOM     26  H   UNL A   1      31.754  30.790  25.386  1.00  0.00     0.163 HD
ATOM     27  O   UNL A   1      32.334  32.105  27.218  1.00  0.00    -0.269 OA
BRANCH  25  28
ATOM     28  C   UNL A   1      34.318  30.898  27.544  1.00  0.00     0.039 A 
ATOM     29  C   UNL A   1      35.234  31.949  27.710  1.00  0.00     0.014 A 
ATOM     30  C   UNL A   1      34.678  29.634  27.998  1.00  0.00     0.014 A 
ATOM     31  C   UNL A   1      36.452  31.740  28.375  1.00  0.00     0.010 A 
ATOM     32  C   UNL A   1      35.816  29.458  28.780  1.00  0.00     0.010 A 
ATOM     33  C   UNL A   1      36.737  30.496  28.955  1.00  0.00    -0.014 A 
BRANCH  33  34
ATOM     34  C   UNL A   1      37.994  30.226  29.708  1.00  0.00     0.031 A 
ATOM     35  C   UNL A   1      39.031  29.283  29.138  1.00  0.00     0.074 A 
ATOM     36  C   UNL A   1      38.156  30.723  30.951  1.00  0.00     0.049 A 
ATOM     37  N   UNL A   1      40.108  28.797  29.702  1.00  0.00    -0.248 NA
ATOM     38  C   UNL A   1      38.797  28.776  27.775  1.00  0.00     0.031 C 
ATOM     39  C   UNL A   1      37.193  31.567  31.661  1.00  0.00     0.029 A 
ATOM     40  N   UNL A   1      39.178  30.558  31.854  1.00  0.00    -0.354 N 
ATOM     41  C   UNL A   1      40.634  27.883  28.794  1.00  0.00     0.074 A 
ATOM     42  C   UNL A   1      39.736  27.849  27.663  1.00  0.00     0.031 C 
ATOM     43  C   UNL A   1      37.674  31.856  32.881  1.00  0.00     0.029 A 
ATOM     44  C   UNL A   1      38.959  31.189  33.058  1.00  0.00     0.049 A 
ATOM     45  H   UNL A   1      39.989  30.037  31.660  1.00  0.00     0.167 HD
ATOM     46  C   UNL A   1      41.780  27.165  28.872  1.00  0.00     0.034 A 
ATOM     47  C   UNL A   1      39.704  31.222  34.179  1.00  0.00     0.034 A 
ATOM     48  C   UNL A   1      42.719  27.271  29.955  1.00  0.00     0.049 A 
ATOM     49  C   UNL A   1      41.021  30.494  34.202  1.00  0.00     0.074 A 
ATOM     50  C   UNL A   1      43.966  26.682  30.075  1.00  0.00     0.029 A 
ATOM     51  N   UNL A   1      42.520  28.025  31.100  1.00  0.00    -0.354 N 
ATOM     52  N   UNL A   1      41.574  29.758  33.269  1.00  0.00    -0.248 NA
ATOM     53  C   UNL A   1      41.836  30.637  35.417  1.00  0.00     0.031 C 
ATOM     54  C   UNL A   1      44.515  27.070  31.302  1.00  0.00     0.029 A 
ATOM     55  C   UNL A   1      43.619  27.919  31.934  1.00  0.00     0.049 A 
ATOM     56  H   UNL A   1      41.716  28.558  31.292  1.00  0.00     0.167 HD
ATOM     57  C   UNL A   1      42.813  29.376  33.769  1.00  0.00     0.074 A 
ATOM     58  C   UNL A   1      42.942  29.989  35.076  1.00  0.00     0.031 C 
ATOM     59  C   UNL A   1      43.754  28.576  33.208  1.00  0.00     0.034 A 
BRANCH  46  60
ATOM     60  C   UNL A   1      42.118  26.252  27.718  1.00  0.00     0.023 A 
ATOM     61  C   UNL A   1      42.875  26.746  26.635  1.00  0.00     0.012 A 
ATOM     62  C   UNL A   1      41.731  24.897  27.724  1.00  0.00     0.148 A 
ATOM     63  C   UNL A   1      43.202  25.924  25.558  1.00  0.00     0.002 A 
ATOM     64  C   UNL A   1      42.105  24.069  26.670  1.00  0.00     0.091 A 
ATOM     65  F   UNL A   1      40.997  24.445  28.750  1.00  0.00    -0.205 F 
ATOM     66  C   UNL A   1      42.827  24.584  25.581  1.00  0.00     0.022 A 
BRANCH  64  67
ATOM     67  S   UNL A   1      41.747  22.308  26.641  1.00  0.00     0.127 S 
ATOM     68  O   UNL A   1      42.370  21.902  25.384  1.00  0.00    -0.237 OA
ATOM     69  O   UNL A   1      42.429  21.835  27.844  1.00  0.00    -0.237 OA
ATOM     70  O   UNL A   1      40.292  22.195  26.683  1.00  0.00    -0.744 OA
ENDBRANCH  64  67
ENDBRANCH  46  60
BRANCH  47  71
ATOM     71  C   UNL A   1      39.262  32.040  35.345  1.00  0.00     0.023 A 
ATOM     72  C   UNL A   1      38.391  31.469  36.294  1.00  0.00     0.012 A 
ATOM     73  C   UNL A   1      39.719  33.357  35.540  1.00  0.00     0.148 A 
ATOM     74  C   UNL A   1      37.954  32.205  37.396  1.00  0.00     0.002 A 
ATOM     75  C   UNL A   1      39.326  34.066  36.670  1.00  0.00     0.091 A 
ATOM     76  F   UNL A   1      40.541  33.887  34.623  1.00  0.00    -0.205 F 
ATOM     77  C   UNL A   1      38.429  33.498  37.590  1.00  0.00     0.022 A 
BRANCH  75  78
ATOM     78  S   UNL A   1      39.992  35.683  37.076  1.00  0.00     0.127 S 
ATOM     79  O   UNL A   1      41.410  35.390  37.246  1.00  0.00    -0.237 OA
ATOM     80  O   UNL A   1      39.658  36.458  35.883  1.00  0.00    -0.237 OA
ATOM     81  O   UNL A   1      39.282  36.107  38.281  1.00  0.00    -0.744 OA
ENDBRANCH  75  78
ENDBRANCH  47  71
BRANCH  59  82
ATOM     82  C   UNL A   1      45.021  28.342  33.987  1.00  0.00     0.023 A 
ATOM     83  C   UNL A   1      46.107  29.227  33.842  1.00  0.00     0.012 A 
ATOM     84  C   UNL A   1      45.115  27.278  34.906  1.00  0.00     0.148 A 
ATOM     85  C   UNL A   1      47.282  29.034  34.568  1.00  0.00     0.002 A 
ATOM     86  C   UNL A   1      46.270  27.120  35.662  1.00  0.00     0.091 A 
ATOM     87  F   UNL A   1      44.079  26.434  35.016  1.00  0.00    -0.205 F 
ATOM     88  C   UNL A   1      47.359  27.988  35.485  1.00  0.00     0.022 A 
BRANCH  86  89
ATOM     89  S   UNL A   1      46.415  25.860  36.935  1.00  0.00     0.127 S 
ATOM     90  O   UNL A   1      46.345  24.632  36.146  1.00  0.00    -0.237 OA
ATOM     91  O   UNL A   1      47.733  26.144  37.506  1.00  0.00    -0.237 OA
ATOM     92  O   UNL A   1      45.302  26.087  37.847  1.00  0.00    -0.744 OA
ENDBRANCH  86  89
ENDBRANCH  59  82
ENDBRANCH  33  34
ENDBRANCH  25  28
ENDBRANCH   1  24
TORSDOF 15
ENDMDL
