MODEL 1
REMARK VINA RESULT:     -11.8      0.000      0.000
REMARK SMILES Cc1nc(C[N@@H+]2CCC[C@H]2C(=O)NCCCNC(=O)c2ccc(-c3c4nc(c(-c5cccc(S(=O)(=O)[O-])c5F)c5ccc([nH]5)c(-c5cccc(S(=O)(=O)[O-])c5F)c5nc(c(-c6cccc(S(=O)(=O)[O-])c6F)c6ccc3[nH]6)C=C5)C=C4)cc2)cs1
REMARK SMILES IDX 15 1 14 2 13 3 11 4 12 5 10 7 6 8 7 9 8 11 9 12 5 13 4 14
REMARK SMILES IDX 1 15 2 16 3 17 84 18 83 19 16 20 17 21 18 22 19 24 20 25
REMARK SMILES IDX 21 26 82 27 22 28 81 29 23 30 24 31 25 32 75 33 26 34 80 35
REMARK SMILES IDX 74 36 76 37 27 38 79 39 73 40 72 41 28 43 60 44 40 45 59 46
REMARK SMILES IDX 41 47 44 48 58 49 77 50 42 51 43 52 57 54 78 55 45 56 29 57
REMARK SMILES IDX 30 58 38 59 31 60 33 61 39 62 32 63 34 64 35 65 36 66 37 67
REMARK SMILES IDX 61 68 62 69 70 70 63 71 65 72 71 73 64 74 66 75 67 76 68 77
REMARK SMILES IDX 69 78 46 79 47 80 55 81 48 82 50 83 56 84 49 85 51 86 52 87
REMARK SMILES IDX 53 88 54 89
REMARK H PARENT 13 6 6 10 17 23 76 42 44 53
REMARK Flexibility Score: inf
ROOT
ATOM      1  C   UNL A   1      31.708  31.580  26.574  1.00  0.00     0.042 C 
ENDROOT
BRANCH   1   2
ATOM      2  C   UNL A   1      32.130  30.332  25.811  1.00  0.00     0.118 C 
BRANCH   2   3
ATOM      3  N   UNL A   1      31.941  29.121  26.590  1.00  0.00    -0.351 N 
ATOM      4  C   UNL A   1      31.466  27.881  26.302  1.00  0.00     0.278 C 
ATOM      5  O   UNL A   1      31.429  27.099  27.264  1.00  0.00    -0.268 OA
ATOM      6  H   UNL A   1      32.217  29.218  27.530  1.00  0.00     0.163 HD
BRANCH   4   7
ATOM      7  C   UNL A   1      30.961  27.407  24.916  1.00  0.00     0.274 C 
ATOM      8  N   UNL A   1      30.905  28.468  23.903  1.00  0.00    -0.320 N 
ATOM      9  C   UNL A   1      32.110  28.395  23.093  1.00  0.00     0.263 C 
ATOM     10  H   UNL A   1      30.912  29.378  24.360  1.00  0.00     0.349 HD
ATOM     11  C   UNL A   1      32.500  26.935  23.069  1.00  0.00     0.068 C 
ATOM     12  C   UNL A   1      31.938  26.359  24.360  1.00  0.00     0.081 C 
BRANCH   8  13
ATOM     13  C   UNL A   1      29.627  28.579  23.195  1.00  0.00     0.321 C 
BRANCH  13  14
ATOM     14  C   UNL A   1      29.234  29.975  22.810  1.00  0.00     0.106 A 
ATOM     15  C   UNL A   1      28.002  32.100  20.105  1.00  0.00     0.079 C 
ATOM     16  C   UNL A   1      28.502  31.496  21.370  1.00  0.00     0.090 A 
ATOM     17  N   UNL A   1      28.900  30.249  21.490  1.00  0.00    -0.241 NA
ATOM     18  S   UNL A   1      28.589  32.440  22.802  1.00  0.00    -0.127 S 
ATOM     19  C   UNL A   1      29.110  31.056  23.664  1.00  0.00     0.096 A 
ENDBRANCH  13  14
ENDBRANCH   8  13
ENDBRANCH   4   7
ENDBRANCH   2   3
ENDBRANCH   1   2
BRANCH   1  20
ATOM     20  C   UNL A   1      32.858  32.278  27.293  1.00  0.00     0.118 C 
BRANCH  20  21
ATOM     21  N   UNL A   1      32.582  33.685  27.564  1.00  0.00    -0.352 N 
ATOM     22  C   UNL A   1      33.109  34.535  28.504  1.00  0.00     0.251 C 
ATOM     23  H   UNL A   1      31.906  34.091  26.975  1.00  0.00     0.163 HD
ATOM     24  O   UNL A   1      32.583  35.629  28.693  1.00  0.00    -0.269 OA
BRANCH  22  25
ATOM     25  C   UNL A   1      34.292  34.139  29.298  1.00  0.00     0.039 A 
ATOM     26  C   UNL A   1      34.098  33.491  30.520  1.00  0.00     0.014 A 
ATOM     27  C   UNL A   1      35.586  34.416  28.851  1.00  0.00     0.014 A 
ATOM     28  C   UNL A   1      35.202  33.045  31.251  1.00  0.00     0.010 A 
ATOM     29  C   UNL A   1      36.681  33.898  29.538  1.00  0.00     0.010 A 
ATOM     30  C   UNL A   1      36.500  33.201  30.741  1.00  0.00    -0.014 A 
BRANCH  30  31
ATOM     31  C   UNL A   1      37.673  32.588  31.418  1.00  0.00     0.031 A 
ATOM     32  C   UNL A   1      38.403  31.430  30.795  1.00  0.00     0.074 A 
ATOM     33  C   UNL A   1      38.017  33.018  32.648  1.00  0.00     0.049 A 
ATOM     34  N   UNL A   1      39.405  30.736  31.273  1.00  0.00    -0.248 NA
ATOM     35  C   UNL A   1      37.934  30.973  29.477  1.00  0.00     0.031 C 
ATOM     36  C   UNL A   1      37.334  34.078  33.394  1.00  0.00     0.029 A 
ATOM     37  N   UNL A   1      39.004  32.597  33.504  1.00  0.00    -0.354 N 
ATOM     38  C   UNL A   1      39.664  29.745  30.335  1.00  0.00     0.074 A 
ATOM     39  C   UNL A   1      38.695  29.907  29.272  1.00  0.00     0.031 C 
ATOM     40  C   UNL A   1      37.923  34.227  34.590  1.00  0.00     0.029 A 
ATOM     41  C   UNL A   1      38.998  33.250  34.715  1.00  0.00     0.049 A 
ATOM     42  H   UNL A   1      39.655  31.896  33.273  1.00  0.00     0.167 HD
ATOM     43  C   UNL A   1      40.636  28.801  30.345  1.00  0.00     0.034 A 
ATOM     44  C   UNL A   1      39.759  33.071  35.812  1.00  0.00     0.034 A 
ATOM     45  C   UNL A   1      41.615  28.664  31.390  1.00  0.00     0.049 A 
ATOM     46  C   UNL A   1      40.842  32.027  35.789  1.00  0.00     0.074 A 
ATOM     47  C   UNL A   1      42.700  27.804  31.442  1.00  0.00     0.029 A 
ATOM     48  N   UNL A   1      41.622  29.386  32.573  1.00  0.00    -0.354 N 
ATOM     49  N   UNL A   1      41.185  31.217  34.818  1.00  0.00    -0.248 NA
ATOM     50  C   UNL A   1      41.660  31.892  37.002  1.00  0.00     0.031 C 
ATOM     51  C   UNL A   1      43.339  27.982  32.675  1.00  0.00     0.029 A 
ATOM     52  C   UNL A   1      42.674  28.975  33.374  1.00  0.00     0.049 A 
ATOM     53  H   UNL A   1      40.973  30.088  32.808  1.00  0.00     0.167 HD
ATOM     54  C   UNL A   1      42.272  30.491  35.292  1.00  0.00     0.074 A 
ATOM     55  C   UNL A   1      42.549  30.982  36.627  1.00  0.00     0.031 C 
ATOM     56  C   UNL A   1      42.964  29.494  34.686  1.00  0.00     0.034 A 
BRANCH  43  57
ATOM     57  C   UNL A   1      40.719  27.866  29.165  1.00  0.00     0.023 A 
ATOM     58  C   UNL A   1      39.852  26.757  29.092  1.00  0.00     0.012 A 
ATOM     59  C   UNL A   1      41.606  28.121  28.099  1.00  0.00     0.148 A 
ATOM     60  C   UNL A   1      39.887  25.897  27.995  1.00  0.00     0.002 A 
ATOM     61  C   UNL A   1      41.604  27.285  26.988  1.00  0.00     0.091 A 
ATOM     62  F   UNL A   1      42.436  29.169  28.194  1.00  0.00    -0.205 F 
ATOM     63  C   UNL A   1      40.755  26.167  26.940  1.00  0.00     0.022 A 
BRANCH  61  64
ATOM     64  S   UNL A   1      42.624  27.590  25.542  1.00  0.00     0.127 S 
ATOM     65  O   UNL A   1      42.344  26.407  24.729  1.00  0.00    -0.237 OA
ATOM     66  O   UNL A   1      42.055  28.834  25.022  1.00  0.00    -0.237 OA
ATOM     67  O   UNL A   1      43.991  27.702  26.030  1.00  0.00    -0.744 OA
ENDBRANCH  61  64
ENDBRANCH  43  57
BRANCH  44  68
ATOM     68  C   UNL A   1      39.553  33.935  37.010  1.00  0.00     0.023 A 
ATOM     69  C   UNL A   1      39.959  35.282  36.970  1.00  0.00     0.012 A 
ATOM     70  C   UNL A   1      38.934  33.437  38.173  1.00  0.00     0.148 A 
ATOM     71  C   UNL A   1      39.780  36.111  38.079  1.00  0.00     0.002 A 
ATOM     72  C   UNL A   1      38.706  34.284  39.251  1.00  0.00     0.091 A 
ATOM     73  F   UNL A   1      38.566  32.148  38.195  1.00  0.00    -0.205 F 
ATOM     74  C   UNL A   1      39.145  35.616  39.214  1.00  0.00     0.022 A 
BRANCH  72  75
ATOM     75  S   UNL A   1      37.775  33.769  40.700  1.00  0.00     0.127 S 
ATOM     76  O   UNL A   1      38.708  32.848  41.343  1.00  0.00    -0.237 OA
ATOM     77  O   UNL A   1      37.582  35.040  41.399  1.00  0.00    -0.237 OA
ATOM     78  O   UNL A   1      36.549  33.174  40.189  1.00  0.00    -0.744 OA
ENDBRANCH  72  75
ENDBRANCH  44  68
BRANCH  56  79
ATOM     79  C   UNL A   1      44.101  28.870  35.454  1.00  0.00     0.023 A 
ATOM     80  C   UNL A   1      45.397  29.411  35.341  1.00  0.00     0.012 A 
ATOM     81  C   UNL A   1      43.872  27.796  36.337  1.00  0.00     0.148 A 
ATOM     82  C   UNL A   1      46.457  28.870  36.070  1.00  0.00     0.002 A 
ATOM     83  C   UNL A   1      44.922  27.296  37.098  1.00  0.00     0.091 A 
ATOM     84  F   UNL A   1      42.635  27.287  36.419  1.00  0.00    -0.205 F 
ATOM     85  C   UNL A   1      46.217  27.823  36.956  1.00  0.00     0.022 A 
BRANCH  83  86
ATOM     86  S   UNL A   1      44.697  26.012  38.333  1.00  0.00     0.127 S 
ATOM     87  O   UNL A   1      43.675  25.173  37.707  1.00  0.00    -0.237 OA
ATOM     88  O   UNL A   1      46.027  25.407  38.396  1.00  0.00    -0.237 OA
ATOM     89  O   UNL A   1      44.282  26.692  39.552  1.00  0.00    -0.744 OA
ENDBRANCH  83  86
ENDBRANCH  56  79
ENDBRANCH  30  31
ENDBRANCH  22  25
ENDBRANCH  20  21
ENDBRANCH   1  20
TORSDOF 15
ENDMDL
MODEL 2
REMARK VINA RESULT:     -11.8      6.052     10.748
REMARK SMILES Cc1nc(C[N@@H+]2CCC[C@H]2C(=O)NCCCNC(=O)c2ccc(-c3c4nc(c(-c5cccc(S(=O)(=O)[O-])c5F)c5ccc([nH]5)c(-c5cccc(S(=O)(=O)[O-])c5F)c5nc(c(-c6cccc(S(=O)(=O)[O-])c6F)c6ccc3[nH]6)C=C5)C=C4)cc2)cs1
REMARK SMILES IDX 15 1 14 2 13 3 11 4 12 5 10 7 6 8 7 9 8 11 9 12 5 13 4 14
REMARK SMILES IDX 1 15 2 16 3 17 84 18 83 19 16 20 17 21 18 22 19 24 20 25
REMARK SMILES IDX 21 26 82 27 22 28 81 29 23 30 24 31 25 32 75 33 26 34 80 35
REMARK SMILES IDX 74 36 76 37 27 38 79 39 73 40 72 41 28 43 60 44 40 45 59 46
REMARK SMILES IDX 41 47 44 48 58 49 77 50 42 51 43 52 57 54 78 55 45 56 29 57
REMARK SMILES IDX 30 58 38 59 31 60 33 61 39 62 32 63 34 64 35 65 36 66 37 67
REMARK SMILES IDX 61 68 62 69 70 70 63 71 65 72 71 73 64 74 66 75 67 76 68 77
REMARK SMILES IDX 69 78 46 79 47 80 55 81 48 82 50 83 56 84 49 85 51 86 52 87
REMARK SMILES IDX 53 88 54 89
REMARK H PARENT 13 6 6 10 17 23 76 42 44 53
REMARK Flexibility Score: inf
ROOT
ATOM      1  C   UNL A   1      40.555  20.273  26.547  1.00  0.00     0.042 C 
ENDROOT
BRANCH   1   2
ATOM      2  C   UNL A   1      41.516  19.979  27.691  1.00  0.00     0.118 C 
BRANCH   2   3
ATOM      3  N   UNL A   1      42.413  18.877  27.386  1.00  0.00    -0.351 N 
ATOM      4  C   UNL A   1      43.377  18.680  26.449  1.00  0.00     0.278 C 
ATOM      5  O   UNL A   1      43.923  17.567  26.487  1.00  0.00    -0.268 OA
ATOM      6  H   UNL A   1      42.299  18.107  27.988  1.00  0.00     0.163 HD
BRANCH   4   7
ATOM      7  C   UNL A   1      43.803  19.700  25.364  1.00  0.00     0.274 C 
ATOM      8  N   UNL A   1      44.874  20.611  25.782  1.00  0.00    -0.320 N 
ATOM      9  C   UNL A   1      46.139  20.093  25.287  1.00  0.00     0.263 C 
ATOM     10  H   UNL A   1      44.938  20.619  26.799  1.00  0.00     0.349 HD
ATOM     11  C   UNL A   1      45.811  19.375  23.998  1.00  0.00     0.068 C 
ATOM     12  C   UNL A   1      44.363  18.936  24.153  1.00  0.00     0.081 C 
BRANCH   8  13
ATOM     13  C   UNL A   1      44.598  22.033  25.560  1.00  0.00     0.321 C 
BRANCH  13  14
ATOM     14  C   UNL A   1      45.388  22.975  26.421  1.00  0.00     0.106 A 
ATOM     15  C   UNL A   1      48.209  25.294  26.515  1.00  0.00     0.079 C 
ATOM     16  C   UNL A   1      47.029  24.427  26.774  1.00  0.00     0.090 A 
ATOM     17  N   UNL A   1      46.529  23.574  25.906  1.00  0.00    -0.241 NA
ATOM     18  S   UNL A   1      46.221  24.496  28.288  1.00  0.00    -0.127 S 
ATOM     19  C   UNL A   1      45.068  23.373  27.707  1.00  0.00     0.096 A 
ENDBRANCH  13  14
ENDBRANCH   8  13
ENDBRANCH   4   7
ENDBRANCH   2   3
ENDBRANCH   1   2
BRANCH   1  20
ATOM     20  C   UNL A   1      40.483  21.749  26.171  1.00  0.00     0.118 C 
BRANCH  20  21
ATOM     21  N   UNL A   1      39.138  22.167  25.787  1.00  0.00    -0.352 N 
ATOM     22  C   UNL A   1      38.431  23.302  26.098  1.00  0.00     0.251 C 
ATOM     23  H   UNL A   1      38.659  21.530  25.210  1.00  0.00     0.163 HD
ATOM     24  O   UNL A   1      37.232  23.358  25.838  1.00  0.00    -0.269 OA
BRANCH  22  25
ATOM     25  C   UNL A   1      39.097  24.447  26.756  1.00  0.00     0.039 A 
ATOM     26  C   UNL A   1      39.870  25.315  25.980  1.00  0.00     0.014 A 
ATOM     27  C   UNL A   1      38.976  24.659  28.131  1.00  0.00     0.014 A 
ATOM     28  C   UNL A   1      40.448  26.442  26.569  1.00  0.00     0.010 A 
ATOM     29  C   UNL A   1      39.484  25.825  28.699  1.00  0.00     0.010 A 
ATOM     30  C   UNL A   1      40.218  26.732  27.923  1.00  0.00    -0.014 A 
BRANCH  30  31
ATOM     31  C   UNL A   1      40.682  28.008  28.527  1.00  0.00     0.031 A 
ATOM     32  C   UNL A   1      42.146  28.259  28.766  1.00  0.00     0.074 A 
ATOM     33  C   UNL A   1      39.768  28.901  28.955  1.00  0.00     0.049 A 
ATOM     34  N   UNL A   1      42.723  29.285  29.337  1.00  0.00    -0.248 NA
ATOM     35  C   UNL A   1      43.085  27.212  28.330  1.00  0.00     0.031 C 
ATOM     36  C   UNL A   1      38.315  28.736  28.857  1.00  0.00     0.029 A 
ATOM     37  N   UNL A   1      39.919  30.111  29.586  1.00  0.00    -0.354 N 
ATOM     38  C   UNL A   1      44.081  28.996  29.359  1.00  0.00     0.074 A 
ATOM     39  C   UNL A   1      44.242  27.684  28.770  1.00  0.00     0.031 C 
ATOM     40  C   UNL A   1      37.711  29.802  29.402  1.00  0.00     0.029 A 
ATOM     41  C   UNL A   1      38.727  30.709  29.925  1.00  0.00     0.049 A 
ATOM     42  H   UNL A   1      40.798  30.513  29.776  1.00  0.00     0.167 HD
ATOM     43  C   UNL A   1      45.105  29.763  29.805  1.00  0.00     0.034 A 
ATOM     44  C   UNL A   1      38.478  31.849  30.597  1.00  0.00     0.034 A 
ATOM     45  C   UNL A   1      44.942  31.080  30.362  1.00  0.00     0.049 A 
ATOM     46  C   UNL A   1      39.633  32.689  31.066  1.00  0.00     0.074 A 
ATOM     47  C   UNL A   1      45.923  31.976  30.750  1.00  0.00     0.029 A 
ATOM     48  N   UNL A   1      43.723  31.684  30.629  1.00  0.00    -0.354 N 
ATOM     49  N   UNL A   1      40.918  32.480  30.918  1.00  0.00    -0.248 NA
ATOM     50  C   UNL A   1      39.304  33.936  31.771  1.00  0.00     0.031 C 
ATOM     51  C   UNL A   1      45.297  33.106  31.287  1.00  0.00     0.029 A 
ATOM     52  C   UNL A   1      43.926  32.929  31.202  1.00  0.00     0.049 A 
ATOM     53  H   UNL A   1      42.843  31.286  30.441  1.00  0.00     0.167 HD
ATOM     54  C   UNL A   1      41.552  33.578  31.489  1.00  0.00     0.074 A 
ATOM     55  C   UNL A   1      40.507  34.465  31.958  1.00  0.00     0.031 C 
ATOM     56  C   UNL A   1      42.879  33.820  31.632  1.00  0.00     0.034 A 
BRANCH  43  57
ATOM     57  C   UNL A   1      46.504  29.218  29.669  1.00  0.00     0.023 A 
ATOM     58  C   UNL A   1      47.034  28.399  30.687  1.00  0.00     0.012 A 
ATOM     59  C   UNL A   1      47.265  29.458  28.508  1.00  0.00     0.148 A 
ATOM     60  C   UNL A   1      48.312  27.855  30.568  1.00  0.00     0.002 A 
ATOM     61  C   UNL A   1      48.521  28.875  28.377  1.00  0.00     0.091 A 
ATOM     62  F   UNL A   1      46.753  30.254  27.559  1.00  0.00    -0.205 F 
ATOM     63  C   UNL A   1      49.051  28.085  29.410  1.00  0.00     0.022 A 
BRANCH  61  64
ATOM     64  S   UNL A   1      49.519  29.042  26.893  1.00  0.00     0.127 S 
ATOM     65  O   UNL A   1      49.957  30.434  26.986  1.00  0.00    -0.237 OA
ATOM     66  O   UNL A   1      50.575  28.055  27.121  1.00  0.00    -0.237 OA
ATOM     67  O   UNL A   1      48.634  28.740  25.776  1.00  0.00    -0.744 OA
ENDBRANCH  61  64
ENDBRANCH  43  57
BRANCH  44  68
ATOM     68  C   UNL A   1      37.070  32.285  30.825  1.00  0.00     0.023 A 
ATOM     69  C   UNL A   1      36.499  32.140  32.103  1.00  0.00     0.012 A 
ATOM     70  C   UNL A   1      36.307  32.866  29.794  1.00  0.00     0.148 A 
ATOM     71  C   UNL A   1      35.183  32.537  32.343  1.00  0.00     0.002 A 
ATOM     72  C   UNL A   1      35.017  33.312  30.054  1.00  0.00     0.091 A 
ATOM     73  F   UNL A   1      36.865  32.984  28.580  1.00  0.00    -0.205 F 
ATOM     74  C   UNL A   1      34.446  33.131  31.323  1.00  0.00     0.022 A 
BRANCH  72  75
ATOM     75  S   UNL A   1      34.046  34.212  28.840  1.00  0.00     0.127 S 
ATOM     76  O   UNL A   1      33.767  33.174  27.851  1.00  0.00    -0.237 OA
ATOM     77  O   UNL A   1      32.890  34.635  29.634  1.00  0.00    -0.237 OA
ATOM     78  O   UNL A   1      34.894  35.305  28.389  1.00  0.00    -0.744 OA
ENDBRANCH  72  75
ENDBRANCH  44  68
BRANCH  56  79
ATOM     79  C   UNL A   1      43.283  35.102  32.314  1.00  0.00     0.023 A 
ATOM     80  C   UNL A   1      43.572  36.242  31.538  1.00  0.00     0.012 A 
ATOM     81  C   UNL A   1      43.309  35.196  33.719  1.00  0.00     0.148 A 
ATOM     82  C   UNL A   1      43.914  37.448  32.150  1.00  0.00     0.002 A 
ATOM     83  C   UNL A   1      43.600  36.414  34.323  1.00  0.00     0.091 A 
ATOM     84  F   UNL A   1      43.045  34.097  34.439  1.00  0.00    -0.205 F 
ATOM     85  C   UNL A   1      43.916  37.537  33.540  1.00  0.00     0.022 A 
BRANCH  83  86
ATOM     86  S   UNL A   1      43.537  36.653  36.102  1.00  0.00     0.127 S 
ATOM     87  O   UNL A   1      44.579  35.735  36.562  1.00  0.00    -0.237 OA
ATOM     88  O   UNL A   1      43.871  38.071  36.235  1.00  0.00    -0.237 OA
ATOM     89  O   UNL A   1      42.182  36.308  36.507  1.00  0.00    -0.744 OA
ENDBRANCH  83  86
ENDBRANCH  56  79
ENDBRANCH  30  31
ENDBRANCH  22  25
ENDBRANCH  20  21
ENDBRANCH   1  20
TORSDOF 15
ENDMDL
MODEL 3
REMARK VINA RESULT:     -11.7      7.020     12.840
REMARK SMILES Cc1nc(C[N@@H+]2CCC[C@H]2C(=O)NCCCNC(=O)c2ccc(-c3c4nc(c(-c5cccc(S(=O)(=O)[O-])c5F)c5ccc([nH]5)c(-c5cccc(S(=O)(=O)[O-])c5F)c5nc(c(-c6cccc(S(=O)(=O)[O-])c6F)c6ccc3[nH]6)C=C5)C=C4)cc2)cs1
REMARK SMILES IDX 15 1 14 2 13 3 11 4 12 5 10 7 6 8 7 9 8 11 9 12 5 13 4 14
REMARK SMILES IDX 1 15 2 16 3 17 84 18 83 19 16 20 17 21 18 22 19 24 20 25
REMARK SMILES IDX 21 26 82 27 22 28 81 29 23 30 24 31 25 32 75 33 26 34 80 35
REMARK SMILES IDX 74 36 76 37 27 38 79 39 73 40 72 41 28 43 60 44 40 45 59 46
REMARK SMILES IDX 41 47 44 48 58 49 77 50 42 51 43 52 57 54 78 55 45 56 29 57
REMARK SMILES IDX 30 58 38 59 31 60 33 61 39 62 32 63 34 64 35 65 36 66 37 67
REMARK SMILES IDX 61 68 62 69 70 70 63 71 65 72 71 73 64 74 66 75 67 76 68 77
REMARK SMILES IDX 69 78 46 79 47 80 55 81 48 82 50 83 56 84 49 85 51 86 52 87
REMARK SMILES IDX 53 88 54 89
REMARK H PARENT 13 6 6 10 17 23 76 42 44 53
REMARK Flexibility Score: inf
ROOT
ATOM      1  C   UNL A   1      38.292  20.225  24.894  1.00  0.00     0.042 C 
ENDROOT
BRANCH   1   2
ATOM      2  C   UNL A   1      37.353  21.417  24.762  1.00  0.00     0.118 C 
BRANCH   2   3
ATOM      3  N   UNL A   1      36.397  21.488  25.854  1.00  0.00    -0.351 N 
ATOM      4  C   UNL A   1      35.041  21.450  25.920  1.00  0.00     0.278 C 
ATOM      5  O   UNL A   1      34.570  21.573  27.061  1.00  0.00    -0.268 OA
ATOM      6  H   UNL A   1      36.824  21.584  26.736  1.00  0.00     0.163 HD
BRANCH   4   7
ATOM      7  C   UNL A   1      34.082  21.299  24.713  1.00  0.00     0.274 C 
ATOM      8  N   UNL A   1      32.887  20.494  24.993  1.00  0.00    -0.320 N 
ATOM      9  C   UNL A   1      31.787  21.393  25.301  1.00  0.00     0.263 C 
ATOM     10  H   UNL A   1      33.045  19.926  25.824  1.00  0.00     0.349 HD
ATOM     11  C   UNL A   1      32.047  22.648  24.500  1.00  0.00     0.068 C 
ATOM     12  C   UNL A   1      33.557  22.688  24.316  1.00  0.00     0.081 C 
BRANCH   8  13
ATOM     13  C   UNL A   1      32.627  19.420  24.030  1.00  0.00     0.321 C 
BRANCH  13  14
ATOM     14  C   UNL A   1      32.975  18.041  24.508  1.00  0.00     0.106 A 
ATOM     15  C   UNL A   1      35.704  15.785  25.407  1.00  0.00     0.079 C 
ATOM     16  C   UNL A   1      34.414  16.462  25.111  1.00  0.00     0.090 A 
ATOM     17  N   UNL A   1      34.310  17.666  24.590  1.00  0.00    -0.241 NA
ATOM     18  S   UNL A   1      32.926  15.672  25.445  1.00  0.00    -0.127 S 
ATOM     19  C   UNL A   1      32.085  17.076  24.944  1.00  0.00     0.096 A 
ENDBRANCH  13  14
ENDBRANCH   8  13
ENDBRANCH   4   7
ENDBRANCH   2   3
ENDBRANCH   1   2
BRANCH   1  20
ATOM     20  C   UNL A   1      39.291  20.355  26.038  1.00  0.00     0.118 C 
BRANCH  20  21
ATOM     21  N   UNL A   1      40.295  19.295  26.033  1.00  0.00    -0.352 N 
ATOM     22  C   UNL A   1      41.665  19.361  26.087  1.00  0.00     0.251 C 
ATOM     23  H   UNL A   1      39.928  18.383  25.982  1.00  0.00     0.163 HD
ATOM     24  O   UNL A   1      42.327  18.351  25.860  1.00  0.00    -0.269 OA
BRANCH  22  25
ATOM     25  C   UNL A   1      42.346  20.635  26.400  1.00  0.00     0.039 A 
ATOM     26  C   UNL A   1      42.734  21.469  25.348  1.00  0.00     0.014 A 
ATOM     27  C   UNL A   1      42.616  21.003  27.719  1.00  0.00     0.014 A 
ATOM     28  C   UNL A   1      43.313  22.710  25.625  1.00  0.00     0.010 A 
ATOM     29  C   UNL A   1      43.117  22.273  27.996  1.00  0.00     0.010 A 
ATOM     30  C   UNL A   1      43.464  23.142  26.952  1.00  0.00    -0.014 A 
BRANCH  30  31
ATOM     31  C   UNL A   1      43.922  24.521  27.265  1.00  0.00     0.031 A 
ATOM     32  C   UNL A   1      42.949  25.567  27.735  1.00  0.00     0.074 A 
ATOM     33  C   UNL A   1      45.206  24.854  27.028  1.00  0.00     0.049 A 
ATOM     34  N   UNL A   1      43.162  26.832  27.995  1.00  0.00    -0.248 NA
ATOM     35  C   UNL A   1      41.549  25.148  27.913  1.00  0.00     0.031 C 
ATOM     36  C   UNL A   1      46.228  23.950  26.493  1.00  0.00     0.029 A 
ATOM     37  N   UNL A   1      45.867  26.048  27.174  1.00  0.00    -0.354 N 
ATOM     38  C   UNL A   1      41.926  27.366  28.334  1.00  0.00     0.074 A 
ATOM     39  C   UNL A   1      40.959  26.295  28.219  1.00  0.00     0.031 C 
ATOM     40  C   UNL A   1      47.383  24.619  26.359  1.00  0.00     0.029 A 
ATOM     41  C   UNL A   1      47.179  26.006  26.761  1.00  0.00     0.049 A 
ATOM     42  H   UNL A   1      45.443  26.857  27.541  1.00  0.00     0.167 HD
ATOM     43  C   UNL A   1      41.626  28.626  28.730  1.00  0.00     0.034 A 
ATOM     44  C   UNL A   1      48.109  26.978  26.693  1.00  0.00     0.034 A 
ATOM     45  C   UNL A   1      42.596  29.679  28.872  1.00  0.00     0.049 A 
ATOM     46  C   UNL A   1      47.753  28.364  27.155  1.00  0.00     0.074 A 
ATOM     47  C   UNL A   1      42.408  30.961  29.362  1.00  0.00     0.029 A 
ATOM     48  N   UNL A   1      43.931  29.584  28.508  1.00  0.00    -0.354 N 
ATOM     49  N   UNL A   1      46.619  28.806  27.641  1.00  0.00    -0.248 NA
ATOM     50  C   UNL A   1      48.812  29.381  27.084  1.00  0.00     0.031 C 
ATOM     51  C   UNL A   1      43.621  31.651  29.258  1.00  0.00     0.029 A 
ATOM     52  C   UNL A   1      44.572  30.790  28.736  1.00  0.00     0.049 A 
ATOM     53  H   UNL A   1      44.359  28.777  28.141  1.00  0.00     0.167 HD
ATOM     54  C   UNL A   1      46.833  30.143  27.956  1.00  0.00     0.074 A 
ATOM     55  C   UNL A   1      48.216  30.430  27.635  1.00  0.00     0.031 C 
ATOM     56  C   UNL A   1      45.958  31.056  28.447  1.00  0.00     0.034 A 
BRANCH  43  57
ATOM     57  C   UNL A   1      40.192  28.929  29.084  1.00  0.00     0.023 A 
ATOM     58  C   UNL A   1      39.246  29.120  28.056  1.00  0.00     0.012 A 
ATOM     59  C   UNL A   1      39.768  28.959  30.427  1.00  0.00     0.148 A 
ATOM     60  C   UNL A   1      37.907  29.368  28.358  1.00  0.00     0.002 A 
ATOM     61  C   UNL A   1      38.424  29.161  30.719  1.00  0.00     0.091 A 
ATOM     62  F   UNL A   1      40.684  28.794  31.392  1.00  0.00    -0.205 F 
ATOM     63  C   UNL A   1      37.495  29.379  29.688  1.00  0.00     0.022 A 
BRANCH  61  64
ATOM     64  S   UNL A   1      37.775  29.113  32.394  1.00  0.00     0.127 S 
ATOM     65  O   UNL A   1      38.693  30.014  33.092  1.00  0.00    -0.237 OA
ATOM     66  O   UNL A   1      36.423  29.642  32.215  1.00  0.00    -0.237 OA
ATOM     67  O   UNL A   1      37.835  27.718  32.809  1.00  0.00    -0.744 OA
ENDBRANCH  61  64
ENDBRANCH  43  57
BRANCH  44  68
ATOM     68  C   UNL A   1      49.483  26.661  26.210  1.00  0.00     0.023 A 
ATOM     69  C   UNL A   1      50.330  25.866  27.005  1.00  0.00     0.012 A 
ATOM     70  C   UNL A   1      49.942  27.116  24.959  1.00  0.00     0.148 A 
ATOM     71  C   UNL A   1      51.622  25.557  26.578  1.00  0.00     0.002 A 
ATOM     72  C   UNL A   1      51.209  26.755  24.514  1.00  0.00     0.091 A 
ATOM     73  F   UNL A   1      49.125  27.881  24.221  1.00  0.00    -0.205 F 
ATOM     74  C   UNL A   1      52.057  25.992  25.329  1.00  0.00     0.022 A 
BRANCH  72  75
ATOM     75  S   UNL A   1      51.800  27.155  22.865  1.00  0.00     0.127 S 
ATOM     76  O   UNL A   1      52.089  28.581  22.988  1.00  0.00    -0.237 OA
ATOM     77  O   UNL A   1      52.978  26.294  22.752  1.00  0.00    -0.237 OA
ATOM     78  O   UNL A   1      50.714  26.805  21.961  1.00  0.00    -0.744 OA
ENDBRANCH  72  75
ENDBRANCH  44  68
BRANCH  56  79
ATOM     79  C   UNL A   1      46.469  32.454  28.681  1.00  0.00     0.023 A 
ATOM     80  C   UNL A   1      47.006  32.798  29.937  1.00  0.00     0.012 A 
ATOM     81  C   UNL A   1      46.483  33.402  27.639  1.00  0.00     0.148 A 
ATOM     82  C   UNL A   1      47.517  34.076  30.164  1.00  0.00     0.002 A 
ATOM     83  C   UNL A   1      47.040  34.657  27.856  1.00  0.00     0.091 A 
ATOM     84  F   UNL A   1      45.954  33.060  26.455  1.00  0.00    -0.205 F 
ATOM     85  C   UNL A   1      47.545  35.000  29.121  1.00  0.00     0.022 A 
BRANCH  83  86
ATOM     86  S   UNL A   1      47.206  35.882  26.553  1.00  0.00     0.127 S 
ATOM     87  O   UNL A   1      48.262  35.297  25.728  1.00  0.00    -0.237 OA
ATOM     88  O   UNL A   1      45.876  35.866  25.944  1.00  0.00    -0.237 OA
ATOM     89  O   UNL A   1      47.554  37.131  27.216  1.00  0.00    -0.744 OA
ENDBRANCH  83  86
ENDBRANCH  56  79
ENDBRANCH  30  31
ENDBRANCH  22  25
ENDBRANCH  20  21
ENDBRANCH   1  20
TORSDOF 15
ENDMDL
