MODEL 1
REMARK VINA RESULT:     -13.0      0.000      0.000
REMARK SMILES Nn1c(S[C@@H](C(=O)NCCCNC(=O)c2ccc(-c3c4nc(c(-c5cccc(S(=O)(=O)[O-])c5F)c5ccc([nH]5)c(-c5cccc(S(=O)(=O)[O-])c5F)c5nc(c(-c6cccc(S(=O)(=O)[O-])c6F)c6ccc3[nH]6)C=C5)C=C4)cc2)c2ccccc2)nc2ccc(Br)cc2c1=O
REMARK SMILES IDX 10 1 9 2 8 3 6 4 7 5 5 7 4 8 3 9 2 10 92 11 84 12 91 13
REMARK SMILES IDX 93 14 85 15 90 16 86 17 88 18 87 19 89 20 1 21 78 24 79 25
REMARK SMILES IDX 83 26 80 27 82 28 81 29 11 30 12 31 13 32 14 34 15 35 16 36
REMARK SMILES IDX 77 37 17 38 76 39 18 40 19 41 20 42 70 43 21 44 75 45 69 46
REMARK SMILES IDX 71 47 22 48 74 49 68 50 67 51 23 53 55 54 35 55 54 56 36 57
REMARK SMILES IDX 39 58 53 59 72 60 37 61 38 62 52 64 73 65 40 66 24 67 25 68
REMARK SMILES IDX 33 69 26 70 28 71 34 72 27 73 29 74 30 75 31 76 32 77 56 78
REMARK SMILES IDX 57 79 65 80 58 81 60 82 66 83 59 84 61 85 62 86 63 87 64 88
REMARK SMILES IDX 41 89 42 90 50 91 43 92 45 93 51 94 44 95 46 96 47 97 48 98
REMARK SMILES IDX 49 99
REMARK H PARENT 8 6 1 22 1 23 12 33 71 52 39 63
REMARK Flexibility Score: inf
ROOT
ATOM      1  C   UNL A   1      31.432  31.611  26.549  1.00  0.00     0.042 C 
ENDROOT
BRANCH   1   2
ATOM      2  C   UNL A   1      31.529  30.089  26.459  1.00  0.00     0.117 C 
BRANCH   2   3
ATOM      3  N   UNL A   1      32.197  29.605  25.261  1.00  0.00    -0.355 N 
ATOM      4  C   UNL A   1      31.705  29.110  24.082  1.00  0.00     0.238 C 
ATOM      5  O   UNL A   1      32.531  29.022  23.165  1.00  0.00    -0.273 OA
ATOM      6  H   UNL A   1      33.179  29.640  25.304  1.00  0.00     0.163 HD
BRANCH   4   7
ATOM      7  C   UNL A   1      30.196  28.800  23.878  1.00  0.00     0.174 C 
BRANCH   7   8
ATOM      8  S   UNL A   1      29.882  27.081  23.453  1.00  0.00    -0.068 SA
BRANCH   8   9
ATOM      9  C   UNL A   1      30.926  25.954  24.276  1.00  0.00     0.191 A 
ATOM     10  N   UNL A   1      30.681  25.374  25.517  1.00  0.00    -0.202 N 
ATOM     11  C   UNL A   1      31.627  24.555  26.147  1.00  0.00     0.280 A 
ATOM     12  N   UNL A   1      31.996  25.690  23.591  1.00  0.00    -0.222 NA
ATOM     13  C   UNL A   1      32.826  24.226  25.363  1.00  0.00     0.069 A 
ATOM     14  O   UNL A   1      31.486  24.106  27.284  1.00  0.00    -0.267 OA
ATOM     15  C   UNL A   1      32.931  24.783  24.091  1.00  0.00     0.079 A 
ATOM     16  C   UNL A   1      33.797  23.349  25.857  1.00  0.00     0.031 A 
ATOM     17  C   UNL A   1      34.014  24.424  23.287  1.00  0.00     0.030 A 
ATOM     18  C   UNL A   1      34.878  23.013  25.046  1.00  0.00     0.018 A 
ATOM     19  C   UNL A   1      34.986  23.536  23.758  1.00  0.00     0.018 A 
ATOM     20  Br  UNL A   1      36.204  21.834  25.694  1.00  0.00    -0.051 Br
BRANCH  10  21
ATOM     21  N   UNL A   1      29.459  25.519  26.204  1.00  0.00    -0.334 N 
ATOM     22  H   UNL A   1      28.609  25.338  25.740  1.00  0.00     0.178 HD
ATOM     23  H   UNL A   1      29.455  25.800  27.147  1.00  0.00     0.178 HD
ENDBRANCH  10  21
ENDBRANCH   8   9
ENDBRANCH   7   8
BRANCH   7  24
ATOM     24  C   UNL A   1      29.405  29.894  23.142  1.00  0.00    -0.025 A 
ATOM     25  C   UNL A   1      29.152  31.106  23.820  1.00  0.00     0.005 A 
ATOM     26  C   UNL A   1      28.891  29.774  21.839  1.00  0.00     0.005 A 
ATOM     27  C   UNL A   1      28.477  32.163  23.205  1.00  0.00     0.000 A 
ATOM     28  C   UNL A   1      28.231  30.840  21.216  1.00  0.00     0.000 A 
ATOM     29  C   UNL A   1      28.030  32.036  21.896  1.00  0.00     0.000 A 
ENDBRANCH   7  24
ENDBRANCH   4   7
ENDBRANCH   2   3
ENDBRANCH   1   2
BRANCH   1  30
ATOM     30  C   UNL A   1      32.741  32.325  26.864  1.00  0.00     0.118 C 
BRANCH  30  31
ATOM     31  N   UNL A   1      32.548  33.675  27.370  1.00  0.00    -0.352 N 
ATOM     32  C   UNL A   1      33.172  34.348  28.395  1.00  0.00     0.251 C 
ATOM     33  H   UNL A   1      31.855  34.193  26.901  1.00  0.00     0.163 HD
ATOM     34  O   UNL A   1      32.717  35.433  28.753  1.00  0.00    -0.269 OA
BRANCH  32  35
ATOM     35  C   UNL A   1      34.350  33.775  29.089  1.00  0.00     0.039 A 
ATOM     36  C   UNL A   1      35.636  34.281  28.891  1.00  0.00     0.014 A 
ATOM     37  C   UNL A   1      34.158  32.720  29.990  1.00  0.00     0.014 A 
ATOM     38  C   UNL A   1      36.735  33.629  29.445  1.00  0.00     0.010 A 
ATOM     39  C   UNL A   1      35.257  32.123  30.618  1.00  0.00     0.010 A 
ATOM     40  C   UNL A   1      36.562  32.538  30.313  1.00  0.00    -0.014 A 
BRANCH  40  41
ATOM     41  C   UNL A   1      37.752  31.863  30.898  1.00  0.00     0.031 A 
ATOM     42  C   UNL A   1      38.176  32.131  32.318  1.00  0.00     0.074 A 
ATOM     43  C   UNL A   1      38.439  30.974  30.155  1.00  0.00     0.049 A 
ATOM     44  N   UNL A   1      39.175  31.613  32.988  1.00  0.00    -0.248 NA
ATOM     45  C   UNL A   1      37.385  33.105  33.089  1.00  0.00     0.031 C 
ATOM     46  C   UNL A   1      38.149  30.642  28.758  1.00  0.00     0.029 A 
ATOM     47  N   UNL A   1      39.513  30.179  30.467  1.00  0.00    -0.354 N 
ATOM     48  C   UNL A   1      39.154  32.218  34.239  1.00  0.00     0.074 A 
ATOM     49  C   UNL A   1      38.048  33.151  34.237  1.00  0.00     0.031 C 
ATOM     50  C   UNL A   1      38.995  29.688  28.346  1.00  0.00     0.029 A 
ATOM     51  C   UNL A   1      39.920  29.371  29.431  1.00  0.00     0.049 A 
ATOM     52  H   UNL A   1      39.951  30.186  31.350  1.00  0.00     0.167 HD
ATOM     53  C   UNL A   1      39.966  32.002  35.300  1.00  0.00     0.034 A 
ATOM     54  C   UNL A   1      40.925  28.478  29.353  1.00  0.00     0.034 A 
ATOM     55  C   UNL A   1      41.034  31.039  35.325  1.00  0.00     0.049 A 
ATOM     56  C   UNL A   1      41.796  28.238  30.551  1.00  0.00     0.074 A 
ATOM     57  C   UNL A   1      41.885  30.731  36.372  1.00  0.00     0.029 A 
ATOM     58  N   UNL A   1      41.393  30.226  34.264  1.00  0.00    -0.354 N 
ATOM     59  N   UNL A   1      41.714  28.774  31.743  1.00  0.00    -0.248 NA
ATOM     60  C   UNL A   1      42.885  27.262  30.402  1.00  0.00     0.031 C 
ATOM     61  C   UNL A   1      42.758  29.728  35.944  1.00  0.00     0.029 A 
ATOM     62  C   UNL A   1      42.447  29.409  34.632  1.00  0.00     0.049 A 
ATOM     63  H   UNL A   1      40.962  30.227  33.378  1.00  0.00     0.167 HD
ATOM     64  C   UNL A   1      42.730  28.194  32.491  1.00  0.00     0.074 A 
ATOM     65  C   UNL A   1      43.404  27.249  31.624  1.00  0.00     0.031 C 
ATOM     66  C   UNL A   1      43.080  28.438  33.777  1.00  0.00     0.034 A 
BRANCH  53  67
ATOM     67  C   UNL A   1      39.700  32.776  36.562  1.00  0.00     0.023 A 
ATOM     68  C   UNL A   1      40.341  34.015  36.753  1.00  0.00     0.012 A 
ATOM     69  C   UNL A   1      38.747  32.335  37.500  1.00  0.00     0.148 A 
ATOM     70  C   UNL A   1      40.047  34.802  37.866  1.00  0.00     0.002 A 
ATOM     71  C   UNL A   1      38.437  33.137  38.593  1.00  0.00     0.091 A 
ATOM     72  F   UNL A   1      38.159  31.146  37.303  1.00  0.00    -0.205 F 
ATOM     73  C   UNL A   1      39.089  34.368  38.778  1.00  0.00     0.022 A 
BRANCH  71  74
ATOM     74  S   UNL A   1      37.179  32.699  39.798  1.00  0.00     0.127 S 
ATOM     75  O   UNL A   1      37.691  31.427  40.308  1.00  0.00    -0.237 OA
ATOM     76  O   UNL A   1      37.260  33.811  40.745  1.00  0.00    -0.237 OA
ATOM     77  O   UNL A   1      35.927  32.614  39.061  1.00  0.00    -0.744 OA
ENDBRANCH  71  74
ENDBRANCH  53  67
BRANCH  54  78
ATOM     78  C   UNL A   1      41.107  27.709  28.093  1.00  0.00     0.023 A 
ATOM     79  C   UNL A   1      41.728  28.329  26.992  1.00  0.00     0.012 A 
ATOM     80  C   UNL A   1      40.767  26.344  28.019  1.00  0.00     0.148 A 
ATOM     81  C   UNL A   1      42.009  27.600  25.836  1.00  0.00     0.002 A 
ATOM     82  C   UNL A   1      41.091  25.614  26.883  1.00  0.00     0.091 A 
ATOM     83  F   UNL A   1      40.173  25.783  29.081  1.00  0.00    -0.205 F 
ATOM     84  C   UNL A   1      41.703  26.242  25.786  1.00  0.00     0.022 A 
BRANCH  82  85
ATOM     85  S   UNL A   1      40.851  23.838  26.773  1.00  0.00     0.127 S 
ATOM     86  O   UNL A   1      41.786  23.476  25.711  1.00  0.00    -0.237 OA
ATOM     87  O   UNL A   1      41.243  23.402  28.114  1.00  0.00    -0.237 OA
ATOM     88  O   UNL A   1      39.442  23.645  26.460  1.00  0.00    -0.744 OA
ENDBRANCH  82  85
ENDBRANCH  54  78
BRANCH  66  89
ATOM     89  C   UNL A   1      44.239  27.674  34.350  1.00  0.00     0.023 A 
ATOM     90  C   UNL A   1      45.520  28.259  34.344  1.00  0.00     0.012 A 
ATOM     91  C   UNL A   1      44.038  26.442  35.003  1.00  0.00     0.148 A 
ATOM     92  C   UNL A   1      46.588  27.623  34.976  1.00  0.00     0.002 A 
ATOM     93  C   UNL A   1      45.100  25.830  35.657  1.00  0.00     0.091 A 
ATOM     94  F   UNL A   1      42.809  25.904  34.985  1.00  0.00    -0.205 F 
ATOM     95  C   UNL A   1      46.377  26.417  35.640  1.00  0.00     0.022 A 
BRANCH  93  96
ATOM     96  S   UNL A   1      44.913  24.313  36.601  1.00  0.00     0.127 S 
ATOM     97  O   UNL A   1      46.304  23.894  36.771  1.00  0.00    -0.237 OA
ATOM     98  O   UNL A   1      44.265  24.789  37.823  1.00  0.00    -0.237 OA
ATOM     99  O   UNL A   1      44.094  23.427  35.785  1.00  0.00    -0.744 OA
ENDBRANCH  93  96
ENDBRANCH  66  89
ENDBRANCH  40  41
ENDBRANCH  32  35
ENDBRANCH  30  31
ENDBRANCH   1  30
TORSDOF 17
ENDMDL
MODEL 2
REMARK VINA RESULT:     -12.9      1.405      7.545
REMARK SMILES Nn1c(S[C@@H](C(=O)NCCCNC(=O)c2ccc(-c3c4nc(c(-c5cccc(S(=O)(=O)[O-])c5F)c5ccc([nH]5)c(-c5cccc(S(=O)(=O)[O-])c5F)c5nc(c(-c6cccc(S(=O)(=O)[O-])c6F)c6ccc3[nH]6)C=C5)C=C4)cc2)c2ccccc2)nc2ccc(Br)cc2c1=O
REMARK SMILES IDX 10 1 9 2 8 3 6 4 7 5 5 7 4 8 3 9 2 10 92 11 84 12 91 13
REMARK SMILES IDX 93 14 85 15 90 16 86 17 88 18 87 19 89 20 1 21 78 24 79 25
REMARK SMILES IDX 83 26 80 27 82 28 81 29 11 30 12 31 13 32 14 34 15 35 16 36
REMARK SMILES IDX 77 37 17 38 76 39 18 40 19 41 20 42 70 43 21 44 75 45 69 46
REMARK SMILES IDX 71 47 22 48 74 49 68 50 67 51 23 53 55 54 35 55 54 56 36 57
REMARK SMILES IDX 39 58 53 59 72 60 37 61 38 62 52 64 73 65 40 66 24 67 25 68
REMARK SMILES IDX 33 69 26 70 28 71 34 72 27 73 29 74 30 75 31 76 32 77 56 78
REMARK SMILES IDX 57 79 65 80 58 81 60 82 66 83 59 84 61 85 62 86 63 87 64 88
REMARK SMILES IDX 41 89 42 90 50 91 43 92 45 93 51 94 44 95 46 96 47 97 48 98
REMARK SMILES IDX 49 99
REMARK H PARENT 8 6 1 22 1 23 12 33 71 52 39 63
REMARK Flexibility Score: inf
ROOT
ATOM      1  C   UNL A   1      31.561  31.879  26.570  1.00  0.00     0.042 C 
ENDROOT
BRANCH   1   2
ATOM      2  C   UNL A   1      31.527  30.351  26.523  1.00  0.00     0.117 C 
BRANCH   2   3
ATOM      3  N   UNL A   1      32.239  29.775  25.393  1.00  0.00    -0.355 N 
ATOM      4  C   UNL A   1      31.792  29.209  24.229  1.00  0.00     0.238 C 
ATOM      5  O   UNL A   1      32.658  29.044  23.360  1.00  0.00    -0.273 OA
ATOM      6  H   UNL A   1      33.219  29.795  25.481  1.00  0.00     0.163 HD
BRANCH   4   7
ATOM      7  C   UNL A   1      30.288  28.913  23.974  1.00  0.00     0.174 C 
BRANCH   7   8
ATOM      8  S   UNL A   1      29.981  27.216  23.464  1.00  0.00    -0.068 SA
BRANCH   8   9
ATOM      9  C   UNL A   1      30.980  26.047  24.285  1.00  0.00     0.191 A 
ATOM     10  N   UNL A   1      30.681  25.429  25.496  1.00  0.00    -0.202 N 
ATOM     11  C   UNL A   1      31.593  24.576  26.131  1.00  0.00     0.280 A 
ATOM     12  N   UNL A   1      32.070  25.791  23.631  1.00  0.00    -0.222 NA
ATOM     13  C   UNL A   1      32.815  24.256  25.380  1.00  0.00     0.069 A 
ATOM     14  O   UNL A   1      31.404  24.091  27.247  1.00  0.00    -0.267 OA
ATOM     15  C   UNL A   1      32.974  24.854  24.133  1.00  0.00     0.079 A 
ATOM     16  C   UNL A   1      33.755  23.349  25.879  1.00  0.00     0.031 A 
ATOM     17  C   UNL A   1      34.081  24.506  23.357  1.00  0.00     0.030 A 
ATOM     18  C   UNL A   1      34.860  23.024  25.096  1.00  0.00     0.018 A 
ATOM     19  C   UNL A   1      35.023  23.589  23.831  1.00  0.00     0.018 A 
ATOM     20  Br  UNL A   1      36.146  21.805  25.751  1.00  0.00    -0.051 Br
BRANCH  10  21
ATOM     21  N   UNL A   1      29.437  25.568  26.143  1.00  0.00    -0.334 N 
ATOM     22  H   UNL A   1      29.369  25.430  27.116  1.00  0.00     0.178 HD
ATOM     23  H   UNL A   1      28.636  25.804  25.622  1.00  0.00     0.178 HD
ENDBRANCH  10  21
ENDBRANCH   8   9
ENDBRANCH   7   8
BRANCH   7  24
ATOM     24  C   UNL A   1      29.517  30.041  23.269  1.00  0.00    -0.025 A 
ATOM     25  C   UNL A   1      29.165  29.865  21.913  1.00  0.00     0.005 A 
ATOM     26  C   UNL A   1      29.146  31.257  23.869  1.00  0.00     0.005 A 
ATOM     27  C   UNL A   1      28.429  30.825  21.215  1.00  0.00     0.000 A 
ATOM     28  C   UNL A   1      28.393  32.211  23.175  1.00  0.00     0.000 A 
ATOM     29  C   UNL A   1      28.029  31.993  21.852  1.00  0.00     0.000 A 
ENDBRANCH   7  24
ENDBRANCH   4   7
ENDBRANCH   2   3
ENDBRANCH   1   2
BRANCH   1  30
ATOM     30  C   UNL A   1      32.799  32.476  27.229  1.00  0.00     0.118 C 
BRANCH  30  31
ATOM     31  N   UNL A   1      32.619  33.864  27.629  1.00  0.00    -0.352 N 
ATOM     32  C   UNL A   1      33.212  34.594  28.633  1.00  0.00     0.251 C 
ATOM     33  H   UNL A   1      31.964  34.363  27.090  1.00  0.00     0.163 HD
ATOM     34  O   UNL A   1      32.771  35.713  28.890  1.00  0.00    -0.269 OA
BRANCH  32  35
ATOM     35  C   UNL A   1      34.340  34.044  29.422  1.00  0.00     0.039 A 
ATOM     36  C   UNL A   1      35.668  34.342  29.110  1.00  0.00     0.014 A 
ATOM     37  C   UNL A   1      34.059  33.233  30.529  1.00  0.00     0.014 A 
ATOM     38  C   UNL A   1      36.703  33.696  29.781  1.00  0.00     0.010 A 
ATOM     39  C   UNL A   1      35.103  32.655  31.260  1.00  0.00     0.010 A 
ATOM     40  C   UNL A   1      36.436  32.840  30.862  1.00  0.00    -0.014 A 
BRANCH  40  41
ATOM     41  C   UNL A   1      37.561  32.168  31.567  1.00  0.00     0.031 A 
ATOM     42  C   UNL A   1      38.332  31.053  30.911  1.00  0.00     0.074 A 
ATOM     43  C   UNL A   1      37.914  32.587  32.798  1.00  0.00     0.049 A 
ATOM     44  N   UNL A   1      39.350  30.374  31.377  1.00  0.00    -0.248 NA
ATOM     45  C   UNL A   1      37.909  30.640  29.562  1.00  0.00     0.031 C 
ATOM     46  C   UNL A   1      37.234  33.639  33.556  1.00  0.00     0.029 A 
ATOM     47  N   UNL A   1      38.935  32.190  33.625  1.00  0.00    -0.354 N 
ATOM     48  C   UNL A   1      39.667  29.438  30.400  1.00  0.00     0.074 A 
ATOM     49  C   UNL A   1      38.729  29.626  29.315  1.00  0.00     0.031 C 
ATOM     50  C   UNL A   1      37.877  33.832  34.717  1.00  0.00     0.029 A 
ATOM     51  C   UNL A   1      38.986  32.887  34.810  1.00  0.00     0.049 A 
ATOM     52  H   UNL A   1      39.571  31.475  33.392  1.00  0.00     0.167 HD
ATOM     53  C   UNL A   1      40.662  28.520  30.396  1.00  0.00     0.034 A 
ATOM     54  C   UNL A   1      39.824  32.780  35.860  1.00  0.00     0.034 A 
ATOM     55  C   UNL A   1      41.629  28.361  31.448  1.00  0.00     0.049 A 
ATOM     56  C   UNL A   1      40.933  31.771  35.820  1.00  0.00     0.074 A 
ATOM     57  C   UNL A   1      42.693  27.478  31.509  1.00  0.00     0.029 A 
ATOM     58  N   UNL A   1      41.659  29.105  32.616  1.00  0.00    -0.354 N 
ATOM     59  N   UNL A   1      41.253  30.943  34.857  1.00  0.00    -0.248 NA
ATOM     60  C   UNL A   1      41.807  31.691  37.000  1.00  0.00     0.031 C 
ATOM     61  C   UNL A   1      43.368  27.689  32.714  1.00  0.00     0.029 A 
ATOM     62  C   UNL A   1      42.727  28.708  33.401  1.00  0.00     0.049 A 
ATOM     63  H   UNL A   1      41.016  29.813  32.853  1.00  0.00     0.167 HD
ATOM     64  C   UNL A   1      42.371  30.252  35.306  1.00  0.00     0.074 A 
ATOM     65  C   UNL A   1      42.687  30.770  36.621  1.00  0.00     0.031 C 
ATOM     66  C   UNL A   1      43.061  29.263  34.687  1.00  0.00     0.034 A 
BRANCH  53  67
ATOM     67  C   UNL A   1      40.807  27.641  29.183  1.00  0.00     0.023 A 
ATOM     68  C   UNL A   1      40.015  26.481  29.079  1.00  0.00     0.012 A 
ATOM     69  C   UNL A   1      41.639  28.013  28.109  1.00  0.00     0.148 A 
ATOM     70  C   UNL A   1      40.056  25.695  27.929  1.00  0.00     0.002 A 
ATOM     71  C   UNL A   1      41.654  27.241  26.953  1.00  0.00     0.091 A 
ATOM     72  F   UNL A   1      42.393  29.115  28.237  1.00  0.00    -0.205 F 
ATOM     73  C   UNL A   1      40.866  26.080  26.863  1.00  0.00     0.022 A 
BRANCH  71  74
ATOM     74  S   UNL A   1      42.618  27.678  25.502  1.00  0.00     0.127 S 
ATOM     75  O   UNL A   1      43.967  27.761  26.061  1.00  0.00    -0.237 OA
ATOM     76  O   UNL A   1      42.393  26.529  24.626  1.00  0.00    -0.237 OA
ATOM     77  O   UNL A   1      42.068  28.934  25.015  1.00  0.00    -0.744 OA
ENDBRANCH  71  74
ENDBRANCH  53  67
BRANCH  54  78
ATOM     78  C   UNL A   1      39.658  33.709  37.009  1.00  0.00     0.023 A 
ATOM     79  C   UNL A   1      39.998  35.066  36.853  1.00  0.00     0.012 A 
ATOM     80  C   UNL A   1      39.067  33.276  38.212  1.00  0.00     0.148 A 
ATOM     81  C   UNL A   1      39.752  35.979  37.878  1.00  0.00     0.002 A 
ATOM     82  C   UNL A   1      38.783  34.199  39.211  1.00  0.00     0.091 A 
ATOM     83  F   UNL A   1      38.758  31.978  38.334  1.00  0.00    -0.205 F 
ATOM     84  C   UNL A   1      39.133  35.550  39.050  1.00  0.00     0.022 A 
BRANCH  82  85
ATOM     85  S   UNL A   1      37.877  33.766  40.700  1.00  0.00     0.127 S 
ATOM     86  O   UNL A   1      37.711  35.070  41.338  1.00  0.00    -0.237 OA
ATOM     87  O   UNL A   1      36.651  33.191  40.145  1.00  0.00    -0.237 OA
ATOM     88  O   UNL A   1      38.720  32.821  41.418  1.00  0.00    -0.744 OA
ENDBRANCH  82  85
ENDBRANCH  54  78
BRANCH  66  89
ATOM     89  C   UNL A   1      44.238  28.668  35.404  1.00  0.00     0.023 A 
ATOM     90  C   UNL A   1      45.516  29.227  35.213  1.00  0.00     0.012 A 
ATOM     91  C   UNL A   1      44.059  27.645  36.357  1.00  0.00     0.148 A 
ATOM     92  C   UNL A   1      46.603  28.771  35.956  1.00  0.00     0.002 A 
ATOM     93  C   UNL A   1      45.142  27.218  37.116  1.00  0.00     0.091 A 
ATOM     94  F   UNL A   1      42.833  27.125  36.511  1.00  0.00    -0.205 F 
ATOM     95  C   UNL A   1      46.415  27.777  36.914  1.00  0.00     0.022 A 
BRANCH  93  96
ATOM     96  S   UNL A   1      44.987  25.995  38.423  1.00  0.00     0.127 S 
ATOM     97  O   UNL A   1      46.380  25.813  38.827  1.00  0.00    -0.237 OA
ATOM     98  O   UNL A   1      44.153  26.693  39.401  1.00  0.00    -0.237 OA
ATOM     99  O   UNL A   1      44.360  24.830  37.813  1.00  0.00    -0.744 OA
ENDBRANCH  93  96
ENDBRANCH  66  89
ENDBRANCH  40  41
ENDBRANCH  32  35
ENDBRANCH  30  31
ENDBRANCH   1  30
TORSDOF 17
ENDMDL
MODEL 3
REMARK VINA RESULT:     -12.9      1.947      2.546
REMARK SMILES Nn1c(S[C@@H](C(=O)NCCCNC(=O)c2ccc(-c3c4nc(c(-c5cccc(S(=O)(=O)[O-])c5F)c5ccc([nH]5)c(-c5cccc(S(=O)(=O)[O-])c5F)c5nc(c(-c6cccc(S(=O)(=O)[O-])c6F)c6ccc3[nH]6)C=C5)C=C4)cc2)c2ccccc2)nc2ccc(Br)cc2c1=O
REMARK SMILES IDX 10 1 9 2 8 3 6 4 7 5 5 7 4 8 3 9 2 10 92 11 84 12 91 13
REMARK SMILES IDX 93 14 85 15 90 16 86 17 88 18 87 19 89 20 1 21 78 24 79 25
REMARK SMILES IDX 83 26 80 27 82 28 81 29 11 30 12 31 13 32 14 34 15 35 16 36
REMARK SMILES IDX 77 37 17 38 76 39 18 40 19 41 20 42 70 43 21 44 75 45 69 46
REMARK SMILES IDX 71 47 22 48 74 49 68 50 67 51 23 53 55 54 35 55 54 56 36 57
REMARK SMILES IDX 39 58 53 59 72 60 37 61 38 62 52 64 73 65 40 66 24 67 25 68
REMARK SMILES IDX 33 69 26 70 28 71 34 72 27 73 29 74 30 75 31 76 32 77 56 78
REMARK SMILES IDX 57 79 65 80 58 81 60 82 66 83 59 84 61 85 62 86 63 87 64 88
REMARK SMILES IDX 41 89 42 90 50 91 43 92 45 93 51 94 44 95 46 96 47 97 48 98
REMARK SMILES IDX 49 99
REMARK H PARENT 8 6 1 22 1 23 12 33 71 52 39 63
REMARK Flexibility Score: inf
ROOT
ATOM      1  C   UNL A   1      33.811  28.639  24.569  1.00  0.00     0.042 C 
ENDROOT
BRANCH   1   2
ATOM      2  C   UNL A   1      33.264  29.182  23.250  1.00  0.00     0.117 C 
BRANCH   2   3
ATOM      3  N   UNL A   1      32.629  28.178  22.410  1.00  0.00    -0.355 N 
ATOM      4  C   UNL A   1      31.393  27.591  22.469  1.00  0.00     0.238 C 
ATOM      5  O   UNL A   1      31.064  26.959  21.457  1.00  0.00    -0.273 OA
ATOM      6  H   UNL A   1      33.189  27.864  21.664  1.00  0.00     0.163 HD
BRANCH   4   7
ATOM      7  C   UNL A   1      30.429  27.808  23.668  1.00  0.00     0.174 C 
BRANCH   7   8
ATOM      8  S   UNL A   1      29.787  26.269  24.342  1.00  0.00    -0.068 SA
BRANCH   8   9
ATOM      9  C   UNL A   1      31.020  25.213  24.975  1.00  0.00     0.191 A 
ATOM     10  N   UNL A   1      30.902  24.410  26.106  1.00  0.00    -0.202 N 
ATOM     11  C   UNL A   1      31.983  23.668  26.599  1.00  0.00     0.280 A 
ATOM     12  N   UNL A   1      32.103  25.243  24.262  1.00  0.00    -0.222 NA
ATOM     13  C   UNL A   1      33.202  23.672  25.776  1.00  0.00     0.069 A 
ATOM     14  O   UNL A   1      31.943  23.026  27.648  1.00  0.00    -0.267 OA
ATOM     15  C   UNL A   1      33.185  24.435  24.612  1.00  0.00     0.079 A 
ATOM     16  C   UNL A   1      34.314  22.900  26.127  1.00  0.00     0.031 A 
ATOM     17  C   UNL A   1      34.294  24.393  23.765  1.00  0.00     0.030 A 
ATOM     18  C   UNL A   1      35.417  22.881  25.276  1.00  0.00     0.018 A 
ATOM     19  C   UNL A   1      35.409  23.615  24.090  1.00  0.00     0.018 A 
ATOM     20  Br  UNL A   1      36.933  21.850  25.730  1.00  0.00    -0.051 Br
BRANCH  10  21
ATOM     21  N   UNL A   1      29.688  24.238  26.802  1.00  0.00    -0.334 N 
ATOM     22  H   UNL A   1      29.300  23.338  26.901  1.00  0.00     0.178 HD
ATOM     23  H   UNL A   1      29.229  25.017  27.189  1.00  0.00     0.178 HD
ENDBRANCH  10  21
ENDBRANCH   8   9
ENDBRANCH   7   8
BRANCH   7  24
ATOM     24  C   UNL A   1      29.469  29.000  23.519  1.00  0.00    -0.025 A 
ATOM     25  C   UNL A   1      28.174  28.755  23.014  1.00  0.00     0.005 A 
ATOM     26  C   UNL A   1      29.789  30.332  23.831  1.00  0.00     0.005 A 
ATOM     27  C   UNL A   1      27.230  29.778  22.888  1.00  0.00     0.000 A 
ATOM     28  C   UNL A   1      28.838  31.354  23.723  1.00  0.00     0.000 A 
ATOM     29  C   UNL A   1      27.558  31.076  23.258  1.00  0.00     0.000 A 
ENDBRANCH   7  24
ENDBRANCH   4   7
ENDBRANCH   2   3
ENDBRANCH   1   2
BRANCH   1  30
ATOM     30  C   UNL A   1      32.869  28.768  25.761  1.00  0.00     0.118 C 
BRANCH  30  31
ATOM     31  N   UNL A   1      32.576  30.151  26.108  1.00  0.00    -0.352 N 
ATOM     32  C   UNL A   1      33.222  31.021  26.956  1.00  0.00     0.251 C 
ATOM     33  H   UNL A   1      31.783  30.526  25.662  1.00  0.00     0.163 HD
ATOM     34  O   UNL A   1      32.686  32.095  27.222  1.00  0.00    -0.269 OA
BRANCH  32  35
ATOM     35  C   UNL A   1      34.524  30.672  27.572  1.00  0.00     0.039 A 
ATOM     36  C   UNL A   1      34.812  29.370  27.989  1.00  0.00     0.014 A 
ATOM     37  C   UNL A   1      35.499  31.668  27.708  1.00  0.00     0.014 A 
ATOM     38  C   UNL A   1      35.985  29.107  28.693  1.00  0.00     0.010 A 
ATOM     39  C   UNL A   1      36.716  31.381  28.336  1.00  0.00     0.010 A 
ATOM     40  C   UNL A   1      36.951  30.109  28.880  1.00  0.00    -0.014 A 
BRANCH  40  41
ATOM     41  C   UNL A   1      38.199  29.801  29.630  1.00  0.00     0.031 A 
ATOM     42  C   UNL A   1      38.429  30.350  31.014  1.00  0.00     0.074 A 
ATOM     43  C   UNL A   1      39.121  28.990  29.075  1.00  0.00     0.049 A 
ATOM     44  N   UNL A   1      39.450  30.164  31.812  1.00  0.00    -0.248 NA
ATOM     45  C   UNL A   1      37.386  31.224  31.577  1.00  0.00     0.031 C 
ATOM     46  C   UNL A   1      39.032  28.411  27.732  1.00  0.00     0.029 A 
ATOM     47  N   UNL A   1      40.305  28.502  29.567  1.00  0.00    -0.354 N 
ATOM     48  C   UNL A   1      39.191  30.918  32.950  1.00  0.00     0.074 A 
ATOM     49  C   UNL A   1      37.920  31.574  32.740  1.00  0.00     0.031 C 
ATOM     50  C   UNL A   1      40.093  27.619  27.523  1.00  0.00     0.029 A 
ATOM     51  C   UNL A   1      40.963  27.668  28.695  1.00  0.00     0.049 A 
ATOM     52  H   UNL A   1      40.651  28.728  30.462  1.00  0.00     0.167 HD
ATOM     53  C   UNL A   1      39.933  31.035  34.076  1.00  0.00     0.034 A 
ATOM     54  C   UNL A   1      42.136  27.016  28.814  1.00  0.00     0.034 A 
ATOM     55  C   UNL A   1      41.172  30.345  34.312  1.00  0.00     0.049 A 
ATOM     56  C   UNL A   1      42.927  27.143  30.082  1.00  0.00     0.074 A 
ATOM     57  C   UNL A   1      41.971  30.380  35.441  1.00  0.00     0.029 A 
ATOM     58  N   UNL A   1      41.787  29.491  33.412  1.00  0.00    -0.354 N 
ATOM     59  N   UNL A   1      42.628  27.809  31.170  1.00  0.00    -0.248 NA
ATOM     60  C   UNL A   1      44.205  26.419  30.149  1.00  0.00     0.031 C 
ATOM     61  C   UNL A   1      43.070  29.545  35.224  1.00  0.00     0.029 A 
ATOM     62  C   UNL A   1      42.952  28.985  33.962  1.00  0.00     0.049 A 
ATOM     63  H   UNL A   1      41.446  29.274  32.513  1.00  0.00     0.167 HD
ATOM     64  C   UNL A   1      43.672  27.576  32.056  1.00  0.00     0.074 A 
ATOM     65  C   UNL A   1      44.604  26.692  31.386  1.00  0.00     0.031 C 
ATOM     66  C   UNL A   1      43.847  28.068  33.307  1.00  0.00     0.034 A 
BRANCH  53  67
ATOM     67  C   UNL A   1      39.399  31.900  35.185  1.00  0.00     0.023 A 
ATOM     68  C   UNL A   1      38.503  31.341  36.118  1.00  0.00     0.012 A 
ATOM     69  C   UNL A   1      39.857  33.219  35.366  1.00  0.00     0.148 A 
ATOM     70  C   UNL A   1      38.061  32.086  37.211  1.00  0.00     0.002 A 
ATOM     71  C   UNL A   1      39.435  33.947  36.473  1.00  0.00     0.091 A 
ATOM     72  F   UNL A   1      40.699  33.734  34.458  1.00  0.00    -0.205 F 
ATOM     73  C   UNL A   1      38.534  33.383  37.393  1.00  0.00     0.022 A 
BRANCH  71  74
ATOM     74  S   UNL A   1      40.025  35.605  36.833  1.00  0.00     0.127 S 
ATOM     75  O   UNL A   1      41.471  35.393  36.900  1.00  0.00    -0.237 OA
ATOM     76  O   UNL A   1      39.573  36.354  35.661  1.00  0.00    -0.237 OA
ATOM     77  O   UNL A   1      39.395  35.994  38.086  1.00  0.00    -0.744 OA
ENDBRANCH  71  74
ENDBRANCH  53  67
BRANCH  54  78
ATOM     78  C   UNL A   1      42.587  26.138  27.701  1.00  0.00     0.023 A 
ATOM     79  C   UNL A   1      43.588  26.597  26.824  1.00  0.00     0.012 A 
ATOM     80  C   UNL A   1      42.107  24.820  27.576  1.00  0.00     0.148 A 
ATOM     81  C   UNL A   1      44.105  25.756  25.839  1.00  0.00     0.002 A 
ATOM     82  C   UNL A   1      42.659  23.973  26.623  1.00  0.00     0.091 A 
ATOM     83  F   UNL A   1      41.150  24.413  28.422  1.00  0.00    -0.205 F 
ATOM     84  C   UNL A   1      43.651  24.442  25.747  1.00  0.00     0.022 A 
BRANCH  82  85
ATOM     85  S   UNL A   1      42.230  22.233  26.510  1.00  0.00     0.127 S 
ATOM     86  O   UNL A   1      40.797  22.297  26.230  1.00  0.00    -0.237 OA
ATOM     87  O   UNL A   1      43.059  21.795  25.386  1.00  0.00    -0.237 OA
ATOM     88  O   UNL A   1      42.592  21.650  27.794  1.00  0.00    -0.744 OA
ENDBRANCH  82  85
ENDBRANCH  54  78
BRANCH  66  89
ATOM     89  C   UNL A   1      45.085  27.666  34.056  1.00  0.00     0.023 A 
ATOM     90  C   UNL A   1      46.223  28.493  34.001  1.00  0.00     0.012 A 
ATOM     91  C   UNL A   1      45.077  26.545  34.910  1.00  0.00     0.148 A 
ATOM     92  C   UNL A   1      47.341  28.205  34.781  1.00  0.00     0.002 A 
ATOM     93  C   UNL A   1      46.184  26.283  35.708  1.00  0.00     0.091 A 
ATOM     94  F   UNL A   1      43.983  25.771  34.935  1.00  0.00    -0.205 F 
ATOM     95  C   UNL A   1      47.318  27.110  35.641  1.00  0.00     0.022 A 
BRANCH  93  96
ATOM     96  S   UNL A   1      46.222  24.940  36.900  1.00  0.00     0.127 S 
ATOM     97  O   UNL A   1      47.555  25.096  37.481  1.00  0.00    -0.237 OA
ATOM     98  O   UNL A   1      45.121  25.290  37.796  1.00  0.00    -0.237 OA
ATOM     99  O   UNL A   1      46.018  23.716  36.137  1.00  0.00    -0.744 OA
ENDBRANCH  93  96
ENDBRANCH  66  89
ENDBRANCH  40  41
ENDBRANCH  32  35
ENDBRANCH  30  31
ENDBRANCH   1  30
TORSDOF 17
ENDMDL
