MODEL 1
REMARK VINA RESULT:     -11.6      0.000      0.000
REMARK SMILES Cc1nnc(SCC[C@H]2CCC[C@]2([NH2+]C(C)C)C(=O)NCCCNC(=O)c2ccc(-c3c4nc(c(-c5cccc(S(=O)(=O)[O-])c5F)c5ccc([nH]5)c(-c5cccc(S(=O)(=O)[O-])c5F)c5nc(c(-c6cccc(S(=O)(=O)[O-])c6F)c6ccc3[nH]6)C=C5)C=C4)cc2)o1
REMARK SMILES IDX 21 1 20 2 18 3 19 4 13 6 9 7 10 8 11 9 12 10 8 11 7 12 6 13
REMARK SMILES IDX 5 14 1 15 2 16 3 17 90 18 4 19 14 20 15 23 16 24 17 25 22 26
REMARK SMILES IDX 23 27 24 28 25 29 26 31 27 32 28 33 89 34 29 35 88 36 30 37
REMARK SMILES IDX 31 38 32 39 82 40 33 41 87 42 81 43 83 44 34 45 86 46 80 47
REMARK SMILES IDX 79 48 35 50 67 51 47 52 66 53 48 54 51 55 65 56 84 57 49 58
REMARK SMILES IDX 50 59 64 61 85 62 52 63 36 64 37 65 45 66 38 67 40 68 46 69
REMARK SMILES IDX 39 70 41 71 42 72 43 73 44 74 68 75 69 76 77 77 70 78 72 79
REMARK SMILES IDX 78 80 71 81 73 82 74 83 75 84 76 85 53 86 54 87 62 88 55 89
REMARK SMILES IDX 57 90 63 91 56 92 58 93 59 94 60 95 61 96
REMARK H PARENT 20 5 14 21 14 22 24 30 83 49 51 60
REMARK Flexibility Score: inf
ROOT
ATOM      1  C   UNL A   1      34.401  22.954  27.191  1.00  0.00     0.118 C 
ENDROOT
BRANCH   1   2
ATOM      2  N   UNL A   1      32.979  22.748  27.273  1.00  0.00    -0.351 N 
ATOM      3  C   UNL A   1      31.957  23.439  26.727  1.00  0.00     0.281 C 
ATOM      4  O   UNL A   1      30.859  23.216  27.254  1.00  0.00    -0.268 OA
ATOM      5  H   UNL A   1      32.707  21.975  27.819  1.00  0.00     0.163 HD
BRANCH   3   6
ATOM      6  C   UNL A   1      32.108  24.354  25.443  1.00  0.00     0.178 C 
ATOM      7  C   UNL A   1      32.606  25.816  25.661  1.00  0.00     0.061 C 
ATOM      8  C   UNL A   1      31.488  26.422  26.502  1.00  0.00     0.011 C 
ATOM      9  C   UNL A   1      30.221  25.808  25.936  1.00  0.00     0.008 C 
ATOM     10  C   UNL A   1      30.656  24.637  25.032  1.00  0.00     0.079 C 
BRANCH   7  11
ATOM     11  C   UNL A   1      32.926  26.715  24.399  1.00  0.00     0.022 C 
BRANCH  11  12
ATOM     12  C   UNL A   1      32.090  27.945  23.937  1.00  0.00     0.080 C 
BRANCH  12  13
ATOM     13  S   UNL A   1      30.770  27.668  22.699  1.00  0.00    -0.065 SA
BRANCH  13  14
ATOM     14  C   UNL A   1      30.053  29.241  22.474  1.00  0.00     0.276 A 
ATOM     15  C   UNL A   1      27.667  31.550  23.636  1.00  0.00     0.113 C 
ATOM     16  C   UNL A   1      28.722  30.866  22.859  1.00  0.00     0.214 A 
ATOM     17  N   UNL A   1      29.008  30.923  21.575  1.00  0.00    -0.112 NA
ATOM     18  O   UNL A   1      29.426  29.891  23.509  1.00  0.00    -0.416 OA
ATOM     19  N   UNL A   1      29.890  29.877  21.329  1.00  0.00    -0.101 NA
ENDBRANCH  13  14
ENDBRANCH  12  13
ENDBRANCH  11  12
ENDBRANCH   7  11
BRANCH   6  20
ATOM     20  N   UNL A   1      33.017  23.680  24.496  1.00  0.00    -0.331 N 
ATOM     21  H   UNL A   1      33.542  22.982  25.022  1.00  0.00     0.347 HD
ATOM     22  H   UNL A   1      33.566  24.437  24.090  1.00  0.00     0.347 HD
BRANCH  20  23
ATOM     23  C   UNL A   1      32.427  23.001  23.343  1.00  0.00     0.176 C 
ATOM     24  C   UNL A   1      33.154  23.351  22.046  1.00  0.00     0.075 C 
ATOM     25  C   UNL A   1      32.552  21.498  23.617  1.00  0.00     0.075 C 
ENDBRANCH  20  23
ENDBRANCH   6  20
ENDBRANCH   3   6
ENDBRANCH   1   2
BRANCH   1  26
ATOM     26  C   UNL A   1      35.052  21.767  26.484  1.00  0.00     0.042 C 
BRANCH  26  27
ATOM     27  C   UNL A   1      36.315  22.133  25.703  1.00  0.00     0.118 C 
BRANCH  27  28
ATOM     28  N   UNL A   1      37.331  21.089  25.764  1.00  0.00    -0.352 N 
ATOM     29  C   UNL A   1      38.684  21.202  25.960  1.00  0.00     0.251 C 
ATOM     30  H   UNL A   1      36.998  20.170  25.647  1.00  0.00     0.163 HD
ATOM     31  O   UNL A   1      39.419  20.243  25.752  1.00  0.00    -0.269 OA
BRANCH  29  32
ATOM     32  C   UNL A   1      39.243  22.490  26.411  1.00  0.00     0.039 A 
ATOM     33  C   UNL A   1      40.300  22.490  27.323  1.00  0.00     0.014 A 
ATOM     34  C   UNL A   1      38.724  23.694  25.925  1.00  0.00     0.014 A 
ATOM     35  C   UNL A   1      40.876  23.703  27.705  1.00  0.00     0.010 A 
ATOM     36  C   UNL A   1      39.354  24.891  26.241  1.00  0.00     0.010 A 
ATOM     37  C   UNL A   1      40.427  24.910  27.143  1.00  0.00    -0.014 A 
BRANCH  37  38
ATOM     38  C   UNL A   1      41.066  26.204  27.487  1.00  0.00     0.031 A 
ATOM     39  C   UNL A   1      42.486  26.478  27.072  1.00  0.00     0.074 A 
ATOM     40  C   UNL A   1      40.397  27.092  28.249  1.00  0.00     0.049 A 
ATOM     41  N   UNL A   1      43.231  27.522  27.326  1.00  0.00    -0.248 NA
ATOM     42  C   UNL A   1      43.171  25.430  26.296  1.00  0.00     0.031 C 
ATOM     43  C   UNL A   1      39.047  26.901  28.784  1.00  0.00     0.029 A 
ATOM     44  N   UNL A   1      40.771  28.322  28.726  1.00  0.00    -0.354 N 
ATOM     45  C   UNL A   1      44.477  27.241  26.778  1.00  0.00     0.074 A 
ATOM     46  C   UNL A   1      44.400  25.914  26.212  1.00  0.00     0.031 C 
ATOM     47  C   UNL A   1      38.704  27.977  29.509  1.00  0.00     0.029 A 
ATOM     48  C   UNL A   1      39.817  28.921  29.517  1.00  0.00     0.049 A 
ATOM     49  H   UNL A   1      41.639  28.738  28.522  1.00  0.00     0.167 HD
ATOM     50  C   UNL A   1      45.575  28.030  26.723  1.00  0.00     0.034 A 
ATOM     51  C   UNL A   1      39.840  30.094  30.178  1.00  0.00     0.034 A 
ATOM     52  C   UNL A   1      45.630  29.368  27.247  1.00  0.00     0.049 A 
ATOM     53  C   UNL A   1      41.057  30.973  30.058  1.00  0.00     0.074 A 
ATOM     54  C   UNL A   1      46.661  30.285  27.159  1.00  0.00     0.029 A 
ATOM     55  N   UNL A   1      44.611  29.977  27.962  1.00  0.00    -0.354 N 
ATOM     56  N   UNL A   1      42.167  30.758  29.394  1.00  0.00    -0.248 NA
ATOM     57  C   UNL A   1      41.008  32.271  30.746  1.00  0.00     0.031 C 
ATOM     58  C   UNL A   1      46.274  31.442  27.844  1.00  0.00     0.029 A 
ATOM     59  C   UNL A   1      44.991  31.256  28.332  1.00  0.00     0.049 A 
ATOM     60  H   UNL A   1      43.744  29.562  28.176  1.00  0.00     0.167 HD
ATOM     61  C   UNL A   1      42.933  31.906  29.554  1.00  0.00     0.074 A 
ATOM     62  C   UNL A   1      42.151  32.822  30.358  1.00  0.00     0.031 C 
ATOM     63  C   UNL A   1      44.179  32.174  29.088  1.00  0.00     0.034 A 
BRANCH  50  64
ATOM     64  C   UNL A   1      46.794  27.485  26.024  1.00  0.00     0.023 A 
ATOM     65  C   UNL A   1      46.956  27.698  24.639  1.00  0.00     0.012 A 
ATOM     66  C   UNL A   1      47.804  26.813  26.741  1.00  0.00     0.148 A 
ATOM     67  C   UNL A   1      48.083  27.219  23.972  1.00  0.00     0.002 A 
ATOM     68  C   UNL A   1      48.947  26.380  26.078  1.00  0.00     0.091 A 
ATOM     69  F   UNL A   1      47.624  26.602  28.052  1.00  0.00    -0.205 F 
ATOM     70  C   UNL A   1      49.081  26.571  24.692  1.00  0.00     0.022 A 
BRANCH  68  71
ATOM     71  S   UNL A   1      50.327  25.608  26.928  1.00  0.00     0.127 S 
ATOM     72  O   UNL A   1      51.228  25.308  25.817  1.00  0.00    -0.237 OA
ATOM     73  O   UNL A   1      50.785  26.683  27.810  1.00  0.00    -0.237 OA
ATOM     74  O   UNL A   1      49.778  24.449  27.618  1.00  0.00    -0.744 OA
ENDBRANCH  68  71
ENDBRANCH  50  64
BRANCH  51  75
ATOM     75  C   UNL A   1      38.646  30.536  30.952  1.00  0.00     0.023 A 
ATOM     76  C   UNL A   1      38.576  30.263  32.332  1.00  0.00     0.012 A 
ATOM     77  C   UNL A   1      37.596  31.249  30.339  1.00  0.00     0.148 A 
ATOM     78  C   UNL A   1      37.469  30.661  33.082  1.00  0.00     0.002 A 
ATOM     79  C   UNL A   1      36.523  31.691  31.104  1.00  0.00     0.091 A 
ATOM     80  F   UNL A   1      37.676  31.490  29.024  1.00  0.00    -0.205 F 
ATOM     81  C   UNL A   1      36.448  31.383  32.471  1.00  0.00     0.022 A 
BRANCH  79  82
ATOM     82  S   UNL A   1      35.231  32.741  30.429  1.00  0.00     0.127 S 
ATOM     83  O   UNL A   1      34.754  31.945  29.302  1.00  0.00    -0.237 OA
ATOM     84  O   UNL A   1      34.299  32.835  31.555  1.00  0.00    -0.237 OA
ATOM     85  O   UNL A   1      35.883  33.998  30.088  1.00  0.00    -0.744 OA
ENDBRANCH  79  82
ENDBRANCH  51  75
BRANCH  63  86
ATOM     86  C   UNL A   1      44.767  33.525  29.403  1.00  0.00     0.023 A 
ATOM     87  C   UNL A   1      45.742  33.649  30.412  1.00  0.00     0.012 A 
ATOM     88  C   UNL A   1      44.405  34.656  28.646  1.00  0.00     0.148 A 
ATOM     89  C   UNL A   1      46.324  34.886  30.686  1.00  0.00     0.002 A 
ATOM     90  C   UNL A   1      45.026  35.875  28.890  1.00  0.00     0.091 A 
ATOM     91  F   UNL A   1      43.461  34.520  27.703  1.00  0.00    -0.205 F 
ATOM     92  C   UNL A   1      45.976  35.995  29.917  1.00  0.00     0.022 A 
BRANCH  90  93
ATOM     93  S   UNL A   1      44.714  37.332  27.886  1.00  0.00     0.127 S 
ATOM     94  O   UNL A   1      43.547  37.907  28.553  1.00  0.00    -0.237 OA
ATOM     95  O   UNL A   1      45.951  38.094  28.054  1.00  0.00    -0.237 OA
ATOM     96  O   UNL A   1      44.484  36.845  26.532  1.00  0.00    -0.744 OA
ENDBRANCH  90  93
ENDBRANCH  63  86
ENDBRANCH  37  38
ENDBRANCH  29  32
ENDBRANCH  27  28
ENDBRANCH  26  27
ENDBRANCH   1  26
TORSDOF 19
ENDMDL
MODEL 2
REMARK VINA RESULT:     -11.5      2.864      8.173
REMARK SMILES Cc1nnc(SCC[C@H]2CCC[C@]2([NH2+]C(C)C)C(=O)NCCCNC(=O)c2ccc(-c3c4nc(c(-c5cccc(S(=O)(=O)[O-])c5F)c5ccc([nH]5)c(-c5cccc(S(=O)(=O)[O-])c5F)c5nc(c(-c6cccc(S(=O)(=O)[O-])c6F)c6ccc3[nH]6)C=C5)C=C4)cc2)o1
REMARK SMILES IDX 21 1 20 2 18 3 19 4 13 6 9 7 10 8 11 9 12 10 8 11 7 12 6 13
REMARK SMILES IDX 5 14 1 15 2 16 3 17 90 18 4 19 14 20 15 23 16 24 17 25 22 26
REMARK SMILES IDX 23 27 24 28 25 29 26 31 27 32 28 33 89 34 29 35 88 36 30 37
REMARK SMILES IDX 31 38 32 39 82 40 33 41 87 42 81 43 83 44 34 45 86 46 80 47
REMARK SMILES IDX 79 48 35 50 67 51 47 52 66 53 48 54 51 55 65 56 84 57 49 58
REMARK SMILES IDX 50 59 64 61 85 62 52 63 36 64 37 65 45 66 38 67 40 68 46 69
REMARK SMILES IDX 39 70 41 71 42 72 43 73 44 74 68 75 69 76 77 77 70 78 72 79
REMARK SMILES IDX 78 80 71 81 73 82 74 83 75 84 76 85 53 86 54 87 62 88 55 89
REMARK SMILES IDX 57 90 63 91 56 92 58 93 59 94 60 95 61 96
REMARK H PARENT 20 5 14 21 14 22 24 30 83 49 51 60
REMARK Flexibility Score: inf
ROOT
ATOM      1  C   UNL A   1      37.173  21.352  25.074  1.00  0.00     0.118 C 
ENDROOT
BRANCH   1   2
ATOM      2  N   UNL A   1      36.139  21.131  26.050  1.00  0.00    -0.351 N 
ATOM      3  C   UNL A   1      34.925  21.703  26.189  1.00  0.00     0.281 C 
ATOM      4  O   UNL A   1      34.419  21.544  27.308  1.00  0.00    -0.268 OA
ATOM      5  H   UNL A   1      36.353  20.451  26.729  1.00  0.00     0.163 HD
BRANCH   3   6
ATOM      6  C   UNL A   1      34.146  22.400  25.000  1.00  0.00     0.178 C 
ATOM      7  C   UNL A   1      34.827  23.630  24.323  1.00  0.00     0.061 C 
ATOM      8  C   UNL A   1      34.886  24.641  25.462  1.00  0.00     0.011 C 
ATOM      9  C   UNL A   1      33.584  24.433  26.214  1.00  0.00     0.008 C 
ATOM     10  C   UNL A   1      32.979  23.110  25.703  1.00  0.00     0.079 C 
BRANCH   7  11
ATOM     11  C   UNL A   1      34.166  24.259  23.030  1.00  0.00     0.022 C 
BRANCH  11  12
ATOM     12  C   UNL A   1      33.005  25.297  23.030  1.00  0.00     0.080 C 
BRANCH  12  13
ATOM     13  S   UNL A   1      33.436  27.065  22.826  1.00  0.00    -0.065 SA
BRANCH  13  14
ATOM     14  C   UNL A   1      33.137  27.766  24.394  1.00  0.00     0.276 A 
ATOM     15  C   UNL A   1      34.577  29.163  27.283  1.00  0.00     0.113 C 
ATOM     16  C   UNL A   1      33.627  28.626  26.286  1.00  0.00     0.214 A 
ATOM     17  N   UNL A   1      32.474  28.015  26.450  1.00  0.00    -0.112 NA
ATOM     18  O   UNL A   1      34.056  28.596  24.988  1.00  0.00    -0.416 OA
ATOM     19  N   UNL A   1      32.145  27.471  25.212  1.00  0.00    -0.101 NA
ENDBRANCH  13  14
ENDBRANCH  12  13
ENDBRANCH  11  12
ENDBRANCH   7  11
BRANCH   6  20
ATOM     20  N   UNL A   1      33.867  21.385  23.967  1.00  0.00    -0.331 N 
ATOM     21  H   UNL A   1      34.447  20.573  24.174  1.00  0.00     0.347 HD
ATOM     22  H   UNL A   1      34.064  21.859  23.086  1.00  0.00     0.347 HD
BRANCH  20  23
ATOM     23  C   UNL A   1      32.492  20.910  23.824  1.00  0.00     0.176 C 
ATOM     24  C   UNL A   1      31.958  21.135  22.411  1.00  0.00     0.075 C 
ATOM     25  C   UNL A   1      32.518  19.409  24.134  1.00  0.00     0.075 C 
ENDBRANCH  20  23
ENDBRANCH   6  20
ENDBRANCH   3   6
ENDBRANCH   1   2
BRANCH   1  26
ATOM     26  C   UNL A   1      38.191  20.216  25.139  1.00  0.00     0.042 C 
BRANCH  26  27
ATOM     27  C   UNL A   1      39.342  20.475  26.113  1.00  0.00     0.118 C 
BRANCH  27  28
ATOM     28  N   UNL A   1      40.357  19.430  26.069  1.00  0.00    -0.352 N 
ATOM     29  C   UNL A   1      41.724  19.546  26.036  1.00  0.00     0.251 C 
ATOM     30  H   UNL A   1      40.014  18.508  26.061  1.00  0.00     0.163 HD
ATOM     31  O   UNL A   1      42.419  18.572  25.768  1.00  0.00    -0.269 OA
BRANCH  29  32
ATOM     32  C   UNL A   1      42.345  20.855  26.315  1.00  0.00     0.039 A 
ATOM     33  C   UNL A   1      42.659  21.699  25.249  1.00  0.00     0.014 A 
ATOM     34  C   UNL A   1      42.608  21.245  27.632  1.00  0.00     0.014 A 
ATOM     35  C   UNL A   1      43.187  22.965  25.509  1.00  0.00     0.010 A 
ATOM     36  C   UNL A   1      43.053  22.535  27.890  1.00  0.00     0.010 A 
ATOM     37  C   UNL A   1      43.359  23.404  26.832  1.00  0.00    -0.014 A 
BRANCH  37  38
ATOM     38  C   UNL A   1      43.860  24.768  27.133  1.00  0.00     0.031 A 
ATOM     39  C   UNL A   1      42.928  25.806  27.697  1.00  0.00     0.074 A 
ATOM     40  C   UNL A   1      45.127  25.094  26.813  1.00  0.00     0.049 A 
ATOM     41  N   UNL A   1      43.165  27.061  27.972  1.00  0.00    -0.248 NA
ATOM     42  C   UNL A   1      41.540  25.388  27.959  1.00  0.00     0.031 C 
ATOM     43  C   UNL A   1      46.099  24.198  26.181  1.00  0.00     0.029 A 
ATOM     44  N   UNL A   1      45.810  26.276  26.952  1.00  0.00    -0.354 N 
ATOM     45  C   UNL A   1      41.954  27.591  28.399  1.00  0.00     0.074 A 
ATOM     46  C   UNL A   1      40.974  26.532  28.311  1.00  0.00     0.031 C 
ATOM     47  C   UNL A   1      47.252  24.859  25.994  1.00  0.00     0.029 A 
ATOM     48  C   UNL A   1      47.095  26.232  26.463  1.00  0.00     0.049 A 
ATOM     49  H   UNL A   1      45.417  27.079  27.363  1.00  0.00     0.167 HD
ATOM     50  C   UNL A   1      41.687  28.838  28.854  1.00  0.00     0.034 A 
ATOM     51  C   UNL A   1      48.038  27.192  26.395  1.00  0.00     0.034 A 
ATOM     52  C   UNL A   1      42.676  29.873  28.983  1.00  0.00     0.049 A 
ATOM     53  C   UNL A   1      47.729  28.555  26.954  1.00  0.00     0.074 A 
ATOM     54  C   UNL A   1      42.532  31.139  29.522  1.00  0.00     0.029 A 
ATOM     55  N   UNL A   1      43.993  29.764  28.564  1.00  0.00    -0.354 N 
ATOM     56  N   UNL A   1      46.623  28.988  27.508  1.00  0.00    -0.248 NA
ATOM     57  C   UNL A   1      48.812  29.549  26.914  1.00  0.00     0.031 C 
ATOM     58  C   UNL A   1      43.756  31.804  29.405  1.00  0.00     0.029 A 
ATOM     59  C   UNL A   1      44.671  30.942  28.821  1.00  0.00     0.049 A 
ATOM     60  H   UNL A   1      44.388  28.965  28.145  1.00  0.00     0.167 HD
ATOM     61  C   UNL A   1      46.885  30.291  27.914  1.00  0.00     0.074 A 
ATOM     62  C   UNL A   1      48.263  30.568  27.563  1.00  0.00     0.031 C 
ATOM     63  C   UNL A   1      46.057  31.183  28.512  1.00  0.00     0.034 A 
BRANCH  50  64
ATOM     64  C   UNL A   1      40.278  29.135  29.299  1.00  0.00     0.023 A 
ATOM     65  C   UNL A   1      39.309  29.505  28.342  1.00  0.00     0.012 A 
ATOM     66  C   UNL A   1      39.897  28.996  30.648  1.00  0.00     0.148 A 
ATOM     67  C   UNL A   1      37.995  29.768  28.725  1.00  0.00     0.002 A 
ATOM     68  C   UNL A   1      38.574  29.214  31.015  1.00  0.00     0.091 A 
ATOM     69  F   UNL A   1      40.835  28.664  31.546  1.00  0.00    -0.205 F 
ATOM     70  C   UNL A   1      37.626  29.613  30.058  1.00  0.00     0.022 A 
BRANCH  68  71
ATOM     71  S   UNL A   1      37.978  28.960  32.690  1.00  0.00     0.127 S 
ATOM     72  O   UNL A   1      36.625  29.509  32.609  1.00  0.00    -0.237 OA
ATOM     73  O   UNL A   1      38.038  27.504  32.821  1.00  0.00    -0.237 OA
ATOM     74  O   UNL A   1      38.895  29.686  33.558  1.00  0.00    -0.744 OA
ENDBRANCH  68  71
ENDBRANCH  50  64
BRANCH  51  75
ATOM     75  C   UNL A   1      49.384  26.875  25.840  1.00  0.00     0.023 A 
ATOM     76  C   UNL A   1      50.304  26.153  26.624  1.00  0.00     0.012 A 
ATOM     77  C   UNL A   1      49.747  27.258  24.533  1.00  0.00     0.148 A 
ATOM     78  C   UNL A   1      51.573  25.846  26.132  1.00  0.00     0.002 A 
ATOM     79  C   UNL A   1      50.992  26.900  24.029  1.00  0.00     0.091 A 
ATOM     80  F   UNL A   1      48.862  27.954  23.806  1.00  0.00    -0.205 F 
ATOM     81  C   UNL A   1      51.913  26.211  24.832  1.00  0.00     0.022 A 
BRANCH  79  82
ATOM     82  S   UNL A   1      51.464  27.210  22.324  1.00  0.00     0.127 S 
ATOM     83  O   UNL A   1      51.686  28.653  22.331  1.00  0.00    -0.237 OA
ATOM     84  O   UNL A   1      52.677  26.400  22.194  1.00  0.00    -0.237 OA
ATOM     85  O   UNL A   1      50.346  26.744  21.515  1.00  0.00    -0.744 OA
ENDBRANCH  79  82
ENDBRANCH  51  75
BRANCH  63  86
ATOM     86  C   UNL A   1      46.622  32.536  28.861  1.00  0.00     0.023 A 
ATOM     87  C   UNL A   1      47.243  32.736  30.109  1.00  0.00     0.012 A 
ATOM     88  C   UNL A   1      46.604  33.583  27.919  1.00  0.00     0.148 A 
ATOM     89  C   UNL A   1      47.808  33.971  30.428  1.00  0.00     0.002 A 
ATOM     90  C   UNL A   1      47.214  34.794  28.225  1.00  0.00     0.091 A 
ATOM     91  F   UNL A   1      45.992  33.377  26.744  1.00  0.00    -0.205 F 
ATOM     92  C   UNL A   1      47.804  34.994  29.483  1.00  0.00     0.022 A 
BRANCH  90  93
ATOM     93  S   UNL A   1      47.345  36.132  27.034  1.00  0.00     0.127 S 
ATOM     94  O   UNL A   1      48.045  35.479  25.929  1.00  0.00    -0.237 OA
ATOM     95  O   UNL A   1      45.941  36.446  26.766  1.00  0.00    -0.237 OA
ATOM     96  O   UNL A   1      48.084  37.195  27.702  1.00  0.00    -0.744 OA
ENDBRANCH  90  93
ENDBRANCH  63  86
ENDBRANCH  37  38
ENDBRANCH  29  32
ENDBRANCH  27  28
ENDBRANCH  26  27
ENDBRANCH   1  26
TORSDOF 19
ENDMDL
MODEL 3
REMARK VINA RESULT:     -11.2      5.561      8.813
REMARK SMILES Cc1nnc(SCC[C@H]2CCC[C@]2([NH2+]C(C)C)C(=O)NCCCNC(=O)c2ccc(-c3c4nc(c(-c5cccc(S(=O)(=O)[O-])c5F)c5ccc([nH]5)c(-c5cccc(S(=O)(=O)[O-])c5F)c5nc(c(-c6cccc(S(=O)(=O)[O-])c6F)c6ccc3[nH]6)C=C5)C=C4)cc2)o1
REMARK SMILES IDX 21 1 20 2 18 3 19 4 13 6 9 7 10 8 11 9 12 10 8 11 7 12 6 13
REMARK SMILES IDX 5 14 1 15 2 16 3 17 90 18 4 19 14 20 15 23 16 24 17 25 22 26
REMARK SMILES IDX 23 27 24 28 25 29 26 31 27 32 28 33 89 34 29 35 88 36 30 37
REMARK SMILES IDX 31 38 32 39 82 40 33 41 87 42 81 43 83 44 34 45 86 46 80 47
REMARK SMILES IDX 79 48 35 50 67 51 47 52 66 53 48 54 51 55 65 56 84 57 49 58
REMARK SMILES IDX 50 59 64 61 85 62 52 63 36 64 37 65 45 66 38 67 40 68 46 69
REMARK SMILES IDX 39 70 41 71 42 72 43 73 44 74 68 75 69 76 77 77 70 78 72 79
REMARK SMILES IDX 78 80 71 81 73 82 74 83 75 84 76 85 53 86 54 87 62 88 55 89
REMARK SMILES IDX 57 90 63 91 56 92 58 93 59 94 60 95 61 96
REMARK H PARENT 20 5 14 21 14 22 24 30 83 49 51 60
REMARK Flexibility Score: inf
ROOT
ATOM      1  C   UNL A   1      32.239  30.252  25.816  1.00  0.00     0.118 C 
ENDROOT
BRANCH   1   2
ATOM      2  N   UNL A   1      31.861  29.114  26.613  1.00  0.00    -0.351 N 
ATOM      3  C   UNL A   1      31.595  27.841  26.257  1.00  0.00     0.281 C 
ATOM      4  O   UNL A   1      30.979  27.196  27.116  1.00  0.00    -0.268 OA
ATOM      5  H   UNL A   1      31.783  29.296  27.578  1.00  0.00     0.163 HD
BRANCH   3   6
ATOM      6  C   UNL A   1      32.130  27.177  24.923  1.00  0.00     0.178 C 
ATOM      7  C   UNL A   1      32.142  25.619  24.854  1.00  0.00     0.061 C 
ATOM      8  C   UNL A   1      33.129  25.248  25.956  1.00  0.00     0.011 C 
ATOM      9  C   UNL A   1      34.200  26.320  25.873  1.00  0.00     0.008 C 
ATOM     10  C   UNL A   1      33.643  27.441  24.973  1.00  0.00     0.079 C 
BRANCH   7  11
ATOM     11  C   UNL A   1      32.516  24.912  23.488  1.00  0.00     0.022 C 
BRANCH  11  12
ATOM     12  C   UNL A   1      32.111  23.464  23.086  1.00  0.00     0.080 C 
BRANCH  12  13
ATOM     13  S   UNL A   1      32.996  22.074  23.886  1.00  0.00    -0.065 SA
BRANCH  13  14
ATOM     14  C   UNL A   1      34.671  22.555  23.856  1.00  0.00     0.276 A 
ATOM     15  C   UNL A   1      37.340  23.934  25.686  1.00  0.00     0.113 C 
ATOM     16  C   UNL A   1      36.496  23.367  24.614  1.00  0.00     0.214 A 
ATOM     17  N   UNL A   1      36.517  23.568  23.314  1.00  0.00    -0.112 NA
ATOM     18  O   UNL A   1      35.407  22.642  25.013  1.00  0.00    -0.416 OA
ATOM     19  N   UNL A   1      35.338  23.022  22.818  1.00  0.00    -0.101 NA
ENDBRANCH  13  14
ENDBRANCH  12  13
ENDBRANCH  11  12
ENDBRANCH   7  11
BRANCH   6  20
ATOM     20  N   UNL A   1      31.337  27.695  23.793  1.00  0.00    -0.331 N 
ATOM     21  H   UNL A   1      31.343  26.981  23.064  1.00  0.00     0.347 HD
ATOM     22  H   UNL A   1      31.785  28.579  23.552  1.00  0.00     0.347 HD
BRANCH  20  23
ATOM     23  C   UNL A   1      29.940  28.050  24.039  1.00  0.00     0.176 C 
ATOM     24  C   UNL A   1      29.512  29.266  23.219  1.00  0.00     0.075 C 
ATOM     25  C   UNL A   1      29.105  26.831  23.631  1.00  0.00     0.075 C 
ENDBRANCH  20  23
ENDBRANCH   6  20
ENDBRANCH   3   6
ENDBRANCH   1   2
BRANCH   1  26
ATOM     26  C   UNL A   1      31.765  31.535  26.495  1.00  0.00     0.042 C 
BRANCH  26  27
ATOM     27  C   UNL A   1      32.790  32.138  27.457  1.00  0.00     0.118 C 
BRANCH  27  28
ATOM     28  N   UNL A   1      32.632  33.579  27.609  1.00  0.00    -0.352 N 
ATOM     29  C   UNL A   1      33.232  34.430  28.503  1.00  0.00     0.251 C 
ATOM     30  H   UNL A   1      32.005  34.004  26.981  1.00  0.00     0.163 HD
ATOM     31  O   UNL A   1      32.811  35.573  28.643  1.00  0.00    -0.269 OA
BRANCH  29  32
ATOM     32  C   UNL A   1      34.377  33.951  29.299  1.00  0.00     0.039 A 
ATOM     33  C   UNL A   1      34.148  33.070  30.357  1.00  0.00     0.014 A 
ATOM     34  C   UNL A   1      35.675  34.370  28.992  1.00  0.00     0.014 A 
ATOM     35  C   UNL A   1      35.233  32.562  31.074  1.00  0.00     0.010 A 
ATOM     36  C   UNL A   1      36.756  33.799  29.651  1.00  0.00     0.010 A 
ATOM     37  C   UNL A   1      36.547  32.899  30.706  1.00  0.00    -0.014 A 
BRANCH  37  38
ATOM     38  C   UNL A   1      37.716  32.322  31.414  1.00  0.00     0.031 A 
ATOM     39  C   UNL A   1      38.486  31.186  30.797  1.00  0.00     0.074 A 
ATOM     40  C   UNL A   1      38.028  32.764  32.648  1.00  0.00     0.049 A 
ATOM     41  N   UNL A   1      39.497  30.517  31.285  1.00  0.00    -0.248 NA
ATOM     42  C   UNL A   1      38.042  30.718  29.473  1.00  0.00     0.031 C 
ATOM     43  C   UNL A   1      37.302  33.801  33.385  1.00  0.00     0.029 A 
ATOM     44  N   UNL A   1      39.021  32.377  33.513  1.00  0.00    -0.354 N 
ATOM     45  C   UNL A   1      39.785  29.529  30.351  1.00  0.00     0.074 A 
ATOM     46  C   UNL A   1      38.818  29.661  29.285  1.00  0.00     0.031 C 
ATOM     47  C   UNL A   1      37.877  33.974  34.586  1.00  0.00     0.029 A 
ATOM     48  C   UNL A   1      38.992  33.041  34.718  1.00  0.00     0.049 A 
ATOM     49  H   UNL A   1      39.690  31.691  33.292  1.00  0.00     0.167 HD
ATOM     50  C   UNL A   1      40.784  28.616  30.363  1.00  0.00     0.034 A 
ATOM     51  C   UNL A   1      39.772  32.908  35.808  1.00  0.00     0.034 A 
ATOM     52  C   UNL A   1      41.771  28.521  31.403  1.00  0.00     0.049 A 
ATOM     53  C   UNL A   1      40.907  31.918  35.774  1.00  0.00     0.074 A 
ATOM     54  C   UNL A   1      42.879  27.696  31.466  1.00  0.00     0.029 A 
ATOM     55  N   UNL A   1      41.766  29.273  32.567  1.00  0.00    -0.354 N 
ATOM     56  N   UNL A   1      41.264  31.105  34.809  1.00  0.00    -0.248 NA
ATOM     57  C   UNL A   1      41.768  31.855  36.963  1.00  0.00     0.031 C 
ATOM     58  C   UNL A   1      43.531  27.932  32.680  1.00  0.00     0.029 A 
ATOM     59  C   UNL A   1      42.845  28.925  33.361  1.00  0.00     0.049 A 
ATOM     60  H   UNL A   1      41.093  29.955  32.797  1.00  0.00     0.167 HD
ATOM     61  C   UNL A   1      42.410  30.461  35.259  1.00  0.00     0.074 A 
ATOM     62  C   UNL A   1      42.700  30.995  36.574  1.00  0.00     0.031 C 
ATOM     63  C   UNL A   1      43.148  29.503  34.644  1.00  0.00     0.034 A 
BRANCH  50  64
ATOM     64  C   UNL A   1      40.891  27.680  29.187  1.00  0.00     0.023 A 
ATOM     65  C   UNL A   1      40.119  26.500  29.163  1.00  0.00     0.012 A 
ATOM     66  C   UNL A   1      41.710  27.991  28.083  1.00  0.00     0.148 A 
ATOM     67  C   UNL A   1      40.188  25.626  28.079  1.00  0.00     0.002 A 
ATOM     68  C   UNL A   1      41.737  27.139  26.984  1.00  0.00     0.091 A 
ATOM     69  F   UNL A   1      42.452  29.107  28.131  1.00  0.00    -0.205 F 
ATOM     70  C   UNL A   1      40.988  25.951  26.986  1.00  0.00     0.022 A 
BRANCH  68  71
ATOM     71  S   UNL A   1      42.669  27.507  25.494  1.00  0.00     0.127 S 
ATOM     72  O   UNL A   1      42.110  28.803  25.109  1.00  0.00    -0.237 OA
ATOM     73  O   UNL A   1      44.043  27.563  25.997  1.00  0.00    -0.237 OA
ATOM     74  O   UNL A   1      42.404  26.413  24.572  1.00  0.00    -0.744 OA
ENDBRANCH  68  71
ENDBRANCH  50  64
BRANCH  51  75
ATOM     75  C   UNL A   1      39.551  33.783  36.993  1.00  0.00     0.023 A 
ATOM     76  C   UNL A   1      39.944  35.135  36.940  1.00  0.00     0.012 A 
ATOM     77  C   UNL A   1      38.930  33.295  38.160  1.00  0.00     0.148 A 
ATOM     78  C   UNL A   1      39.754  35.976  38.035  1.00  0.00     0.002 A 
ATOM     79  C   UNL A   1      38.692  34.154  39.227  1.00  0.00     0.091 A 
ATOM     80  F   UNL A   1      38.572  32.004  38.196  1.00  0.00    -0.205 F 
ATOM     81  C   UNL A   1      39.119  35.489  39.174  1.00  0.00     0.022 A 
BRANCH  79  82
ATOM     82  S   UNL A   1      37.762  33.648  40.679  1.00  0.00     0.127 S 
ATOM     83  O   UNL A   1      37.614  34.911  41.396  1.00  0.00    -0.237 OA
ATOM     84  O   UNL A   1      36.530  33.129  40.083  1.00  0.00    -0.237 OA
ATOM     85  O   UNL A   1      38.579  32.637  41.337  1.00  0.00    -0.744 OA
ENDBRANCH  79  82
ENDBRANCH  51  75
BRANCH  63  86
ATOM     86  C   UNL A   1      44.367  28.991  35.368  1.00  0.00     0.023 A 
ATOM     87  C   UNL A   1      45.614  29.616  35.173  1.00  0.00     0.012 A 
ATOM     88  C   UNL A   1      44.257  27.938  36.298  1.00  0.00     0.148 A 
ATOM     89  C   UNL A   1      46.741  29.179  35.868  1.00  0.00     0.002 A 
ATOM     90  C   UNL A   1      45.373  27.542  37.024  1.00  0.00     0.091 A 
ATOM     91  F   UNL A   1      43.064  27.345  36.455  1.00  0.00    -0.205 F 
ATOM     92  C   UNL A   1      46.618  28.152  36.801  1.00  0.00     0.022 A 
BRANCH  90  93
ATOM     93  S   UNL A   1      45.287  26.297  38.316  1.00  0.00     0.127 S 
ATOM     94  O   UNL A   1      46.663  26.288  38.812  1.00  0.00    -0.237 OA
ATOM     95  O   UNL A   1      44.310  26.876  39.239  1.00  0.00    -0.237 OA
ATOM     96  O   UNL A   1      44.848  25.071  37.665  1.00  0.00    -0.744 OA
ENDBRANCH  90  93
ENDBRANCH  63  86
ENDBRANCH  37  38
ENDBRANCH  29  32
ENDBRANCH  27  28
ENDBRANCH  26  27
ENDBRANCH   1  26
TORSDOF 19
ENDMDL
