MODEL 1
REMARK VINA RESULT:     -12.4      0.000      0.000
REMARK SMILES O=C(CCN1C(=O)/C(=C2\C(=O)N(Cc3ccc(Cl)cc3)c3ccccc32)SC1=S)NCCCNC(=O)c1ccc(-c2c3nc(c(-c4cccc(S(=O)(=O)[O-])c4F)c4ccc([nH]4)c(-c4cccc(S(=O)(=O)[O-])c4F)c4nc(c(-c5cccc(S(=O)(=O)[O-])c5F)c5ccc2[nH]5)C=C4)C=C3)cc1
REMARK SMILES IDX 31 1 30 2 1 3 2 4 3 6 4 7 5 8 6 9 28 10 7 11 8 12 27 13
REMARK SMILES IDX 29 14 9 15 10 16 26 17 11 18 12 19 21 20 25 21 22 22 24 23
REMARK SMILES IDX 23 24 13 25 14 26 15 27 20 28 16 29 19 30 17 31 18 32 32 33
REMARK SMILES IDX 33 34 34 35 35 36 36 38 37 39 38 40 99 41 39 42 98 43 40 44
REMARK SMILES IDX 41 45 42 46 92 47 43 48 97 49 91 50 93 51 44 52 96 53 90 54
REMARK SMILES IDX 89 55 45 57 77 58 57 59 76 60 58 61 61 62 75 63 94 64 59 65
REMARK SMILES IDX 60 66 74 68 95 69 62 70 46 71 47 72 55 73 48 74 50 75 56 76
REMARK SMILES IDX 49 77 51 78 52 79 53 80 54 81 78 82 79 83 87 84 80 85 82 86
REMARK SMILES IDX 88 87 81 88 83 89 84 90 85 91 86 92 63 93 64 94 72 95 65 96
REMARK SMILES IDX 67 97 73 98 66 99 68 100 69 101 70 102 71 103
REMARK H PARENT 30 5 34 37 93 56 61 67
REMARK Flexibility Score: inf
ROOT
ATOM      1  C   UNL A   1      36.243  19.072  24.626  1.00  0.00     0.117 C 
ENDROOT
BRANCH   1   2
ATOM      2  N   UNL A   1      35.197  19.803  25.324  1.00  0.00    -0.356 N 
ATOM      3  O   UNL A   1      33.469  18.999  24.037  1.00  0.00    -0.275 OA
ATOM      4  C   UNL A   1      33.868  19.653  24.994  1.00  0.00     0.221 C 
ATOM      5  H   UNL A   1      35.446  20.421  26.048  1.00  0.00     0.163 HD
BRANCH   4   6
ATOM      6  C   UNL A   1      32.907  20.318  25.957  1.00  0.00     0.122 C 
BRANCH   6   7
ATOM      7  C   UNL A   1      31.897  21.205  25.212  1.00  0.00     0.137 C 
BRANCH   7   8
ATOM      8  N   UNL A   1      32.036  22.624  25.584  1.00  0.00    -0.292 N 
ATOM      9  C   UNL A   1      31.306  23.580  24.878  1.00  0.00     0.267 C 
ATOM     10  C   UNL A   1      32.937  23.095  26.510  1.00  0.00     0.148 C 
ATOM     11  O   UNL A   1      30.480  23.305  24.019  1.00  0.00    -0.268 OA
ATOM     12  C   UNL A   1      31.845  24.953  25.148  1.00  0.00     0.093 C 
ATOM     13  S   UNL A   1      33.167  24.808  26.254  1.00  0.00    -0.053 SA
ATOM     14  S   UNL A   1      33.758  22.256  27.691  1.00  0.00    -0.052 S 
ATOM     15  C   UNL A   1      31.499  26.062  24.472  1.00  0.00     0.069 C 
ATOM     16  C   UNL A   1      30.197  26.286  23.738  1.00  0.00     0.260 C 
ATOM     17  C   UNL A   1      32.371  27.202  24.119  1.00  0.00     0.012 A 
ATOM     18  O   UNL A   1      29.136  25.709  23.949  1.00  0.00    -0.269 OA
ATOM     19  N   UNL A   1      30.417  27.386  22.914  1.00  0.00    -0.303 N 
ATOM     20  C   UNL A   1      31.737  27.848  23.053  1.00  0.00     0.052 A 
ATOM     21  C   UNL A   1      33.614  27.651  24.543  1.00  0.00     0.011 A 
ATOM     22  C   UNL A   1      32.384  28.806  22.290  1.00  0.00     0.027 A 
ATOM     23  C   UNL A   1      34.225  28.703  23.850  1.00  0.00     0.001 A 
ATOM     24  C   UNL A   1      33.638  29.244  22.703  1.00  0.00     0.002 A 
BRANCH  19  25
ATOM     25  C   UNL A   1      29.372  28.111  22.202  1.00  0.00     0.161 C 
BRANCH  25  26
ATOM     26  C   UNL A   1      29.320  29.606  22.516  1.00  0.00    -0.028 A 
ATOM     27  C   UNL A   1      29.526  30.091  23.820  1.00  0.00     0.007 A 
ATOM     28  C   UNL A   1      29.073  30.548  21.506  1.00  0.00     0.007 A 
ATOM     29  C   UNL A   1      29.440  31.453  24.123  1.00  0.00     0.021 A 
ATOM     30  C   UNL A   1      29.024  31.919  21.798  1.00  0.00     0.021 A 
ATOM     31  C   UNL A   1      29.193  32.365  23.107  1.00  0.00     0.041 A 
ATOM     32  Cl  UNL A   1      29.108  34.044  23.469  1.00  0.00    -0.084 Cl
ENDBRANCH  25  26
ENDBRANCH  19  25
ENDBRANCH   7   8
ENDBRANCH   6   7
ENDBRANCH   4   6
ENDBRANCH   1   2
BRANCH   1  33
ATOM     33  C   UNL A   1      37.542  19.850  24.483  1.00  0.00     0.042 C 
BRANCH  33  34
ATOM     34  C   UNL A   1      38.316  20.080  25.774  1.00  0.00     0.118 C 
BRANCH  34  35
ATOM     35  N   UNL A   1      39.598  19.394  25.859  1.00  0.00    -0.352 N 
ATOM     36  C   UNL A   1      40.796  19.870  26.355  1.00  0.00     0.251 C 
ATOM     37  H   UNL A   1      39.612  18.470  25.519  1.00  0.00     0.163 HD
ATOM     38  O   UNL A   1      41.798  19.163  26.334  1.00  0.00    -0.269 OA
BRANCH  36  39
ATOM     39  C   UNL A   1      40.872  21.255  26.873  1.00  0.00     0.039 A 
ATOM     40  C   UNL A   1      40.373  22.320  26.120  1.00  0.00     0.014 A 
ATOM     41  C   UNL A   1      41.527  21.499  28.083  1.00  0.00     0.014 A 
ATOM     42  C   UNL A   1      40.693  23.624  26.468  1.00  0.00     0.010 A 
ATOM     43  C   UNL A   1      41.794  22.816  28.467  1.00  0.00     0.010 A 
ATOM     44  C   UNL A   1      41.440  23.881  27.624  1.00  0.00    -0.014 A 
BRANCH  44  45
ATOM     45  C   UNL A   1      41.915  25.262  27.876  1.00  0.00     0.031 A 
ATOM     46  C   UNL A   1      43.280  25.685  27.399  1.00  0.00     0.074 A 
ATOM     47  C   UNL A   1      41.089  26.155  28.451  1.00  0.00     0.049 A 
ATOM     48  N   UNL A   1      43.865  26.849  27.515  1.00  0.00    -0.248 NA
ATOM     49  C   UNL A   1      44.089  24.678  26.691  1.00  0.00     0.031 C 
ATOM     50  C   UNL A   1      39.732  25.867  28.918  1.00  0.00     0.029 A 
ATOM     51  N   UNL A   1      41.266  27.484  28.732  1.00  0.00    -0.354 N 
ATOM     52  C   UNL A   1      45.118  26.704  26.933  1.00  0.00     0.074 A 
ATOM     53  C   UNL A   1      45.213  25.342  26.460  1.00  0.00     0.031 C 
ATOM     54  C   UNL A   1      39.191  26.992  29.411  1.00  0.00     0.029 A 
ATOM     55  C   UNL A   1      40.180  28.064  29.343  1.00  0.00     0.049 A 
ATOM     56  H   UNL A   1      42.091  27.977  28.516  1.00  0.00     0.167 HD
ATOM     57  C   UNL A   1      46.097  27.628  26.794  1.00  0.00     0.034 A 
ATOM     58  C   UNL A   1      40.009  29.313  29.816  1.00  0.00     0.034 A 
ATOM     59  C   UNL A   1      45.984  28.993  27.227  1.00  0.00     0.049 A 
ATOM     60  C   UNL A   1      41.124  30.306  29.684  1.00  0.00     0.074 A 
ATOM     61  C   UNL A   1      46.915  30.011  27.105  1.00  0.00     0.029 A 
ATOM     62  N   UNL A   1      44.879  29.534  27.863  1.00  0.00    -0.354 N 
ATOM     63  N   UNL A   1      42.285  30.163  29.092  1.00  0.00    -0.248 NA
ATOM     64  C   UNL A   1      40.906  31.635  30.275  1.00  0.00     0.031 C 
ATOM     65  C   UNL A   1      46.376  31.164  27.682  1.00  0.00     0.029 A 
ATOM     66  C   UNL A   1      45.105  30.868  28.148  1.00  0.00     0.049 A 
ATOM     67  H   UNL A   1      44.055  29.041  28.079  1.00  0.00     0.167 HD
ATOM     68  C   UNL A   1      42.935  31.383  29.232  1.00  0.00     0.074 A 
ATOM     69  C   UNL A   1      42.027  32.262  29.942  1.00  0.00     0.031 C 
ATOM     70  C   UNL A   1      44.178  31.736  28.826  1.00  0.00     0.034 A 
BRANCH  57  71
ATOM     71  C   UNL A   1      47.373  27.211  26.118  1.00  0.00     0.023 A 
ATOM     72  C   UNL A   1      47.582  27.547  24.767  1.00  0.00     0.012 A 
ATOM     73  C   UNL A   1      48.398  26.577  26.846  1.00  0.00     0.148 A 
ATOM     74  C   UNL A   1      48.796  27.249  24.144  1.00  0.00     0.002 A 
ATOM     75  C   UNL A   1      49.613  26.310  26.228  1.00  0.00     0.091 A 
ATOM     76  F   UNL A   1      48.165  26.256  28.126  1.00  0.00    -0.205 F 
ATOM     77  C   UNL A   1      49.813  26.642  24.878  1.00  0.00     0.022 A 
BRANCH  75  78
ATOM     78  S   UNL A   1      51.007  25.577  27.094  1.00  0.00     0.127 S 
ATOM     79  O   UNL A   1      50.402  24.367  27.650  1.00  0.00    -0.237 OA
ATOM     80  O   UNL A   1      51.953  25.342  26.003  1.00  0.00    -0.237 OA
ATOM     81  O   UNL A   1      51.434  26.562  28.078  1.00  0.00    -0.744 OA
ENDBRANCH  75  78
ENDBRANCH  57  71
BRANCH  58  82
ATOM     82  C   UNL A   1      38.712  29.678  30.447  1.00  0.00     0.023 A 
ATOM     83  C   UNL A   1      38.460  29.302  31.778  1.00  0.00     0.012 A 
ATOM     84  C   UNL A   1      37.766  30.459  29.755  1.00  0.00     0.148 A 
ATOM     85  C   UNL A   1      37.283  29.699  32.412  1.00  0.00     0.002 A 
ATOM     86  C   UNL A   1      36.618  30.887  30.406  1.00  0.00     0.091 A 
ATOM     87  F   UNL A   1      38.032  30.797  28.485  1.00  0.00    -0.205 F 
ATOM     88  C   UNL A   1      36.368  30.499  31.732  1.00  0.00     0.022 A 
BRANCH  86  89
ATOM     89  S   UNL A   1      35.442  32.016  29.653  1.00  0.00     0.127 S 
ATOM     90  O   UNL A   1      34.549  32.307  30.772  1.00  0.00    -0.237 OA
ATOM     91  O   UNL A   1      36.313  33.123  29.254  1.00  0.00    -0.237 OA
ATOM     92  O   UNL A   1      34.843  31.286  28.546  1.00  0.00    -0.744 OA
ENDBRANCH  86  89
ENDBRANCH  58  82
BRANCH  70  93
ATOM     93  C   UNL A   1      44.645  33.130  29.137  1.00  0.00     0.023 A 
ATOM     94  C   UNL A   1      45.260  33.390  30.377  1.00  0.00     0.012 A 
ATOM     95  C   UNL A   1      44.571  34.149  28.168  1.00  0.00     0.148 A 
ATOM     96  C   UNL A   1      45.783  34.651  30.655  1.00  0.00     0.002 A 
ATOM     97  C   UNL A   1      45.125  35.393  28.439  1.00  0.00     0.091 A 
ATOM     98  F   UNL A   1      43.971  33.877  27.001  1.00  0.00    -0.205 F 
ATOM     99  C   UNL A   1      45.725  35.648  29.684  1.00  0.00     0.022 A 
BRANCH  97 100
ATOM    100  S   UNL A   1      45.165  36.718  27.226  1.00  0.00     0.127 S 
ATOM    101  O   UNL A   1      45.933  36.106  26.143  1.00  0.00    -0.237 OA
ATOM    102  O   UNL A   1      43.745  36.913  26.934  1.00  0.00    -0.237 OA
ATOM    103  O   UNL A   1      45.810  37.847  27.885  1.00  0.00    -0.744 OA
ENDBRANCH  97 100
ENDBRANCH  70  93
ENDBRANCH  44  45
ENDBRANCH  36  39
ENDBRANCH  34  35
ENDBRANCH  33  34
ENDBRANCH   1  33
TORSDOF 17
ENDMDL
MODEL 2
REMARK VINA RESULT:     -12.3      4.338      7.233
REMARK SMILES O=C(CCN1C(=O)/C(=C2\C(=O)N(Cc3ccc(Cl)cc3)c3ccccc32)SC1=S)NCCCNC(=O)c1ccc(-c2c3nc(c(-c4cccc(S(=O)(=O)[O-])c4F)c4ccc([nH]4)c(-c4cccc(S(=O)(=O)[O-])c4F)c4nc(c(-c5cccc(S(=O)(=O)[O-])c5F)c5ccc2[nH]5)C=C4)C=C3)cc1
REMARK SMILES IDX 31 1 30 2 1 3 2 4 3 6 4 7 5 8 6 9 28 10 7 11 8 12 27 13
REMARK SMILES IDX 29 14 9 15 10 16 26 17 11 18 12 19 21 20 25 21 22 22 24 23
REMARK SMILES IDX 23 24 13 25 14 26 15 27 20 28 16 29 19 30 17 31 18 32 32 33
REMARK SMILES IDX 33 34 34 35 35 36 36 38 37 39 38 40 99 41 39 42 98 43 40 44
REMARK SMILES IDX 41 45 42 46 92 47 43 48 97 49 91 50 93 51 44 52 96 53 90 54
REMARK SMILES IDX 89 55 45 57 77 58 57 59 76 60 58 61 61 62 75 63 94 64 59 65
REMARK SMILES IDX 60 66 74 68 95 69 62 70 46 71 47 72 55 73 48 74 50 75 56 76
REMARK SMILES IDX 49 77 51 78 52 79 53 80 54 81 78 82 79 83 87 84 80 85 82 86
REMARK SMILES IDX 88 87 81 88 83 89 84 90 85 91 86 92 63 93 64 94 72 95 65 96
REMARK SMILES IDX 67 97 73 98 66 99 68 100 69 101 70 102 71 103
REMARK H PARENT 30 5 34 37 93 56 61 67
REMARK Flexibility Score: inf
ROOT
ATOM      1  C   UNL A   1      38.896  28.039  28.997  1.00  0.00     0.117 C 
ENDROOT
BRANCH   1   2
ATOM      2  N   UNL A   1      37.959  29.120  28.737  1.00  0.00    -0.356 N 
ATOM      3  O   UNL A   1      36.852  28.941  30.744  1.00  0.00    -0.275 OA
ATOM      4  C   UNL A   1      37.037  29.520  29.680  1.00  0.00     0.221 C 
ATOM      5  H   UNL A   1      37.984  29.577  27.865  1.00  0.00     0.163 HD
BRANCH   4   6
ATOM      6  C   UNL A   1      36.294  30.791  29.326  1.00  0.00     0.122 C 
BRANCH   6   7
ATOM      7  C   UNL A   1      35.972  30.849  27.824  1.00  0.00     0.137 C 
BRANCH   7   8
ATOM      8  N   UNL A   1      34.525  30.748  27.570  1.00  0.00    -0.292 N 
ATOM      9  C   UNL A   1      34.004  29.539  27.111  1.00  0.00     0.267 C 
ATOM     10  C   UNL A   1      33.654  31.809  27.639  1.00  0.00     0.148 C 
ATOM     11  O   UNL A   1      34.666  28.518  26.988  1.00  0.00    -0.268 OA
ATOM     12  C   UNL A   1      32.618  29.737  26.575  1.00  0.00     0.093 C 
ATOM     13  S   UNL A   1      32.201  31.406  26.755  1.00  0.00    -0.053 SA
ATOM     14  S   UNL A   1      33.861  33.288  28.377  1.00  0.00    -0.052 S 
ATOM     15  C   UNL A   1      31.923  28.820  25.879  1.00  0.00     0.069 C 
ATOM     16  C   UNL A   1      32.108  27.323  25.949  1.00  0.00     0.260 C 
ATOM     17  C   UNL A   1      30.992  29.067  24.757  1.00  0.00     0.012 A 
ATOM     18  O   UNL A   1      32.602  26.694  26.880  1.00  0.00    -0.269 OA
ATOM     19  N   UNL A   1      31.452  26.811  24.834  1.00  0.00    -0.303 N 
ATOM     20  C   UNL A   1      30.899  27.852  24.069  1.00  0.00     0.052 A 
ATOM     21  C   UNL A   1      30.334  30.182  24.260  1.00  0.00     0.011 A 
ATOM     22  C   UNL A   1      30.320  27.767  22.814  1.00  0.00     0.027 A 
ATOM     23  C   UNL A   1      29.642  30.074  23.047  1.00  0.00     0.001 A 
ATOM     24  C   UNL A   1      29.675  28.890  22.305  1.00  0.00     0.002 A 
BRANCH  19  25
ATOM     25  C   UNL A   1      31.161  25.400  24.616  1.00  0.00     0.161 C 
BRANCH  25  26
ATOM     26  C   UNL A   1      32.400  24.509  24.535  1.00  0.00    -0.028 A 
ATOM     27  C   UNL A   1      33.400  24.724  23.569  1.00  0.00     0.007 A 
ATOM     28  C   UNL A   1      32.587  23.447  25.434  1.00  0.00     0.007 A 
ATOM     29  C   UNL A   1      34.516  23.889  23.463  1.00  0.00     0.021 A 
ATOM     30  C   UNL A   1      33.725  22.630  25.356  1.00  0.00     0.021 A 
ATOM     31  C   UNL A   1      34.677  22.845  24.362  1.00  0.00     0.041 A 
ATOM     32  Cl  UNL A   1      36.059  21.828  24.251  1.00  0.00    -0.084 Cl
ENDBRANCH  25  26
ENDBRANCH  19  25
ENDBRANCH   7   8
ENDBRANCH   6   7
ENDBRANCH   4   6
ENDBRANCH   1   2
BRANCH   1  33
ATOM     33  C   UNL A   1      39.007  27.039  27.857  1.00  0.00     0.042 C 
BRANCH  33  34
ATOM     34  C   UNL A   1      40.099  25.989  28.008  1.00  0.00     0.118 C 
BRANCH  34  35
ATOM     35  N   UNL A   1      40.730  25.566  26.766  1.00  0.00    -0.352 N 
ATOM     36  C   UNL A   1      41.752  26.180  26.068  1.00  0.00     0.251 C 
ATOM     37  H   UNL A   1      40.383  24.733  26.372  1.00  0.00     0.163 HD
ATOM     38  O   UNL A   1      42.158  25.698  25.015  1.00  0.00    -0.269 OA
BRANCH  36  39
ATOM     39  C   UNL A   1      42.325  27.446  26.578  1.00  0.00     0.039 A 
ATOM     40  C   UNL A   1      43.247  27.434  27.627  1.00  0.00     0.014 A 
ATOM     41  C   UNL A   1      41.870  28.662  26.060  1.00  0.00     0.014 A 
ATOM     42  C   UNL A   1      43.565  28.614  28.283  1.00  0.00     0.010 A 
ATOM     43  C   UNL A   1      42.240  29.857  26.683  1.00  0.00     0.010 A 
ATOM     44  C   UNL A   1      43.032  29.831  27.841  1.00  0.00    -0.014 A 
BRANCH  44  45
ATOM     45  C   UNL A   1      43.245  31.045  28.664  1.00  0.00     0.031 A 
ATOM     46  C   UNL A   1      44.322  32.029  28.286  1.00  0.00     0.074 A 
ATOM     47  C   UNL A   1      42.417  31.306  29.692  1.00  0.00     0.049 A 
ATOM     48  N   UNL A   1      44.652  33.149  28.874  1.00  0.00    -0.248 NA
ATOM     49  C   UNL A   1      45.126  31.722  27.091  1.00  0.00     0.031 C 
ATOM     50  C   UNL A   1      41.315  30.444  30.124  1.00  0.00     0.029 A 
ATOM     51  N   UNL A   1      42.366  32.372  30.551  1.00  0.00    -0.354 N 
ATOM     52  C   UNL A   1      45.720  33.659  28.147  1.00  0.00     0.074 A 
ATOM     53  C   UNL A   1      45.986  32.731  27.071  1.00  0.00     0.031 C 
ATOM     54  C   UNL A   1      40.685  31.025  31.157  1.00  0.00     0.029 A 
ATOM     55  C   UNL A   1      41.370  32.270  31.491  1.00  0.00     0.049 A 
ATOM     56  H   UNL A   1      42.984  33.137  30.499  1.00  0.00     0.167 HD
ATOM     57  C   UNL A   1      46.409  34.806  28.350  1.00  0.00     0.034 A 
ATOM     58  C   UNL A   1      41.057  33.078  32.522  1.00  0.00     0.034 A 
ATOM     59  C   UNL A   1      46.116  35.749  29.394  1.00  0.00     0.049 A 
ATOM     60  C   UNL A   1      41.862  34.324  32.748  1.00  0.00     0.074 A 
ATOM     61  C   UNL A   1      46.745  36.953  29.662  1.00  0.00     0.029 A 
ATOM     62  N   UNL A   1      45.116  35.597  30.340  1.00  0.00    -0.354 N 
ATOM     63  N   UNL A   1      42.840  34.811  32.024  1.00  0.00    -0.248 NA
ATOM     64  C   UNL A   1      41.517  35.135  33.924  1.00  0.00     0.031 C 
ATOM     65  C   UNL A   1      46.131  37.523  30.782  1.00  0.00     0.029 A 
ATOM     66  C   UNL A   1      45.112  36.681  31.199  1.00  0.00     0.049 A 
ATOM     67  H   UNL A   1      44.498  34.833  30.391  1.00  0.00     0.167 HD
ATOM     68  C   UNL A   1      43.225  35.989  32.651  1.00  0.00     0.074 A 
ATOM     69  C   UNL A   1      42.356  36.156  33.799  1.00  0.00     0.031 C 
ATOM     70  C   UNL A   1      44.220  36.846  32.316  1.00  0.00     0.034 A 
BRANCH  57  71
ATOM     71  C   UNL A   1      47.534  35.132  27.408  1.00  0.00     0.023 A 
ATOM     72  C   UNL A   1      47.260  35.835  26.219  1.00  0.00     0.012 A 
ATOM     73  C   UNL A   1      48.867  34.830  27.748  1.00  0.00     0.148 A 
ATOM     74  C   UNL A   1      48.300  36.227  25.374  1.00  0.00     0.002 A 
ATOM     75  C   UNL A   1      49.898  35.248  26.917  1.00  0.00     0.091 A 
ATOM     76  F   UNL A   1      49.097  34.147  28.878  1.00  0.00    -0.205 F 
ATOM     77  C   UNL A   1      49.617  35.943  25.729  1.00  0.00     0.022 A 
BRANCH  75  78
ATOM     78  S   UNL A   1      51.632  34.979  27.303  1.00  0.00     0.127 S 
ATOM     79  O   UNL A   1      52.278  35.391  26.057  1.00  0.00    -0.237 OA
ATOM     80  O   UNL A   1      51.838  35.891  28.429  1.00  0.00    -0.237 OA
ATOM     81  O   UNL A   1      51.759  33.565  27.626  1.00  0.00    -0.744 OA
ENDBRANCH  75  78
ENDBRANCH  57  71
BRANCH  58  82
ATOM     82  C   UNL A   1      39.912  32.722  33.402  1.00  0.00     0.023 A 
ATOM     83  C   UNL A   1      40.128  31.888  34.514  1.00  0.00     0.012 A 
ATOM     84  C   UNL A   1      38.633  33.267  33.182  1.00  0.00     0.148 A 
ATOM     85  C   UNL A   1      39.085  31.601  35.394  1.00  0.00     0.002 A 
ATOM     86  C   UNL A   1      37.611  33.015  34.086  1.00  0.00     0.091 A 
ATOM     87  F   UNL A   1      38.457  34.054  32.111  1.00  0.00    -0.205 F 
ATOM     88  C   UNL A   1      37.831  32.173  35.187  1.00  0.00     0.022 A 
BRANCH  86  89
ATOM     89  S   UNL A   1      36.000  33.799  33.970  1.00  0.00     0.127 S 
ATOM     90  O   UNL A   1      35.312  32.927  33.021  1.00  0.00    -0.237 OA
ATOM     91  O   UNL A   1      35.527  33.704  35.352  1.00  0.00    -0.237 OA
ATOM     92  O   UNL A   1      36.251  35.155  33.506  1.00  0.00    -0.744 OA
ENDBRANCH  86  89
ENDBRANCH  58  82
BRANCH  70  93
ATOM     93  C   UNL A   1      44.438  38.043  33.198  1.00  0.00     0.023 A 
ATOM     94  C   UNL A   1      45.410  37.982  34.215  1.00  0.00     0.012 A 
ATOM     95  C   UNL A   1      43.759  39.252  32.954  1.00  0.00     0.148 A 
ATOM     96  C   UNL A   1      45.695  39.106  34.987  1.00  0.00     0.002 A 
ATOM     97  C   UNL A   1      44.073  40.378  33.704  1.00  0.00     0.091 A 
ATOM     98  F   UNL A   1      42.830  39.278  31.987  1.00  0.00    -0.205 F 
ATOM     99  C   UNL A   1      45.035  40.305  34.725  1.00  0.00     0.022 A 
BRANCH  97 100
ATOM    100  S   UNL A   1      43.330  41.984  33.394  1.00  0.00     0.127 S 
ATOM    101  O   UNL A   1      44.050  42.832  34.343  1.00  0.00    -0.237 OA
ATOM    102  O   UNL A   1      43.667  42.215  31.990  1.00  0.00    -0.237 OA
ATOM    103  O   UNL A   1      41.905  41.826  33.658  1.00  0.00    -0.744 OA
ENDBRANCH  97 100
ENDBRANCH  70  93
ENDBRANCH  44  45
ENDBRANCH  36  39
ENDBRANCH  34  35
ENDBRANCH  33  34
ENDBRANCH   1  33
TORSDOF 17
ENDMDL
MODEL 3
REMARK VINA RESULT:     -12.2      1.324      7.317
REMARK SMILES O=C(CCN1C(=O)/C(=C2\C(=O)N(Cc3ccc(Cl)cc3)c3ccccc32)SC1=S)NCCCNC(=O)c1ccc(-c2c3nc(c(-c4cccc(S(=O)(=O)[O-])c4F)c4ccc([nH]4)c(-c4cccc(S(=O)(=O)[O-])c4F)c4nc(c(-c5cccc(S(=O)(=O)[O-])c5F)c5ccc2[nH]5)C=C4)C=C3)cc1
REMARK SMILES IDX 31 1 30 2 1 3 2 4 3 6 4 7 5 8 6 9 28 10 7 11 8 12 27 13
REMARK SMILES IDX 29 14 9 15 10 16 26 17 11 18 12 19 21 20 25 21 22 22 24 23
REMARK SMILES IDX 23 24 13 25 14 26 15 27 20 28 16 29 19 30 17 31 18 32 32 33
REMARK SMILES IDX 33 34 34 35 35 36 36 38 37 39 38 40 99 41 39 42 98 43 40 44
REMARK SMILES IDX 41 45 42 46 92 47 43 48 97 49 91 50 93 51 44 52 96 53 90 54
REMARK SMILES IDX 89 55 45 57 77 58 57 59 76 60 58 61 61 62 75 63 94 64 59 65
REMARK SMILES IDX 60 66 74 68 95 69 62 70 46 71 47 72 55 73 48 74 50 75 56 76
REMARK SMILES IDX 49 77 51 78 52 79 53 80 54 81 78 82 79 83 87 84 80 85 82 86
REMARK SMILES IDX 88 87 81 88 83 89 84 90 85 91 86 92 63 93 64 94 72 95 65 96
REMARK SMILES IDX 67 97 73 98 66 99 68 100 69 101 70 102 71 103
REMARK H PARENT 30 5 34 37 93 56 61 67
REMARK Flexibility Score: inf
ROOT
ATOM      1  C   UNL A   1      36.399  19.946  24.746  1.00  0.00     0.117 C 
ENDROOT
BRANCH   1   2
ATOM      2  N   UNL A   1      35.186  20.429  25.385  1.00  0.00    -0.356 N 
ATOM      3  O   UNL A   1      33.763  19.020  24.255  1.00  0.00    -0.275 OA
ATOM      4  C   UNL A   1      33.955  19.870  25.117  1.00  0.00     0.221 C 
ATOM      5  H   UNL A   1      35.246  21.175  26.025  1.00  0.00     0.163 HD
BRANCH   4   6
ATOM      6  C   UNL A   1      32.842  20.348  26.025  1.00  0.00     0.122 C 
BRANCH   6   7
ATOM      7  C   UNL A   1      31.830  21.213  25.257  1.00  0.00     0.137 C 
BRANCH   7   8
ATOM      8  N   UNL A   1      31.908  22.630  25.654  1.00  0.00    -0.292 N 
ATOM      9  C   UNL A   1      31.257  23.585  24.875  1.00  0.00     0.267 C 
ATOM     10  C   UNL A   1      32.688  23.101  26.684  1.00  0.00     0.148 C 
ATOM     11  O   UNL A   1      30.543  23.310  23.921  1.00  0.00    -0.268 OA
ATOM     12  C   UNL A   1      31.746  24.960  25.218  1.00  0.00     0.093 C 
ATOM     13  S   UNL A   1      32.928  24.818  26.472  1.00  0.00    -0.053 SA
ATOM     14  S   UNL A   1      33.372  22.259  27.949  1.00  0.00    -0.052 S 
ATOM     15  C   UNL A   1      31.471  26.073  24.514  1.00  0.00     0.069 C 
ATOM     16  C   UNL A   1      30.263  26.291  23.633  1.00  0.00     0.260 C 
ATOM     17  C   UNL A   1      32.367  27.224  24.277  1.00  0.00     0.012 A 
ATOM     18  O   UNL A   1      29.190  25.702  23.711  1.00  0.00    -0.269 OA
ATOM     19  N   UNL A   1      30.567  27.401  22.849  1.00  0.00    -0.303 N 
ATOM     20  C   UNL A   1      31.856  27.874  23.148  1.00  0.00     0.052 A 
ATOM     21  C   UNL A   1      33.545  27.681  24.849  1.00  0.00     0.011 A 
ATOM     22  C   UNL A   1      32.580  28.845  22.475  1.00  0.00     0.027 A 
ATOM     23  C   UNL A   1      34.223  28.745  24.243  1.00  0.00     0.001 A 
ATOM     24  C   UNL A   1      33.771  29.291  23.038  1.00  0.00     0.002 A 
BRANCH  19  25
ATOM     25  C   UNL A   1      29.607  28.122  22.024  1.00  0.00     0.161 C 
BRANCH  25  26
ATOM     26  C   UNL A   1      29.434  29.592  22.402  1.00  0.00    -0.028 A 
ATOM     27  C   UNL A   1      29.057  30.558  21.451  1.00  0.00     0.007 A 
ATOM     28  C   UNL A   1      29.638  30.028  23.720  1.00  0.00     0.007 A 
ATOM     29  C   UNL A   1      28.936  31.911  21.780  1.00  0.00     0.021 A 
ATOM     30  C   UNL A   1      29.481  31.379  24.064  1.00  0.00     0.021 A 
ATOM     31  C   UNL A   1      29.144  32.317  23.090  1.00  0.00     0.041 A 
ATOM     32  Cl  UNL A   1      28.976  33.977  23.506  1.00  0.00    -0.084 Cl
ENDBRANCH  25  26
ENDBRANCH  19  25
ENDBRANCH   7   8
ENDBRANCH   6   7
ENDBRANCH   4   6
ENDBRANCH   1   2
BRANCH   1  33
ATOM     33  C   UNL A   1      37.429  21.034  24.486  1.00  0.00     0.042 C 
BRANCH  33  34
ATOM     34  C   UNL A   1      38.257  21.457  25.691  1.00  0.00     0.118 C 
BRANCH  34  35
ATOM     35  N   UNL A   1      39.407  20.613  25.982  1.00  0.00    -0.352 N 
ATOM     36  C   UNL A   1      40.561  20.939  26.667  1.00  0.00     0.251 C 
ATOM     37  H   UNL A   1      39.355  19.689  25.646  1.00  0.00     0.163 HD
ATOM     38  O   UNL A   1      41.452  20.107  26.807  1.00  0.00    -0.269 OA
BRANCH  36  39
ATOM     39  C   UNL A   1      40.734  22.312  27.193  1.00  0.00     0.039 A 
ATOM     40  C   UNL A   1      40.157  23.400  26.535  1.00  0.00     0.014 A 
ATOM     41  C   UNL A   1      41.552  22.521  28.307  1.00  0.00     0.014 A 
ATOM     42  C   UNL A   1      40.546  24.691  26.859  1.00  0.00     0.010 A 
ATOM     43  C   UNL A   1      41.894  23.825  28.674  1.00  0.00     0.010 A 
ATOM     44  C   UNL A   1      41.449  24.913  27.906  1.00  0.00    -0.014 A 
BRANCH  44  45
ATOM     45  C   UNL A   1      41.980  26.280  28.115  1.00  0.00     0.031 A 
ATOM     46  C   UNL A   1      41.139  27.314  28.815  1.00  0.00     0.074 A 
ATOM     47  C   UNL A   1      43.246  26.563  27.756  1.00  0.00     0.049 A 
ATOM     48  N   UNL A   1      41.433  28.557  29.098  1.00  0.00    -0.248 NA
ATOM     49  C   UNL A   1      39.798  26.900  29.265  1.00  0.00     0.031 C 
ATOM     50  C   UNL A   1      44.166  25.629  27.106  1.00  0.00     0.029 A 
ATOM     51  N   UNL A   1      43.978  27.713  27.895  1.00  0.00    -0.354 N 
ATOM     52  C   UNL A   1      40.307  29.081  29.721  1.00  0.00     0.074 A 
ATOM     53  C   UNL A   1      39.322  28.025  29.780  1.00  0.00     0.031 C 
ATOM     54  C   UNL A   1      45.347  26.236  26.919  1.00  0.00     0.029 A 
ATOM     55  C   UNL A   1      45.251  27.616  27.387  1.00  0.00     0.049 A 
ATOM     56  H   UNL A   1      43.627  28.529  28.319  1.00  0.00     0.167 HD
ATOM     57  C   UNL A   1      40.117  30.327  30.212  1.00  0.00     0.034 A 
ATOM     58  C   UNL A   1      46.224  28.541  27.288  1.00  0.00     0.034 A 
ATOM     59  C   UNL A   1      41.113  31.363  30.191  1.00  0.00     0.049 A 
ATOM     60  C   UNL A   1      45.973  29.927  27.805  1.00  0.00     0.074 A 
ATOM     61  C   UNL A   1      41.020  32.652  30.689  1.00  0.00     0.029 A 
ATOM     62  N   UNL A   1      42.379  31.232  29.646  1.00  0.00    -0.354 N 
ATOM     63  N   UNL A   1      44.919  30.391  28.430  1.00  0.00    -0.248 NA
ATOM     64  C   UNL A   1      47.046  30.914  27.613  1.00  0.00     0.031 C 
ATOM     65  C   UNL A   1      42.229  33.305  30.431  1.00  0.00     0.029 A 
ATOM     66  C   UNL A   1      43.077  32.418  29.786  1.00  0.00     0.049 A 
ATOM     67  H   UNL A   1      42.731  30.416  29.222  1.00  0.00     0.167 HD
ATOM     68  C   UNL A   1      45.201  31.722  28.712  1.00  0.00     0.074 A 
ATOM     69  C   UNL A   1      46.537  31.982  28.215  1.00  0.00     0.031 C 
ATOM     70  C   UNL A   1      44.417  32.649  29.314  1.00  0.00     0.034 A 
BRANCH  57  71
ATOM     71  C   UNL A   1      38.792  30.644  30.847  1.00  0.00     0.023 A 
ATOM     72  C   UNL A   1      38.612  30.418  32.225  1.00  0.00     0.012 A 
ATOM     73  C   UNL A   1      37.764  31.253  30.101  1.00  0.00     0.148 A 
ATOM     74  C   UNL A   1      37.422  30.788  32.853  1.00  0.00     0.002 A 
ATOM     75  C   UNL A   1      36.594  31.645  30.738  1.00  0.00     0.091 A 
ATOM     76  F   UNL A   1      37.957  31.443  28.788  1.00  0.00    -0.205 F 
ATOM     77  C   UNL A   1      36.420  31.410  32.112  1.00  0.00     0.022 A 
BRANCH  75  78
ATOM     78  S   UNL A   1      35.260  32.498  29.889  1.00  0.00     0.127 S 
ATOM     79  O   UNL A   1      34.891  31.521  28.866  1.00  0.00    -0.237 OA
ATOM     80  O   UNL A   1      34.277  32.666  30.959  1.00  0.00    -0.237 OA
ATOM     81  O   UNL A   1      35.833  33.737  29.381  1.00  0.00    -0.744 OA
ENDBRANCH  75  78
ENDBRANCH  57  71
BRANCH  58  82
ATOM     82  C   UNL A   1      47.527  28.162  26.679  1.00  0.00     0.023 A 
ATOM     83  C   UNL A   1      48.620  27.867  27.513  1.00  0.00     0.012 A 
ATOM     84  C   UNL A   1      47.660  28.021  25.284  1.00  0.00     0.148 A 
ATOM     85  C   UNL A   1      49.829  27.438  26.965  1.00  0.00     0.002 A 
ATOM     86  C   UNL A   1      48.851  27.551  24.749  1.00  0.00     0.091 A 
ATOM     87  F   UNL A   1      46.602  28.315  24.515  1.00  0.00    -0.205 F 
ATOM     88  C   UNL A   1      49.941  27.269  25.586  1.00  0.00     0.022 A 
BRANCH  86  89
ATOM     89  S   UNL A   1      49.051  27.188  23.002  1.00  0.00     0.127 S 
ATOM     90  O   UNL A   1      50.500  27.042  22.892  1.00  0.00    -0.237 OA
ATOM     91  O   UNL A   1      48.292  25.944  22.872  1.00  0.00    -0.237 OA
ATOM     92  O   UNL A   1      48.480  28.324  22.293  1.00  0.00    -0.744 OA
ENDBRANCH  86  89
ENDBRANCH  58  82
BRANCH  70  93
ATOM     93  C   UNL A   1      44.970  34.037  29.469  1.00  0.00     0.023 A 
ATOM     94  C   UNL A   1      45.626  34.389  30.664  1.00  0.00     0.012 A 
ATOM     95  C   UNL A   1      44.934  34.952  28.398  1.00  0.00     0.148 A 
ATOM     96  C   UNL A   1      46.226  35.639  30.799  1.00  0.00     0.002 A 
ATOM     97  C   UNL A   1      45.564  36.182  28.527  1.00  0.00     0.091 A 
ATOM     98  F   UNL A   1      44.294  34.595  27.276  1.00  0.00    -0.205 F 
ATOM     99  C   UNL A   1      46.205  36.531  29.729  1.00  0.00     0.022 A 
BRANCH  97 100
ATOM    100  S   UNL A   1      45.654  37.368  27.180  1.00  0.00     0.127 S 
ATOM    101  O   UNL A   1      44.242  37.686  26.971  1.00  0.00    -0.237 OA
ATOM    102  O   UNL A   1      46.442  38.449  27.772  1.00  0.00    -0.237 OA
ATOM    103  O   UNL A   1      46.306  36.675  26.077  1.00  0.00    -0.744 OA
ENDBRANCH  97 100
ENDBRANCH  70  93
ENDBRANCH  44  45
ENDBRANCH  36  39
ENDBRANCH  34  35
ENDBRANCH  33  34
ENDBRANCH   1  33
TORSDOF 17
ENDMDL
