MODEL 1
REMARK VINA RESULT:     -11.4      0.000      0.000
REMARK SMILES CCC(CC)(NC(=O)N[C@H](C)C1CC1)C(=O)NCCCNC(=O)c1ccc(-c2c3nc(c(-c4cccc(S(=O)(=O)[O-])c4F)c4ccc([nH]4)c(-c4cccc(S(=O)(=O)[O-])c4F)c4nc(c(-c5cccc(S(=O)(=O)[O-])c5F)c5ccc2[nH]5)C=C4)C=C3)cc1
REMARK SMILES IDX 19 1 18 2 17 3 15 4 16 5 3 7 2 8 1 9 4 10 5 11 6 12 7 13
REMARK SMILES IDX 8 15 9 16 10 18 11 19 12 20 13 21 14 22 20 23 21 24 22 25
REMARK SMILES IDX 23 27 24 28 25 29 86 30 26 31 85 32 27 33 28 34 29 35 79 36
REMARK SMILES IDX 30 37 84 38 78 39 80 40 31 41 83 42 77 43 76 44 32 46 64 47
REMARK SMILES IDX 44 48 63 49 45 50 48 51 62 52 81 53 46 54 47 55 61 57 82 58
REMARK SMILES IDX 49 59 33 60 34 61 42 62 35 63 37 64 43 65 36 66 38 67 39 68
REMARK SMILES IDX 40 69 41 70 65 71 66 72 74 73 67 74 69 75 75 76 68 77 70 78
REMARK SMILES IDX 71 79 72 80 73 81 50 82 51 83 59 84 52 85 54 86 60 87 53 88
REMARK SMILES IDX 55 89 56 90 57 91 58 92
REMARK H PARENT 17 6 6 14 9 17 21 26 80 45 48 56
REMARK Flexibility Score: inf
ROOT
ATOM      1  C   UNL A   1      36.678  22.561  24.306  1.00  0.00     0.042 C 
ENDROOT
BRANCH   1   2
ATOM      2  C   UNL A   1      35.203  22.480  23.882  1.00  0.00     0.117 C 
BRANCH   2   3
ATOM      3  N   UNL A   1      34.313  23.265  24.736  1.00  0.00    -0.354 N 
ATOM      4  C   UNL A   1      33.454  22.782  25.724  1.00  0.00     0.245 C 
ATOM      5  O   UNL A   1      33.764  22.815  26.912  1.00  0.00    -0.272 OA
ATOM      6  H   UNL A   1      34.322  24.240  24.599  1.00  0.00     0.163 HD
BRANCH   4   7
ATOM      7  C   UNL A   1      32.189  22.023  25.186  1.00  0.00     0.120 C 
BRANCH   7   8
ATOM      8  C   UNL A   1      32.141  20.517  24.837  1.00  0.00     0.035 C 
ATOM      9  C   UNL A   1      33.336  19.625  25.124  1.00  0.00     0.007 C 
ENDBRANCH   7   8
BRANCH   7  10
ATOM     10  C   UNL A   1      31.973  22.820  23.836  1.00  0.00     0.035 C 
ATOM     11  C   UNL A   1      31.864  22.062  22.524  1.00  0.00     0.007 C 
ENDBRANCH   7  10
BRANCH   7  12
ATOM     12  N   UNL A   1      31.119  22.246  26.193  1.00  0.00    -0.324 N 
ATOM     13  C   UNL A   1      30.525  23.303  26.763  1.00  0.00     0.315 C 
ATOM     14  H   UNL A   1      30.750  21.397  26.529  1.00  0.00     0.166 HD
ATOM     15  O   UNL A   1      29.738  23.044  27.678  1.00  0.00    -0.249 OA
ATOM     16  N   UNL A   1      30.578  24.591  26.403  1.00  0.00    -0.335 N 
ATOM     17  H   UNL A   1      29.818  25.033  26.846  1.00  0.00     0.165 HD
BRANCH  16  18
ATOM     18  C   UNL A   1      31.286  25.651  25.624  1.00  0.00     0.083 C 
ATOM     19  C   UNL A   1      32.571  26.218  26.239  1.00  0.00     0.031 C 
BRANCH  18  20
ATOM     20  C   UNL A   1      30.368  26.639  24.988  1.00  0.00     0.011 C 
ATOM     21  C   UNL A   1      30.431  27.002  23.519  1.00  0.00     0.006 C 
ATOM     22  C   UNL A   1      29.275  26.206  24.034  1.00  0.00     0.006 C 
ENDBRANCH  18  20
ENDBRANCH  16  18
ENDBRANCH   7  12
ENDBRANCH   4   7
ENDBRANCH   2   3
ENDBRANCH   1   2
BRANCH   1  23
ATOM     23  C   UNL A   1      36.965  22.321  25.783  1.00  0.00     0.118 C 
BRANCH  23  24
ATOM     24  N   UNL A   1      38.013  21.339  25.994  1.00  0.00    -0.352 N 
ATOM     25  C   UNL A   1      39.324  21.532  26.341  1.00  0.00     0.251 C 
ATOM     26  H   UNL A   1      37.743  20.401  25.869  1.00  0.00     0.163 HD
ATOM     27  O   UNL A   1      40.118  20.589  26.274  1.00  0.00    -0.269 OA
BRANCH  25  28
ATOM     28  C   UNL A   1      39.796  22.861  26.782  1.00  0.00     0.039 A 
ATOM     29  C   UNL A   1      40.702  22.931  27.842  1.00  0.00     0.014 A 
ATOM     30  C   UNL A   1      39.334  24.035  26.178  1.00  0.00     0.014 A 
ATOM     31  C   UNL A   1      41.179  24.175  28.264  1.00  0.00     0.010 A 
ATOM     32  C   UNL A   1      39.865  25.270  26.556  1.00  0.00     0.010 A 
ATOM     33  C   UNL A   1      40.790  25.355  27.607  1.00  0.00    -0.014 A 
BRANCH  33  34
ATOM     34  C   UNL A   1      41.385  26.662  28.002  1.00  0.00     0.031 A 
ATOM     35  C   UNL A   1      42.806  27.016  27.650  1.00  0.00     0.074 A 
ATOM     36  C   UNL A   1      40.640  27.532  28.716  1.00  0.00     0.049 A 
ATOM     37  N   UNL A   1      43.449  28.136  27.856  1.00  0.00    -0.248 NA
ATOM     38  C   UNL A   1      43.617  25.972  27.004  1.00  0.00     0.031 C 
ATOM     39  C   UNL A   1      39.283  27.276  29.206  1.00  0.00     0.029 A 
ATOM     40  N   UNL A   1      40.919  28.800  29.161  1.00  0.00    -0.354 N 
ATOM     41  C   UNL A   1      44.741  27.930  27.388  1.00  0.00     0.074 A 
ATOM     42  C   UNL A   1      44.803  26.561  26.923  1.00  0.00     0.031 C 
ATOM     43  C   UNL A   1      38.839  28.361  29.858  1.00  0.00     0.029 A 
ATOM     44  C   UNL A   1      39.884  29.380  29.858  1.00  0.00     0.049 A 
ATOM     45  H   UNL A   1      41.777  29.252  28.996  1.00  0.00     0.167 HD
ATOM     46  C   UNL A   1      45.776  28.804  27.325  1.00  0.00     0.034 A 
ATOM     47  C   UNL A   1      39.781  30.596  30.428  1.00  0.00     0.034 A 
ATOM     48  C   UNL A   1      45.707  30.173  27.768  1.00  0.00     0.049 A 
ATOM     49  C   UNL A   1      40.924  31.564  30.295  1.00  0.00     0.074 A 
ATOM     50  C   UNL A   1      46.673  31.160  27.670  1.00  0.00     0.029 A 
ATOM     51  N   UNL A   1      44.617  30.748  28.404  1.00  0.00    -0.354 N 
ATOM     52  N   UNL A   1      42.079  31.404  29.697  1.00  0.00    -0.248 NA
ATOM     53  C   UNL A   1      40.728  32.901  30.877  1.00  0.00     0.031 C 
ATOM     54  C   UNL A   1      46.180  32.320  28.279  1.00  0.00     0.029 A 
ATOM     55  C   UNL A   1      44.890  32.070  28.715  1.00  0.00     0.049 A 
ATOM     56  H   UNL A   1      43.773  30.283  28.607  1.00  0.00     0.167 HD
ATOM     57  C   UNL A   1      42.733  32.626  29.798  1.00  0.00     0.074 A 
ATOM     58  C   UNL A   1      41.832  33.526  30.488  1.00  0.00     0.031 C 
ATOM     59  C   UNL A   1      43.973  32.970  29.367  1.00  0.00     0.034 A 
BRANCH  46  60
ATOM     60  C   UNL A   1      47.067  28.321  26.712  1.00  0.00     0.023 A 
ATOM     61  C   UNL A   1      48.128  27.913  27.548  1.00  0.00     0.012 A 
ATOM     62  C   UNL A   1      47.212  28.210  25.314  1.00  0.00     0.148 A 
ATOM     63  C   UNL A   1      49.322  27.439  27.006  1.00  0.00     0.002 A 
ATOM     64  C   UNL A   1      48.388  27.692  24.782  1.00  0.00     0.091 A 
ATOM     65  F   UNL A   1      46.203  28.619  24.532  1.00  0.00    -0.205 F 
ATOM     66  C   UNL A   1      49.448  27.319  25.625  1.00  0.00     0.022 A 
BRANCH  64  67
ATOM     67  S   UNL A   1      48.619  27.416  23.022  1.00  0.00     0.127 S 
ATOM     68  O   UNL A   1      49.981  27.911  22.822  1.00  0.00    -0.237 OA
ATOM     69  O   UNL A   1      48.478  25.964  22.917  1.00  0.00    -0.237 OA
ATOM     70  O   UNL A   1      47.575  28.180  22.354  1.00  0.00    -0.744 OA
ENDBRANCH  64  67
ENDBRANCH  46  60
BRANCH  47  71
ATOM     71  C   UNL A   1      38.519  30.993  31.115  1.00  0.00     0.023 A 
ATOM     72  C   UNL A   1      38.382  30.778  32.500  1.00  0.00     0.012 A 
ATOM     73  C   UNL A   1      37.463  31.598  30.406  1.00  0.00     0.148 A 
ATOM     74  C   UNL A   1      37.201  31.122  33.160  1.00  0.00     0.002 A 
ATOM     75  C   UNL A   1      36.314  31.993  31.080  1.00  0.00     0.091 A 
ATOM     76  F   UNL A   1      37.610  31.785  29.088  1.00  0.00    -0.205 F 
ATOM     77  C   UNL A   1      36.172  31.739  32.453  1.00  0.00     0.022 A 
BRANCH  75  78
ATOM     78  S   UNL A   1      34.997  32.914  30.279  1.00  0.00     0.127 S 
ATOM     79  O   UNL A   1      34.520  31.954  29.289  1.00  0.00    -0.237 OA
ATOM     80  O   UNL A   1      34.082  33.159  31.394  1.00  0.00    -0.237 OA
ATOM     81  O   UNL A   1      35.625  34.115  29.745  1.00  0.00    -0.744 OA
ENDBRANCH  75  78
ENDBRANCH  47  71
BRANCH  59  82
ATOM     82  C   UNL A   1      44.414  34.394  29.595  1.00  0.00     0.023 A 
ATOM     83  C   UNL A   1      45.042  34.759  30.803  1.00  0.00     0.012 A 
ATOM     84  C   UNL A   1      44.229  35.370  28.594  1.00  0.00     0.148 A 
ATOM     85  C   UNL A   1      45.425  36.080  31.034  1.00  0.00     0.002 A 
ATOM     86  C   UNL A   1      44.666  36.672  28.809  1.00  0.00     0.091 A 
ATOM     87  F   UNL A   1      43.615  35.013  27.457  1.00  0.00    -0.205 F 
ATOM     88  C   UNL A   1      45.246  37.033  30.035  1.00  0.00     0.022 A 
BRANCH  86  89
ATOM     89  S   UNL A   1      44.565  37.938  27.539  1.00  0.00     0.127 S 
ATOM     90  O   UNL A   1      44.773  39.158  28.317  1.00  0.00    -0.237 OA
ATOM     91  O   UNL A   1      45.675  37.581  26.655  1.00  0.00    -0.237 OA
ATOM     92  O   UNL A   1      43.246  37.795  26.937  1.00  0.00    -0.744 OA
ENDBRANCH  86  89
ENDBRANCH  59  82
ENDBRANCH  33  34
ENDBRANCH  25  28
ENDBRANCH  23  24
ENDBRANCH   1  23
TORSDOF 18
ENDMDL
MODEL 2
REMARK VINA RESULT:     -11.3      5.133      9.900
REMARK SMILES CCC(CC)(NC(=O)N[C@H](C)C1CC1)C(=O)NCCCNC(=O)c1ccc(-c2c3nc(c(-c4cccc(S(=O)(=O)[O-])c4F)c4ccc([nH]4)c(-c4cccc(S(=O)(=O)[O-])c4F)c4nc(c(-c5cccc(S(=O)(=O)[O-])c5F)c5ccc2[nH]5)C=C4)C=C3)cc1
REMARK SMILES IDX 19 1 18 2 17 3 15 4 16 5 3 7 2 8 1 9 4 10 5 11 6 12 7 13
REMARK SMILES IDX 8 15 9 16 10 18 11 19 12 20 13 21 14 22 20 23 21 24 22 25
REMARK SMILES IDX 23 27 24 28 25 29 86 30 26 31 85 32 27 33 28 34 29 35 79 36
REMARK SMILES IDX 30 37 84 38 78 39 80 40 31 41 83 42 77 43 76 44 32 46 64 47
REMARK SMILES IDX 44 48 63 49 45 50 48 51 62 52 81 53 46 54 47 55 61 57 82 58
REMARK SMILES IDX 49 59 33 60 34 61 42 62 35 63 37 64 43 65 36 66 38 67 39 68
REMARK SMILES IDX 40 69 41 70 65 71 66 72 74 73 67 74 69 75 75 76 68 77 70 78
REMARK SMILES IDX 71 79 72 80 73 81 50 82 51 83 59 84 52 85 54 86 60 87 53 88
REMARK SMILES IDX 55 89 56 90 57 91 58 92
REMARK H PARENT 17 6 6 14 9 17 21 26 80 45 48 56
REMARK Flexibility Score: inf
ROOT
ATOM      1  C   UNL A   1      32.702  29.222  25.648  1.00  0.00     0.042 C 
ENDROOT
BRANCH   1   2
ATOM      2  C   UNL A   1      33.003  28.235  24.509  1.00  0.00     0.117 C 
BRANCH   2   3
ATOM      3  N   UNL A   1      31.851  27.416  24.136  1.00  0.00    -0.354 N 
ATOM      4  C   UNL A   1      31.108  26.580  24.972  1.00  0.00     0.245 C 
ATOM      5  O   UNL A   1      30.034  26.942  25.444  1.00  0.00    -0.272 OA
ATOM      6  H   UNL A   1      31.569  27.459  23.194  1.00  0.00     0.163 HD
BRANCH   4   7
ATOM      7  C   UNL A   1      31.842  25.263  25.410  1.00  0.00     0.120 C 
BRANCH   7   8
ATOM      8  C   UNL A   1      33.245  25.205  26.059  1.00  0.00     0.035 C 
ATOM      9  C   UNL A   1      34.482  25.027  25.197  1.00  0.00     0.007 C 
ENDBRANCH   7   8
BRANCH   7  10
ATOM     10  C   UNL A   1      31.953  24.555  23.999  1.00  0.00     0.035 C 
ATOM     11  C   UNL A   1      30.692  24.112  23.277  1.00  0.00     0.007 C 
ENDBRANCH   7  10
BRANCH   7  12
ATOM     12  N   UNL A   1      30.923  24.577  26.356  1.00  0.00    -0.324 N 
ATOM     13  C   UNL A   1      30.710  23.320  26.763  1.00  0.00     0.315 C 
ATOM     14  H   UNL A   1      30.313  25.211  26.797  1.00  0.00     0.166 HD
ATOM     15  O   UNL A   1      29.730  23.155  27.497  1.00  0.00    -0.249 OA
ATOM     16  N   UNL A   1      31.474  22.236  26.581  1.00  0.00    -0.335 N 
ATOM     17  H   UNL A   1      31.172  21.571  27.240  1.00  0.00     0.165 HD
BRANCH  16  18
ATOM     18  C   UNL A   1      32.585  21.595  25.815  1.00  0.00     0.083 C 
ATOM     19  C   UNL A   1      32.183  20.649  24.677  1.00  0.00     0.031 C 
BRANCH  18  20
ATOM     20  C   UNL A   1      33.723  21.152  26.670  1.00  0.00     0.011 C 
ATOM     21  C   UNL A   1      35.162  21.542  26.403  1.00  0.00     0.006 C 
ATOM     22  C   UNL A   1      34.449  22.114  27.586  1.00  0.00     0.006 C 
ENDBRANCH  18  20
ENDBRANCH  16  18
ENDBRANCH   7  12
ENDBRANCH   4   7
ENDBRANCH   2   3
ENDBRANCH   1   2
BRANCH   1  23
ATOM     23  C   UNL A   1      33.852  29.514  26.604  1.00  0.00     0.118 C 
BRANCH  23  24
ATOM     24  N   UNL A   1      33.718  30.802  27.260  1.00  0.00    -0.352 N 
ATOM     25  C   UNL A   1      34.488  31.356  28.248  1.00  0.00     0.251 C 
ATOM     26  H   UNL A   1      32.965  31.356  26.951  1.00  0.00     0.163 HD
ATOM     27  O   UNL A   1      34.098  32.375  28.826  1.00  0.00    -0.269 OA
BRANCH  25  28
ATOM     28  C   UNL A   1      35.773  30.736  28.634  1.00  0.00     0.039 A 
ATOM     29  C   UNL A   1      36.929  31.108  27.945  1.00  0.00     0.014 A 
ATOM     30  C   UNL A   1      35.842  29.777  29.649  1.00  0.00     0.014 A 
ATOM     31  C   UNL A   1      38.159  30.552  28.306  1.00  0.00     0.010 A 
ATOM     32  C   UNL A   1      37.082  29.275  30.052  1.00  0.00     0.010 A 
ATOM     33  C   UNL A   1      38.254  29.653  29.382  1.00  0.00    -0.014 A 
BRANCH  33  34
ATOM     34  C   UNL A   1      39.585  29.148  29.819  1.00  0.00     0.031 A 
ATOM     35  C   UNL A   1      40.335  29.793  30.955  1.00  0.00     0.074 A 
ATOM     36  C   UNL A   1      40.140  28.108  29.162  1.00  0.00     0.049 A 
ATOM     37  N   UNL A   1      41.467  29.431  31.504  1.00  0.00    -0.248 NA
ATOM     38  C   UNL A   1      39.754  31.013  31.536  1.00  0.00     0.031 C 
ATOM     39  C   UNL A   1      39.565  27.452  27.984  1.00  0.00     0.029 A 
ATOM     40  N   UNL A   1      41.310  27.426  29.382  1.00  0.00    -0.354 N 
ATOM     41  C   UNL A   1      41.745  30.385  32.475  1.00  0.00     0.074 A 
ATOM     42  C   UNL A   1      40.683  31.366  32.415  1.00  0.00     0.031 C 
ATOM     43  C   UNL A   1      40.369  26.448  27.603  1.00  0.00     0.029 A 
ATOM     44  C   UNL A   1      41.528  26.402  28.489  1.00  0.00     0.049 A 
ATOM     45  H   UNL A   1      41.934  27.648  30.110  1.00  0.00     0.167 HD
ATOM     46  C   UNL A   1      42.774  30.429  33.357  1.00  0.00     0.034 A 
ATOM     47  C   UNL A   1      42.542  25.520  28.395  1.00  0.00     0.034 A 
ATOM     48  C   UNL A   1      43.820  29.440  33.431  1.00  0.00     0.049 A 
ATOM     49  C   UNL A   1      43.642  25.559  29.419  1.00  0.00     0.074 A 
ATOM     50  C   UNL A   1      44.858  29.352  34.342  1.00  0.00     0.029 A 
ATOM     51  N   UNL A   1      43.969  28.376  32.556  1.00  0.00    -0.354 N 
ATOM     52  N   UNL A   1      43.797  26.369  30.437  1.00  0.00    -0.248 NA
ATOM     53  C   UNL A   1      44.685  24.528  29.307  1.00  0.00     0.031 C 
ATOM     54  C   UNL A   1      45.655  28.255  33.995  1.00  0.00     0.029 A 
ATOM     55  C   UNL A   1      45.088  27.633  32.896  1.00  0.00     0.049 A 
ATOM     56  H   UNL A   1      43.368  28.178  31.801  1.00  0.00     0.167 HD
ATOM     57  C   UNL A   1      44.931  25.927  31.108  1.00  0.00     0.074 A 
ATOM     58  C   UNL A   1      45.405  24.757  30.397  1.00  0.00     0.031 C 
ATOM     59  C   UNL A   1      45.532  26.447  32.207  1.00  0.00     0.034 A 
BRANCH  46  60
ATOM     60  C   UNL A   1      42.801  31.565  34.350  1.00  0.00     0.023 A 
ATOM     61  C   UNL A   1      43.522  32.739  34.049  1.00  0.00     0.012 A 
ATOM     62  C   UNL A   1      42.063  31.500  35.550  1.00  0.00     0.148 A 
ATOM     63  C   UNL A   1      43.541  33.812  34.940  1.00  0.00     0.002 A 
ATOM     64  C   UNL A   1      42.047  32.592  36.409  1.00  0.00     0.091 A 
ATOM     65  F   UNL A   1      41.397  30.371  35.830  1.00  0.00    -0.205 F 
ATOM     66  C   UNL A   1      42.797  33.744  36.113  1.00  0.00     0.022 A 
BRANCH  64  67
ATOM     67  S   UNL A   1      41.053  32.637  37.905  1.00  0.00     0.127 S 
ATOM     68  O   UNL A   1      40.949  34.077  38.146  1.00  0.00    -0.237 OA
ATOM     69  O   UNL A   1      39.810  32.003  37.467  1.00  0.00    -0.237 OA
ATOM     70  O   UNL A   1      41.798  31.890  38.907  1.00  0.00    -0.744 OA
ENDBRANCH  64  67
ENDBRANCH  46  60
BRANCH  47  71
ATOM     71  C   UNL A   1      42.525  24.476  27.330  1.00  0.00     0.023 A 
ATOM     72  C   UNL A   1      43.363  24.613  26.207  1.00  0.00     0.012 A 
ATOM     73  C   UNL A   1      41.697  23.342  27.435  1.00  0.00     0.148 A 
ATOM     74  C   UNL A   1      43.347  23.659  25.187  1.00  0.00     0.002 A 
ATOM     75  C   UNL A   1      41.731  22.366  26.447  1.00  0.00     0.091 A 
ATOM     76  F   UNL A   1      40.901  23.235  28.508  1.00  0.00    -0.205 F 
ATOM     77  C   UNL A   1      42.541  22.532  25.313  1.00  0.00     0.022 A 
BRANCH  75  78
ATOM     78  S   UNL A   1      40.830  20.820  26.589  1.00  0.00     0.127 S 
ATOM     79  O   UNL A   1      39.490  21.214  26.163  1.00  0.00    -0.237 OA
ATOM     80  O   UNL A   1      41.551  19.964  25.646  1.00  0.00    -0.237 OA
ATOM     81  O   UNL A   1      40.957  20.416  27.983  1.00  0.00    -0.744 OA
ENDBRANCH  75  78
ENDBRANCH  47  71
BRANCH  59  82
ATOM     82  C   UNL A   1      46.749  25.731  32.735  1.00  0.00     0.023 A 
ATOM     83  C   UNL A   1      48.038  26.122  32.320  1.00  0.00     0.012 A 
ATOM     84  C   UNL A   1      46.616  24.683  33.668  1.00  0.00     0.148 A 
ATOM     85  C   UNL A   1      49.168  25.445  32.779  1.00  0.00     0.002 A 
ATOM     86  C   UNL A   1      47.749  24.051  34.165  1.00  0.00     0.091 A 
ATOM     87  F   UNL A   1      45.383  24.310  34.040  1.00  0.00    -0.205 F 
ATOM     88  C   UNL A   1      49.025  24.417  33.708  1.00  0.00     0.022 A 
BRANCH  86  89
ATOM     89  S   UNL A   1      47.661  22.786  35.437  1.00  0.00     0.127 S 
ATOM     90  O   UNL A   1      47.131  23.539  36.571  1.00  0.00    -0.237 OA
ATOM     91  O   UNL A   1      46.726  21.823  34.853  1.00  0.00    -0.237 OA
ATOM     92  O   UNL A   1      49.020  22.284  35.596  1.00  0.00    -0.744 OA
ENDBRANCH  86  89
ENDBRANCH  59  82
ENDBRANCH  33  34
ENDBRANCH  25  28
ENDBRANCH  23  24
ENDBRANCH   1  23
TORSDOF 18
ENDMDL
MODEL 3
REMARK VINA RESULT:     -11.0      5.085     10.182
REMARK SMILES CCC(CC)(NC(=O)N[C@H](C)C1CC1)C(=O)NCCCNC(=O)c1ccc(-c2c3nc(c(-c4cccc(S(=O)(=O)[O-])c4F)c4ccc([nH]4)c(-c4cccc(S(=O)(=O)[O-])c4F)c4nc(c(-c5cccc(S(=O)(=O)[O-])c5F)c5ccc2[nH]5)C=C4)C=C3)cc1
REMARK SMILES IDX 19 1 18 2 17 3 15 4 16 5 3 7 2 8 1 9 4 10 5 11 6 12 7 13
REMARK SMILES IDX 8 15 9 16 10 18 11 19 12 20 13 21 14 22 20 23 21 24 22 25
REMARK SMILES IDX 23 27 24 28 25 29 86 30 26 31 85 32 27 33 28 34 29 35 79 36
REMARK SMILES IDX 30 37 84 38 78 39 80 40 31 41 83 42 77 43 76 44 32 46 64 47
REMARK SMILES IDX 44 48 63 49 45 50 48 51 62 52 81 53 46 54 47 55 61 57 82 58
REMARK SMILES IDX 49 59 33 60 34 61 42 62 35 63 37 64 43 65 36 66 38 67 39 68
REMARK SMILES IDX 40 69 41 70 65 71 66 72 74 73 67 74 69 75 75 76 68 77 70 78
REMARK SMILES IDX 71 79 72 80 73 81 50 82 51 83 59 84 52 85 54 86 60 87 53 88
REMARK SMILES IDX 55 89 56 90 57 91 58 92
REMARK H PARENT 17 6 6 14 9 17 21 26 80 45 48 56
REMARK Flexibility Score: inf
ROOT
ATOM      1  C   UNL A   1      32.477  28.213  25.931  1.00  0.00     0.042 C 
ENDROOT
BRANCH   1   2
ATOM      2  C   UNL A   1      31.893  27.801  24.570  1.00  0.00     0.117 C 
BRANCH   2   3
ATOM      3  N   UNL A   1      30.976  26.666  24.656  1.00  0.00    -0.354 N 
ATOM      4  C   UNL A   1      31.024  25.614  25.573  1.00  0.00     0.245 C 
ATOM      5  O   UNL A   1      30.301  25.599  26.566  1.00  0.00    -0.272 OA
ATOM      6  H   UNL A   1      30.246  26.641  23.996  1.00  0.00     0.163 HD
BRANCH   4   7
ATOM      7  C   UNL A   1      32.193  24.591  25.343  1.00  0.00     0.120 C 
BRANCH   7   8
ATOM      8  C   UNL A   1      33.601  24.958  24.819  1.00  0.00     0.035 C 
ATOM      9  C   UNL A   1      33.914  24.870  23.336  1.00  0.00     0.007 C 
ENDBRANCH   7   8
BRANCH   7  10
ATOM     10  C   UNL A   1      31.514  23.674  24.246  1.00  0.00     0.035 C 
ATOM     11  C   UNL A   1      30.473  24.265  23.311  1.00  0.00     0.007 C 
ENDBRANCH   7  10
BRANCH   7  12
ATOM     12  N   UNL A   1      32.405  23.911  26.648  1.00  0.00    -0.324 N 
ATOM     13  C   UNL A   1      32.893  22.735  27.062  1.00  0.00     0.315 C 
ATOM     14  H   UNL A   1      32.109  24.469  27.402  1.00  0.00     0.166 HD
ATOM     15  O   UNL A   1      32.773  22.503  28.269  1.00  0.00    -0.249 OA
ATOM     16  N   UNL A   1      33.597  21.828  26.374  1.00  0.00    -0.335 N 
ATOM     17  H   UNL A   1      34.028  21.247  27.042  1.00  0.00     0.165 HD
BRANCH  16  18
ATOM     18  C   UNL A   1      34.015  21.311  25.036  1.00  0.00     0.083 C 
ATOM     19  C   UNL A   1      33.179  20.169  24.446  1.00  0.00     0.031 C 
BRANCH  18  20
ATOM     20  C   UNL A   1      35.493  21.199  24.873  1.00  0.00     0.011 C 
ATOM     21  C   UNL A   1      36.316  22.187  24.072  1.00  0.00     0.006 C 
ATOM     22  C   UNL A   1      36.442  22.157  25.561  1.00  0.00     0.006 C 
ENDBRANCH  18  20
ENDBRANCH  16  18
ENDBRANCH   7  12
ENDBRANCH   4   7
ENDBRANCH   2   3
ENDBRANCH   1   2
BRANCH   1  23
ATOM     23  C   UNL A   1      33.632  29.207  25.892  1.00  0.00     0.118 C 
BRANCH  23  24
ATOM     24  N   UNL A   1      33.217  30.556  26.231  1.00  0.00    -0.352 N 
ATOM     25  C   UNL A   1      33.701  31.393  27.201  1.00  0.00     0.251 C 
ATOM     26  H   UNL A   1      32.483  30.920  25.687  1.00  0.00     0.163 HD
ATOM     27  O   UNL A   1      33.085  32.427  27.477  1.00  0.00    -0.269 OA
BRANCH  25  28
ATOM     28  C   UNL A   1      34.945  31.061  27.927  1.00  0.00     0.039 A 
ATOM     29  C   UNL A   1      35.005  29.863  28.641  1.00  0.00     0.014 A 
ATOM     30  C   UNL A   1      36.040  31.932  27.929  1.00  0.00     0.014 A 
ATOM     31  C   UNL A   1      36.177  29.519  29.318  1.00  0.00     0.010 A 
ATOM     32  C   UNL A   1      37.232  31.553  28.549  1.00  0.00     0.010 A 
ATOM     33  C   UNL A   1      37.314  30.344  29.255  1.00  0.00    -0.014 A 
BRANCH  33  34
ATOM     34  C   UNL A   1      38.587  29.914  29.897  1.00  0.00     0.031 A 
ATOM     35  C   UNL A   1      38.987  30.417  31.259  1.00  0.00     0.074 A 
ATOM     36  C   UNL A   1      39.410  29.080  29.228  1.00  0.00     0.049 A 
ATOM     37  N   UNL A   1      40.024  30.086  31.986  1.00  0.00    -0.248 NA
ATOM     38  C   UNL A   1      38.128  31.438  31.878  1.00  0.00     0.031 C 
ATOM     39  C   UNL A   1      39.189  28.594  27.863  1.00  0.00     0.029 A 
ATOM     40  N   UNL A   1      40.597  28.501  29.597  1.00  0.00    -0.354 N 
ATOM     41  C   UNL A   1      39.957  30.868  33.132  1.00  0.00     0.074 A 
ATOM     42  C   UNL A   1      38.797  31.722  32.987  1.00  0.00     0.031 C 
ATOM     43  C   UNL A   1      40.192  27.771  27.521  1.00  0.00     0.029 A 
ATOM     44  C   UNL A   1      41.140  27.689  28.628  1.00  0.00     0.049 A 
ATOM     45  H   UNL A   1      41.021  28.651  30.473  1.00  0.00     0.167 HD
ATOM     46  C   UNL A   1      40.767  30.861  34.219  1.00  0.00     0.034 A 
ATOM     47  C   UNL A   1      42.270  26.954  28.629  1.00  0.00     0.034 A 
ATOM     48  C   UNL A   1      41.908  29.995  34.372  1.00  0.00     0.049 A 
ATOM     49  C   UNL A   1      43.121  26.924  29.867  1.00  0.00     0.074 A 
ATOM     50  C   UNL A   1      42.741  29.855  35.469  1.00  0.00     0.029 A 
ATOM     51  N   UNL A   1      42.387  29.133  33.398  1.00  0.00    -0.354 N 
ATOM     52  N   UNL A   1      42.945  27.545  31.008  1.00  0.00    -0.248 NA
ATOM     53  C   UNL A   1      44.304  26.050  29.835  1.00  0.00     0.031 C 
ATOM     54  C   UNL A   1      43.744  28.933  35.143  1.00  0.00     0.029 A 
ATOM     55  C   UNL A   1      43.509  28.466  33.862  1.00  0.00     0.049 A 
ATOM     56  H   UNL A   1      41.987  29.013  32.505  1.00  0.00     0.167 HD
ATOM     57  C   UNL A   1      43.970  27.112  31.840  1.00  0.00     0.074 A 
ATOM     58  C   UNL A   1      44.746  26.152  31.081  1.00  0.00     0.031 C 
ATOM     59  C   UNL A   1      44.252  27.483  33.114  1.00  0.00     0.034 A 
BRANCH  46  60
ATOM     60  C   UNL A   1      40.424  31.790  35.358  1.00  0.00     0.023 A 
ATOM     61  C   UNL A   1      41.152  32.987  35.526  1.00  0.00     0.012 A 
ATOM     62  C   UNL A   1      39.344  31.515  36.221  1.00  0.00     0.148 A 
ATOM     63  C   UNL A   1      40.838  33.874  36.555  1.00  0.00     0.002 A 
ATOM     64  C   UNL A   1      39.007  32.428  37.214  1.00  0.00     0.091 A 
ATOM     65  F   UNL A   1      38.673  30.366  36.060  1.00  0.00    -0.205 F 
ATOM     66  C   UNL A   1      39.760  33.601  37.391  1.00  0.00     0.022 A 
BRANCH  64  67
ATOM     67  S   UNL A   1      37.584  32.211  38.290  1.00  0.00     0.127 S 
ATOM     68  O   UNL A   1      37.304  30.784  38.125  1.00  0.00    -0.237 OA
ATOM     69  O   UNL A   1      38.130  32.576  39.598  1.00  0.00    -0.237 OA
ATOM     70  O   UNL A   1      36.557  33.110  37.786  1.00  0.00    -0.744 OA
ENDBRANCH  64  67
ENDBRANCH  46  60
BRANCH  47  71
ATOM     71  C   UNL A   1      42.623  26.129  27.438  1.00  0.00     0.023 A 
ATOM     72  C   UNL A   1      43.398  26.691  26.405  1.00  0.00     0.012 A 
ATOM     73  C   UNL A   1      42.209  24.788  27.333  1.00  0.00     0.148 A 
ATOM     74  C   UNL A   1      43.722  25.945  25.271  1.00  0.00     0.002 A 
ATOM     75  C   UNL A   1      42.586  24.031  26.230  1.00  0.00     0.091 A 
ATOM     76  F   UNL A   1      41.464  24.275  28.322  1.00  0.00    -0.205 F 
ATOM     77  C   UNL A   1      43.326  24.612  25.189  1.00  0.00     0.022 A 
BRANCH  75  78
ATOM     78  S   UNL A   1      42.238  22.274  26.103  1.00  0.00     0.127 S 
ATOM     79  O   UNL A   1      42.971  21.910  24.894  1.00  0.00    -0.237 OA
ATOM     80  O   UNL A   1      42.809  21.764  27.349  1.00  0.00    -0.237 OA
ATOM     81  O   UNL A   1      40.787  22.166  26.020  1.00  0.00    -0.744 OA
ENDBRANCH  75  78
ENDBRANCH  47  71
BRANCH  59  82
ATOM     82  C   UNL A   1      45.428  26.819  33.785  1.00  0.00     0.023 A 
ATOM     83  C   UNL A   1      46.692  27.443  33.783  1.00  0.00     0.012 A 
ATOM     84  C   UNL A   1      45.273  25.583  34.443  1.00  0.00     0.148 A 
ATOM     85  C   UNL A   1      47.792  26.821  34.374  1.00  0.00     0.002 A 
ATOM     86  C   UNL A   1      46.361  24.996  35.080  1.00  0.00     0.091 A 
ATOM     87  F   UNL A   1      44.069  24.992  34.422  1.00  0.00    -0.205 F 
ATOM     88  C   UNL A   1      47.625  25.604  35.030  1.00  0.00     0.022 A 
BRANCH  86  89
ATOM     89  S   UNL A   1      46.212  23.481  36.032  1.00  0.00     0.127 S 
ATOM     90  O   UNL A   1      46.294  22.463  34.987  1.00  0.00    -0.237 OA
ATOM     91  O   UNL A   1      47.381  23.549  36.910  1.00  0.00    -0.237 OA
ATOM     92  O   UNL A   1      44.933  23.569  36.725  1.00  0.00    -0.744 OA
ENDBRANCH  86  89
ENDBRANCH  59  82
ENDBRANCH  33  34
ENDBRANCH  25  28
ENDBRANCH  23  24
ENDBRANCH   1  23
TORSDOF 18
ENDMDL
