MODEL 1
REMARK VINA RESULT:     -12.2      0.000      0.000
REMARK SMILES Cc1cc(C)cc(Nc2nc(C)cc(C(=O)NCCCNC(=O)c3ccc(-c4c5nc(c(-c6cccc(S(=O)(=O)[O-])c6F)c6ccc([nH]6)c(-c6cccc(S(=O)(=O)[O-])c6F)c6nc(c(-c7cccc(S(=O)(=O)[O-])c7F)c7ccc4[nH]7)C=C6)C=C5)cc3)n2)c1
REMARK SMILES IDX 19 1 18 2 17 3 15 4 16 5 14 7 9 8 10 9 87 10 11 11 12 12
REMARK SMILES IDX 13 13 8 14 7 16 1 17 2 18 3 19 88 20 4 21 5 22 6 23 20 24
REMARK SMILES IDX 21 25 22 26 23 28 24 29 25 30 86 31 26 32 85 33 27 34 28 35
REMARK SMILES IDX 29 36 79 37 30 38 84 39 78 40 80 41 31 42 83 43 77 44 76 45
REMARK SMILES IDX 32 47 64 48 44 49 63 50 45 51 48 52 62 53 81 54 46 55 47 56
REMARK SMILES IDX 61 58 82 59 49 60 33 61 34 62 42 63 35 64 37 65 43 66 36 67
REMARK SMILES IDX 38 68 39 69 40 70 41 71 65 72 66 73 74 74 67 75 69 76 75 77
REMARK SMILES IDX 68 78 70 79 71 80 72 81 73 82 50 83 51 84 59 85 52 86 54 87
REMARK SMILES IDX 60 88 53 89 55 90 56 91 57 92 58 93
REMARK H PARENT 17 6 8 15 21 27 80 46 48 57
REMARK Flexibility Score: inf
ROOT
ATOM      1  C   UNL A   1      33.864  28.467  25.944  1.00  0.00     0.042 C 
ENDROOT
BRANCH   1   2
ATOM      2  C   UNL A   1      33.302  29.407  24.877  1.00  0.00     0.118 C 
BRANCH   2   3
ATOM      3  N   UNL A   1      33.880  29.120  23.580  1.00  0.00    -0.351 N 
ATOM      4  C   UNL A   1      33.652  28.141  22.643  1.00  0.00     0.270 C 
ATOM      5  O   UNL A   1      34.347  28.202  21.625  1.00  0.00    -0.268 OA
ATOM      6  H   UNL A   1      34.580  29.758  23.315  1.00  0.00     0.163 HD
BRANCH   4   7
ATOM      7  C   UNL A   1      32.608  27.067  22.774  1.00  0.00     0.134 A 
ATOM      8  C   UNL A   1      32.126  24.870  22.287  1.00  0.00     0.228 A 
ATOM      9  N   UNL A   1      30.876  24.979  22.754  1.00  0.00    -0.218 NA
ATOM     10  N   UNL A   1      32.973  25.897  22.209  1.00  0.00    -0.208 NA
ATOM     11  C   UNL A   1      30.544  26.136  23.355  1.00  0.00     0.044 A 
ATOM     12  C   UNL A   1      29.196  26.193  24.009  1.00  0.00     0.067 C 
ATOM     13  C   UNL A   1      31.416  27.201  23.444  1.00  0.00     0.058 A 
BRANCH   8  14
ATOM     14  N   UNL A   1      32.570  23.580  22.003  1.00  0.00    -0.324 N 
ATOM     15  H   UNL A   1      32.393  23.239  21.096  1.00  0.00     0.170 HD
BRANCH  14  16
ATOM     16  C   UNL A   1      33.248  22.713  22.886  1.00  0.00     0.041 A 
ATOM     17  C   UNL A   1      32.531  19.470  24.767  1.00  0.00     0.044 C 
ATOM     18  C   UNL A   1      33.230  20.695  24.260  1.00  0.00    -0.049 A 
ATOM     19  C   UNL A   1      34.520  20.994  24.716  1.00  0.00     0.007 A 
ATOM     20  C   UNL A   1      32.605  21.556  23.343  1.00  0.00     0.029 A 
ATOM     21  C   UNL A   1      35.193  22.126  24.253  1.00  0.00    -0.049 A 
ATOM     22  C   UNL A   1      36.572  22.453  24.746  1.00  0.00     0.044 C 
ATOM     23  C   UNL A   1      34.557  22.959  23.326  1.00  0.00     0.029 A 
ENDBRANCH  14  16
ENDBRANCH   8  14
ENDBRANCH   4   7
ENDBRANCH   2   3
ENDBRANCH   1   2
BRANCH   1  24
ATOM     24  C   UNL A   1      33.512  28.900  27.368  1.00  0.00     0.118 C 
BRANCH  24  25
ATOM     25  N   UNL A   1      33.587  30.347  27.522  1.00  0.00    -0.352 N 
ATOM     26  C   UNL A   1      34.498  31.123  28.190  1.00  0.00     0.251 C 
ATOM     27  H   UNL A   1      32.867  30.847  27.073  1.00  0.00     0.163 HD
ATOM     28  O   UNL A   1      34.223  32.297  28.418  1.00  0.00    -0.269 OA
BRANCH  26  29
ATOM     29  C   UNL A   1      35.796  30.567  28.630  1.00  0.00     0.039 A 
ATOM     30  C   UNL A   1      36.915  30.752  27.811  1.00  0.00     0.014 A 
ATOM     31  C   UNL A   1      35.907  29.809  29.798  1.00  0.00     0.014 A 
ATOM     32  C   UNL A   1      38.147  30.213  28.184  1.00  0.00     0.010 A 
ATOM     33  C   UNL A   1      37.151  29.330  30.205  1.00  0.00     0.010 A 
ATOM     34  C   UNL A   1      38.282  29.516  29.397  1.00  0.00    -0.014 A 
BRANCH  34  35
ATOM     35  C   UNL A   1      39.602  28.993  29.834  1.00  0.00     0.031 A 
ATOM     36  C   UNL A   1      40.369  29.672  30.937  1.00  0.00     0.074 A 
ATOM     37  C   UNL A   1      40.140  27.942  29.185  1.00  0.00     0.049 A 
ATOM     38  N   UNL A   1      41.542  29.369  31.431  1.00  0.00    -0.248 NA
ATOM     39  C   UNL A   1      39.751  30.859  31.552  1.00  0.00     0.031 C 
ATOM     40  C   UNL A   1      39.531  27.251  28.046  1.00  0.00     0.029 A 
ATOM     41  N   UNL A   1      41.330  27.285  29.372  1.00  0.00    -0.354 N 
ATOM     42  C   UNL A   1      41.817  30.339  32.388  1.00  0.00     0.074 A 
ATOM     43  C   UNL A   1      40.701  31.261  32.385  1.00  0.00     0.031 C 
ATOM     44  C   UNL A   1      40.348  26.265  27.641  1.00  0.00     0.029 A 
ATOM     45  C   UNL A   1      41.547  26.268  28.471  1.00  0.00     0.049 A 
ATOM     46  H   UNL A   1      41.968  27.520  30.085  1.00  0.00     0.167 HD
ATOM     47  C   UNL A   1      42.884  30.437  33.217  1.00  0.00     0.034 A 
ATOM     48  C   UNL A   1      42.595  25.434  28.330  1.00  0.00     0.034 A 
ATOM     49  C   UNL A   1      43.969  29.492  33.247  1.00  0.00     0.049 A 
ATOM     50  C   UNL A   1      43.744  25.535  29.296  1.00  0.00     0.074 A 
ATOM     51  C   UNL A   1      45.054  29.456  34.105  1.00  0.00     0.029 A 
ATOM     52  N   UNL A   1      44.111  28.420  32.380  1.00  0.00    -0.354 N 
ATOM     53  N   UNL A   1      43.904  26.360  30.302  1.00  0.00    -0.248 NA
ATOM     54  C   UNL A   1      44.836  24.566  29.132  1.00  0.00     0.031 C 
ATOM     55  C   UNL A   1      45.860  28.371  33.746  1.00  0.00     0.029 A 
ATOM     56  C   UNL A   1      45.267  27.719  32.677  1.00  0.00     0.049 A 
ATOM     57  H   UNL A   1      43.481  28.192  31.658  1.00  0.00     0.167 HD
ATOM     58  C   UNL A   1      45.097  25.988  30.912  1.00  0.00     0.074 A 
ATOM     59  C   UNL A   1      45.602  24.846  30.178  1.00  0.00     0.031 C 
ATOM     60  C   UNL A   1      45.728  26.552  31.971  1.00  0.00     0.034 A 
BRANCH  47  61
ATOM     61  C   UNL A   1      42.903  31.571  34.209  1.00  0.00     0.023 A 
ATOM     62  C   UNL A   1      43.504  32.795  33.848  1.00  0.00     0.012 A 
ATOM     63  C   UNL A   1      42.269  31.457  35.462  1.00  0.00     0.148 A 
ATOM     64  C   UNL A   1      43.498  33.877  34.727  1.00  0.00     0.002 A 
ATOM     65  C   UNL A   1      42.230  32.554  36.316  1.00  0.00     0.091 A 
ATOM     66  F   UNL A   1      41.719  30.280  35.795  1.00  0.00    -0.205 F 
ATOM     67  C   UNL A   1      42.853  33.759  35.954  1.00  0.00     0.022 A 
BRANCH  65  68
ATOM     68  S   UNL A   1      41.358  32.534  37.887  1.00  0.00     0.127 S 
ATOM     69  O   UNL A   1      41.466  33.931  38.302  1.00  0.00    -0.237 OA
ATOM     70  O   UNL A   1      40.014  32.118  37.488  1.00  0.00    -0.237 OA
ATOM     71  O   UNL A   1      42.067  31.578  38.728  1.00  0.00    -0.744 OA
ENDBRANCH  65  68
ENDBRANCH  47  61
BRANCH  48  72
ATOM     72  C   UNL A   1      42.572  24.381  27.274  1.00  0.00     0.023 A 
ATOM     73  C   UNL A   1      43.389  24.527  26.136  1.00  0.00     0.012 A 
ATOM     74  C   UNL A   1      41.769  23.233  27.398  1.00  0.00     0.148 A 
ATOM     75  C   UNL A   1      43.378  23.566  25.124  1.00  0.00     0.002 A 
ATOM     76  C   UNL A   1      41.806  22.250  26.414  1.00  0.00     0.091 A 
ATOM     77  F   UNL A   1      40.987  23.116  28.481  1.00  0.00    -0.205 F 
ATOM     78  C   UNL A   1      42.596  22.425  25.267  1.00  0.00     0.022 A 
BRANCH  76  79
ATOM     79  S   UNL A   1      40.938  20.688  26.589  1.00  0.00     0.127 S 
ATOM     80  O   UNL A   1      39.599  21.035  26.127  1.00  0.00    -0.237 OA
ATOM     81  O   UNL A   1      41.695  19.815  25.690  1.00  0.00    -0.237 OA
ATOM     82  O   UNL A   1      41.056  20.335  27.999  1.00  0.00    -0.744 OA
ENDBRANCH  76  79
ENDBRANCH  48  72
BRANCH  60  83
ATOM     83  C   UNL A   1      47.022  25.926  32.423  1.00  0.00     0.023 A 
ATOM     84  C   UNL A   1      48.240  26.360  31.865  1.00  0.00     0.012 A 
ATOM     85  C   UNL A   1      47.034  24.951  33.439  1.00  0.00     0.148 A 
ATOM     86  C   UNL A   1      49.450  25.809  32.286  1.00  0.00     0.002 A 
ATOM     87  C   UNL A   1      48.246  24.440  33.889  1.00  0.00     0.091 A 
ATOM     88  F   UNL A   1      45.863  24.534  33.944  1.00  0.00    -0.205 F 
ATOM     89  C   UNL A   1      49.453  24.857  33.304  1.00  0.00     0.022 A 
BRANCH  87  90
ATOM     90  S   UNL A   1      48.352  23.282  35.258  1.00  0.00     0.127 S 
ATOM     91  O   UNL A   1      49.794  23.073  35.362  1.00  0.00    -0.237 OA
ATOM     92  O   UNL A   1      47.765  24.047  36.359  1.00  0.00    -0.237 OA
ATOM     93  O   UNL A   1      47.575  22.117  34.854  1.00  0.00    -0.744 OA
ENDBRANCH  87  90
ENDBRANCH  60  83
ENDBRANCH  34  35
ENDBRANCH  26  29
ENDBRANCH  24  25
ENDBRANCH   1  24
TORSDOF 15
ENDMDL
MODEL 2
REMARK VINA RESULT:     -12.1      1.326      2.157
REMARK SMILES Cc1cc(C)cc(Nc2nc(C)cc(C(=O)NCCCNC(=O)c3ccc(-c4c5nc(c(-c6cccc(S(=O)(=O)[O-])c6F)c6ccc([nH]6)c(-c6cccc(S(=O)(=O)[O-])c6F)c6nc(c(-c7cccc(S(=O)(=O)[O-])c7F)c7ccc4[nH]7)C=C6)C=C5)cc3)n2)c1
REMARK SMILES IDX 19 1 18 2 17 3 15 4 16 5 14 7 9 8 10 9 87 10 11 11 12 12
REMARK SMILES IDX 13 13 8 14 7 16 1 17 2 18 3 19 88 20 4 21 5 22 6 23 20 24
REMARK SMILES IDX 21 25 22 26 23 28 24 29 25 30 86 31 26 32 85 33 27 34 28 35
REMARK SMILES IDX 29 36 79 37 30 38 84 39 78 40 80 41 31 42 83 43 77 44 76 45
REMARK SMILES IDX 32 47 64 48 44 49 63 50 45 51 48 52 62 53 81 54 46 55 47 56
REMARK SMILES IDX 61 58 82 59 49 60 33 61 34 62 42 63 35 64 37 65 43 66 36 67
REMARK SMILES IDX 38 68 39 69 40 70 41 71 65 72 66 73 74 74 67 75 69 76 75 77
REMARK SMILES IDX 68 78 70 79 71 80 72 81 73 82 50 83 51 84 59 85 52 86 54 87
REMARK SMILES IDX 60 88 53 89 55 90 56 91 57 92 58 93
REMARK H PARENT 17 6 8 15 21 27 80 46 48 57
REMARK Flexibility Score: inf
ROOT
ATOM      1  C   UNL A   1      33.076  27.837  26.839  1.00  0.00     0.042 C 
ENDROOT
BRANCH   1   2
ATOM      2  C   UNL A   1      31.645  27.986  26.322  1.00  0.00     0.118 C 
BRANCH   2   3
ATOM      3  N   UNL A   1      30.871  26.793  26.597  1.00  0.00    -0.351 N 
ATOM      4  C   UNL A   1      30.795  25.560  25.995  1.00  0.00     0.270 C 
ATOM      5  O   UNL A   1      30.005  24.762  26.507  1.00  0.00    -0.268 OA
ATOM      6  H   UNL A   1      30.275  26.884  27.375  1.00  0.00     0.163 HD
BRANCH   4   7
ATOM      7  C   UNL A   1      31.626  25.138  24.815  1.00  0.00     0.134 A 
ATOM      8  C   UNL A   1      33.223  23.642  24.102  1.00  0.00     0.228 A 
ATOM      9  N   UNL A   1      33.332  24.238  22.907  1.00  0.00    -0.218 NA
ATOM     10  N   UNL A   1      32.454  24.109  25.087  1.00  0.00    -0.208 NA
ATOM     11  C   UNL A   1      32.468  25.233  22.636  1.00  0.00     0.044 A 
ATOM     12  C   UNL A   1      32.496  25.790  21.244  1.00  0.00     0.067 C 
ATOM     13  C   UNL A   1      31.541  25.680  23.555  1.00  0.00     0.058 A 
BRANCH   8  14
ATOM     14  N   UNL A   1      33.853  22.408  24.237  1.00  0.00    -0.324 N 
ATOM     15  H   UNL A   1      33.328  21.612  23.993  1.00  0.00     0.170 HD
BRANCH  14  16
ATOM     16  C   UNL A   1      35.171  22.184  24.691  1.00  0.00     0.041 A 
ATOM     17  C   UNL A   1      38.016  24.214  26.225  1.00  0.00     0.044 C 
ATOM     18  C   UNL A   1      37.229  23.071  25.659  1.00  0.00    -0.049 A 
ATOM     19  C   UNL A   1      37.831  21.813  25.531  1.00  0.00     0.007 A 
ATOM     20  C   UNL A   1      35.900  23.245  25.241  1.00  0.00     0.029 A 
ATOM     21  C   UNL A   1      37.117  20.732  25.013  1.00  0.00    -0.049 A 
ATOM     22  C   UNL A   1      37.762  19.385  24.867  1.00  0.00     0.044 C 
ATOM     23  C   UNL A   1      35.787  20.926  24.620  1.00  0.00     0.029 A 
ENDBRANCH  14  16
ENDBRANCH   8  14
ENDBRANCH   4   7
ENDBRANCH   2   3
ENDBRANCH   1   2
BRANCH   1  24
ATOM     24  C   UNL A   1      34.049  28.830  26.199  1.00  0.00     0.118 C 
BRANCH  24  25
ATOM     25  N   UNL A   1      33.870  30.174  26.731  1.00  0.00    -0.352 N 
ATOM     26  C   UNL A   1      34.557  30.839  27.713  1.00  0.00     0.251 C 
ATOM     27  H   UNL A   1      33.137  30.686  26.320  1.00  0.00     0.163 HD
ATOM     28  O   UNL A   1      34.070  31.860  28.191  1.00  0.00    -0.269 OA
BRANCH  26  29
ATOM     29  C   UNL A   1      35.868  30.348  28.194  1.00  0.00     0.039 A 
ATOM     30  C   UNL A   1      35.923  29.680  29.421  1.00  0.00     0.014 A 
ATOM     31  C   UNL A   1      37.046  30.603  27.487  1.00  0.00     0.014 A 
ATOM     32  C   UNL A   1      37.149  29.233  29.916  1.00  0.00     0.010 A 
ATOM     33  C   UNL A   1      38.260  30.098  27.948  1.00  0.00     0.010 A 
ATOM     34  C   UNL A   1      38.327  29.417  29.173  1.00  0.00    -0.014 A 
BRANCH  34  35
ATOM     35  C   UNL A   1      39.627  28.890  29.660  1.00  0.00     0.031 A 
ATOM     36  C   UNL A   1      40.362  29.576  30.780  1.00  0.00     0.074 A 
ATOM     37  C   UNL A   1      40.178  27.827  29.041  1.00  0.00     0.049 A 
ATOM     38  N   UNL A   1      41.516  29.271  31.315  1.00  0.00    -0.248 NA
ATOM     39  C   UNL A   1      39.734  30.775  31.360  1.00  0.00     0.031 C 
ATOM     40  C   UNL A   1      39.602  27.127  27.891  1.00  0.00     0.029 A 
ATOM     41  N   UNL A   1      41.356  27.164  29.276  1.00  0.00    -0.354 N 
ATOM     42  C   UNL A   1      41.767  30.250  32.270  1.00  0.00     0.074 A 
ATOM     43  C   UNL A   1      40.659  31.180  32.219  1.00  0.00     0.031 C 
ATOM     44  C   UNL A   1      40.423  26.131  27.525  1.00  0.00     0.029 A 
ATOM     45  C   UNL A   1      41.595  26.135  28.395  1.00  0.00     0.049 A 
ATOM     46  H   UNL A   1      41.972  27.402  30.006  1.00  0.00     0.167 HD
ATOM     47  C   UNL A   1      42.807  30.350  33.133  1.00  0.00     0.034 A 
ATOM     48  C   UNL A   1      42.640  25.291  28.298  1.00  0.00     0.034 A 
ATOM     49  C   UNL A   1      43.883  29.398  33.210  1.00  0.00     0.049 A 
ATOM     50  C   UNL A   1      43.757  25.395  29.300  1.00  0.00     0.074 A 
ATOM     51  C   UNL A   1      44.939  29.364  34.104  1.00  0.00     0.029 A 
ATOM     52  N   UNL A   1      44.045  28.314  32.360  1.00  0.00    -0.354 N 
ATOM     53  N   UNL A   1      43.891  26.230  30.301  1.00  0.00    -0.248 NA
ATOM     54  C   UNL A   1      44.847  24.415  29.184  1.00  0.00     0.031 C 
ATOM     55  C   UNL A   1      45.748  28.268  33.784  1.00  0.00     0.029 A 
ATOM     56  C   UNL A   1      45.185  27.608  32.703  1.00  0.00     0.049 A 
ATOM     57  H   UNL A   1      43.438  28.082  31.620  1.00  0.00     0.167 HD
ATOM     58  C   UNL A   1      45.060  25.857  30.955  1.00  0.00     0.074 A 
ATOM     59  C   UNL A   1      45.580  24.702  30.251  1.00  0.00     0.031 C 
ATOM     60  C   UNL A   1      45.660  26.429  32.028  1.00  0.00     0.034 A 
BRANCH  47  61
ATOM     61  C   UNL A   1      42.802  31.495  34.112  1.00  0.00     0.023 A 
ATOM     62  C   UNL A   1      43.434  32.706  33.760  1.00  0.00     0.012 A 
ATOM     63  C   UNL A   1      42.116  31.405  35.339  1.00  0.00     0.148 A 
ATOM     64  C   UNL A   1      43.409  33.799  34.626  1.00  0.00     0.002 A 
ATOM     65  C   UNL A   1      42.059  32.513  36.178  1.00  0.00     0.091 A 
ATOM     66  F   UNL A   1      41.537  30.241  35.663  1.00  0.00    -0.205 F 
ATOM     67  C   UNL A   1      42.713  33.706  35.828  1.00  0.00     0.022 A 
BRANCH  65  68
ATOM     68  S   UNL A   1      41.125  32.524  37.712  1.00  0.00     0.127 S 
ATOM     69  O   UNL A   1      39.868  31.903  37.297  1.00  0.00    -0.237 OA
ATOM     70  O   UNL A   1      41.955  31.694  38.585  1.00  0.00    -0.237 OA
ATOM     71  O   UNL A   1      41.027  33.921  38.114  1.00  0.00    -0.744 OA
ENDBRANCH  65  68
ENDBRANCH  47  61
BRANCH  48  72
ATOM     72  C   UNL A   1      42.644  24.225  27.255  1.00  0.00     0.023 A 
ATOM     73  C   UNL A   1      43.229  24.489  26.001  1.00  0.00     0.012 A 
ATOM     74  C   UNL A   1      42.095  22.953  27.501  1.00  0.00     0.148 A 
ATOM     75  C   UNL A   1      43.234  23.518  24.999  1.00  0.00     0.002 A 
ATOM     76  C   UNL A   1      42.156  21.970  26.519  1.00  0.00     0.091 A 
ATOM     77  F   UNL A   1      41.531  22.723  28.694  1.00  0.00    -0.205 F 
ATOM     78  C   UNL A   1      42.708  22.257  25.261  1.00  0.00     0.022 A 
BRANCH  76  79
ATOM     79  S   UNL A   1      41.629  20.280  26.823  1.00  0.00     0.127 S 
ATOM     80  O   UNL A   1      42.499  19.888  27.926  1.00  0.00    -0.237 OA
ATOM     81  O   UNL A   1      40.221  20.458  27.178  1.00  0.00    -0.237 OA
ATOM     82  O   UNL A   1      41.839  19.577  25.562  1.00  0.00    -0.744 OA
ENDBRANCH  76  79
ENDBRANCH  48  72
BRANCH  60  83
ATOM     83  C   UNL A   1      46.933  25.798  32.529  1.00  0.00     0.023 A 
ATOM     84  C   UNL A   1      48.174  26.239  32.030  1.00  0.00     0.012 A 
ATOM     85  C   UNL A   1      46.901  24.813  33.535  1.00  0.00     0.148 A 
ATOM     86  C   UNL A   1      49.365  25.684  32.498  1.00  0.00     0.002 A 
ATOM     87  C   UNL A   1      48.093  24.298  34.032  1.00  0.00     0.091 A 
ATOM     88  F   UNL A   1      45.710  24.391  33.983  1.00  0.00    -0.205 F 
ATOM     89  C   UNL A   1      49.324  24.722  33.505  1.00  0.00     0.022 A 
BRANCH  87  90
ATOM     90  S   UNL A   1      48.139  23.126  35.392  1.00  0.00     0.127 S 
ATOM     91  O   UNL A   1      47.786  21.876  34.722  1.00  0.00    -0.237 OA
ATOM     92  O   UNL A   1      49.533  23.211  35.831  1.00  0.00    -0.237 OA
ATOM     93  O   UNL A   1      47.171  23.610  36.367  1.00  0.00    -0.744 OA
ENDBRANCH  87  90
ENDBRANCH  60  83
ENDBRANCH  34  35
ENDBRANCH  26  29
ENDBRANCH  24  25
ENDBRANCH   1  24
TORSDOF 15
ENDMDL
MODEL 3
REMARK VINA RESULT:     -12.0      5.166     10.007
REMARK SMILES Cc1cc(C)cc(Nc2nc(C)cc(C(=O)NCCCNC(=O)c3ccc(-c4c5nc(c(-c6cccc(S(=O)(=O)[O-])c6F)c6ccc([nH]6)c(-c6cccc(S(=O)(=O)[O-])c6F)c6nc(c(-c7cccc(S(=O)(=O)[O-])c7F)c7ccc4[nH]7)C=C6)C=C5)cc3)n2)c1
REMARK SMILES IDX 19 1 18 2 17 3 15 4 16 5 14 7 9 8 10 9 87 10 11 11 12 12
REMARK SMILES IDX 13 13 8 14 7 16 1 17 2 18 3 19 88 20 4 21 5 22 6 23 20 24
REMARK SMILES IDX 21 25 22 26 23 28 24 29 25 30 86 31 26 32 85 33 27 34 28 35
REMARK SMILES IDX 29 36 79 37 30 38 84 39 78 40 80 41 31 42 83 43 77 44 76 45
REMARK SMILES IDX 32 47 64 48 44 49 63 50 45 51 48 52 62 53 81 54 46 55 47 56
REMARK SMILES IDX 61 58 82 59 49 60 33 61 34 62 42 63 35 64 37 65 43 66 36 67
REMARK SMILES IDX 38 68 39 69 40 70 41 71 65 72 66 73 74 74 67 75 69 76 75 77
REMARK SMILES IDX 68 78 70 79 71 80 72 81 73 82 50 83 51 84 59 85 52 86 54 87
REMARK SMILES IDX 60 88 53 89 55 90 56 91 57 92 58 93
REMARK H PARENT 17 6 8 15 21 27 80 46 48 57
REMARK Flexibility Score: inf
ROOT
ATOM      1  C   UNL A   1      36.394  22.498  25.777  1.00  0.00     0.042 C 
ENDROOT
BRANCH   1   2
ATOM      2  C   UNL A   1      35.500  21.316  26.154  1.00  0.00     0.118 C 
BRANCH   2   3
ATOM      3  N   UNL A   1      34.596  21.675  27.227  1.00  0.00    -0.351 N 
ATOM      4  C   UNL A   1      33.346  22.245  27.255  1.00  0.00     0.270 C 
ATOM      5  O   UNL A   1      32.858  22.412  28.376  1.00  0.00    -0.268 OA
ATOM      6  H   UNL A   1      34.950  21.468  28.122  1.00  0.00     0.163 HD
BRANCH   4   7
ATOM      7  C   UNL A   1      32.556  22.619  26.031  1.00  0.00     0.134 A 
ATOM      8  C   UNL A   1      30.861  23.965  25.249  1.00  0.00     0.228 A 
ATOM      9  N   UNL A   1      30.898  23.405  24.033  1.00  0.00    -0.218 NA
ATOM     10  N   UNL A   1      31.607  23.546  26.272  1.00  0.00    -0.208 NA
ATOM     11  C   UNL A   1      31.881  22.516  23.796  1.00  0.00     0.044 A 
ATOM     12  C   UNL A   1      32.006  22.010  22.390  1.00  0.00     0.067 C 
ATOM     13  C   UNL A   1      32.784  22.136  24.765  1.00  0.00     0.058 A 
BRANCH   8  14
ATOM     14  N   UNL A   1      30.095  25.122  25.374  1.00  0.00    -0.324 N 
ATOM     15  H   UNL A   1      29.144  25.002  25.597  1.00  0.00     0.170 HD
BRANCH  14  16
ATOM     16  C   UNL A   1      30.546  26.449  25.211  1.00  0.00     0.041 A 
ATOM     17  C   UNL A   1      32.444  29.060  27.250  1.00  0.00     0.044 C 
ATOM     18  C   UNL A   1      31.692  28.397  26.135  1.00  0.00    -0.049 A 
ATOM     19  C   UNL A   1      31.395  29.122  24.974  1.00  0.00     0.007 A 
ATOM     20  C   UNL A   1      31.268  27.062  26.242  1.00  0.00     0.029 A 
ATOM     21  C   UNL A   1      30.702  28.525  23.921  1.00  0.00    -0.049 A 
ATOM     22  C   UNL A   1      30.375  29.302  22.680  1.00  0.00     0.044 C 
ATOM     23  C   UNL A   1      30.306  27.187  24.043  1.00  0.00     0.029 A 
ENDBRANCH  14  16
ENDBRANCH   8  14
ENDBRANCH   4   7
ENDBRANCH   2   3
ENDBRANCH   1   2
BRANCH   1  24
ATOM     24  C   UNL A   1      37.665  22.075  25.039  1.00  0.00     0.118 C 
BRANCH  24  25
ATOM     25  N   UNL A   1      38.460  21.147  25.833  1.00  0.00    -0.352 N 
ATOM     26  C   UNL A   1      39.616  21.349  26.541  1.00  0.00     0.251 C 
ATOM     27  H   UNL A   1      38.111  20.227  25.865  1.00  0.00     0.163 HD
ATOM     28  O   UNL A   1      40.262  20.373  26.913  1.00  0.00    -0.269 OA
BRANCH  26  29
ATOM     29  C   UNL A   1      40.085  22.715  26.863  1.00  0.00     0.039 A 
ATOM     30  C   UNL A   1      40.970  22.884  27.933  1.00  0.00     0.014 A 
ATOM     31  C   UNL A   1      39.609  23.831  26.171  1.00  0.00     0.014 A 
ATOM     32  C   UNL A   1      41.405  24.163  28.281  1.00  0.00     0.010 A 
ATOM     33  C   UNL A   1      40.097  25.101  26.474  1.00  0.00     0.010 A 
ATOM     34  C   UNL A   1      40.991  25.283  27.540  1.00  0.00    -0.014 A 
BRANCH  34  35
ATOM     35  C   UNL A   1      41.498  26.641  27.861  1.00  0.00     0.031 A 
ATOM     36  C   UNL A   1      42.916  27.028  27.535  1.00  0.00     0.074 A 
ATOM     37  C   UNL A   1      40.695  27.506  28.512  1.00  0.00     0.049 A 
ATOM     38  N   UNL A   1      43.534  28.158  27.765  1.00  0.00    -0.248 NA
ATOM     39  C   UNL A   1      43.758  26.006  26.889  1.00  0.00     0.031 C 
ATOM     40  C   UNL A   1      39.329  27.219  28.955  1.00  0.00     0.029 A 
ATOM     41  N   UNL A   1      40.917  28.792  28.935  1.00  0.00    -0.354 N 
ATOM     42  C   UNL A   1      44.839  27.977  27.321  1.00  0.00     0.074 A 
ATOM     43  C   UNL A   1      44.935  26.616  26.838  1.00  0.00     0.031 C 
ATOM     44  C   UNL A   1      38.833  28.298  29.581  1.00  0.00     0.029 A 
ATOM     45  C   UNL A   1      39.851  29.343  29.608  1.00  0.00     0.049 A 
ATOM     46  H   UNL A   1      41.760  29.274  28.772  1.00  0.00     0.167 HD
ATOM     47  C   UNL A   1      45.858  28.870  27.289  1.00  0.00     0.034 A 
ATOM     48  C   UNL A   1      39.710  30.553  30.183  1.00  0.00     0.034 A 
ATOM     49  C   UNL A   1      45.745  30.235  27.730  1.00  0.00     0.049 A 
ATOM     50  C   UNL A   1      40.841  31.541  30.089  1.00  0.00     0.074 A 
ATOM     51  C   UNL A   1      46.692  31.242  27.662  1.00  0.00     0.029 A 
ATOM     52  N   UNL A   1      44.620  30.786  28.323  1.00  0.00    -0.354 N 
ATOM     53  N   UNL A   1      42.011  31.402  29.516  1.00  0.00    -0.248 NA
ATOM     54  C   UNL A   1      40.615  32.866  30.684  1.00  0.00     0.031 C 
ATOM     55  C   UNL A   1      46.145  32.397  28.230  1.00  0.00     0.029 A 
ATOM     56  C   UNL A   1      44.849  32.116  28.632  1.00  0.00     0.049 A 
ATOM     57  H   UNL A   1      43.781  30.301  28.500  1.00  0.00     0.167 HD
ATOM     58  C   UNL A   1      42.650  32.629  29.652  1.00  0.00     0.074 A 
ATOM     59  C   UNL A   1      41.723  33.508  30.336  1.00  0.00     0.031 C 
ATOM     60  C   UNL A   1      43.897  32.992  29.264  1.00  0.00     0.034 A 
BRANCH  47  61
ATOM     61  C   UNL A   1      47.170  28.422  26.699  1.00  0.00     0.023 A 
ATOM     62  C   UNL A   1      48.253  28.141  27.558  1.00  0.00     0.012 A 
ATOM     63  C   UNL A   1      47.313  28.206  25.314  1.00  0.00     0.148 A 
ATOM     64  C   UNL A   1      49.466  27.682  27.045  1.00  0.00     0.002 A 
ATOM     65  C   UNL A   1      48.512  27.707  24.816  1.00  0.00     0.091 A 
ATOM     66  F   UNL A   1      46.278  28.495  24.513  1.00  0.00    -0.205 F 
ATOM     67  C   UNL A   1      49.591  27.455  25.679  1.00  0.00     0.022 A 
BRANCH  65  68
ATOM     68  S   UNL A   1      48.752  27.305  23.081  1.00  0.00     0.127 S 
ATOM     69  O   UNL A   1      48.280  25.923  23.031  1.00  0.00    -0.237 OA
ATOM     70  O   UNL A   1      47.878  28.272  22.417  1.00  0.00    -0.237 OA
ATOM     71  O   UNL A   1      50.173  27.489  22.819  1.00  0.00    -0.744 OA
ENDBRANCH  65  68
ENDBRANCH  47  61
BRANCH  48  72
ATOM     72  C   UNL A   1      38.422  30.923  30.835  1.00  0.00     0.023 A 
ATOM     73  C   UNL A   1      38.238  30.652  32.205  1.00  0.00     0.012 A 
ATOM     74  C   UNL A   1      37.390  31.557  30.118  1.00  0.00     0.148 A 
ATOM     75  C   UNL A   1      37.039  30.972  32.840  1.00  0.00     0.002 A 
ATOM     76  C   UNL A   1      36.219  31.927  30.771  1.00  0.00     0.091 A 
ATOM     77  F   UNL A   1      37.575  31.796  28.812  1.00  0.00    -0.205 F 
ATOM     78  C   UNL A   1      36.034  31.618  32.127  1.00  0.00     0.022 A 
BRANCH  76  79
ATOM     79  S   UNL A   1      34.934  32.887  29.960  1.00  0.00     0.127 S 
ATOM     80  O   UNL A   1      34.409  31.929  28.993  1.00  0.00    -0.237 OA
ATOM     81  O   UNL A   1      34.037  33.198  31.073  1.00  0.00    -0.237 OA
ATOM     82  O   UNL A   1      35.615  34.050  29.403  1.00  0.00    -0.744 OA
ENDBRANCH  76  79
ENDBRANCH  48  72
BRANCH  60  83
ATOM     83  C   UNL A   1      44.326  34.410  29.541  1.00  0.00     0.023 A 
ATOM     84  C   UNL A   1      44.953  34.723  30.762  1.00  0.00     0.012 A 
ATOM     85  C   UNL A   1      44.159  35.416  28.569  1.00  0.00     0.148 A 
ATOM     86  C   UNL A   1      45.377  36.025  31.028  1.00  0.00     0.002 A 
ATOM     87  C   UNL A   1      44.628  36.700  28.821  1.00  0.00     0.091 A 
ATOM     88  F   UNL A   1      43.541  35.103  27.421  1.00  0.00    -0.205 F 
ATOM     89  C   UNL A   1      45.224  37.010  30.054  1.00  0.00     0.022 A 
BRANCH  87  90
ATOM     90  S   UNL A   1      44.558  38.006  27.590  1.00  0.00     0.127 S 
ATOM     91  O   UNL A   1      43.193  37.868  27.086  1.00  0.00    -0.237 OA
ATOM     92  O   UNL A   1      44.794  39.206  28.393  1.00  0.00    -0.237 OA
ATOM     93  O   UNL A   1      45.614  37.706  26.632  1.00  0.00    -0.744 OA
ENDBRANCH  87  90
ENDBRANCH  60  83
ENDBRANCH  34  35
ENDBRANCH  26  29
ENDBRANCH  24  25
ENDBRANCH   1  24
TORSDOF 15
ENDMDL
