MODEL 1
REMARK VINA RESULT:     -12.6      0.000      0.000
REMARK SMILES CC[C@@]1(C(=O)NCCCNC(=O)c2ccc(-c3c4nc(c(-c5cccc(S(=O)(=O)[O-])c5F)c5ccc([nH]5)c(-c5cccc(S(=O)(=O)[O-])c5F)c5nc(c(-c6cccc(S(=O)(=O)[O-])c6F)c6ccc3[nH]6)C=C5)C=C4)cc2)CCC[N@@H+](Cc2ccc(C3CC3)cc2)C1
REMARK SMILES IDX 8 1 7 2 6 3 4 4 5 5 3 7 76 8 90 9 77 10 79 11 78 12 2 14
REMARK SMILES IDX 1 15 80 16 81 17 82 18 89 19 83 20 88 21 84 22 85 23 86 24
REMARK SMILES IDX 87 25 9 26 10 27 11 28 12 30 13 31 14 32 75 33 15 34 74 35
REMARK SMILES IDX 16 36 17 37 18 38 68 39 19 40 73 41 67 42 69 43 20 44 72 45
REMARK SMILES IDX 66 46 65 47 21 49 53 50 33 51 52 52 34 53 37 54 51 55 70 56
REMARK SMILES IDX 35 57 36 58 50 60 71 61 38 62 22 63 23 64 31 65 24 66 26 67
REMARK SMILES IDX 32 68 25 69 27 70 28 71 29 72 30 73 54 74 55 75 63 76 56 77
REMARK SMILES IDX 58 78 64 79 57 80 59 81 60 82 61 83 62 84 39 85 40 86 48 87
REMARK SMILES IDX 41 88 43 89 49 90 42 91 44 92 45 93 46 94 47 95
REMARK H PARENT 6 6 79 13 10 29 69 48 37 59
REMARK Flexibility Score: inf
ROOT
ATOM      1  C   UNL A   1      32.613  29.256  24.612  1.00  0.00     0.042 C 
ENDROOT
BRANCH   1   2
ATOM      2  C   UNL A   1      33.652  28.214  24.249  1.00  0.00     0.117 C 
BRANCH   2   3
ATOM      3  N   UNL A   1      33.251  27.159  23.346  1.00  0.00    -0.355 N 
ATOM      4  C   UNL A   1      32.585  26.009  23.689  1.00  0.00     0.231 C 
ATOM      5  O   UNL A   1      31.746  25.626  22.860  1.00  0.00    -0.274 OA
ATOM      6  H   UNL A   1      33.479  27.275  22.395  1.00  0.00     0.163 HD
BRANCH   4   7
ATOM      7  C   UNL A   1      32.966  25.090  24.898  1.00  0.00     0.098 C 
ATOM      8  C   UNL A   1      34.516  24.929  24.976  1.00  0.00     0.028 C 
ATOM      9  C   UNL A   1      32.396  23.653  24.905  1.00  0.00     0.279 C 
ATOM     10  C   UNL A   1      35.067  23.936  23.940  1.00  0.00     0.063 C 
ATOM     11  N   UNL A   1      32.871  22.914  23.737  1.00  0.00    -0.330 N 
ATOM     12  C   UNL A   1      34.290  22.615  23.879  1.00  0.00     0.262 C 
ATOM     13  H   UNL A   1      32.737  23.569  22.966  1.00  0.00     0.348 HD
BRANCH   7  14
ATOM     14  C   UNL A   1      32.448  25.807  26.186  1.00  0.00     0.019 C 
ATOM     15  C   UNL A   1      30.963  26.166  26.205  1.00  0.00     0.005 C 
ENDBRANCH   7  14
BRANCH  11  16
ATOM     16  C   UNL A   1      32.051  21.839  23.174  1.00  0.00     0.299 C 
BRANCH  16  17
ATOM     17  C   UNL A   1      32.374  20.403  23.492  1.00  0.00     0.006 A 
ATOM     18  C   UNL A   1      32.367  19.438  22.484  1.00  0.00     0.010 A 
ATOM     19  C   UNL A   1      32.533  19.969  24.814  1.00  0.00     0.010 A 
ATOM     20  C   UNL A   1      32.571  18.087  22.789  1.00  0.00     0.004 A 
ATOM     21  C   UNL A   1      32.764  18.624  25.107  1.00  0.00     0.004 A 
ATOM     22  C   UNL A   1      32.808  17.648  24.103  1.00  0.00    -0.045 A 
BRANCH  22  23
ATOM     23  C   UNL A   1      33.099  16.187  24.380  1.00  0.00     0.019 C 
ATOM     24  C   UNL A   1      34.288  15.801  25.230  1.00  0.00     0.009 C 
ATOM     25  C   UNL A   1      32.895  15.574  25.743  1.00  0.00     0.009 C 
ENDBRANCH  22  23
ENDBRANCH  16  17
ENDBRANCH  11  16
ENDBRANCH   4   7
ENDBRANCH   2   3
ENDBRANCH   1   2
BRANCH   1  26
ATOM     26  C   UNL A   1      32.379  29.467  26.097  1.00  0.00     0.118 C 
BRANCH  26  27
ATOM     27  N   UNL A   1      32.220  30.862  26.492  1.00  0.00    -0.352 N 
ATOM     28  C   UNL A   1      33.030  31.740  27.187  1.00  0.00     0.251 C 
ATOM     29  H   UNL A   1      31.365  31.257  26.207  1.00  0.00     0.163 HD
ATOM     30  O   UNL A   1      32.602  32.860  27.431  1.00  0.00    -0.269 OA
BRANCH  28  31
ATOM     31  C   UNL A   1      34.377  31.349  27.674  1.00  0.00     0.039 A 
ATOM     32  C   UNL A   1      35.348  32.347  27.838  1.00  0.00     0.014 A 
ATOM     33  C   UNL A   1      34.710  30.030  27.964  1.00  0.00     0.014 A 
ATOM     34  C   UNL A   1      36.594  32.033  28.396  1.00  0.00     0.010 A 
ATOM     35  C   UNL A   1      35.895  29.738  28.634  1.00  0.00     0.010 A 
ATOM     36  C   UNL A   1      36.851  30.736  28.864  1.00  0.00    -0.014 A 
BRANCH  36  37
ATOM     37  C   UNL A   1      38.084  30.395  29.626  1.00  0.00     0.031 A 
ATOM     38  C   UNL A   1      39.093  29.431  29.057  1.00  0.00     0.074 A 
ATOM     39  C   UNL A   1      38.228  30.841  30.891  1.00  0.00     0.049 A 
ATOM     40  N   UNL A   1      40.148  28.906  29.627  1.00  0.00    -0.248 NA
ATOM     41  C   UNL A   1      38.862  28.961  27.681  1.00  0.00     0.031 C 
ATOM     42  C   UNL A   1      37.280  31.706  31.598  1.00  0.00     0.029 A 
ATOM     43  N   UNL A   1      39.210  30.604  31.821  1.00  0.00    -0.354 N 
ATOM     44  C   UNL A   1      40.668  28.005  28.706  1.00  0.00     0.074 A 
ATOM     45  C   UNL A   1      39.794  28.028  27.553  1.00  0.00     0.031 C 
ATOM     46  C   UNL A   1      37.733  31.938  32.839  1.00  0.00     0.029 A 
ATOM     47  C   UNL A   1      38.981  31.210  33.034  1.00  0.00     0.049 A 
ATOM     48  H   UNL A   1      40.004  30.051  31.635  1.00  0.00     0.167 HD
ATOM     49  C   UNL A   1      41.792  27.253  28.792  1.00  0.00     0.034 A 
ATOM     50  C   UNL A   1      39.689  31.180  34.180  1.00  0.00     0.034 A 
ATOM     51  C   UNL A   1      42.703  27.292  29.904  1.00  0.00     0.049 A 
ATOM     52  C   UNL A   1      40.965  30.384  34.232  1.00  0.00     0.074 A 
ATOM     53  C   UNL A   1      43.933  26.672  30.031  1.00  0.00     0.029 A 
ATOM     54  N   UNL A   1      42.482  27.989  31.082  1.00  0.00    -0.354 N 
ATOM     55  N   UNL A   1      41.529  29.672  33.288  1.00  0.00    -0.248 NA
ATOM     56  C   UNL A   1      41.711  30.407  35.498  1.00  0.00     0.031 C 
ATOM     57  C   UNL A   1      44.450  26.985  31.294  1.00  0.00     0.029 A 
ATOM     58  C   UNL A   1      43.545  27.806  31.949  1.00  0.00     0.049 A 
ATOM     59  H   UNL A   1      41.684  28.535  31.273  1.00  0.00     0.167 HD
ATOM     60  C   UNL A   1      42.709  29.180  33.835  1.00  0.00     0.074 A 
ATOM     61  C   UNL A   1      42.788  29.697  35.187  1.00  0.00     0.031 C 
ATOM     62  C   UNL A   1      43.632  28.360  33.276  1.00  0.00     0.034 A 
BRANCH  49  63
ATOM     63  C   UNL A   1      42.133  26.378  27.614  1.00  0.00     0.023 A 
ATOM     64  C   UNL A   1      42.839  26.928  26.524  1.00  0.00     0.012 A 
ATOM     65  C   UNL A   1      41.786  25.013  27.589  1.00  0.00     0.148 A 
ATOM     66  C   UNL A   1      43.153  26.149  25.410  1.00  0.00     0.002 A 
ATOM     67  C   UNL A   1      42.139  24.231  26.494  1.00  0.00     0.091 A 
ATOM     68  F   UNL A   1      41.091  24.509  28.620  1.00  0.00    -0.205 F 
ATOM     69  C   UNL A   1      42.811  24.801  25.400  1.00  0.00     0.022 A 
BRANCH  67  70
ATOM     70  S   UNL A   1      41.803  22.467  26.429  1.00  0.00     0.127 S 
ATOM     71  O   UNL A   1      42.582  22.061  25.261  1.00  0.00    -0.237 OA
ATOM     72  O   UNL A   1      42.337  21.999  27.709  1.00  0.00    -0.237 OA
ATOM     73  O   UNL A   1      40.358  22.348  26.302  1.00  0.00    -0.744 OA
ENDBRANCH  67  70
ENDBRANCH  49  63
BRANCH  50  74
ATOM     74  C   UNL A   1      39.248  32.005  35.340  1.00  0.00     0.023 A 
ATOM     75  C   UNL A   1      38.421  31.417  36.317  1.00  0.00     0.012 A 
ATOM     76  C   UNL A   1      39.688  33.331  35.518  1.00  0.00     0.148 A 
ATOM     77  C   UNL A   1      38.026  32.140  37.442  1.00  0.00     0.002 A 
ATOM     78  C   UNL A   1      39.333  34.029  36.668  1.00  0.00     0.091 A 
ATOM     79  F   UNL A   1      40.468  33.875  34.573  1.00  0.00    -0.205 F 
ATOM     80  C   UNL A   1      38.491  33.439  37.625  1.00  0.00     0.022 A 
BRANCH  78  81
ATOM     81  S   UNL A   1      39.986  35.658  37.053  1.00  0.00     0.127 S 
ATOM     82  O   UNL A   1      41.415  35.383  37.186  1.00  0.00    -0.237 OA
ATOM     83  O   UNL A   1      39.615  36.423  35.863  1.00  0.00    -0.237 OA
ATOM     84  O   UNL A   1      39.308  36.077  38.273  1.00  0.00    -0.744 OA
ENDBRANCH  78  81
ENDBRANCH  50  74
BRANCH  62  85
ATOM     85  C   UNL A   1      44.815  27.966  34.120  1.00  0.00     0.023 A 
ATOM     86  C   UNL A   1      45.946  28.805  34.155  1.00  0.00     0.012 A 
ATOM     87  C   UNL A   1      44.778  26.817  34.933  1.00  0.00     0.148 A 
ATOM     88  C   UNL A   1      47.034  28.494  34.971  1.00  0.00     0.002 A 
ATOM     89  C   UNL A   1      45.847  26.537  35.776  1.00  0.00     0.091 A 
ATOM     90  F   UNL A   1      43.700  26.022  34.869  1.00  0.00    -0.205 F 
ATOM     91  C   UNL A   1      46.979  27.368  35.790  1.00  0.00     0.022 A 
BRANCH  89  92
ATOM     92  S   UNL A   1      45.828  25.159  36.929  1.00  0.00     0.127 S 
ATOM     93  O   UNL A   1      45.805  24.012  36.023  1.00  0.00    -0.237 OA
ATOM     94  O   UNL A   1      47.086  25.339  37.653  1.00  0.00    -0.237 OA
ATOM     95  O   UNL A   1      44.633  25.338  37.744  1.00  0.00    -0.744 OA
ENDBRANCH  89  92
ENDBRANCH  62  85
ENDBRANCH  36  37
ENDBRANCH  28  31
ENDBRANCH  26  27
ENDBRANCH   1  26
TORSDOF 17
ENDMDL
MODEL 2
REMARK VINA RESULT:     -12.6      2.704      8.768
REMARK SMILES CC[C@@]1(C(=O)NCCCNC(=O)c2ccc(-c3c4nc(c(-c5cccc(S(=O)(=O)[O-])c5F)c5ccc([nH]5)c(-c5cccc(S(=O)(=O)[O-])c5F)c5nc(c(-c6cccc(S(=O)(=O)[O-])c6F)c6ccc3[nH]6)C=C5)C=C4)cc2)CCC[N@@H+](Cc2ccc(C3CC3)cc2)C1
REMARK SMILES IDX 8 1 7 2 6 3 4 4 5 5 3 7 76 8 90 9 77 10 79 11 78 12 2 14
REMARK SMILES IDX 1 15 80 16 81 17 82 18 89 19 83 20 88 21 84 22 85 23 86 24
REMARK SMILES IDX 87 25 9 26 10 27 11 28 12 30 13 31 14 32 75 33 15 34 74 35
REMARK SMILES IDX 16 36 17 37 18 38 68 39 19 40 73 41 67 42 69 43 20 44 72 45
REMARK SMILES IDX 66 46 65 47 21 49 53 50 33 51 52 52 34 53 37 54 51 55 70 56
REMARK SMILES IDX 35 57 36 58 50 60 71 61 38 62 22 63 23 64 31 65 24 66 26 67
REMARK SMILES IDX 32 68 25 69 27 70 28 71 29 72 30 73 54 74 55 75 63 76 56 77
REMARK SMILES IDX 58 78 64 79 57 80 59 81 60 82 61 83 62 84 39 85 40 86 48 87
REMARK SMILES IDX 41 88 43 89 49 90 42 91 44 92 45 93 46 94 47 95
REMARK H PARENT 6 6 79 13 10 29 69 48 37 59
REMARK Flexibility Score: inf
ROOT
ATOM      1  C   UNL A   1      31.750  29.181  26.826  1.00  0.00     0.042 C 
ENDROOT
BRANCH   1   2
ATOM      2  C   UNL A   1      32.403  27.825  26.646  1.00  0.00     0.117 C 
BRANCH   2   3
ATOM      3  N   UNL A   1      33.546  27.746  25.766  1.00  0.00    -0.355 N 
ATOM      4  C   UNL A   1      33.654  26.960  24.646  1.00  0.00     0.231 C 
ATOM      5  O   UNL A   1      34.263  27.480  23.700  1.00  0.00    -0.274 OA
ATOM      6  H   UNL A   1      34.322  28.309  25.991  1.00  0.00     0.163 HD
BRANCH   4   7
ATOM      7  C   UNL A   1      33.263  25.444  24.587  1.00  0.00     0.098 C 
ATOM      8  C   UNL A   1      33.707  24.834  23.221  1.00  0.00     0.028 C 
ATOM      9  C   UNL A   1      31.765  25.090  24.735  1.00  0.00     0.279 C 
ATOM     10  C   UNL A   1      32.767  25.208  22.064  1.00  0.00     0.063 C 
ATOM     11  N   UNL A   1      30.993  25.696  23.653  1.00  0.00    -0.330 N 
ATOM     12  C   UNL A   1      31.280  25.020  22.394  1.00  0.00     0.262 C 
ATOM     13  H   UNL A   1      31.343  26.654  23.612  1.00  0.00     0.348 HD
BRANCH   7  14
ATOM     14  C   UNL A   1      34.030  24.738  25.751  1.00  0.00     0.019 C 
ATOM     15  C   UNL A   1      35.386  24.132  25.393  1.00  0.00     0.005 C 
ENDBRANCH   7  14
BRANCH  11  16
ATOM     16  C   UNL A   1      29.589  26.053  23.873  1.00  0.00     0.299 C 
BRANCH  16  17
ATOM     17  C   UNL A   1      29.129  27.468  23.642  1.00  0.00     0.006 A 
ATOM     18  C   UNL A   1      27.770  27.754  23.501  1.00  0.00     0.010 A 
ATOM     19  C   UNL A   1      30.044  28.501  23.403  1.00  0.00     0.010 A 
ATOM     20  C   UNL A   1      27.344  29.051  23.190  1.00  0.00     0.004 A 
ATOM     21  C   UNL A   1      29.611  29.797  23.120  1.00  0.00     0.004 A 
ATOM     22  C   UNL A   1      28.249  30.113  23.024  1.00  0.00    -0.045 A 
BRANCH  22  23
ATOM     23  C   UNL A   1      27.742  31.517  22.761  1.00  0.00     0.019 C 
ATOM     24  C   UNL A   1      28.648  32.704  22.994  1.00  0.00     0.009 C 
ATOM     25  C   UNL A   1      28.233  32.341  21.598  1.00  0.00     0.009 C 
ENDBRANCH  22  23
ENDBRANCH  16  17
ENDBRANCH  11  16
ENDBRANCH   4   7
ENDBRANCH   2   3
ENDBRANCH   1   2
BRANCH   1  26
ATOM     26  C   UNL A   1      32.251  30.283  25.910  1.00  0.00     0.118 C 
BRANCH  26  27
ATOM     27  N   UNL A   1      32.227  31.617  26.498  1.00  0.00    -0.352 N 
ATOM     28  C   UNL A   1      33.084  32.283  27.354  1.00  0.00     0.251 C 
ATOM     29  H   UNL A   1      31.444  32.150  26.232  1.00  0.00     0.163 HD
ATOM     30  O   UNL A   1      32.772  33.401  27.739  1.00  0.00    -0.269 OA
BRANCH  28  31
ATOM     31  C   UNL A   1      34.342  31.664  27.845  1.00  0.00     0.039 A 
ATOM     32  C   UNL A   1      35.451  32.490  28.076  1.00  0.00     0.014 A 
ATOM     33  C   UNL A   1      34.460  30.297  28.072  1.00  0.00     0.014 A 
ATOM     34  C   UNL A   1      36.619  31.961  28.640  1.00  0.00     0.010 A 
ATOM     35  C   UNL A   1      35.568  29.794  28.748  1.00  0.00     0.010 A 
ATOM     36  C   UNL A   1      36.661  30.618  29.045  1.00  0.00    -0.014 A 
BRANCH  36  37
ATOM     37  C   UNL A   1      37.807  30.054  29.810  1.00  0.00     0.031 A 
ATOM     38  C   UNL A   1      38.081  30.506  31.222  1.00  0.00     0.074 A 
ATOM     39  C   UNL A   1      38.684  29.240  29.188  1.00  0.00     0.049 A 
ATOM     40  N   UNL A   1      39.103  30.236  31.992  1.00  0.00    -0.248 NA
ATOM     41  C   UNL A   1      37.097  31.415  31.833  1.00  0.00     0.031 C 
ATOM     42  C   UNL A   1      38.590  28.798  27.795  1.00  0.00     0.029 A 
ATOM     43  N   UNL A   1      39.849  28.665  29.636  1.00  0.00    -0.354 N 
ATOM     44  C   UNL A   1      38.916  30.985  33.148  1.00  0.00     0.074 A 
ATOM     45  C   UNL A   1      37.700  31.748  32.964  1.00  0.00     0.031 C 
ATOM     46  C   UNL A   1      39.638  28.011  27.508  1.00  0.00     0.029 A 
ATOM     47  C   UNL A   1      40.502  27.923  28.680  1.00  0.00     0.049 A 
ATOM     48  H   UNL A   1      40.183  28.775  30.555  1.00  0.00     0.167 HD
ATOM     49  C   UNL A   1      39.665  31.012  34.276  1.00  0.00     0.034 A 
ATOM     50  C   UNL A   1      41.669  27.252  28.733  1.00  0.00     0.034 A 
ATOM     51  C   UNL A   1      40.829  30.193  34.488  1.00  0.00     0.049 A 
ATOM     52  C   UNL A   1      42.454  27.248  30.016  1.00  0.00     0.074 A 
ATOM     53  C   UNL A   1      41.579  30.046  35.641  1.00  0.00     0.029 A 
ATOM     54  N   UNL A   1      41.411  29.383  33.525  1.00  0.00    -0.354 N 
ATOM     55  N   UNL A   1      42.169  27.828  31.156  1.00  0.00    -0.248 NA
ATOM     56  C   UNL A   1      43.706  26.478  30.027  1.00  0.00     0.031 C 
ATOM     57  C   UNL A   1      42.625  29.155  35.370  1.00  0.00     0.029 A 
ATOM     58  C   UNL A   1      42.520  28.743  34.051  1.00  0.00     0.049 A 
ATOM     59  H   UNL A   1      41.083  29.279  32.602  1.00  0.00     0.167 HD
ATOM     60  C   UNL A   1      43.193  27.477  32.029  1.00  0.00     0.074 A 
ATOM     61  C   UNL A   1      44.091  26.612  31.290  1.00  0.00     0.031 C 
ATOM     62  C   UNL A   1      43.383  27.852  33.318  1.00  0.00     0.034 A 
BRANCH  49  63
ATOM     63  C   UNL A   1      39.202  31.906  35.396  1.00  0.00     0.023 A 
ATOM     64  C   UNL A   1      39.484  33.287  35.342  1.00  0.00     0.012 A 
ATOM     65  C   UNL A   1      38.469  31.397  36.485  1.00  0.00     0.148 A 
ATOM     66  C   UNL A   1      39.086  34.138  36.373  1.00  0.00     0.002 A 
ATOM     67  C   UNL A   1      38.038  32.258  37.489  1.00  0.00     0.091 A 
ATOM     68  F   UNL A   1      38.230  30.078  36.538  1.00  0.00    -0.205 F 
ATOM     69  C   UNL A   1      38.356  33.625  37.440  1.00  0.00     0.022 A 
BRANCH  67  70
ATOM     70  S   UNL A   1      37.028  31.695  38.865  1.00  0.00     0.127 S 
ATOM     71  O   UNL A   1      36.782  30.302  38.501  1.00  0.00    -0.237 OA
ATOM     72  O   UNL A   1      37.926  31.877  40.007  1.00  0.00    -0.237 OA
ATOM     73  O   UNL A   1      35.860  32.565  38.876  1.00  0.00    -0.744 OA
ENDBRANCH  67  70
ENDBRANCH  49  63
BRANCH  50  74
ATOM     74  C   UNL A   1      42.113  26.452  27.556  1.00  0.00     0.023 A 
ATOM     75  C   UNL A   1      42.907  27.075  26.573  1.00  0.00     0.012 A 
ATOM     76  C   UNL A   1      41.816  25.081  27.435  1.00  0.00     0.148 A 
ATOM     77  C   UNL A   1      43.384  26.350  25.481  1.00  0.00     0.002 A 
ATOM     78  C   UNL A   1      42.338  24.353  26.370  1.00  0.00     0.091 A 
ATOM     79  F   UNL A   1      41.052  24.510  28.376  1.00  0.00    -0.205 F 
ATOM     80  C   UNL A   1      43.111  24.988  25.385  1.00  0.00     0.022 A 
BRANCH  78  81
ATOM     81  S   UNL A   1      42.149  22.571  26.231  1.00  0.00     0.127 S 
ATOM     82  O   UNL A   1      40.699  22.431  26.126  1.00  0.00    -0.237 OA
ATOM     83  O   UNL A   1      42.886  22.283  25.001  1.00  0.00    -0.237 OA
ATOM     84  O   UNL A   1      42.752  22.016  27.436  1.00  0.00    -0.744 OA
ENDBRANCH  78  81
ENDBRANCH  50  74
BRANCH  62  85
ATOM     85  C   UNL A   1      44.607  27.330  34.022  1.00  0.00     0.023 A 
ATOM     86  C   UNL A   1      45.786  28.101  34.018  1.00  0.00     0.012 A 
ATOM     87  C   UNL A   1      44.568  26.125  34.751  1.00  0.00     0.148 A 
ATOM     88  C   UNL A   1      46.917  27.669  34.709  1.00  0.00     0.002 A 
ATOM     89  C   UNL A   1      45.686  25.722  35.472  1.00  0.00     0.091 A 
ATOM     90  F   UNL A   1      43.442  25.397  34.724  1.00  0.00    -0.205 F 
ATOM     91  C   UNL A   1      46.863  26.488  35.446  1.00  0.00     0.022 A 
BRANCH  89  92
ATOM     92  S   UNL A   1      45.680  24.262  36.519  1.00  0.00     0.127 S 
ATOM     93  O   UNL A   1      45.483  23.194  35.541  1.00  0.00    -0.237 OA
ATOM     94  O   UNL A   1      47.015  24.302  37.118  1.00  0.00    -0.237 OA
ATOM     95  O   UNL A   1      44.590  24.455  37.466  1.00  0.00    -0.744 OA
ENDBRANCH  89  92
ENDBRANCH  62  85
ENDBRANCH  36  37
ENDBRANCH  28  31
ENDBRANCH  26  27
ENDBRANCH   1  26
TORSDOF 17
ENDMDL
MODEL 3
REMARK VINA RESULT:     -12.5      2.367      4.582
REMARK SMILES CC[C@@]1(C(=O)NCCCNC(=O)c2ccc(-c3c4nc(c(-c5cccc(S(=O)(=O)[O-])c5F)c5ccc([nH]5)c(-c5cccc(S(=O)(=O)[O-])c5F)c5nc(c(-c6cccc(S(=O)(=O)[O-])c6F)c6ccc3[nH]6)C=C5)C=C4)cc2)CCC[N@@H+](Cc2ccc(C3CC3)cc2)C1
REMARK SMILES IDX 8 1 7 2 6 3 4 4 5 5 3 7 76 8 90 9 77 10 79 11 78 12 2 14
REMARK SMILES IDX 1 15 80 16 81 17 82 18 89 19 83 20 88 21 84 22 85 23 86 24
REMARK SMILES IDX 87 25 9 26 10 27 11 28 12 30 13 31 14 32 75 33 15 34 74 35
REMARK SMILES IDX 16 36 17 37 18 38 68 39 19 40 73 41 67 42 69 43 20 44 72 45
REMARK SMILES IDX 66 46 65 47 21 49 53 50 33 51 52 52 34 53 37 54 51 55 70 56
REMARK SMILES IDX 35 57 36 58 50 60 71 61 38 62 22 63 23 64 31 65 24 66 26 67
REMARK SMILES IDX 32 68 25 69 27 70 28 71 29 72 30 73 54 74 55 75 63 76 56 77
REMARK SMILES IDX 58 78 64 79 57 80 59 81 60 82 61 83 62 84 39 85 40 86 48 87
REMARK SMILES IDX 41 88 43 89 49 90 42 91 44 92 45 93 46 94 47 95
REMARK H PARENT 6 6 79 13 10 29 69 48 37 59
REMARK Flexibility Score: inf
ROOT
ATOM      1  C   UNL A   1      31.773  28.824  27.178  1.00  0.00     0.042 C 
ENDROOT
BRANCH   1   2
ATOM      2  C   UNL A   1      31.749  27.383  26.710  1.00  0.00     0.117 C 
BRANCH   2   3
ATOM      3  N   UNL A   1      33.011  26.776  26.356  1.00  0.00    -0.355 N 
ATOM      4  C   UNL A   1      33.188  25.706  25.515  1.00  0.00     0.231 C 
ATOM      5  O   UNL A   1      34.196  25.769  24.795  1.00  0.00    -0.274 OA
ATOM      6  H   UNL A   1      33.822  27.165  26.758  1.00  0.00     0.163 HD
BRANCH   4   7
ATOM      7  C   UNL A   1      32.351  24.383  25.574  1.00  0.00     0.098 C 
ATOM      8  C   UNL A   1      32.722  23.465  24.369  1.00  0.00     0.028 C 
ATOM      9  C   UNL A   1      30.810  24.516  25.539  1.00  0.00     0.279 C 
ATOM     10  C   UNL A   1      32.073  23.915  23.050  1.00  0.00     0.063 C 
ATOM     11  N   UNL A   1      30.385  25.147  24.292  1.00  0.00    -0.330 N 
ATOM     12  C   UNL A   1      30.576  24.229  23.176  1.00  0.00     0.262 C 
ATOM     13  H   UNL A   1      31.020  25.939  24.192  1.00  0.00     0.348 HD
BRANCH   7  14
ATOM     14  C   UNL A   1      32.731  23.673  26.913  1.00  0.00     0.019 C 
ATOM     15  C   UNL A   1      34.125  23.052  26.972  1.00  0.00     0.005 C 
ENDBRANCH   7  14
BRANCH  11  16
ATOM     16  C   UNL A   1      29.148  25.932  24.259  1.00  0.00     0.299 C 
BRANCH  16  17
ATOM     17  C   UNL A   1      29.121  27.260  23.550  1.00  0.00     0.006 A 
ATOM     18  C   UNL A   1      30.312  27.900  23.204  1.00  0.00     0.010 A 
ATOM     19  C   UNL A   1      27.922  27.960  23.362  1.00  0.00     0.010 A 
ATOM     20  C   UNL A   1      30.294  29.179  22.632  1.00  0.00     0.004 A 
ATOM     21  C   UNL A   1      27.910  29.222  22.766  1.00  0.00     0.004 A 
ATOM     22  C   UNL A   1      29.092  29.860  22.368  1.00  0.00    -0.045 A 
BRANCH  22  23
ATOM     23  C   UNL A   1      29.115  31.209  21.679  1.00  0.00     0.019 C 
ATOM     24  C   UNL A   1      27.997  31.596  20.737  1.00  0.00     0.009 C 
ATOM     25  C   UNL A   1      28.153  32.312  22.048  1.00  0.00     0.009 C 
ENDBRANCH  22  23
ENDBRANCH  16  17
ENDBRANCH  11  16
ENDBRANCH   4   7
ENDBRANCH   2   3
ENDBRANCH   1   2
BRANCH   1  26
ATOM     26  C   UNL A   1      32.386  29.824  26.214  1.00  0.00     0.118 C 
BRANCH  26  27
ATOM     27  N   UNL A   1      32.271  31.216  26.631  1.00  0.00    -0.352 N 
ATOM     28  C   UNL A   1      33.115  32.061  27.327  1.00  0.00     0.251 C 
ATOM     29  H   UNL A   1      31.425  31.639  26.363  1.00  0.00     0.163 HD
ATOM     30  O   UNL A   1      32.722  33.189  27.593  1.00  0.00    -0.269 OA
BRANCH  28  31
ATOM     31  C   UNL A   1      34.457  31.625  27.792  1.00  0.00     0.039 A 
ATOM     32  C   UNL A   1      35.468  32.586  27.920  1.00  0.00     0.014 A 
ATOM     33  C   UNL A   1      34.745  30.298  28.093  1.00  0.00     0.014 A 
ATOM     34  C   UNL A   1      36.713  32.233  28.456  1.00  0.00     0.010 A 
ATOM     35  C   UNL A   1      35.932  29.970  28.742  1.00  0.00     0.010 A 
ATOM     36  C   UNL A   1      36.931  30.933  28.936  1.00  0.00    -0.014 A 
BRANCH  36  37
ATOM     37  C   UNL A   1      38.166  30.555  29.677  1.00  0.00     0.031 A 
ATOM     38  C   UNL A   1      39.148  29.580  29.080  1.00  0.00     0.074 A 
ATOM     39  C   UNL A   1      38.335  30.979  30.946  1.00  0.00     0.049 A 
ATOM     40  N   UNL A   1      40.199  29.025  29.627  1.00  0.00    -0.248 NA
ATOM     41  C   UNL A   1      38.890  29.137  27.699  1.00  0.00     0.031 C 
ATOM     42  C   UNL A   1      37.414  31.851  31.679  1.00  0.00     0.029 A 
ATOM     43  N   UNL A   1      39.325  30.707  31.860  1.00  0.00    -0.354 N 
ATOM     44  C   UNL A   1      40.689  28.129  28.685  1.00  0.00     0.074 A 
ATOM     45  C   UNL A   1      39.801  28.187  27.545  1.00  0.00     0.031 C 
ATOM     46  C   UNL A   1      37.888  32.055  32.917  1.00  0.00     0.029 A 
ATOM     47  C   UNL A   1      39.124  31.298  33.085  1.00  0.00     0.049 A 
ATOM     48  H   UNL A   1      40.104  30.141  31.655  1.00  0.00     0.167 HD
ATOM     49  C   UNL A   1      41.798  27.353  28.745  1.00  0.00     0.034 A 
ATOM     50  C   UNL A   1      39.845  31.235  34.221  1.00  0.00     0.034 A 
ATOM     51  C   UNL A   1      42.724  27.356  29.845  1.00  0.00     0.049 A 
ATOM     52  C   UNL A   1      41.105  30.414  34.244  1.00  0.00     0.074 A 
ATOM     53  C   UNL A   1      43.943  26.710  29.947  1.00  0.00     0.029 A 
ATOM     54  N   UNL A   1      42.532  28.039  31.037  1.00  0.00    -0.354 N 
ATOM     55  N   UNL A   1      41.643  29.706  33.281  1.00  0.00    -0.248 NA
ATOM     56  C   UNL A   1      41.868  30.402  35.500  1.00  0.00     0.031 C 
ATOM     57  C   UNL A   1      44.483  26.992  31.208  1.00  0.00     0.029 A 
ATOM     58  C   UNL A   1      43.603  27.820  31.887  1.00  0.00     0.049 A 
ATOM     59  H   UNL A   1      41.749  28.598  31.247  1.00  0.00     0.167 HD
ATOM     60  C   UNL A   1      42.819  29.181  33.805  1.00  0.00     0.074 A 
ATOM     61  C   UNL A   1      42.927  29.675  35.163  1.00  0.00     0.031 C 
ATOM     62  C   UNL A   1      43.718  28.351  33.221  1.00  0.00     0.034 A 
BRANCH  49  63
ATOM     63  C   UNL A   1      42.106  26.490  27.549  1.00  0.00     0.023 A 
ATOM     64  C   UNL A   1      42.744  27.061  26.428  1.00  0.00     0.012 A 
ATOM     65  C   UNL A   1      41.795  25.117  27.537  1.00  0.00     0.148 A 
ATOM     66  C   UNL A   1      43.026  26.293  25.299  1.00  0.00     0.002 A 
ATOM     67  C   UNL A   1      42.117  24.347  26.423  1.00  0.00     0.091 A 
ATOM     68  F   UNL A   1      41.164  24.591  28.597  1.00  0.00    -0.205 F 
ATOM     69  C   UNL A   1      42.720  24.936  25.300  1.00  0.00     0.022 A 
BRANCH  67  70
ATOM     70  S   UNL A   1      41.826  22.574  26.368  1.00  0.00     0.127 S 
ATOM     71  O   UNL A   1      40.367  22.515  26.335  1.00  0.00    -0.237 OA
ATOM     72  O   UNL A   1      42.480  22.188  25.116  1.00  0.00    -0.237 OA
ATOM     73  O   UNL A   1      42.457  22.036  27.565  1.00  0.00    -0.744 OA
ENDBRANCH  67  70
ENDBRANCH  49  63
BRANCH  50  74
ATOM     74  C   UNL A   1      39.437  32.051  35.400  1.00  0.00     0.023 A 
ATOM     75  C   UNL A   1      39.771  33.419  35.428  1.00  0.00     0.012 A 
ATOM     76  C   UNL A   1      38.671  31.507  36.450  1.00  0.00     0.148 A 
ATOM     77  C   UNL A   1      39.365  34.228  36.489  1.00  0.00     0.002 A 
ATOM     78  C   UNL A   1      38.227  32.331  37.479  1.00  0.00     0.091 A 
ATOM     79  F   UNL A   1      38.371  30.201  36.408  1.00  0.00    -0.205 F 
ATOM     80  C   UNL A   1      38.584  33.689  37.507  1.00  0.00     0.022 A 
BRANCH  78  81
ATOM     81  S   UNL A   1      37.110  31.757  38.764  1.00  0.00     0.127 S 
ATOM     82  O   UNL A   1      37.906  31.973  39.970  1.00  0.00    -0.237 OA
ATOM     83  O   UNL A   1      35.974  32.665  38.606  1.00  0.00    -0.237 OA
ATOM     84  O   UNL A   1      36.817  30.367  38.440  1.00  0.00    -0.744 OA
ENDBRANCH  78  81
ENDBRANCH  50  74
BRANCH  62  85
ATOM     85  C   UNL A   1      44.904  27.920  34.043  1.00  0.00     0.023 A 
ATOM     86  C   UNL A   1      46.052  28.736  34.076  1.00  0.00     0.012 A 
ATOM     87  C   UNL A   1      44.853  26.759  34.839  1.00  0.00     0.148 A 
ATOM     88  C   UNL A   1      47.143  28.390  34.873  1.00  0.00     0.002 A 
ATOM     89  C   UNL A   1      45.928  26.444  35.663  1.00  0.00     0.091 A 
ATOM     90  F   UNL A   1      43.759  25.987  34.776  1.00  0.00    -0.205 F 
ATOM     91  C   UNL A   1      47.076  27.253  35.675  1.00  0.00     0.022 A 
BRANCH  89  92
ATOM     92  S   UNL A   1      45.895  25.049  36.794  1.00  0.00     0.127 S 
ATOM     93  O   UNL A   1      47.082  25.297  37.609  1.00  0.00    -0.237 OA
ATOM     94  O   UNL A   1      44.624  25.243  37.493  1.00  0.00    -0.237 OA
ATOM     95  O   UNL A   1      45.947  23.857  35.958  1.00  0.00    -0.744 OA
ENDBRANCH  89  92
ENDBRANCH  62  85
ENDBRANCH  36  37
ENDBRANCH  28  31
ENDBRANCH  26  27
ENDBRANCH   1  26
TORSDOF 17
ENDMDL
