MODEL 1
REMARK VINA RESULT:     -11.4      0.000      0.000
REMARK SMILES O=C(Cc1csc(NC(=O)[C@H]2CC(=O)N(C3CC3)C2)n1)NCCCNC(=O)c1ccc(-c2c3nc(c(-c4cccc(S(=O)(=O)[O-])c4F)c4ccc([nH]4)c(-c4cccc(S(=O)(=O)[O-])c4F)c4nc(c(-c5cccc(S(=O)(=O)[O-])c5F)c5ccc2[nH]5)C=C4)C=C3)cc1
REMARK SMILES IDX 22 1 21 2 1 3 2 4 3 6 4 7 5 8 20 9 6 10 7 11 8 12 9 13 10 15
REMARK SMILES IDX 11 16 12 17 19 18 13 19 15 20 14 21 16 22 17 23 18 24 23 25
REMARK SMILES IDX 24 26 25 27 26 28 27 30 28 31 29 32 90 33 30 34 89 35 31 36
REMARK SMILES IDX 32 37 33 38 83 39 34 40 88 41 82 42 84 43 35 44 87 45 81 46
REMARK SMILES IDX 80 47 36 49 68 50 48 51 67 52 49 53 52 54 66 55 85 56 50 57
REMARK SMILES IDX 51 58 65 60 86 61 53 62 37 63 38 64 46 65 39 66 41 67 47 68
REMARK SMILES IDX 40 69 42 70 43 71 44 72 45 73 69 74 70 75 78 76 71 77 73 78
REMARK SMILES IDX 79 79 72 80 74 81 75 82 76 83 77 84 54 85 55 86 63 87 56 88
REMARK SMILES IDX 58 89 64 90 57 91 59 92 60 93 61 94 62 95
REMARK H PARENT 21 5 8 14 25 29 84 48 52 59
REMARK Flexibility Score: inf
ROOT
ATOM      1  C   UNL A   1      31.961  31.079  26.978  1.00  0.00     0.117 C 
ENDROOT
BRANCH   1   2
ATOM      2  N   UNL A   1      31.538  30.364  25.793  1.00  0.00    -0.356 N 
ATOM      3  O   UNL A   1      33.594  29.477  25.276  1.00  0.00    -0.275 OA
ATOM      4  C   UNL A   1      32.393  29.590  25.037  1.00  0.00     0.226 C 
ATOM      5  H   UNL A   1      30.597  30.433  25.513  1.00  0.00     0.163 HD
BRANCH   4   6
ATOM      6  C   UNL A   1      31.769  28.972  23.802  1.00  0.00     0.157 C 
BRANCH   6   7
ATOM      7  C   UNL A   1      30.771  27.885  24.063  1.00  0.00     0.063 A 
ATOM      8  C   UNL A   1      29.685  27.598  23.259  1.00  0.00     0.093 A 
ATOM      9  N   UNL A   1      30.874  27.061  25.178  1.00  0.00    -0.224 NA
ATOM     10  S   UNL A   1      28.812  26.282  23.906  1.00  0.00    -0.105 S 
ATOM     11  C   UNL A   1      29.935  26.143  25.170  1.00  0.00     0.189 A 
BRANCH  11  12
ATOM     12  N   UNL A   1      29.893  25.191  26.153  1.00  0.00    -0.302 N 
ATOM     13  C   UNL A   1      30.402  23.940  26.302  1.00  0.00     0.231 C 
ATOM     14  H   UNL A   1      29.371  25.480  26.936  1.00  0.00     0.172 HD
ATOM     15  O   UNL A   1      30.139  23.351  27.357  1.00  0.00    -0.274 OA
BRANCH  13  16
ATOM     16  C   UNL A   1      31.252  23.259  25.260  1.00  0.00     0.107 C 
ATOM     17  C   UNL A   1      32.559  23.990  24.940  1.00  0.00     0.115 C 
ATOM     18  C   UNL A   1      31.765  21.922  25.763  1.00  0.00     0.133 C 
ATOM     19  C   UNL A   1      33.419  22.868  24.406  1.00  0.00     0.223 C 
ATOM     20  N   UNL A   1      32.904  21.674  24.915  1.00  0.00    -0.339 N 
ATOM     21  O   UNL A   1      34.380  23.032  23.671  1.00  0.00    -0.275 OA
BRANCH  20  22
ATOM     22  C   UNL A   1      33.340  20.341  24.644  1.00  0.00     0.085 C 
ATOM     23  C   UNL A   1      32.697  19.100  25.196  1.00  0.00     0.027 C 
ATOM     24  C   UNL A   1      32.542  19.438  23.743  1.00  0.00     0.027 C 
ENDBRANCH  20  22
ENDBRANCH  13  16
ENDBRANCH  11  12
ENDBRANCH   6   7
ENDBRANCH   4   6
ENDBRANCH   1   2
BRANCH   1  25
ATOM     25  C   UNL A   1      31.666  32.573  26.894  1.00  0.00     0.042 C 
BRANCH  25  26
ATOM     26  C   UNL A   1      32.884  33.478  27.058  1.00  0.00     0.118 C 
BRANCH  26  27
ATOM     27  N   UNL A   1      32.616  34.665  27.857  1.00  0.00    -0.352 N 
ATOM     28  C   UNL A   1      33.137  35.064  29.064  1.00  0.00     0.251 C 
ATOM     29  H   UNL A   1      31.956  35.283  27.468  1.00  0.00     0.163 HD
ATOM     30  O   UNL A   1      32.660  36.054  29.617  1.00  0.00    -0.269 OA
BRANCH  28  31
ATOM     31  C   UNL A   1      34.239  34.317  29.715  1.00  0.00     0.039 A 
ATOM     32  C   UNL A   1      35.545  34.532  29.261  1.00  0.00     0.014 A 
ATOM     33  C   UNL A   1      34.006  33.387  30.730  1.00  0.00     0.014 A 
ATOM     34  C   UNL A   1      36.613  33.858  29.860  1.00  0.00     0.010 A 
ATOM     35  C   UNL A   1      35.080  32.777  31.380  1.00  0.00     0.010 A 
ATOM     36  C   UNL A   1      36.396  32.997  30.948  1.00  0.00    -0.014 A 
BRANCH  36  37
ATOM     37  C   UNL A   1      37.540  32.343  31.642  1.00  0.00     0.031 A 
ATOM     38  C   UNL A   1      38.308  31.224  30.985  1.00  0.00     0.074 A 
ATOM     39  C   UNL A   1      37.858  32.721  32.896  1.00  0.00     0.049 A 
ATOM     40  N   UNL A   1      39.334  30.552  31.439  1.00  0.00    -0.248 NA
ATOM     41  C   UNL A   1      37.850  30.786  29.656  1.00  0.00     0.031 C 
ATOM     42  C   UNL A   1      37.142  33.728  33.682  1.00  0.00     0.029 A 
ATOM     43  N   UNL A   1      38.853  32.291  33.739  1.00  0.00    -0.354 N 
ATOM     44  C   UNL A   1      39.627  29.598  30.472  1.00  0.00     0.074 A 
ATOM     45  C   UNL A   1      38.645  29.752  29.421  1.00  0.00     0.031 C 
ATOM     46  C   UNL A   1      37.730  33.852  34.882  1.00  0.00     0.029 A 
ATOM     47  C   UNL A   1      38.845  32.913  34.967  1.00  0.00     0.049 A 
ATOM     48  H   UNL A   1      39.510  31.602  33.490  1.00  0.00     0.167 HD
ATOM     49  C   UNL A   1      40.638  28.695  30.443  1.00  0.00     0.034 A 
ATOM     50  C   UNL A   1      39.642  32.750  36.040  1.00  0.00     0.034 A 
ATOM     51  C   UNL A   1      41.635  28.565  31.472  1.00  0.00     0.049 A 
ATOM     52  C   UNL A   1      40.782  31.771  35.965  1.00  0.00     0.074 A 
ATOM     53  C   UNL A   1      42.747  27.740  31.493  1.00  0.00     0.029 A 
ATOM     54  N   UNL A   1      41.639  29.266  32.667  1.00  0.00    -0.354 N 
ATOM     55  N   UNL A   1      41.139  30.994  34.971  1.00  0.00    -0.248 NA
ATOM     56  C   UNL A   1      41.654  31.676  37.144  1.00  0.00     0.031 C 
ATOM     57  C   UNL A   1      43.404  27.920  32.714  1.00  0.00     0.029 A 
ATOM     58  C   UNL A   1      42.724  28.886  33.438  1.00  0.00     0.049 A 
ATOM     59  H   UNL A   1      40.967  29.937  32.930  1.00  0.00     0.167 HD
ATOM     60  C   UNL A   1      42.296  30.347  35.391  1.00  0.00     0.074 A 
ATOM     61  C   UNL A   1      42.594  30.843  36.718  1.00  0.00     0.031 C 
ATOM     62  C   UNL A   1      43.039  29.417  34.740  1.00  0.00     0.034 A 
BRANCH  49  63
ATOM     63  C   UNL A   1      40.747  27.802  29.231  1.00  0.00     0.023 A 
ATOM     64  C   UNL A   1      39.941  26.649  29.140  1.00  0.00     0.012 A 
ATOM     65  C   UNL A   1      41.595  28.136  28.157  1.00  0.00     0.148 A 
ATOM     66  C   UNL A   1      40.004  25.822  28.021  1.00  0.00     0.002 A 
ATOM     67  C   UNL A   1      41.617  27.332  27.023  1.00  0.00     0.091 A 
ATOM     68  F   UNL A   1      42.368  29.226  28.266  1.00  0.00    -0.205 F 
ATOM     69  C   UNL A   1      40.833  26.169  26.957  1.00  0.00     0.022 A 
BRANCH  67  70
ATOM     70  S   UNL A   1      42.590  27.735  25.567  1.00  0.00     0.127 S 
ATOM     71  O   UNL A   1      41.882  28.907  25.055  1.00  0.00    -0.237 OA
ATOM     72  O   UNL A   1      43.903  28.020  26.144  1.00  0.00    -0.237 OA
ATOM     73  O   UNL A   1      42.543  26.557  24.712  1.00  0.00    -0.744 OA
ENDBRANCH  67  70
ENDBRANCH  49  63
BRANCH  50  74
ATOM     74  C   UNL A   1      39.430  33.580  37.260  1.00  0.00     0.023 A 
ATOM     75  C   UNL A   1      40.002  34.866  37.335  1.00  0.00     0.012 A 
ATOM     76  C   UNL A   1      38.652  33.112  38.337  1.00  0.00     0.148 A 
ATOM     77  C   UNL A   1      39.835  35.654  38.474  1.00  0.00     0.002 A 
ATOM     78  C   UNL A   1      38.441  33.926  39.443  1.00  0.00     0.091 A 
ATOM     79  F   UNL A   1      38.126  31.883  38.250  1.00  0.00    -0.205 F 
ATOM     80  C   UNL A   1      39.046  35.189  39.522  1.00  0.00     0.022 A 
BRANCH  78  81
ATOM     81  S   UNL A   1      37.335  33.464  40.780  1.00  0.00     0.127 S 
ATOM     82  O   UNL A   1      36.139  33.050  40.049  1.00  0.00    -0.237 OA
ATOM     83  O   UNL A   1      38.075  32.377  41.420  1.00  0.00    -0.237 OA
ATOM     84  O   UNL A   1      37.191  34.657  41.602  1.00  0.00    -0.744 OA
ENDBRANCH  78  81
ENDBRANCH  50  74
BRANCH  62  85
ATOM     85  C   UNL A   1      44.273  28.900  35.434  1.00  0.00     0.023 A 
ATOM     86  C   UNL A   1      45.529  29.485  35.172  1.00  0.00     0.012 A 
ATOM     87  C   UNL A   1      44.179  27.866  36.386  1.00  0.00     0.148 A 
ATOM     88  C   UNL A   1      46.676  29.019  35.813  1.00  0.00     0.002 A 
ATOM     89  C   UNL A   1      45.319  27.443  37.061  1.00  0.00     0.091 A 
ATOM     90  F   UNL A   1      42.981  27.308  36.611  1.00  0.00    -0.205 F 
ATOM     91  C   UNL A   1      46.570  28.007  36.764  1.00  0.00     0.022 A 
BRANCH  89  92
ATOM     92  S   UNL A   1      45.261  26.217  38.372  1.00  0.00     0.127 S 
ATOM     93  O   UNL A   1      46.648  26.210  38.834  1.00  0.00    -0.237 OA
ATOM     94  O   UNL A   1      44.308  26.810  39.311  1.00  0.00    -0.237 OA
ATOM     95  O   UNL A   1      44.804  24.983  37.747  1.00  0.00    -0.744 OA
ENDBRANCH  89  92
ENDBRANCH  62  85
ENDBRANCH  36  37
ENDBRANCH  28  31
ENDBRANCH  26  27
ENDBRANCH  25  26
ENDBRANCH   1  25
TORSDOF 17
ENDMDL
MODEL 2
REMARK VINA RESULT:     -11.4      6.412     11.804
REMARK SMILES O=C(Cc1csc(NC(=O)[C@H]2CC(=O)N(C3CC3)C2)n1)NCCCNC(=O)c1ccc(-c2c3nc(c(-c4cccc(S(=O)(=O)[O-])c4F)c4ccc([nH]4)c(-c4cccc(S(=O)(=O)[O-])c4F)c4nc(c(-c5cccc(S(=O)(=O)[O-])c5F)c5ccc2[nH]5)C=C4)C=C3)cc1
REMARK SMILES IDX 22 1 21 2 1 3 2 4 3 6 4 7 5 8 20 9 6 10 7 11 8 12 9 13 10 15
REMARK SMILES IDX 11 16 12 17 19 18 13 19 15 20 14 21 16 22 17 23 18 24 23 25
REMARK SMILES IDX 24 26 25 27 26 28 27 30 28 31 29 32 90 33 30 34 89 35 31 36
REMARK SMILES IDX 32 37 33 38 83 39 34 40 88 41 82 42 84 43 35 44 87 45 81 46
REMARK SMILES IDX 80 47 36 49 68 50 48 51 67 52 49 53 52 54 66 55 85 56 50 57
REMARK SMILES IDX 51 58 65 60 86 61 53 62 37 63 38 64 46 65 39 66 41 67 47 68
REMARK SMILES IDX 40 69 42 70 43 71 44 72 45 73 69 74 70 75 78 76 71 77 73 78
REMARK SMILES IDX 79 79 72 80 74 81 75 82 76 83 77 84 54 85 55 86 63 87 56 88
REMARK SMILES IDX 58 89 64 90 57 91 59 92 60 93 61 94 62 95
REMARK H PARENT 21 5 8 14 25 29 84 48 52 59
REMARK Flexibility Score: inf
ROOT
ATOM      1  C   UNL A   1      37.648  21.204  24.585  1.00  0.00     0.117 C 
ENDROOT
BRANCH   1   2
ATOM      2  N   UNL A   1      36.209  21.225  24.739  1.00  0.00    -0.356 N 
ATOM      3  O   UNL A   1      36.153  22.745  26.462  1.00  0.00    -0.275 OA
ATOM      4  C   UNL A   1      35.563  22.022  25.662  1.00  0.00     0.226 C 
ATOM      5  H   UNL A   1      35.665  20.645  24.159  1.00  0.00     0.163 HD
BRANCH   4   6
ATOM      6  C   UNL A   1      34.058  21.854  25.705  1.00  0.00     0.157 C 
BRANCH   6   7
ATOM      7  C   UNL A   1      33.371  21.872  24.373  1.00  0.00     0.063 A 
ATOM      8  C   UNL A   1      32.462  20.927  23.939  1.00  0.00     0.093 A 
ATOM      9  N   UNL A   1      33.617  22.879  23.447  1.00  0.00    -0.224 NA
ATOM     10  S   UNL A   1      31.910  21.326  22.374  1.00  0.00    -0.105 S 
ATOM     11  C   UNL A   1      32.861  22.731  22.384  1.00  0.00     0.189 A 
BRANCH  11  12
ATOM     12  N   UNL A   1      32.905  23.653  21.372  1.00  0.00    -0.302 N 
ATOM     13  C   UNL A   1      32.977  25.008  21.310  1.00  0.00     0.231 C 
ATOM     14  H   UNL A   1      32.877  23.236  20.481  1.00  0.00     0.172 HD
ATOM     15  O   UNL A   1      32.984  25.516  20.183  1.00  0.00    -0.274 OA
BRANCH  13  16
ATOM     16  C   UNL A   1      33.046  25.893  22.527  1.00  0.00     0.107 C 
ATOM     17  C   UNL A   1      33.382  27.356  22.223  1.00  0.00     0.115 C 
ATOM     18  C   UNL A   1      31.684  26.024  23.186  1.00  0.00     0.133 C 
ATOM     19  C   UNL A   1      32.803  28.065  23.425  1.00  0.00     0.223 C 
ATOM     20  N   UNL A   1      31.815  27.235  23.957  1.00  0.00    -0.339 N 
ATOM     21  O   UNL A   1      33.167  29.164  23.813  1.00  0.00    -0.275 OA
BRANCH  20  22
ATOM     22  C   UNL A   1      31.029  27.443  25.132  1.00  0.00     0.085 C 
ATOM     23  C   UNL A   1      30.651  26.368  26.112  1.00  0.00     0.027 C 
ATOM     24  C   UNL A   1      31.661  27.409  26.497  1.00  0.00     0.027 C 
ENDBRANCH  20  22
ENDBRANCH  13  16
ENDBRANCH  11  12
ENDBRANCH   6   7
ENDBRANCH   4   6
ENDBRANCH   1   2
BRANCH   1  25
ATOM     25  C   UNL A   1      38.236  19.813  24.799  1.00  0.00     0.042 C 
BRANCH  25  26
ATOM     26  C   UNL A   1      38.867  19.588  26.171  1.00  0.00     0.118 C 
BRANCH  26  27
ATOM     27  N   UNL A   1      40.123  18.855  26.115  1.00  0.00    -0.352 N 
ATOM     28  C   UNL A   1      41.421  19.306  26.144  1.00  0.00     0.251 C 
ATOM     29  H   UNL A   1      40.028  17.878  26.045  1.00  0.00     0.163 HD
ATOM     30  O   UNL A   1      42.331  18.503  25.951  1.00  0.00    -0.269 OA
BRANCH  28  31
ATOM     31  C   UNL A   1      41.737  20.735  26.383  1.00  0.00     0.039 A 
ATOM     32  C   UNL A   1      42.294  21.094  27.614  1.00  0.00     0.014 A 
ATOM     33  C   UNL A   1      41.460  21.724  25.435  1.00  0.00     0.014 A 
ATOM     34  C   UNL A   1      42.620  22.430  27.871  1.00  0.00     0.010 A 
ATOM     35  C   UNL A   1      41.861  23.041  25.662  1.00  0.00     0.010 A 
ATOM     36  C   UNL A   1      42.437  23.413  26.885  1.00  0.00    -0.014 A 
BRANCH  36  37
ATOM     37  C   UNL A   1      42.861  24.820  27.125  1.00  0.00     0.031 A 
ATOM     38  C   UNL A   1      41.937  25.805  27.794  1.00  0.00     0.074 A 
ATOM     39  C   UNL A   1      44.069  25.231  26.690  1.00  0.00     0.049 A 
ATOM     40  N   UNL A   1      42.147  27.062  28.089  1.00  0.00    -0.248 NA
ATOM     41  C   UNL A   1      40.593  25.325  28.156  1.00  0.00     0.031 C 
ATOM     42  C   UNL A   1      45.027  24.406  25.951  1.00  0.00     0.029 A 
ATOM     43  N   UNL A   1      44.693  26.451  26.789  1.00  0.00    -0.354 N 
ATOM     44  C   UNL A   1      40.961  27.530  28.642  1.00  0.00     0.074 A 
ATOM     45  C   UNL A   1      40.020  26.432  28.606  1.00  0.00     0.031 C 
ATOM     46  C   UNL A   1      46.122  25.134  25.679  1.00  0.00     0.029 A 
ATOM     47  C   UNL A   1      45.934  26.487  26.196  1.00  0.00     0.049 A 
ATOM     48  H   UNL A   1      44.291  27.227  27.241  1.00  0.00     0.167 HD
ATOM     49  C   UNL A   1      40.686  28.752  29.162  1.00  0.00     0.034 A 
ATOM     50  C   UNL A   1      46.824  27.492  26.079  1.00  0.00     0.034 A 
ATOM     51  C   UNL A   1      41.632  29.834  29.230  1.00  0.00     0.049 A 
ATOM     52  C   UNL A   1      46.510  28.825  26.702  1.00  0.00     0.074 A 
ATOM     53  C   UNL A   1      41.475  31.079  29.814  1.00  0.00     0.029 A 
ATOM     54  N   UNL A   1      42.907  29.808  28.686  1.00  0.00    -0.354 N 
ATOM     55  N   UNL A   1      45.442  29.195  27.367  1.00  0.00    -0.248 NA
ATOM     56  C   UNL A   1      47.540  29.867  26.594  1.00  0.00     0.031 C 
ATOM     57  C   UNL A   1      42.643  31.816  29.596  1.00  0.00     0.029 A 
ATOM     58  C   UNL A   1      43.544  31.017  28.910  1.00  0.00     0.049 A 
ATOM     59  H   UNL A   1      43.302  29.042  28.210  1.00  0.00     0.167 HD
ATOM     60  C   UNL A   1      45.688  30.497  27.788  1.00  0.00     0.074 A 
ATOM     61  C   UNL A   1      47.017  30.841  27.324  1.00  0.00     0.031 C 
ATOM     62  C   UNL A   1      44.882  31.337  28.485  1.00  0.00     0.034 A 
BRANCH  49  63
ATOM     63  C   UNL A   1      39.312  28.973  29.746  1.00  0.00     0.023 A 
ATOM     64  C   UNL A   1      39.032  28.533  31.056  1.00  0.00     0.012 A 
ATOM     65  C   UNL A   1      38.321  29.669  29.027  1.00  0.00     0.148 A 
ATOM     66  C   UNL A   1      37.780  28.748  31.628  1.00  0.00     0.002 A 
ATOM     67  C   UNL A   1      37.090  29.922  29.621  1.00  0.00     0.091 A 
ATOM     68  F   UNL A   1      38.596  30.066  27.777  1.00  0.00    -0.205 F 
ATOM     69  C   UNL A   1      36.812  29.452  30.916  1.00  0.00     0.022 A 
BRANCH  67  70
ATOM     70  S   UNL A   1      35.806  30.889  28.820  1.00  0.00     0.127 S 
ATOM     71  O   UNL A   1      35.116  31.473  29.969  1.00  0.00    -0.237 OA
ATOM     72  O   UNL A   1      36.586  31.842  28.030  1.00  0.00    -0.237 OA
ATOM     73  O   UNL A   1      35.021  29.947  28.035  1.00  0.00    -0.744 OA
ENDBRANCH  67  70
ENDBRANCH  49  63
BRANCH  50  74
ATOM     74  C   UNL A   1      48.128  27.258  25.396  1.00  0.00     0.023 A 
ATOM     75  C   UNL A   1      49.238  26.823  26.148  1.00  0.00     0.012 A 
ATOM     76  C   UNL A   1      48.270  27.446  24.008  1.00  0.00     0.148 A 
ATOM     77  C   UNL A   1      50.475  26.617  25.536  1.00  0.00     0.002 A 
ATOM     78  C   UNL A   1      49.489  27.182  23.396  1.00  0.00     0.091 A 
ATOM     79  F   UNL A   1      47.205  27.870  23.314  1.00  0.00    -0.205 F 
ATOM     80  C   UNL A   1      50.598  26.786  24.159  1.00  0.00     0.022 A 
BRANCH  78  81
ATOM     81  S   UNL A   1      49.704  27.244  21.614  1.00  0.00     0.127 S 
ATOM     82  O   UNL A   1      51.089  26.803  21.464  1.00  0.00    -0.237 OA
ATOM     83  O   UNL A   1      48.697  26.287  21.156  1.00  0.00    -0.237 OA
ATOM     84  O   UNL A   1      49.436  28.625  21.234  1.00  0.00    -0.744 OA
ENDBRANCH  78  81
ENDBRANCH  50  74
BRANCH  62  85
ATOM     85  C   UNL A   1      45.426  32.700  28.829  1.00  0.00     0.023 A 
ATOM     86  C   UNL A   1      46.198  32.879  29.995  1.00  0.00     0.012 A 
ATOM     87  C   UNL A   1      45.214  33.794  27.967  1.00  0.00     0.148 A 
ATOM     88  C   UNL A   1      46.711  34.135  30.320  1.00  0.00     0.002 A 
ATOM     89  C   UNL A   1      45.774  35.030  28.269  1.00  0.00     0.091 A 
ATOM     90  F   UNL A   1      44.462  33.611  26.872  1.00  0.00    -0.205 F 
ATOM     91  C   UNL A   1      46.509  35.206  29.453  1.00  0.00     0.022 A 
BRANCH  89  92
ATOM     92  S   UNL A   1      45.649  36.439  27.162  1.00  0.00     0.127 S 
ATOM     93  O   UNL A   1      46.466  36.003  26.032  1.00  0.00    -0.237 OA
ATOM     94  O   UNL A   1      44.212  36.495  26.892  1.00  0.00    -0.237 OA
ATOM     95  O   UNL A   1      46.169  37.579  27.906  1.00  0.00    -0.744 OA
ENDBRANCH  89  92
ENDBRANCH  62  85
ENDBRANCH  36  37
ENDBRANCH  28  31
ENDBRANCH  26  27
ENDBRANCH  25  26
ENDBRANCH   1  25
TORSDOF 17
ENDMDL
MODEL 3
REMARK VINA RESULT:     -11.4      6.287     11.296
REMARK SMILES O=C(Cc1csc(NC(=O)[C@H]2CC(=O)N(C3CC3)C2)n1)NCCCNC(=O)c1ccc(-c2c3nc(c(-c4cccc(S(=O)(=O)[O-])c4F)c4ccc([nH]4)c(-c4cccc(S(=O)(=O)[O-])c4F)c4nc(c(-c5cccc(S(=O)(=O)[O-])c5F)c5ccc2[nH]5)C=C4)C=C3)cc1
REMARK SMILES IDX 22 1 21 2 1 3 2 4 3 6 4 7 5 8 20 9 6 10 7 11 8 12 9 13 10 15
REMARK SMILES IDX 11 16 12 17 19 18 13 19 15 20 14 21 16 22 17 23 18 24 23 25
REMARK SMILES IDX 24 26 25 27 26 28 27 30 28 31 29 32 90 33 30 34 89 35 31 36
REMARK SMILES IDX 32 37 33 38 83 39 34 40 88 41 82 42 84 43 35 44 87 45 81 46
REMARK SMILES IDX 80 47 36 49 68 50 48 51 67 52 49 53 52 54 66 55 85 56 50 57
REMARK SMILES IDX 51 58 65 60 86 61 53 62 37 63 38 64 46 65 39 66 41 67 47 68
REMARK SMILES IDX 40 69 42 70 43 71 44 72 45 73 69 74 70 75 78 76 71 77 73 78
REMARK SMILES IDX 79 79 72 80 74 81 75 82 76 83 77 84 54 85 55 86 63 87 56 88
REMARK SMILES IDX 58 89 64 90 57 91 59 92 60 93 61 94 62 95
REMARK H PARENT 21 5 8 14 25 29 84 48 52 59
REMARK Flexibility Score: inf
ROOT
ATOM      1  C   UNL A   1      42.464  19.458  27.063  1.00  0.00     0.117 C 
ENDROOT
BRANCH   1   2
ATOM      2  N   UNL A   1      43.311  20.055  26.053  1.00  0.00    -0.356 N 
ATOM      3  O   UNL A   1      44.181  18.088  25.244  1.00  0.00    -0.275 OA
ATOM      4  C   UNL A   1      44.097  19.313  25.195  1.00  0.00     0.226 C 
ATOM      5  H   UNL A   1      43.328  21.036  25.973  1.00  0.00     0.163 HD
BRANCH   4   6
ATOM      6  C   UNL A   1      44.955  20.131  24.250  1.00  0.00     0.157 C 
BRANCH   6   7
ATOM      7  C   UNL A   1      45.078  21.585  24.590  1.00  0.00     0.063 A 
ATOM      8  C   UNL A   1      44.183  22.565  24.207  1.00  0.00     0.093 A 
ATOM      9  N   UNL A   1      46.146  22.065  25.340  1.00  0.00    -0.224 NA
ATOM     10  S   UNL A   1      44.685  24.081  24.811  1.00  0.00    -0.105 S 
ATOM     11  C   UNL A   1      46.015  23.351  25.571  1.00  0.00     0.189 A 
BRANCH  11  12
ATOM     12  N   UNL A   1      46.932  24.010  26.344  1.00  0.00    -0.302 N 
ATOM     13  C   UNL A   1      46.905  24.622  27.556  1.00  0.00     0.231 C 
ATOM     14  H   UNL A   1      47.821  24.051  25.922  1.00  0.00     0.172 HD
ATOM     15  O   UNL A   1      47.958  25.140  27.946  1.00  0.00    -0.274 OA
BRANCH  13  16
ATOM     16  C   UNL A   1      45.674  24.694  28.423  1.00  0.00     0.107 C 
ATOM     17  C   UNL A   1      45.015  23.338  28.692  1.00  0.00     0.115 C 
ATOM     18  C   UNL A   1      46.022  25.148  29.830  1.00  0.00     0.133 C 
ATOM     19  C   UNL A   1      44.272  23.604  29.980  1.00  0.00     0.223 C 
ATOM     20  N   UNL A   1      44.901  24.682  30.606  1.00  0.00    -0.339 N 
ATOM     21  O   UNL A   1      43.306  22.960  30.359  1.00  0.00    -0.275 OA
BRANCH  20  22
ATOM     22  C   UNL A   1      44.524  25.339  31.817  1.00  0.00     0.085 C 
ATOM     23  C   UNL A   1      44.082  24.639  33.070  1.00  0.00     0.027 C 
ATOM     24  C   UNL A   1      45.424  25.307  33.022  1.00  0.00     0.027 C 
ENDBRANCH  20  22
ENDBRANCH  13  16
ENDBRANCH  11  12
ENDBRANCH   6   7
ENDBRANCH   4   6
ENDBRANCH   1   2
BRANCH   1  25
ATOM     25  C   UNL A   1      41.371  20.406  27.541  1.00  0.00     0.042 C 
BRANCH  25  26
ATOM     26  C   UNL A   1      41.116  21.604  26.630  1.00  0.00     0.118 C 
BRANCH  26  27
ATOM     27  N   UNL A   1      39.740  21.691  26.163  1.00  0.00    -0.352 N 
ATOM     28  C   UNL A   1      38.849  22.737  26.200  1.00  0.00     0.251 C 
ATOM     29  H   UNL A   1      39.390  20.867  25.754  1.00  0.00     0.163 HD
ATOM     30  O   UNL A   1      37.685  22.536  25.859  1.00  0.00    -0.269 OA
BRANCH  28  31
ATOM     31  C   UNL A   1      39.261  24.086  26.657  1.00  0.00     0.039 A 
ATOM     32  C   UNL A   1      38.985  24.451  27.978  1.00  0.00     0.014 A 
ATOM     33  C   UNL A   1      39.874  25.003  25.801  1.00  0.00     0.014 A 
ATOM     34  C   UNL A   1      39.372  25.709  28.451  1.00  0.00     0.010 A 
ATOM     35  C   UNL A   1      40.331  26.225  26.296  1.00  0.00     0.010 A 
ATOM     36  C   UNL A   1      40.078  26.598  27.624  1.00  0.00    -0.014 A 
BRANCH  36  37
ATOM     37  C   UNL A   1      40.564  27.904  28.149  1.00  0.00     0.031 A 
ATOM     38  C   UNL A   1      42.037  28.221  28.193  1.00  0.00     0.074 A 
ATOM     39  C   UNL A   1      39.677  28.792  28.641  1.00  0.00     0.049 A 
ATOM     40  N   UNL A   1      42.633  29.310  28.608  1.00  0.00    -0.248 NA
ATOM     41  C   UNL A   1      42.964  27.172  27.736  1.00  0.00     0.031 C 
ATOM     42  C   UNL A   1      38.232  28.577  28.740  1.00  0.00     0.029 A 
ATOM     43  N   UNL A   1      39.860  30.047  29.167  1.00  0.00    -0.354 N 
ATOM     44  C   UNL A   1      43.997  29.070  28.490  1.00  0.00     0.074 A 
ATOM     45  C   UNL A   1      44.143  27.716  28.001  1.00  0.00     0.031 C 
ATOM     46  C   UNL A   1      37.658  29.666  29.275  1.00  0.00     0.029 A 
ATOM     47  C   UNL A   1      38.695  30.646  29.587  1.00  0.00     0.049 A 
ATOM     48  H   UNL A   1      40.742  30.479  29.239  1.00  0.00     0.167 HD
ATOM     49  C   UNL A   1      45.035  29.907  28.735  1.00  0.00     0.034 A 
ATOM     50  C   UNL A   1      38.479  31.847  30.157  1.00  0.00     0.034 A 
ATOM     51  C   UNL A   1      44.889  31.265  29.188  1.00  0.00     0.049 A 
ATOM     52  C   UNL A   1      39.644  32.773  30.380  1.00  0.00     0.074 A 
ATOM     53  C   UNL A   1      45.874  32.217  29.383  1.00  0.00     0.029 A 
ATOM     54  N   UNL A   1      43.686  31.862  29.530  1.00  0.00    -0.354 N 
ATOM     55  N   UNL A   1      40.913  32.585  30.106  1.00  0.00    -0.248 NA
ATOM     56  C   UNL A   1      39.344  34.093  30.952  1.00  0.00     0.031 C 
ATOM     57  C   UNL A   1      45.270  33.380  29.872  1.00  0.00     0.029 A 
ATOM     58  C   UNL A   1      43.903  33.165  29.945  1.00  0.00     0.049 A 
ATOM     59  H   UNL A   1      42.805  31.424  29.484  1.00  0.00     0.167 HD
ATOM     60  C   UNL A   1      41.554  33.773  30.436  1.00  0.00     0.074 A 
ATOM     61  C   UNL A   1      40.530  34.683  30.906  1.00  0.00     0.031 C 
ATOM     62  C   UNL A   1      42.874  34.080  30.369  1.00  0.00     0.034 A 
BRANCH  49  63
ATOM     63  C   UNL A   1      46.429  29.392  28.473  1.00  0.00     0.023 A 
ATOM     64  C   UNL A   1      47.018  29.588  27.207  1.00  0.00     0.012 A 
ATOM     65  C   UNL A   1      47.178  28.774  29.493  1.00  0.00     0.148 A 
ATOM     66  C   UNL A   1      48.313  29.145  26.947  1.00  0.00     0.002 A 
ATOM     67  C   UNL A   1      48.487  28.378  29.241  1.00  0.00     0.091 A 
ATOM     68  F   UNL A   1      46.599  28.579  30.685  1.00  0.00    -0.205 F 
ATOM     69  C   UNL A   1      49.052  28.551  27.967  1.00  0.00     0.022 A 
BRANCH  67  70
ATOM     70  S   UNL A   1      49.549  27.676  30.508  1.00  0.00     0.127 S 
ATOM     71  O   UNL A   1      50.781  27.432  29.759  1.00  0.00    -0.237 OA
ATOM     72  O   UNL A   1      49.633  28.767  31.479  1.00  0.00    -0.237 OA
ATOM     73  O   UNL A   1      48.868  26.483  30.991  1.00  0.00    -0.744 OA
ENDBRANCH  67  70
ENDBRANCH  49  63
BRANCH  50  74
ATOM     74  C   UNL A   1      37.092  32.272  30.501  1.00  0.00     0.023 A 
ATOM     75  C   UNL A   1      36.624  32.116  31.821  1.00  0.00     0.012 A 
ATOM     76  C   UNL A   1      36.243  32.845  29.535  1.00  0.00     0.148 A 
ATOM     77  C   UNL A   1      35.323  32.487  32.163  1.00  0.00     0.002 A 
ATOM     78  C   UNL A   1      34.970  33.267  29.896  1.00  0.00     0.091 A 
ATOM     79  F   UNL A   1      36.704  32.975  28.284  1.00  0.00    -0.205 F 
ATOM     80  C   UNL A   1      34.500  33.072  31.204  1.00  0.00     0.022 A 
BRANCH  78  81
ATOM     81  S   UNL A   1      33.890  34.148  28.763  1.00  0.00     0.127 S 
ATOM     82  O   UNL A   1      34.779  35.189  28.252  1.00  0.00    -0.237 OA
ATOM     83  O   UNL A   1      33.546  33.102  27.801  1.00  0.00    -0.237 OA
ATOM     84  O   UNL A   1      32.770  34.615  29.569  1.00  0.00    -0.744 OA
ENDBRANCH  78  81
ENDBRANCH  50  74
BRANCH  62  85
ATOM     85  C   UNL A   1      43.288  35.471  30.773  1.00  0.00     0.023 A 
ATOM     86  C   UNL A   1      43.689  35.732  32.100  1.00  0.00     0.012 A 
ATOM     87  C   UNL A   1      43.330  36.510  29.823  1.00  0.00     0.148 A 
ATOM     88  C   UNL A   1      44.080  37.015  32.483  1.00  0.00     0.002 A 
ATOM     89  C   UNL A   1      43.773  37.773  30.199  1.00  0.00     0.091 A 
ATOM     90  F   UNL A   1      42.929  36.251  28.570  1.00  0.00    -0.205 F 
ATOM     91  C   UNL A   1      44.133  38.031  31.532  1.00  0.00     0.022 A 
BRANCH  89  92
ATOM     92  S   UNL A   1      43.969  39.115  29.021  1.00  0.00     0.127 S 
ATOM     93  O   UNL A   1      44.913  38.538  28.066  1.00  0.00    -0.237 OA
ATOM     94  O   UNL A   1      42.607  39.280  28.510  1.00  0.00    -0.237 OA
ATOM     95  O   UNL A   1      44.468  40.250  29.786  1.00  0.00    -0.744 OA
ENDBRANCH  89  92
ENDBRANCH  62  85
ENDBRANCH  36  37
ENDBRANCH  28  31
ENDBRANCH  26  27
ENDBRANCH  25  26
ENDBRANCH   1  25
TORSDOF 17
ENDMDL
