MODEL 1
REMARK VINA RESULT:     -10.8      0.000      0.000
REMARK SMILES C[C@@H](CC(=O)NCCCNC(=O)c1ccc(-c2c3nc(c(-c4cccc(S(=O)(=O)[O-])c4F)c4ccc([nH]4)c(-c4cccc(S(=O)(=O)[O-])c4F)c4nc(c(-c5cccc(S(=O)(=O)[O-])c5F)c5ccc2[nH]5)C=C4)C=C3)cc1)NC(=O)N[C@H]1CCOC1
REMARK SMILES IDX 8 1 7 2 6 3 4 4 5 5 3 7 2 8 1 9 76 10 77 11 78 13 79 14
REMARK SMILES IDX 80 16 81 17 84 18 82 19 83 20 9 21 10 22 11 23 12 25 13 26
REMARK SMILES IDX 14 27 75 28 15 29 74 30 16 31 17 32 18 33 68 34 19 35 73 36
REMARK SMILES IDX 67 37 69 38 20 39 72 40 66 41 65 42 21 44 53 45 33 46 52 47
REMARK SMILES IDX 34 48 37 49 51 50 70 51 35 52 36 53 50 55 71 56 38 57 22 58
REMARK SMILES IDX 23 59 31 60 24 61 26 62 32 63 25 64 27 65 28 66 29 67 30 68
REMARK SMILES IDX 54 69 55 70 63 71 56 72 58 73 64 74 57 75 59 76 60 77 61 78
REMARK SMILES IDX 62 79 39 80 40 81 48 82 41 83 43 84 49 85 42 86 44 87 45 88
REMARK SMILES IDX 46 89 47 90
REMARK H PARENT 6 6 76 12 79 15 10 24 69 43 37 54
REMARK Flexibility Score: inf
ROOT
ATOM      1  C   UNL A   1      35.422  33.803  28.621  1.00  0.00     0.042 C 
ENDROOT
BRANCH   1   2
ATOM      2  C   UNL A   1      34.475  34.571  27.710  1.00  0.00     0.117 C 
BRANCH   2   3
ATOM      3  N   UNL A   1      34.305  35.942  28.167  1.00  0.00    -0.356 N 
ATOM      4  C   UNL A   1      33.386  36.476  29.015  1.00  0.00     0.222 C 
ATOM      5  O   UNL A   1      33.325  37.700  29.128  1.00  0.00    -0.275 OA
ATOM      6  H   UNL A   1      34.959  36.583  27.806  1.00  0.00     0.163 HD
BRANCH   4   7
ATOM      7  C   UNL A   1      32.530  35.571  29.856  1.00  0.00     0.124 C 
BRANCH   7   8
ATOM      8  C   UNL A   1      32.616  35.725  31.373  1.00  0.00     0.090 C 
ATOM      9  C   UNL A   1      31.371  35.430  32.191  1.00  0.00     0.031 C 
BRANCH   8  10
ATOM     10  N   UNL A   1      33.186  36.997  31.798  1.00  0.00    -0.335 N 
ATOM     11  C   UNL A   1      33.919  37.347  32.874  1.00  0.00     0.315 C 
ATOM     12  H   UNL A   1      33.001  37.743  31.182  1.00  0.00     0.165 HD
ATOM     13  O   UNL A   1      34.028  38.542  33.149  1.00  0.00    -0.249 OA
ATOM     14  N   UNL A   1      34.556  36.450  33.651  1.00  0.00    -0.333 N 
ATOM     15  H   UNL A   1      34.955  36.828  34.469  1.00  0.00     0.165 HD
BRANCH  14  16
ATOM     16  C   UNL A   1      34.755  35.030  33.491  1.00  0.00     0.112 C 
ATOM     17  C   UNL A   1      35.910  34.689  32.567  1.00  0.00     0.056 C 
ATOM     18  C   UNL A   1      35.153  34.220  34.717  1.00  0.00     0.185 C 
ATOM     19  C   UNL A   1      35.988  33.200  32.792  1.00  0.00     0.162 C 
ATOM     20  O   UNL A   1      35.762  33.011  34.200  1.00  0.00    -0.379 OA
ENDBRANCH  14  16
ENDBRANCH   8  10
ENDBRANCH   7   8
ENDBRANCH   4   7
ENDBRANCH   2   3
ENDBRANCH   1   2
BRANCH   1  21
ATOM     21  C   UNL A   1      34.738  32.702  29.405  1.00  0.00     0.118 C 
BRANCH  21  22
ATOM     22  N   UNL A   1      34.118  31.730  28.523  1.00  0.00    -0.352 N 
ATOM     23  C   UNL A   1      34.700  30.642  27.924  1.00  0.00     0.251 C 
ATOM     24  H   UNL A   1      33.163  31.868  28.331  1.00  0.00     0.163 HD
ATOM     25  O   UNL A   1      34.124  30.077  26.993  1.00  0.00    -0.269 OA
BRANCH  23  26
ATOM     26  C   UNL A   1      36.022  30.167  28.388  1.00  0.00     0.039 A 
ATOM     27  C   UNL A   1      36.115  29.461  29.589  1.00  0.00     0.014 A 
ATOM     28  C   UNL A   1      37.171  30.414  27.630  1.00  0.00     0.014 A 
ATOM     29  C   UNL A   1      37.355  28.970  30.008  1.00  0.00     0.010 A 
ATOM     30  C   UNL A   1      38.378  29.830  27.992  1.00  0.00     0.010 A 
ATOM     31  C   UNL A   1      38.493  29.130  29.201  1.00  0.00    -0.014 A 
BRANCH  31  32
ATOM     32  C   UNL A   1      39.829  28.633  29.619  1.00  0.00     0.031 A 
ATOM     33  C   UNL A   1      40.588  29.370  30.695  1.00  0.00     0.074 A 
ATOM     34  C   UNL A   1      40.393  27.584  28.988  1.00  0.00     0.049 A 
ATOM     35  N   UNL A   1      41.807  29.178  31.125  1.00  0.00    -0.248 NA
ATOM     36  C   UNL A   1      39.895  30.493  31.350  1.00  0.00     0.031 C 
ATOM     37  C   UNL A   1      39.785  26.822  27.894  1.00  0.00     0.029 A 
ATOM     38  N   UNL A   1      41.620  26.992  29.159  1.00  0.00    -0.354 N 
ATOM     39  C   UNL A   1      42.037  30.173  32.069  1.00  0.00     0.074 A 
ATOM     40  C   UNL A   1      40.851  30.998  32.114  1.00  0.00     0.031 C 
ATOM     41  C   UNL A   1      40.637  25.864  27.497  1.00  0.00     0.029 A 
ATOM     42  C   UNL A   1      41.867  25.967  28.276  1.00  0.00     0.049 A 
ATOM     43  H   UNL A   1      42.263  27.275  29.849  1.00  0.00     0.167 HD
ATOM     44  C   UNL A   1      43.118  30.362  32.860  1.00  0.00     0.034 A 
ATOM     45  C   UNL A   1      42.969  25.208  28.104  1.00  0.00     0.034 A 
ATOM     46  C   UNL A   1      44.277  29.513  32.845  1.00  0.00     0.049 A 
ATOM     47  C   UNL A   1      44.158  25.438  28.999  1.00  0.00     0.074 A 
ATOM     48  C   UNL A   1      45.404  29.583  33.644  1.00  0.00     0.029 A 
ATOM     49  N   UNL A   1      44.456  28.437  31.990  1.00  0.00    -0.354 N 
ATOM     50  N   UNL A   1      44.305  26.306  29.972  1.00  0.00    -0.248 NA
ATOM     51  C   UNL A   1      45.321  24.561  28.799  1.00  0.00     0.031 C 
ATOM     52  C   UNL A   1      46.275  28.560  33.256  1.00  0.00     0.029 A 
ATOM     53  C   UNL A   1      45.673  27.833  32.241  1.00  0.00     0.049 A 
ATOM     54  H   UNL A   1      43.810  28.147  31.306  1.00  0.00     0.167 HD
ATOM     55  C   UNL A   1      45.553  26.046  30.529  1.00  0.00     0.074 A 
ATOM     56  C   UNL A   1      46.115  24.932  29.794  1.00  0.00     0.031 C 
ATOM     57  C   UNL A   1      46.183  26.679  31.549  1.00  0.00     0.034 A 
BRANCH  44  58
ATOM     58  C   UNL A   1      43.073  31.496  33.852  1.00  0.00     0.023 A 
ATOM     59  C   UNL A   1      43.602  32.754  33.493  1.00  0.00     0.012 A 
ATOM     60  C   UNL A   1      42.460  31.340  35.110  1.00  0.00     0.148 A 
ATOM     61  C   UNL A   1      43.558  33.825  34.383  1.00  0.00     0.002 A 
ATOM     62  C   UNL A   1      42.375  32.427  35.973  1.00  0.00     0.091 A 
ATOM     63  F   UNL A   1      41.978  30.134  35.441  1.00  0.00    -0.205 F 
ATOM     64  C   UNL A   1      42.935  33.665  35.618  1.00  0.00     0.022 A 
BRANCH  62  65
ATOM     65  S   UNL A   1      41.523  32.351  37.552  1.00  0.00     0.127 S 
ATOM     66  O   UNL A   1      40.177  31.951  37.141  1.00  0.00    -0.237 OA
ATOM     67  O   UNL A   1      42.278  31.315  38.257  1.00  0.00    -0.237 OA
ATOM     68  O   UNL A   1      41.626  33.683  38.131  1.00  0.00    -0.744 OA
ENDBRANCH  62  65
ENDBRANCH  44  58
BRANCH  45  69
ATOM     69  C   UNL A   1      42.989  24.124  27.079  1.00  0.00     0.023 A 
ATOM     70  C   UNL A   1      43.670  24.335  25.863  1.00  0.00     0.012 A 
ATOM     71  C   UNL A   1      42.335  22.896  27.293  1.00  0.00     0.148 A 
ATOM     72  C   UNL A   1      43.658  23.364  24.861  1.00  0.00     0.002 A 
ATOM     73  C   UNL A   1      42.376  21.910  26.313  1.00  0.00     0.091 A 
ATOM     74  F   UNL A   1      41.684  22.715  28.450  1.00  0.00    -0.205 F 
ATOM     75  C   UNL A   1      43.017  22.150  25.088  1.00  0.00     0.022 A 
BRANCH  73  76
ATOM     76  S   UNL A   1      41.690  20.269  26.570  1.00  0.00     0.127 S 
ATOM     77  O   UNL A   1      40.257  20.547  26.608  1.00  0.00    -0.237 OA
ATOM     78  O   UNL A   1      42.150  19.558  25.376  1.00  0.00    -0.237 OA
ATOM     79  O   UNL A   1      42.278  19.791  27.813  1.00  0.00    -0.744 OA
ENDBRANCH  73  76
ENDBRANCH  45  69
BRANCH  57  80
ATOM     80  C   UNL A   1      47.519  26.145  31.990  1.00  0.00     0.023 A 
ATOM     81  C   UNL A   1      47.596  25.203  33.034  1.00  0.00     0.012 A 
ATOM     82  C   UNL A   1      48.691  26.510  31.297  1.00  0.00     0.148 A 
ATOM     83  C   UNL A   1      48.824  24.655  33.402  1.00  0.00     0.002 A 
ATOM     84  C   UNL A   1      49.902  25.920  31.633  1.00  0.00     0.091 A 
ATOM     85  F   UNL A   1      48.596  27.421  30.318  1.00  0.00    -0.205 F 
ATOM     86  C   UNL A   1      49.973  25.003  32.694  1.00  0.00     0.022 A 
BRANCH  84  87
ATOM     87  S   UNL A   1      51.414  26.227  30.713  1.00  0.00     0.127 S 
ATOM     88  O   UNL A   1      51.622  27.655  30.952  1.00  0.00    -0.237 OA
ATOM     89  O   UNL A   1      52.369  25.350  31.388  1.00  0.00    -0.237 OA
ATOM     90  O   UNL A   1      51.126  25.865  29.331  1.00  0.00    -0.744 OA
ENDBRANCH  84  87
ENDBRANCH  57  80
ENDBRANCH  31  32
ENDBRANCH  23  26
ENDBRANCH  21  22
ENDBRANCH   1  21
TORSDOF 16
ENDMDL
MODEL 2
REMARK VINA RESULT:     -10.8      4.452     10.700
REMARK SMILES C[C@@H](CC(=O)NCCCNC(=O)c1ccc(-c2c3nc(c(-c4cccc(S(=O)(=O)[O-])c4F)c4ccc([nH]4)c(-c4cccc(S(=O)(=O)[O-])c4F)c4nc(c(-c5cccc(S(=O)(=O)[O-])c5F)c5ccc2[nH]5)C=C4)C=C3)cc1)NC(=O)N[C@H]1CCOC1
REMARK SMILES IDX 8 1 7 2 6 3 4 4 5 5 3 7 2 8 1 9 76 10 77 11 78 13 79 14
REMARK SMILES IDX 80 16 81 17 84 18 82 19 83 20 9 21 10 22 11 23 12 25 13 26
REMARK SMILES IDX 14 27 75 28 15 29 74 30 16 31 17 32 18 33 68 34 19 35 73 36
REMARK SMILES IDX 67 37 69 38 20 39 72 40 66 41 65 42 21 44 53 45 33 46 52 47
REMARK SMILES IDX 34 48 37 49 51 50 70 51 35 52 36 53 50 55 71 56 38 57 22 58
REMARK SMILES IDX 23 59 31 60 24 61 26 62 32 63 25 64 27 65 28 66 29 67 30 68
REMARK SMILES IDX 54 69 55 70 63 71 56 72 58 73 64 74 57 75 59 76 60 77 61 78
REMARK SMILES IDX 62 79 39 80 40 81 48 82 41 83 43 84 49 85 42 86 44 87 45 88
REMARK SMILES IDX 46 89 47 90
REMARK H PARENT 6 6 76 12 79 15 10 24 69 43 37 54
REMARK Flexibility Score: inf
ROOT
ATOM      1  C   UNL A   1      31.411  31.771  26.522  1.00  0.00     0.042 C 
ENDROOT
BRANCH   1   2
ATOM      2  C   UNL A   1      31.619  30.435  25.820  1.00  0.00     0.117 C 
BRANCH   2   3
ATOM      3  N   UNL A   1      30.832  30.358  24.599  1.00  0.00    -0.356 N 
ATOM      4  C   UNL A   1      30.782  29.387  23.647  1.00  0.00     0.222 C 
ATOM      5  O   UNL A   1      30.167  29.610  22.604  1.00  0.00    -0.275 OA
ATOM      6  H   UNL A   1      30.242  31.129  24.437  1.00  0.00     0.163 HD
BRANCH   4   7
ATOM      7  C   UNL A   1      31.398  28.043  23.917  1.00  0.00     0.124 C 
BRANCH   7   8
ATOM      8  C   UNL A   1      32.729  27.726  23.237  1.00  0.00     0.090 C 
ATOM      9  C   UNL A   1      33.746  28.846  23.105  1.00  0.00     0.031 C 
BRANCH   8  10
ATOM     10  N   UNL A   1      32.581  27.050  21.954  1.00  0.00    -0.335 N 
ATOM     11  C   UNL A   1      33.002  25.849  21.510  1.00  0.00     0.315 C 
ATOM     12  H   UNL A   1      32.078  27.569  21.286  1.00  0.00     0.165 HD
ATOM     13  O   UNL A   1      33.000  25.636  20.298  1.00  0.00    -0.249 OA
ATOM     14  N   UNL A   1      33.404  24.862  22.333  1.00  0.00    -0.333 N 
ATOM     15  H   UNL A   1      33.797  24.083  21.876  1.00  0.00     0.165 HD
BRANCH  14  16
ATOM     16  C   UNL A   1      33.358  24.749  23.771  1.00  0.00     0.112 C 
ATOM     17  C   UNL A   1      32.027  24.234  24.287  1.00  0.00     0.056 C 
ATOM     18  C   UNL A   1      34.300  23.759  24.442  1.00  0.00     0.185 C 
ATOM     19  C   UNL A   1      32.378  24.024  25.739  1.00  0.00     0.162 C 
ATOM     20  O   UNL A   1      33.712  23.485  25.738  1.00  0.00    -0.379 OA
ENDBRANCH  14  16
ENDBRANCH   8  10
ENDBRANCH   7   8
ENDBRANCH   4   7
ENDBRANCH   2   3
ENDBRANCH   1   2
BRANCH   1  21
ATOM     21  C   UNL A   1      32.697  32.380  27.042  1.00  0.00     0.118 C 
BRANCH  21  22
ATOM     22  N   UNL A   1      32.507  33.767  27.426  1.00  0.00    -0.352 N 
ATOM     23  C   UNL A   1      33.102  34.447  28.459  1.00  0.00     0.251 C 
ATOM     24  H   UNL A   1      31.876  34.285  26.877  1.00  0.00     0.163 HD
ATOM     25  O   UNL A   1      32.638  35.527  28.826  1.00  0.00    -0.269 OA
BRANCH  23  26
ATOM     26  C   UNL A   1      34.284  33.867  29.136  1.00  0.00     0.039 A 
ATOM     27  C   UNL A   1      35.562  34.283  28.759  1.00  0.00     0.014 A 
ATOM     28  C   UNL A   1      34.126  32.916  30.149  1.00  0.00     0.014 A 
ATOM     29  C   UNL A   1      36.679  33.773  29.427  1.00  0.00     0.010 A 
ATOM     30  C   UNL A   1      35.228  32.498  30.884  1.00  0.00     0.010 A 
ATOM     31  C   UNL A   1      36.520  32.895  30.511  1.00  0.00    -0.014 A 
BRANCH  31  32
ATOM     32  C   UNL A   1      37.683  32.323  31.237  1.00  0.00     0.031 A 
ATOM     33  C   UNL A   1      38.433  31.162  30.632  1.00  0.00     0.074 A 
ATOM     34  C   UNL A   1      38.016  32.782  32.460  1.00  0.00     0.049 A 
ATOM     35  N   UNL A   1      39.396  30.443  31.146  1.00  0.00    -0.248 NA
ATOM     36  C   UNL A   1      38.023  30.732  29.283  1.00  0.00     0.031 C 
ATOM     37  C   UNL A   1      37.333  33.862  33.177  1.00  0.00     0.029 A 
ATOM     38  N   UNL A   1      38.998  32.379  33.330  1.00  0.00    -0.354 N 
ATOM     39  C   UNL A   1      39.680  29.460  30.203  1.00  0.00     0.074 A 
ATOM     40  C   UNL A   1      38.753  29.642  29.109  1.00  0.00     0.031 C 
ATOM     41  C   UNL A   1      37.919  34.037  34.372  1.00  0.00     0.029 A 
ATOM     42  C   UNL A   1      38.990  33.058  34.526  1.00  0.00     0.049 A 
ATOM     43  H   UNL A   1      39.647  31.669  33.118  1.00  0.00     0.167 HD
ATOM     44  C   UNL A   1      40.648  28.515  30.223  1.00  0.00     0.034 A 
ATOM     45  C   UNL A   1      39.751  32.897  35.628  1.00  0.00     0.034 A 
ATOM     46  C   UNL A   1      41.596  28.367  31.292  1.00  0.00     0.049 A 
ATOM     47  C   UNL A   1      40.824  31.840  35.623  1.00  0.00     0.074 A 
ATOM     48  C   UNL A   1      42.652  27.479  31.387  1.00  0.00     0.029 A 
ATOM     49  N   UNL A   1      41.604  29.126  32.451  1.00  0.00    -0.354 N 
ATOM     50  N   UNL A   1      41.156  31.002  34.669  1.00  0.00    -0.248 NA
ATOM     51  C   UNL A   1      41.653  31.726  36.832  1.00  0.00     0.031 C 
ATOM     52  C   UNL A   1      43.287  27.688  32.615  1.00  0.00     0.029 A 
ATOM     53  C   UNL A   1      42.647  28.730  33.267  1.00  0.00     0.049 A 
ATOM     54  H   UNL A   1      40.962  29.842  32.661  1.00  0.00     0.167 HD
ATOM     55  C   UNL A   1      42.259  30.301  35.143  1.00  0.00     0.074 A 
ATOM     56  C   UNL A   1      42.548  30.820  36.464  1.00  0.00     0.031 C 
ATOM     57  C   UNL A   1      42.964  29.309  34.546  1.00  0.00     0.034 A 
BRANCH  44  58
ATOM     58  C   UNL A   1      40.770  27.610  29.025  1.00  0.00     0.023 A 
ATOM     59  C   UNL A   1      39.925  26.486  28.915  1.00  0.00     0.012 A 
ATOM     60  C   UNL A   1      41.674  27.897  27.983  1.00  0.00     0.148 A 
ATOM     61  C   UNL A   1      40.003  25.641  27.810  1.00  0.00     0.002 A 
ATOM     62  C   UNL A   1      41.712  27.077  26.861  1.00  0.00     0.091 A 
ATOM     63  F   UNL A   1      42.482  28.958  28.111  1.00  0.00    -0.205 F 
ATOM     64  C   UNL A   1      40.888  25.942  26.779  1.00  0.00     0.022 A 
BRANCH  62  65
ATOM     65  S   UNL A   1      42.756  27.420  25.440  1.00  0.00     0.127 S 
ATOM     66  O   UNL A   1      44.060  27.614  26.073  1.00  0.00    -0.237 OA
ATOM     67  O   UNL A   1      42.632  26.186  24.665  1.00  0.00    -0.237 OA
ATOM     68  O   UNL A   1      42.194  28.602  24.802  1.00  0.00    -0.744 OA
ENDBRANCH  62  65
ENDBRANCH  44  58
BRANCH  45  69
ATOM     69  C   UNL A   1      39.568  33.786  36.812  1.00  0.00     0.023 A 
ATOM     70  C   UNL A   1      40.019  35.119  36.751  1.00  0.00     0.012 A 
ATOM     71  C   UNL A   1      38.962  33.321  37.995  1.00  0.00     0.148 A 
ATOM     72  C   UNL A   1      39.916  35.958  37.862  1.00  0.00     0.002 A 
ATOM     73  C   UNL A   1      38.809  34.179  39.078  1.00  0.00     0.091 A 
ATOM     74  F   UNL A   1      38.547  32.047  38.039  1.00  0.00    -0.205 F 
ATOM     75  C   UNL A   1      39.305  35.491  39.022  1.00  0.00     0.022 A 
BRANCH  73  76
ATOM     76  S   UNL A   1      37.920  33.704  40.565  1.00  0.00     0.127 S 
ATOM     77  O   UNL A   1      38.773  32.644  41.097  1.00  0.00    -0.237 OA
ATOM     78  O   UNL A   1      37.928  34.949  41.334  1.00  0.00    -0.237 OA
ATOM     79  O   UNL A   1      36.599  33.289  40.113  1.00  0.00    -0.744 OA
ENDBRANCH  73  76
ENDBRANCH  45  69
BRANCH  57  80
ATOM     80  C   UNL A   1      44.163  28.762  35.272  1.00  0.00     0.023 A 
ATOM     81  C   UNL A   1      45.442  29.302  35.036  1.00  0.00     0.012 A 
ATOM     82  C   UNL A   1      44.000  27.774  36.265  1.00  0.00     0.148 A 
ATOM     83  C   UNL A   1      46.546  28.845  35.754  1.00  0.00     0.002 A 
ATOM     84  C   UNL A   1      45.094  27.363  37.013  1.00  0.00     0.091 A 
ATOM     85  F   UNL A   1      42.776  27.264  36.461  1.00  0.00    -0.205 F 
ATOM     86  C   UNL A   1      46.370  27.887  36.751  1.00  0.00     0.022 A 
BRANCH  84  87
ATOM     87  S   UNL A   1      44.947  26.211  38.384  1.00  0.00     0.127 S 
ATOM     88  O   UNL A   1      44.386  25.033  37.725  1.00  0.00    -0.237 OA
ATOM     89  O   UNL A   1      46.338  26.066  38.814  1.00  0.00    -0.237 OA
ATOM     90  O   UNL A   1      44.074  26.852  39.358  1.00  0.00    -0.744 OA
ENDBRANCH  84  87
ENDBRANCH  57  80
ENDBRANCH  31  32
ENDBRANCH  23  26
ENDBRANCH  21  22
ENDBRANCH   1  21
TORSDOF 16
ENDMDL
MODEL 3
REMARK VINA RESULT:     -10.7      4.391     10.434
REMARK SMILES C[C@@H](CC(=O)NCCCNC(=O)c1ccc(-c2c3nc(c(-c4cccc(S(=O)(=O)[O-])c4F)c4ccc([nH]4)c(-c4cccc(S(=O)(=O)[O-])c4F)c4nc(c(-c5cccc(S(=O)(=O)[O-])c5F)c5ccc2[nH]5)C=C4)C=C3)cc1)NC(=O)N[C@H]1CCOC1
REMARK SMILES IDX 8 1 7 2 6 3 4 4 5 5 3 7 2 8 1 9 76 10 77 11 78 13 79 14
REMARK SMILES IDX 80 16 81 17 84 18 82 19 83 20 9 21 10 22 11 23 12 25 13 26
REMARK SMILES IDX 14 27 75 28 15 29 74 30 16 31 17 32 18 33 68 34 19 35 73 36
REMARK SMILES IDX 67 37 69 38 20 39 72 40 66 41 65 42 21 44 53 45 33 46 52 47
REMARK SMILES IDX 34 48 37 49 51 50 70 51 35 52 36 53 50 55 71 56 38 57 22 58
REMARK SMILES IDX 23 59 31 60 24 61 26 62 32 63 25 64 27 65 28 66 29 67 30 68
REMARK SMILES IDX 54 69 55 70 63 71 56 72 58 73 64 74 57 75 59 76 60 77 61 78
REMARK SMILES IDX 62 79 39 80 40 81 48 82 41 83 43 84 49 85 42 86 44 87 45 88
REMARK SMILES IDX 46 89 47 90
REMARK H PARENT 6 6 76 12 79 15 10 24 69 43 37 54
REMARK Flexibility Score: inf
ROOT
ATOM      1  C   UNL A   1      33.477  28.878  23.415  1.00  0.00     0.042 C 
ENDROOT
BRANCH   1   2
ATOM      2  C   UNL A   1      32.461  27.942  22.771  1.00  0.00     0.117 C 
BRANCH   2   3
ATOM      3  N   UNL A   1      33.102  26.732  22.281  1.00  0.00    -0.356 N 
ATOM      4  C   UNL A   1      33.368  25.560  22.919  1.00  0.00     0.222 C 
ATOM      5  O   UNL A   1      34.077  24.726  22.355  1.00  0.00    -0.275 OA
ATOM      6  H   UNL A   1      33.387  26.767  21.340  1.00  0.00     0.163 HD
BRANCH   4   7
ATOM      7  C   UNL A   1      32.728  25.270  24.248  1.00  0.00     0.124 C 
BRANCH   7   8
ATOM      8  C   UNL A   1      31.637  24.203  24.289  1.00  0.00     0.090 C 
ATOM      9  C   UNL A   1      30.658  24.139  23.130  1.00  0.00     0.031 C 
BRANCH   8  10
ATOM     10  N   UNL A   1      30.902  24.169  25.548  1.00  0.00    -0.335 N 
ATOM     11  C   UNL A   1      30.800  23.233  26.512  1.00  0.00     0.315 C 
ATOM     12  H   UNL A   1      30.382  24.986  25.728  1.00  0.00     0.165 HD
ATOM     13  O   UNL A   1      29.887  23.329  27.332  1.00  0.00    -0.249 OA
ATOM     14  N   UNL A   1      31.665  22.207  26.633  1.00  0.00    -0.333 N 
ATOM     15  H   UNL A   1      31.408  21.533  27.304  1.00  0.00     0.165 HD
BRANCH  14  16
ATOM     16  C   UNL A   1      32.904  21.926  25.950  1.00  0.00     0.112 C 
ATOM     17  C   UNL A   1      34.118  22.001  26.858  1.00  0.00     0.056 C 
ATOM     18  C   UNL A   1      33.099  20.534  25.365  1.00  0.00     0.185 C 
ATOM     19  C   UNL A   1      35.170  21.453  25.927  1.00  0.00     0.162 C 
ATOM     20  O   UNL A   1      34.533  20.376  25.218  1.00  0.00    -0.379 OA
ENDBRANCH  14  16
ENDBRANCH   8  10
ENDBRANCH   7   8
ENDBRANCH   4   7
ENDBRANCH   2   3
ENDBRANCH   1   2
BRANCH   1  21
ATOM     21  C   UNL A   1      33.368  28.932  24.925  1.00  0.00     0.118 C 
BRANCH  21  22
ATOM     22  N   UNL A   1      32.646  30.114  25.361  1.00  0.00    -0.352 N 
ATOM     23  C   UNL A   1      32.820  30.831  26.518  1.00  0.00     0.251 C 
ATOM     24  H   UNL A   1      31.948  30.443  24.751  1.00  0.00     0.163 HD
ATOM     25  O   UNL A   1      31.956  31.634  26.873  1.00  0.00    -0.269 OA
BRANCH  23  26
ATOM     26  C   UNL A   1      34.033  30.619  27.338  1.00  0.00     0.039 A 
ATOM     27  C   UNL A   1      34.322  29.342  27.820  1.00  0.00     0.014 A 
ATOM     28  C   UNL A   1      34.890  31.687  27.626  1.00  0.00     0.014 A 
ATOM     29  C   UNL A   1      35.490  29.128  28.556  1.00  0.00     0.010 A 
ATOM     30  C   UNL A   1      36.103  31.450  28.259  1.00  0.00     0.010 A 
ATOM     31  C   UNL A   1      36.403  30.176  28.761  1.00  0.00    -0.014 A 
BRANCH  31  32
ATOM     32  C   UNL A   1      37.649  29.990  29.549  1.00  0.00     0.031 A 
ATOM     33  C   UNL A   1      38.741  29.102  29.005  1.00  0.00     0.074 A 
ATOM     34  C   UNL A   1      37.770  30.543  30.772  1.00  0.00     0.049 A 
ATOM     35  N   UNL A   1      39.850  28.713  29.577  1.00  0.00    -0.248 NA
ATOM     36  C   UNL A   1      38.543  28.552  27.652  1.00  0.00     0.031 C 
ATOM     37  C   UNL A   1      36.761  31.375  31.432  1.00  0.00     0.029 A 
ATOM     38  N   UNL A   1      38.786  30.464  31.692  1.00  0.00    -0.354 N 
ATOM     39  C   UNL A   1      40.460  27.850  28.672  1.00  0.00     0.074 A 
ATOM     40  C   UNL A   1      39.575  27.731  27.536  1.00  0.00     0.031 C 
ATOM     41  C   UNL A   1      37.210  31.733  32.646  1.00  0.00     0.029 A 
ATOM     42  C   UNL A   1      38.518  31.124  32.869  1.00  0.00     0.049 A 
ATOM     43  H   UNL A   1      39.627  29.981  31.525  1.00  0.00     0.167 HD
ATOM     44  C   UNL A   1      41.666  27.241  28.757  1.00  0.00     0.034 A 
ATOM     45  C   UNL A   1      39.239  31.214  34.005  1.00  0.00     0.034 A 
ATOM     46  C   UNL A   1      42.563  27.398  29.867  1.00  0.00     0.049 A 
ATOM     47  C   UNL A   1      40.579  30.529  34.071  1.00  0.00     0.074 A 
ATOM     48  C   UNL A   1      43.831  26.871  30.029  1.00  0.00     0.029 A 
ATOM     49  N   UNL A   1      42.288  28.139  31.006  1.00  0.00    -0.354 N 
ATOM     50  N   UNL A   1      41.192  29.819  33.154  1.00  0.00    -0.248 NA
ATOM     51  C   UNL A   1      41.346  30.685  35.317  1.00  0.00     0.031 C 
ATOM     52  C   UNL A   1      44.315  27.276  31.276  1.00  0.00     0.029 A 
ATOM     53  C   UNL A   1      43.362  28.085  31.874  1.00  0.00     0.049 A 
ATOM     54  H   UNL A   1      41.451  28.630  31.171  1.00  0.00     0.167 HD
ATOM     55  C   UNL A   1      42.431  29.489  33.692  1.00  0.00     0.074 A 
ATOM     56  C   UNL A   1      42.488  30.087  35.009  1.00  0.00     0.031 C 
ATOM     57  C   UNL A   1      43.429  28.748  33.150  1.00  0.00     0.034 A 
BRANCH  44  58
ATOM     58  C   UNL A   1      42.110  26.400  27.588  1.00  0.00     0.023 A 
ATOM     59  C   UNL A   1      42.914  26.978  26.583  1.00  0.00     0.012 A 
ATOM     60  C   UNL A   1      41.785  25.032  27.509  1.00  0.00     0.148 A 
ATOM     61  C   UNL A   1      43.354  26.219  25.500  1.00  0.00     0.002 A 
ATOM     62  C   UNL A   1      42.270  24.270  26.452  1.00  0.00     0.091 A 
ATOM     63  F   UNL A   1      41.007  24.503  28.464  1.00  0.00    -0.205 F 
ATOM     64  C   UNL A   1      43.042  24.864  25.440  1.00  0.00     0.022 A 
BRANCH  62  65
ATOM     65  S   UNL A   1      41.994  22.500  26.322  1.00  0.00     0.127 S 
ATOM     66  O   UNL A   1      42.677  22.187  25.067  1.00  0.00    -0.237 OA
ATOM     67  O   UNL A   1      42.664  21.998  27.522  1.00  0.00    -0.237 OA
ATOM     68  O   UNL A   1      40.550  22.316  26.306  1.00  0.00    -0.744 OA
ENDBRANCH  62  65
ENDBRANCH  44  58
BRANCH  45  69
ATOM     69  C   UNL A   1      38.741  32.020  35.157  1.00  0.00     0.023 A 
ATOM     70  C   UNL A   1      38.788  33.427  35.088  1.00  0.00     0.012 A 
ATOM     71  C   UNL A   1      38.234  31.408  36.319  1.00  0.00     0.148 A 
ATOM     72  C   UNL A   1      38.386  34.208  36.172  1.00  0.00     0.002 A 
ATOM     73  C   UNL A   1      37.779  32.194  37.373  1.00  0.00     0.091 A 
ATOM     74  F   UNL A   1      38.205  30.070  36.373  1.00  0.00    -0.205 F 
ATOM     75  C   UNL A   1      37.875  33.592  37.311  1.00  0.00     0.022 A 
BRANCH  73  76
ATOM     76  S   UNL A   1      36.987  31.492  38.825  1.00  0.00     0.127 S 
ATOM     77  O   UNL A   1      37.990  31.735  39.859  1.00  0.00    -0.237 OA
ATOM     78  O   UNL A   1      35.777  32.307  38.934  1.00  0.00    -0.237 OA
ATOM     79  O   UNL A   1      36.739  30.095  38.497  1.00  0.00    -0.744 OA
ENDBRANCH  73  76
ENDBRANCH  45  69
BRANCH  57  80
ATOM     80  C   UNL A   1      44.702  28.597  33.939  1.00  0.00     0.023 A 
ATOM     81  C   UNL A   1      45.741  29.535  33.793  1.00  0.00     0.012 A 
ATOM     82  C   UNL A   1      44.821  27.572  34.900  1.00  0.00     0.148 A 
ATOM     83  C   UNL A   1      46.895  29.438  34.571  1.00  0.00     0.002 A 
ATOM     84  C   UNL A   1      45.948  27.513  35.707  1.00  0.00     0.091 A 
ATOM     85  F   UNL A   1      43.825  26.681  35.010  1.00  0.00    -0.205 F 
ATOM     86  C   UNL A   1      46.992  28.437  35.535  1.00  0.00     0.022 A 
BRANCH  84  87
ATOM     87  S   UNL A   1      46.118  26.325  37.044  1.00  0.00     0.127 S 
ATOM     88  O   UNL A   1      47.341  26.787  37.698  1.00  0.00    -0.237 OA
ATOM     89  O   UNL A   1      44.893  26.550  37.812  1.00  0.00    -0.237 OA
ATOM     90  O   UNL A   1      46.207  25.016  36.412  1.00  0.00    -0.744 OA
ENDBRANCH  84  87
ENDBRANCH  57  80
ENDBRANCH  31  32
ENDBRANCH  23  26
ENDBRANCH  21  22
ENDBRANCH   1  21
TORSDOF 16
ENDMDL
