MODEL 1
REMARK VINA RESULT:     -13.1      0.000      0.000
REMARK SMILES Cc1nc2sc3c(c2c2nc(CCC(=O)NCCCNC(=O)c4ccc(-c5c6nc(c(-c7cccc(S(=O)(=O)[O-])c7F)c7ccc([nH]7)c(-c7cccc(S(=O)(=O)[O-])c7F)c7nc(c(-c8cccc(S(=O)(=O)[O-])c8F)c8ccc5[nH]8)C=C7)C=C6)cc4)nn12)[C@@H](C)CCC3
REMARK SMILES IDX 18 1 17 2 16 3 14 4 15 5 13 7 12 8 11 9 1 10 2 11 3 12 87 13
REMARK SMILES IDX 4 14 9 15 86 16 5 17 8 18 10 19 6 20 7 21 92 22 88 23 91 24
REMARK SMILES IDX 89 25 90 26 19 27 20 28 21 29 22 31 23 32 24 33 85 34 25 35
REMARK SMILES IDX 84 36 26 37 27 38 28 39 78 40 29 41 83 42 77 43 79 44 30 45
REMARK SMILES IDX 82 46 76 47 75 48 31 50 63 51 43 52 62 53 44 54 47 55 61 56
REMARK SMILES IDX 80 57 45 58 46 59 60 61 81 62 48 63 32 64 33 65 41 66 34 67
REMARK SMILES IDX 36 68 42 69 35 70 37 71 38 72 39 73 40 74 64 75 65 76 73 77
REMARK SMILES IDX 66 78 68 79 74 80 67 81 69 82 70 83 71 84 72 85 49 86 50 87
REMARK SMILES IDX 58 88 51 89 53 90 59 91 52 92 54 93 55 94 56 95 57 96
REMARK H PARENT 16 6 20 30 79 49 47 60
REMARK Flexibility Score: inf
ROOT
ATOM      1  C   UNL A   1      42.278  19.433  27.483  1.00  0.00     0.042 C 
ENDROOT
BRANCH   1   2
ATOM      2  C   UNL A   1      40.788  19.813  27.056  1.00  0.00     0.117 C 
BRANCH   2   3
ATOM      3  N   UNL A   1      40.393  21.201  26.780  1.00  0.00    -0.356 N 
ATOM      4  C   UNL A   1      39.327  21.798  26.137  1.00  0.00     0.220 C 
ATOM      5  O   UNL A   1      39.046  22.957  26.468  1.00  0.00    -0.275 OA
ATOM      6  H   UNL A   1      41.036  21.856  27.137  1.00  0.00     0.163 HD
BRANCH   4   7
ATOM      7  C   UNL A   1      38.445  21.129  25.088  1.00  0.00     0.108 C 
BRANCH   7   8
ATOM      8  C   UNL A   1      37.261  22.002  24.621  1.00  0.00     0.089 C 
BRANCH   8   9
ATOM      9  C   UNL A   1      36.040  21.617  25.348  1.00  0.00     0.152 A 
ATOM     10  C   UNL A   1      33.121  18.782  24.619  1.00  0.00     0.090 C 
ATOM     11  C   UNL A   1      32.957  20.126  25.260  1.00  0.00     0.131 A 
ATOM     12  N   UNL A   1      31.784  20.659  25.459  1.00  0.00    -0.222 NA
ATOM     13  N   UNL A   1      34.136  20.831  25.521  1.00  0.00    -0.199 N 
ATOM     14  C   UNL A   1      31.805  21.994  25.781  1.00  0.00     0.129 A 
ATOM     15  C   UNL A   1      34.143  22.130  25.969  1.00  0.00     0.168 A 
ATOM     16  N   UNL A   1      35.370  20.478  25.097  1.00  0.00    -0.150 NA
ATOM     17  S   UNL A   1      30.402  22.892  25.741  1.00  0.00    -0.120 S 
ATOM     18  C   UNL A   1      32.873  22.852  26.013  1.00  0.00     0.060 A 
ATOM     19  N   UNL A   1      35.355  22.589  26.003  1.00  0.00    -0.211 NA
ATOM     20  C   UNL A   1      31.247  24.355  25.592  1.00  0.00     0.011 A 
ATOM     21  C   UNL A   1      32.562  24.259  25.995  1.00  0.00    -0.018 A 
ATOM     22  C   UNL A   1      30.683  25.589  24.999  1.00  0.00     0.047 C 
ATOM     23  C   UNL A   1      33.369  25.553  26.167  1.00  0.00     0.018 C 
ATOM     24  C   UNL A   1      31.204  26.809  25.663  1.00  0.00     0.006 C 
ATOM     25  C   UNL A   1      34.719  25.574  25.504  1.00  0.00     0.013 C 
ATOM     26  C   UNL A   1      32.692  26.816  25.553  1.00  0.00     0.008 C 
ENDBRANCH   8   9
ENDBRANCH   7   8
ENDBRANCH   4   7
ENDBRANCH   2   3
ENDBRANCH   1   2
BRANCH   1  27
ATOM     27  C   UNL A   1      43.039  18.179  26.872  1.00  0.00     0.118 C 
BRANCH  27  28
ATOM     28  N   UNL A   1      44.111  18.419  25.762  1.00  0.00    -0.352 N 
ATOM     29  C   UNL A   1      44.949  19.381  25.104  1.00  0.00     0.251 C 
ATOM     30  H   UNL A   1      44.286  17.548  25.338  1.00  0.00     0.163 HD
ATOM     31  O   UNL A   1      45.905  18.880  24.493  1.00  0.00    -0.269 OA
BRANCH  29  32
ATOM     32  C   UNL A   1      44.895  20.910  25.011  1.00  0.00     0.039 A 
ATOM     33  C   UNL A   1      46.016  21.745  25.140  1.00  0.00     0.014 A 
ATOM     34  C   UNL A   1      43.756  21.614  24.605  1.00  0.00     0.014 A 
ATOM     35  C   UNL A   1      45.880  23.147  25.433  1.00  0.00     0.010 A 
ATOM     36  C   UNL A   1      43.586  22.988  24.974  1.00  0.00     0.010 A 
ATOM     37  C   UNL A   1      44.621  23.727  25.596  1.00  0.00    -0.014 A 
BRANCH  37  38
ATOM     38  C   UNL A   1      44.322  24.971  26.425  1.00  0.00     0.031 A 
ATOM     39  C   UNL A   1      45.245  26.117  26.177  1.00  0.00     0.074 A 
ATOM     40  C   UNL A   1      43.272  25.353  27.226  1.00  0.00     0.049 A 
ATOM     41  N   UNL A   1      46.381  26.264  26.771  1.00  0.00    -0.248 NA
ATOM     42  C   UNL A   1      44.983  27.120  25.133  1.00  0.00     0.031 C 
ATOM     43  C   UNL A   1      41.981  24.703  27.498  1.00  0.00     0.029 A 
ATOM     44  N   UNL A   1      43.095  26.553  27.899  1.00  0.00    -0.354 N 
ATOM     45  C   UNL A   1      46.869  27.495  26.364  1.00  0.00     0.074 A 
ATOM     46  C   UNL A   1      46.112  27.839  25.185  1.00  0.00     0.031 C 
ATOM     47  C   UNL A   1      41.090  25.599  28.010  1.00  0.00     0.029 A 
ATOM     48  C   UNL A   1      41.799  26.811  28.370  1.00  0.00     0.049 A 
ATOM     49  H   UNL A   1      43.836  27.187  28.036  1.00  0.00     0.167 HD
ATOM     50  C   UNL A   1      47.686  28.229  27.173  1.00  0.00     0.034 A 
ATOM     51  C   UNL A   1      41.376  27.892  29.088  1.00  0.00     0.034 A 
ATOM     52  C   UNL A   1      47.941  27.533  28.421  1.00  0.00     0.049 A 
ATOM     53  C   UNL A   1      42.562  28.355  29.839  1.00  0.00     0.074 A 
ATOM     54  C   UNL A   1      48.414  26.284  28.782  1.00  0.00     0.029 A 
ATOM     55  N   UNL A   1      47.273  28.002  29.530  1.00  0.00    -0.354 N 
ATOM     56  N   UNL A   1      43.138  27.655  30.774  1.00  0.00    -0.248 NA
ATOM     57  C   UNL A   1      43.318  29.486  29.338  1.00  0.00     0.031 C 
ATOM     58  C   UNL A   1      47.582  25.876  29.870  1.00  0.00     0.029 A 
ATOM     59  C   UNL A   1      46.708  26.925  30.160  1.00  0.00     0.049 A 
ATOM     60  H   UNL A   1      47.212  28.942  29.817  1.00  0.00     0.167 HD
ATOM     61  C   UNL A   1      44.484  27.926  30.600  1.00  0.00     0.074 A 
ATOM     62  C   UNL A   1      44.518  29.164  29.826  1.00  0.00     0.031 C 
ATOM     63  C   UNL A   1      45.425  26.963  30.833  1.00  0.00     0.034 A 
BRANCH  50  64
ATOM     64  C   UNL A   1      48.020  29.694  27.041  1.00  0.00     0.023 A 
ATOM     65  C   UNL A   1      49.386  30.048  27.153  1.00  0.00     0.012 A 
ATOM     66  C   UNL A   1      47.089  30.752  27.000  1.00  0.00     0.148 A 
ATOM     67  C   UNL A   1      49.801  31.379  27.248  1.00  0.00     0.002 A 
ATOM     68  C   UNL A   1      47.516  32.079  26.995  1.00  0.00     0.091 A 
ATOM     69  F   UNL A   1      45.783  30.500  27.107  1.00  0.00    -0.205 F 
ATOM     70  C   UNL A   1      48.866  32.397  27.149  1.00  0.00     0.022 A 
BRANCH  68  71
ATOM     71  S   UNL A   1      46.349  33.427  26.763  1.00  0.00     0.127 S 
ATOM     72  O   UNL A   1      45.576  33.354  28.012  1.00  0.00    -0.237 OA
ATOM     73  O   UNL A   1      47.249  34.587  26.676  1.00  0.00    -0.237 OA
ATOM     74  O   UNL A   1      45.644  33.125  25.546  1.00  0.00    -0.744 OA
ENDBRANCH  68  71
ENDBRANCH  50  64
BRANCH  51  75
ATOM     75  C   UNL A   1      40.103  28.658  29.238  1.00  0.00     0.023 A 
ATOM     76  C   UNL A   1      39.184  28.721  28.158  1.00  0.00     0.012 A 
ATOM     77  C   UNL A   1      39.617  28.965  30.525  1.00  0.00     0.148 A 
ATOM     78  C   UNL A   1      37.825  29.000  28.362  1.00  0.00     0.002 A 
ATOM     79  C   UNL A   1      38.257  29.227  30.725  1.00  0.00     0.091 A 
ATOM     80  F   UNL A   1      40.470  28.891  31.556  1.00  0.00    -0.205 F 
ATOM     81  C   UNL A   1      37.356  29.229  29.649  1.00  0.00     0.022 A 
BRANCH  79  82
ATOM     82  S   UNL A   1      37.550  29.465  32.364  1.00  0.00     0.127 S 
ATOM     83  O   UNL A   1      37.587  28.109  32.913  1.00  0.00    -0.237 OA
ATOM     84  O   UNL A   1      38.502  30.395  32.968  1.00  0.00    -0.237 OA
ATOM     85  O   UNL A   1      36.210  29.986  32.135  1.00  0.00    -0.744 OA
ENDBRANCH  79  82
ENDBRANCH  51  75
BRANCH  63  86
ATOM     86  C   UNL A   1      45.014  25.718  31.593  1.00  0.00     0.023 A 
ATOM     87  C   UNL A   1      44.475  24.576  30.963  1.00  0.00     0.012 A 
ATOM     88  C   UNL A   1      45.321  25.640  32.962  1.00  0.00     0.148 A 
ATOM     89  C   UNL A   1      44.229  23.399  31.678  1.00  0.00     0.002 A 
ATOM     90  C   UNL A   1      45.127  24.451  33.660  1.00  0.00     0.091 A 
ATOM     91  F   UNL A   1      45.816  26.731  33.565  1.00  0.00    -0.205 F 
ATOM     92  C   UNL A   1      44.571  23.331  33.024  1.00  0.00     0.022 A 
BRANCH  90  93
ATOM     93  S   UNL A   1      45.672  24.267  35.359  1.00  0.00     0.127 S 
ATOM     94  O   UNL A   1      44.849  25.255  36.053  1.00  0.00    -0.237 OA
ATOM     95  O   UNL A   1      45.329  22.874  35.652  1.00  0.00    -0.237 OA
ATOM     96  O   UNL A   1      47.105  24.533  35.347  1.00  0.00    -0.744 OA
ENDBRANCH  90  93
ENDBRANCH  63  86
ENDBRANCH  37  38
ENDBRANCH  29  32
ENDBRANCH  27  28
ENDBRANCH   1  27
TORSDOF 15
ENDMDL
MODEL 2
REMARK VINA RESULT:     -13.0      5.134      9.055
REMARK SMILES Cc1nc2sc3c(c2c2nc(CCC(=O)NCCCNC(=O)c4ccc(-c5c6nc(c(-c7cccc(S(=O)(=O)[O-])c7F)c7ccc([nH]7)c(-c7cccc(S(=O)(=O)[O-])c7F)c7nc(c(-c8cccc(S(=O)(=O)[O-])c8F)c8ccc5[nH]8)C=C7)C=C6)cc4)nn12)[C@@H](C)CCC3
REMARK SMILES IDX 18 1 17 2 16 3 14 4 15 5 13 7 12 8 11 9 1 10 2 11 3 12 87 13
REMARK SMILES IDX 4 14 9 15 86 16 5 17 8 18 10 19 6 20 7 21 92 22 88 23 91 24
REMARK SMILES IDX 89 25 90 26 19 27 20 28 21 29 22 31 23 32 24 33 85 34 25 35
REMARK SMILES IDX 84 36 26 37 27 38 28 39 78 40 29 41 83 42 77 43 79 44 30 45
REMARK SMILES IDX 82 46 76 47 75 48 31 50 63 51 43 52 62 53 44 54 47 55 61 56
REMARK SMILES IDX 80 57 45 58 46 59 60 61 81 62 48 63 32 64 33 65 41 66 34 67
REMARK SMILES IDX 36 68 42 69 35 70 37 71 38 72 39 73 40 74 64 75 65 76 73 77
REMARK SMILES IDX 66 78 68 79 74 80 67 81 69 82 70 83 71 84 72 85 49 86 50 87
REMARK SMILES IDX 58 88 51 89 53 90 59 91 52 92 54 93 55 94 56 95 57 96
REMARK H PARENT 16 6 20 30 79 49 47 60
REMARK Flexibility Score: inf
ROOT
ATOM      1  C   UNL A   1      40.638  22.801  27.280  1.00  0.00     0.042 C 
ENDROOT
BRANCH   1   2
ATOM      2  C   UNL A   1      39.108  23.016  26.883  1.00  0.00     0.117 C 
BRANCH   2   3
ATOM      3  N   UNL A   1      38.367  22.022  26.093  1.00  0.00    -0.356 N 
ATOM      4  C   UNL A   1      37.447  22.088  25.066  1.00  0.00     0.220 C 
ATOM      5  O   UNL A   1      37.363  21.104  24.320  1.00  0.00    -0.275 OA
ATOM      6  H   UNL A   1      38.575  21.097  26.358  1.00  0.00     0.163 HD
BRANCH   4   7
ATOM      7  C   UNL A   1      36.563  23.290  24.753  1.00  0.00     0.108 C 
BRANCH   7   8
ATOM      8  C   UNL A   1      35.854  23.880  25.991  1.00  0.00     0.089 C 
BRANCH   8   9
ATOM      9  C   UNL A   1      34.394  23.770  25.830  1.00  0.00     0.152 A 
ATOM     10  C   UNL A   1      32.019  22.092  22.892  1.00  0.00     0.090 C 
ATOM     11  C   UNL A   1      31.734  23.305  23.723  1.00  0.00     0.131 A 
ATOM     12  N   UNL A   1      30.763  24.127  23.436  1.00  0.00    -0.222 NA
ATOM     13  N   UNL A   1      32.642  23.575  24.751  1.00  0.00    -0.199 N 
ATOM     14  C   UNL A   1      30.808  25.327  24.104  1.00  0.00     0.129 A 
ATOM     15  C   UNL A   1      32.597  24.724  25.501  1.00  0.00     0.168 A 
ATOM     16  N   UNL A   1      33.819  22.939  24.942  1.00  0.00    -0.150 NA
ATOM     17  S   UNL A   1      29.848  26.599  23.615  1.00  0.00    -0.120 S 
ATOM     18  C   UNL A   1      31.669  25.778  25.097  1.00  0.00     0.060 A 
ATOM     19  N   UNL A   1      33.624  24.788  26.292  1.00  0.00    -0.211 NA
ATOM     20  C   UNL A   1      30.846  27.745  24.368  1.00  0.00     0.011 A 
ATOM     21  C   UNL A   1      31.654  27.198  25.341  1.00  0.00    -0.018 A 
ATOM     22  C   UNL A   1      30.932  29.169  23.969  1.00  0.00     0.047 C 
ATOM     23  C   UNL A   1      32.409  28.147  26.282  1.00  0.00     0.018 C 
ATOM     24  C   UNL A   1      31.163  30.056  25.135  1.00  0.00     0.006 C 
ATOM     25  C   UNL A   1      33.877  27.865  26.453  1.00  0.00     0.013 C 
ATOM     26  C   UNL A   1      32.421  29.635  25.817  1.00  0.00     0.008 C 
ENDBRANCH   8   9
ENDBRANCH   7   8
ENDBRANCH   4   7
ENDBRANCH   2   3
ENDBRANCH   1   2
BRANCH   1  27
ATOM     27  C   UNL A   1      41.763  23.863  26.920  1.00  0.00     0.118 C 
BRANCH  27  28
ATOM     28  N   UNL A   1      41.340  25.341  26.642  1.00  0.00    -0.352 N 
ATOM     29  C   UNL A   1      41.028  26.617  27.218  1.00  0.00     0.251 C 
ATOM     30  H   UNL A   1      41.252  25.436  25.666  1.00  0.00     0.163 HD
ATOM     31  O   UNL A   1      41.110  27.563  26.419  1.00  0.00    -0.269 OA
BRANCH  29  32
ATOM     32  C   UNL A   1      40.613  27.043  28.631  1.00  0.00     0.039 A 
ATOM     33  C   UNL A   1      39.308  26.927  29.135  1.00  0.00     0.014 A 
ATOM     34  C   UNL A   1      41.529  27.419  29.619  1.00  0.00     0.014 A 
ATOM     35  C   UNL A   1      38.876  27.674  30.286  1.00  0.00     0.010 A 
ATOM     36  C   UNL A   1      41.112  28.236  30.718  1.00  0.00     0.010 A 
ATOM     37  C   UNL A   1      39.748  28.543  30.945  1.00  0.00    -0.014 A 
BRANCH  37  38
ATOM     38  C   UNL A   1      39.332  29.764  31.757  1.00  0.00     0.031 A 
ATOM     39  C   UNL A   1      38.145  30.490  31.220  1.00  0.00     0.074 A 
ATOM     40  C   UNL A   1      39.688  30.254  32.991  1.00  0.00     0.049 A 
ATOM     41  N   UNL A   1      38.213  31.397  30.305  1.00  0.00    -0.248 NA
ATOM     42  C   UNL A   1      36.771  30.140  31.611  1.00  0.00     0.031 C 
ATOM     43  C   UNL A   1      40.563  29.696  34.035  1.00  0.00     0.029 A 
ATOM     44  N   UNL A   1      39.192  31.370  33.650  1.00  0.00    -0.354 N 
ATOM     45  C   UNL A   1      36.931  31.906  30.174  1.00  0.00     0.074 A 
ATOM     46  C   UNL A   1      36.065  30.934  30.795  1.00  0.00     0.031 C 
ATOM     47  C   UNL A   1      40.317  30.292  35.236  1.00  0.00     0.029 A 
ATOM     48  C   UNL A   1      39.482  31.457  35.020  1.00  0.00     0.049 A 
ATOM     49  H   UNL A   1      38.666  32.058  33.183  1.00  0.00     0.167 HD
ATOM     50  C   UNL A   1      36.724  33.195  29.779  1.00  0.00     0.034 A 
ATOM     51  C   UNL A   1      39.146  32.463  35.878  1.00  0.00     0.034 A 
ATOM     52  C   UNL A   1      37.985  33.869  29.526  1.00  0.00     0.049 A 
ATOM     53  C   UNL A   1      39.056  33.680  35.043  1.00  0.00     0.074 A 
ATOM     54  C   UNL A   1      39.101  33.625  28.747  1.00  0.00     0.029 A 
ATOM     55  N   UNL A   1      38.400  34.768  30.482  1.00  0.00    -0.354 N 
ATOM     56  N   UNL A   1      40.079  34.211  34.437  1.00  0.00    -0.248 NA
ATOM     57  C   UNL A   1      37.753  34.148  34.615  1.00  0.00     0.031 C 
ATOM     58  C   UNL A   1      40.212  33.979  29.573  1.00  0.00     0.029 A 
ATOM     59  C   UNL A   1      39.711  34.491  30.771  1.00  0.00     0.049 A 
ATOM     60  H   UNL A   1      37.854  35.481  30.886  1.00  0.00     0.167 HD
ATOM     61  C   UNL A   1      39.551  34.658  33.238  1.00  0.00     0.074 A 
ATOM     62  C   UNL A   1      38.111  34.739  33.472  1.00  0.00     0.031 C 
ATOM     63  C   UNL A   1      40.292  34.619  32.092  1.00  0.00     0.034 A 
BRANCH  50  64
ATOM     64  C   UNL A   1      35.452  33.996  29.912  1.00  0.00     0.023 A 
ATOM     65  C   UNL A   1      34.902  34.519  28.718  1.00  0.00     0.012 A 
ATOM     66  C   UNL A   1      34.867  34.419  31.123  1.00  0.00     0.148 A 
ATOM     67  C   UNL A   1      33.847  35.436  28.728  1.00  0.00     0.002 A 
ATOM     68  C   UNL A   1      33.751  35.255  31.122  1.00  0.00     0.091 A 
ATOM     69  F   UNL A   1      35.457  34.139  32.287  1.00  0.00    -0.205 F 
ATOM     70  C   UNL A   1      33.258  35.789  29.932  1.00  0.00     0.022 A 
BRANCH  68  71
ATOM     71  S   UNL A   1      32.893  35.655  32.650  1.00  0.00     0.127 S 
ATOM     72  O   UNL A   1      31.764  36.450  32.145  1.00  0.00    -0.237 OA
ATOM     73  O   UNL A   1      32.520  34.319  33.140  1.00  0.00    -0.237 OA
ATOM     74  O   UNL A   1      33.855  36.343  33.468  1.00  0.00    -0.744 OA
ENDBRANCH  68  71
ENDBRANCH  50  64
BRANCH  51  75
ATOM     75  C   UNL A   1      38.841  32.584  37.335  1.00  0.00     0.023 A 
ATOM     76  C   UNL A   1      39.271  33.730  38.054  1.00  0.00     0.012 A 
ATOM     77  C   UNL A   1      37.811  31.807  37.903  1.00  0.00     0.148 A 
ATOM     78  C   UNL A   1      38.648  34.128  39.246  1.00  0.00     0.002 A 
ATOM     79  C   UNL A   1      37.183  32.218  39.084  1.00  0.00     0.091 A 
ATOM     80  F   UNL A   1      37.383  30.734  37.225  1.00  0.00    -0.205 F 
ATOM     81  C   UNL A   1      37.588  33.386  39.748  1.00  0.00     0.022 A 
BRANCH  79  82
ATOM     82  S   UNL A   1      35.757  31.358  39.769  1.00  0.00     0.127 S 
ATOM     83  O   UNL A   1      34.666  32.287  39.468  1.00  0.00    -0.237 OA
ATOM     84  O   UNL A   1      35.744  30.126  38.983  1.00  0.00    -0.237 OA
ATOM     85  O   UNL A   1      36.043  31.205  41.188  1.00  0.00    -0.744 OA
ENDBRANCH  79  82
ENDBRANCH  51  75
BRANCH  63  86
ATOM     86  C   UNL A   1      41.788  34.402  32.204  1.00  0.00     0.023 A 
ATOM     87  C   UNL A   1      42.688  35.425  32.574  1.00  0.00     0.012 A 
ATOM     88  C   UNL A   1      42.284  33.093  32.080  1.00  0.00     0.148 A 
ATOM     89  C   UNL A   1      44.043  35.157  32.793  1.00  0.00     0.002 A 
ATOM     90  C   UNL A   1      43.621  32.819  32.352  1.00  0.00     0.091 A 
ATOM     91  F   UNL A   1      41.433  32.124  31.710  1.00  0.00    -0.205 F 
ATOM     92  C   UNL A   1      44.507  33.850  32.698  1.00  0.00     0.022 A 
BRANCH  90  93
ATOM     93  S   UNL A   1      44.243  31.136  32.374  1.00  0.00     0.127 S 
ATOM     94  O   UNL A   1      43.611  30.592  33.574  1.00  0.00    -0.237 OA
ATOM     95  O   UNL A   1      43.732  30.593  31.115  1.00  0.00    -0.237 OA
ATOM     96  O   UNL A   1      45.696  31.251  32.422  1.00  0.00    -0.744 OA
ENDBRANCH  90  93
ENDBRANCH  63  86
ENDBRANCH  37  38
ENDBRANCH  29  32
ENDBRANCH  27  28
ENDBRANCH   1  27
TORSDOF 15
ENDMDL
MODEL 3
REMARK VINA RESULT:     -12.5      4.874     10.640
REMARK SMILES Cc1nc2sc3c(c2c2nc(CCC(=O)NCCCNC(=O)c4ccc(-c5c6nc(c(-c7cccc(S(=O)(=O)[O-])c7F)c7ccc([nH]7)c(-c7cccc(S(=O)(=O)[O-])c7F)c7nc(c(-c8cccc(S(=O)(=O)[O-])c8F)c8ccc5[nH]8)C=C7)C=C6)cc4)nn12)[C@@H](C)CCC3
REMARK SMILES IDX 18 1 17 2 16 3 14 4 15 5 13 7 12 8 11 9 1 10 2 11 3 12 87 13
REMARK SMILES IDX 4 14 9 15 86 16 5 17 8 18 10 19 6 20 7 21 92 22 88 23 91 24
REMARK SMILES IDX 89 25 90 26 19 27 20 28 21 29 22 31 23 32 24 33 85 34 25 35
REMARK SMILES IDX 84 36 26 37 27 38 28 39 78 40 29 41 83 42 77 43 79 44 30 45
REMARK SMILES IDX 82 46 76 47 75 48 31 50 63 51 43 52 62 53 44 54 47 55 61 56
REMARK SMILES IDX 80 57 45 58 46 59 60 61 81 62 48 63 32 64 33 65 41 66 34 67
REMARK SMILES IDX 36 68 42 69 35 70 37 71 38 72 39 73 40 74 64 75 65 76 73 77
REMARK SMILES IDX 66 78 68 79 74 80 67 81 69 82 70 83 71 84 72 85 49 86 50 87
REMARK SMILES IDX 58 88 51 89 53 90 59 91 52 92 54 93 55 94 56 95 57 96
REMARK H PARENT 16 6 20 30 79 49 47 60
REMARK Flexibility Score: inf
ROOT
ATOM      1  C   UNL A   1      34.047  33.991  28.380  1.00  0.00     0.042 C 
ENDROOT
BRANCH   1   2
ATOM      2  C   UNL A   1      33.613  32.503  28.000  1.00  0.00     0.117 C 
BRANCH   2   3
ATOM      3  N   UNL A   1      34.566  31.385  28.044  1.00  0.00    -0.356 N 
ATOM      4  C   UNL A   1      34.697  30.193  27.359  1.00  0.00     0.220 C 
ATOM      5  O   UNL A   1      35.830  29.699  27.298  1.00  0.00    -0.275 OA
ATOM      6  H   UNL A   1      35.273  31.516  28.716  1.00  0.00     0.163 HD
BRANCH   4   7
ATOM      7  C   UNL A   1      33.569  29.465  26.637  1.00  0.00     0.108 C 
BRANCH   7   8
ATOM      8  C   UNL A   1      33.631  27.928  26.773  1.00  0.00     0.089 C 
BRANCH   8   9
ATOM      9  C   UNL A   1      33.226  27.298  25.505  1.00  0.00     0.152 A 
ATOM     10  C   UNL A   1      29.535  26.370  23.893  1.00  0.00     0.090 C 
ATOM     11  C   UNL A   1      30.820  25.617  23.739  1.00  0.00     0.131 A 
ATOM     12  N   UNL A   1      30.861  24.412  23.242  1.00  0.00    -0.222 NA
ATOM     13  N   UNL A   1      31.960  26.230  24.270  1.00  0.00    -0.199 N 
ATOM     14  C   UNL A   1      32.050  23.751  23.431  1.00  0.00     0.129 A 
ATOM     15  C   UNL A   1      33.180  25.602  24.336  1.00  0.00     0.168 A 
ATOM     16  N   UNL A   1      31.964  27.340  25.041  1.00  0.00    -0.150 NA
ATOM     17  S   UNL A   1      32.154  22.111  23.158  1.00  0.00    -0.120 S 
ATOM     18  C   UNL A   1      33.247  24.184  23.991  1.00  0.00     0.060 A 
ATOM     19  N   UNL A   1      34.029  26.333  24.989  1.00  0.00    -0.211 NA
ATOM     20  C   UNL A   1      33.526  21.952  24.142  1.00  0.00     0.011 A 
ATOM     21  C   UNL A   1      34.183  23.147  24.344  1.00  0.00    -0.018 A 
ATOM     22  C   UNL A   1      33.937  20.695  24.808  1.00  0.00     0.047 C 
ATOM     23  C   UNL A   1      35.577  23.114  24.987  1.00  0.00     0.018 C 
ATOM     24  C   UNL A   1      35.412  20.569  24.890  1.00  0.00     0.006 C 
ATOM     25  C   UNL A   1      35.790  24.064  26.134  1.00  0.00     0.013 C 
ATOM     26  C   UNL A   1      35.953  21.746  25.630  1.00  0.00     0.008 C 
ENDBRANCH   8   9
ENDBRANCH   7   8
ENDBRANCH   4   7
ENDBRANCH   2   3
ENDBRANCH   1   2
BRANCH   1  27
ATOM     27  C   UNL A   1      32.984  35.119  28.723  1.00  0.00     0.118 C 
BRANCH  27  28
ATOM     28  N   UNL A   1      32.631  35.388  30.221  1.00  0.00    -0.352 N 
ATOM     29  C   UNL A   1      33.101  35.370  31.576  1.00  0.00     0.251 C 
ATOM     30  H   UNL A   1      31.697  35.700  30.246  1.00  0.00     0.163 HD
ATOM     31  O   UNL A   1      32.431  36.071  32.351  1.00  0.00    -0.269 OA
BRANCH  29  32
ATOM     32  C   UNL A   1      34.275  34.655  32.257  1.00  0.00     0.039 A 
ATOM     33  C   UNL A   1      35.432  35.305  32.713  1.00  0.00     0.014 A 
ATOM     34  C   UNL A   1      34.229  33.315  32.655  1.00  0.00     0.014 A 
ATOM     35  C   UNL A   1      36.646  34.581  32.980  1.00  0.00     0.010 A 
ATOM     36  C   UNL A   1      35.441  32.574  32.837  1.00  0.00     0.010 A 
ATOM     37  C   UNL A   1      36.711  33.198  32.796  1.00  0.00    -0.014 A 
BRANCH  37  38
ATOM     38  C   UNL A   1      37.977  32.406  32.488  1.00  0.00     0.031 A 
ATOM     39  C   UNL A   1      38.805  32.072  33.683  1.00  0.00     0.074 A 
ATOM     40  C   UNL A   1      38.448  31.760  31.370  1.00  0.00     0.049 A 
ATOM     41  N   UNL A   1      39.689  32.864  34.188  1.00  0.00    -0.248 NA
ATOM     42  C   UNL A   1      38.590  30.843  34.463  1.00  0.00     0.031 C 
ATOM     43  C   UNL A   1      37.825  31.524  30.058  1.00  0.00     0.029 A 
ATOM     44  N   UNL A   1      39.615  31.022  31.230  1.00  0.00    -0.354 N 
ATOM     45  C   UNL A   1      40.314  32.148  35.196  1.00  0.00     0.074 A 
ATOM     46  C   UNL A   1      39.436  31.040  35.483  1.00  0.00     0.031 C 
ATOM     47  C   UNL A   1      38.457  30.510  29.402  1.00  0.00     0.029 A 
ATOM     48  C   UNL A   1      39.693  30.202  30.095  1.00  0.00     0.049 A 
ATOM     49  H   UNL A   1      40.343  31.071  31.890  1.00  0.00     0.167 HD
ATOM     50  C   UNL A   1      41.611  32.399  35.534  1.00  0.00     0.034 A 
ATOM     51  C   UNL A   1      40.738  29.413  29.710  1.00  0.00     0.034 A 
ATOM     52  C   UNL A   1      42.159  33.473  34.727  1.00  0.00     0.049 A 
ATOM     53  C   UNL A   1      41.946  30.064  30.260  1.00  0.00     0.074 A 
ATOM     54  C   UNL A   1      41.801  34.776  34.434  1.00  0.00     0.029 A 
ATOM     55  N   UNL A   1      43.029  33.102  33.725  1.00  0.00    -0.354 N 
ATOM     56  N   UNL A   1      42.371  31.233  29.874  1.00  0.00    -0.248 NA
ATOM     57  C   UNL A   1      42.529  29.552  31.484  1.00  0.00     0.031 C 
ATOM     58  C   UNL A   1      42.060  34.925  33.036  1.00  0.00     0.029 A 
ATOM     59  C   UNL A   1      42.634  33.737  32.577  1.00  0.00     0.049 A 
ATOM     60  H   UNL A   1      43.796  32.491  33.818  1.00  0.00     0.167 HD
ATOM     61  C   UNL A   1      42.849  31.807  31.039  1.00  0.00     0.074 A 
ATOM     62  C   UNL A   1      43.068  30.683  31.946  1.00  0.00     0.031 C 
ATOM     63  C   UNL A   1      42.725  33.150  31.256  1.00  0.00     0.034 A 
BRANCH  50  64
ATOM     64  C   UNL A   1      42.529  31.513  36.340  1.00  0.00     0.023 A 
ATOM     65  C   UNL A   1      43.340  32.152  37.308  1.00  0.00     0.012 A 
ATOM     66  C   UNL A   1      42.783  30.148  36.096  1.00  0.00     0.148 A 
ATOM     67  C   UNL A   1      44.367  31.479  37.976  1.00  0.00     0.002 A 
ATOM     68  C   UNL A   1      43.742  29.457  36.836  1.00  0.00     0.091 A 
ATOM     69  F   UNL A   1      42.210  29.535  35.059  1.00  0.00    -0.205 F 
ATOM     70  C   UNL A   1      44.556  30.123  37.753  1.00  0.00     0.022 A 
BRANCH  68  71
ATOM     71  S   UNL A   1      43.948  27.681  36.654  1.00  0.00     0.127 S 
ATOM     72  O   UNL A   1      43.958  27.541  35.190  1.00  0.00    -0.237 OA
ATOM     73  O   UNL A   1      45.256  27.466  37.291  1.00  0.00    -0.237 OA
ATOM     74  O   UNL A   1      42.840  27.088  37.354  1.00  0.00    -0.744 OA
ENDBRANCH  68  71
ENDBRANCH  50  64
BRANCH  51  75
ATOM     75  C   UNL A   1      40.907  28.135  28.955  1.00  0.00     0.023 A 
ATOM     76  C   UNL A   1      39.919  27.121  29.051  1.00  0.00     0.012 A 
ATOM     77  C   UNL A   1      41.793  28.081  27.860  1.00  0.00     0.148 A 
ATOM     78  C   UNL A   1      39.769  26.142  28.058  1.00  0.00     0.002 A 
ATOM     79  C   UNL A   1      41.628  27.111  26.864  1.00  0.00     0.091 A 
ATOM     80  F   UNL A   1      42.718  29.043  27.747  1.00  0.00    -0.205 F 
ATOM     81  C   UNL A   1      40.608  26.152  26.952  1.00  0.00     0.022 A 
BRANCH  79  82
ATOM     82  S   UNL A   1      42.623  27.090  25.364  1.00  0.00     0.127 S 
ATOM     83  O   UNL A   1      43.985  27.063  25.900  1.00  0.00    -0.237 OA
ATOM     84  O   UNL A   1      42.191  25.844  24.734  1.00  0.00    -0.237 OA
ATOM     85  O   UNL A   1      42.280  28.314  24.654  1.00  0.00    -0.744 OA
ENDBRANCH  79  82
ENDBRANCH  51  75
BRANCH  63  86
ATOM     86  C   UNL A   1      42.369  34.043  30.084  1.00  0.00     0.023 A 
ATOM     87  C   UNL A   1      41.041  34.392  29.760  1.00  0.00     0.012 A 
ATOM     88  C   UNL A   1      43.413  34.671  29.382  1.00  0.00     0.148 A 
ATOM     89  C   UNL A   1      40.758  35.321  28.753  1.00  0.00     0.002 A 
ATOM     90  C   UNL A   1      43.131  35.635  28.419  1.00  0.00     0.091 A 
ATOM     91  F   UNL A   1      44.675  34.325  29.678  1.00  0.00    -0.205 F 
ATOM     92  C   UNL A   1      41.805  35.956  28.093  1.00  0.00     0.022 A 
BRANCH  90  93
ATOM     93  S   UNL A   1      44.439  36.578  27.633  1.00  0.00     0.127 S 
ATOM     94  O   UNL A   1      45.226  37.026  28.780  1.00  0.00    -0.237 OA
ATOM     95  O   UNL A   1      45.097  35.572  26.797  1.00  0.00    -0.237 OA
ATOM     96  O   UNL A   1      43.771  37.630  26.877  1.00  0.00    -0.744 OA
ENDBRANCH  90  93
ENDBRANCH  63  86
ENDBRANCH  37  38
ENDBRANCH  29  32
ENDBRANCH  27  28
ENDBRANCH   1  27
TORSDOF 15
ENDMDL
