MODEL 1
REMARK VINA RESULT:     -12.0      0.000      0.000
REMARK SMILES NC(=O)c1ccc(C[N@H+]2CCC[C@@H](C(=O)NCCCNC(=O)c3ccc(-c4c5nc(c(-c6cccc(S(=O)(=O)[O-])c6F)c6ccc([nH]6)c(-c6cccc(S(=O)(=O)[O-])c6F)c6nc(c(-c7cccc(S(=O)(=O)[O-])c7F)c7ccc4[nH]7)C=C6)C=C5)cc3)C2)cc1
REMARK SMILES IDX 18 1 17 2 16 3 14 4 15 5 13 7 9 8 10 9 86 10 11 12 12 13
REMARK SMILES IDX 8 14 7 15 4 16 5 17 88 18 6 19 87 20 2 21 1 22 3 25 19 26
REMARK SMILES IDX 20 27 21 28 22 30 23 31 24 32 85 33 25 34 84 35 26 36 27 37
REMARK SMILES IDX 28 38 78 39 29 40 83 41 77 42 79 43 30 44 82 45 76 46 75 47
REMARK SMILES IDX 31 49 63 50 43 51 62 52 44 53 47 54 61 55 80 56 45 57 46 58
REMARK SMILES IDX 60 60 81 61 48 62 32 63 33 64 41 65 34 66 36 67 42 68 35 69
REMARK SMILES IDX 37 70 38 71 39 72 40 73 64 74 65 75 73 76 66 77 68 78 74 79
REMARK SMILES IDX 67 80 69 81 70 82 71 83 72 84 49 85 50 86 58 87 51 88 53 89
REMARK SMILES IDX 59 90 52 91 54 92 55 93 56 94 57 95
REMARK H PARENT 16 6 9 11 1 23 1 24 20 29 79 48 47 59
REMARK Flexibility Score: inf
ROOT
ATOM      1  C   UNL A   1      32.983  28.107  27.095  1.00  0.00     0.042 C 
ENDROOT
BRANCH   1   2
ATOM      2  C   UNL A   1      32.269  27.054  26.255  1.00  0.00     0.117 C 
BRANCH   2   3
ATOM      3  N   UNL A   1      32.819  26.949  24.909  1.00  0.00    -0.356 N 
ATOM      4  C   UNL A   1      33.379  25.902  24.236  1.00  0.00     0.228 C 
ATOM      5  O   UNL A   1      33.751  26.110  23.078  1.00  0.00    -0.275 OA
ATOM      6  H   UNL A   1      32.779  27.785  24.390  1.00  0.00     0.163 HD
BRANCH   4   7
ATOM      7  C   UNL A   1      33.525  24.515  24.854  1.00  0.00     0.133 C 
ATOM      8  N   UNL A   1      33.241  22.060  24.333  1.00  0.00    -0.331 N 
ATOM      9  C   UNL A   1      34.680  21.871  24.519  1.00  0.00     0.262 C 
ATOM     10  C   UNL A   1      32.913  23.439  23.945  1.00  0.00     0.276 C 
ATOM     11  H   UNL A   1      32.812  21.901  25.245  1.00  0.00     0.348 HD
ATOM     12  C   UNL A   1      35.194  22.782  25.632  1.00  0.00     0.062 C 
ATOM     13  C   UNL A   1      34.967  24.251  25.298  1.00  0.00     0.025 C 
BRANCH   8  14
ATOM     14  C   UNL A   1      32.638  21.056  23.427  1.00  0.00     0.299 C 
BRANCH  14  15
ATOM     15  C   UNL A   1      32.664  19.612  23.900  1.00  0.00     0.006 A 
ATOM     16  C   UNL A   1      32.917  16.959  24.767  1.00  0.00     0.039 A 
ATOM     17  C   UNL A   1      32.882  17.238  23.402  1.00  0.00     0.014 A 
ATOM     18  C   UNL A   1      32.777  17.982  25.707  1.00  0.00     0.014 A 
ATOM     19  C   UNL A   1      32.735  18.558  22.973  1.00  0.00     0.010 A 
ATOM     20  C   UNL A   1      32.654  19.305  25.272  1.00  0.00     0.010 A 
BRANCH  16  21
ATOM     21  C   UNL A   1      33.182  15.579  25.203  1.00  0.00     0.248 C 
ATOM     22  N   UNL A   1      32.087  14.810  25.445  1.00  0.00    -0.366 N 
ATOM     23  H   UNL A   1      32.195  13.877  25.740  1.00  0.00     0.159 HD
ATOM     24  H   UNL A   1      31.185  15.186  25.325  1.00  0.00     0.159 HD
ATOM     25  O   UNL A   1      34.331  15.167  25.325  1.00  0.00    -0.270 OA
ENDBRANCH  16  21
ENDBRANCH  14  15
ENDBRANCH   8  14
ENDBRANCH   4   7
ENDBRANCH   2   3
ENDBRANCH   1   2
BRANCH   1  26
ATOM     26  C   UNL A   1      33.869  29.052  26.295  1.00  0.00     0.118 C 
BRANCH  26  27
ATOM     27  N   UNL A   1      33.798  30.420  26.785  1.00  0.00    -0.352 N 
ATOM     28  C   UNL A   1      34.576  31.072  27.713  1.00  0.00     0.251 C 
ATOM     29  H   UNL A   1      33.079  30.964  26.391  1.00  0.00     0.163 HD
ATOM     30  O   UNL A   1      34.205  32.168  28.131  1.00  0.00    -0.269 OA
BRANCH  28  31
ATOM     31  C   UNL A   1      35.853  30.494  28.194  1.00  0.00     0.039 A 
ATOM     32  C   UNL A   1      35.838  29.663  29.318  1.00  0.00     0.014 A 
ATOM     33  C   UNL A   1      37.074  30.826  27.598  1.00  0.00     0.014 A 
ATOM     34  C   UNL A   1      37.036  29.140  29.819  1.00  0.00     0.010 A 
ATOM     35  C   UNL A   1      38.255  30.236  28.046  1.00  0.00     0.010 A 
ATOM     36  C   UNL A   1      38.254  29.405  29.176  1.00  0.00    -0.014 A 
BRANCH  36  37
ATOM     37  C   UNL A   1      39.541  28.843  29.673  1.00  0.00     0.031 A 
ATOM     38  C   UNL A   1      40.277  29.515  30.805  1.00  0.00     0.074 A 
ATOM     39  C   UNL A   1      40.095  27.783  29.051  1.00  0.00     0.049 A 
ATOM     40  N   UNL A   1      41.449  29.233  31.311  1.00  0.00    -0.248 NA
ATOM     41  C   UNL A   1      39.622  30.678  31.429  1.00  0.00     0.031 C 
ATOM     42  C   UNL A   1      39.525  27.083  27.898  1.00  0.00     0.029 A 
ATOM     43  N   UNL A   1      41.280  27.128  29.284  1.00  0.00    -0.354 N 
ATOM     44  C   UNL A   1      41.692  30.204  32.277  1.00  0.00     0.074 A 
ATOM     45  C   UNL A   1      40.558  31.101  32.266  1.00  0.00     0.031 C 
ATOM     46  C   UNL A   1      40.359  26.098  27.525  1.00  0.00     0.029 A 
ATOM     47  C   UNL A   1      41.534  26.112  28.392  1.00  0.00     0.049 A 
ATOM     48  H   UNL A   1      41.890  27.362  30.020  1.00  0.00     0.167 HD
ATOM     49  C   UNL A   1      42.746  30.321  33.122  1.00  0.00     0.034 A 
ATOM     50  C   UNL A   1      42.596  25.288  28.277  1.00  0.00     0.034 A 
ATOM     51  C   UNL A   1      43.838  29.389  33.183  1.00  0.00     0.049 A 
ATOM     52  C   UNL A   1      43.724  25.404  29.268  1.00  0.00     0.074 A 
ATOM     53  C   UNL A   1      44.902  29.367  34.069  1.00  0.00     0.029 A 
ATOM     54  N   UNL A   1      44.007  28.309  32.330  1.00  0.00    -0.354 N 
ATOM     55  N   UNL A   1      43.858  26.233  30.274  1.00  0.00    -0.248 NA
ATOM     56  C   UNL A   1      44.833  24.446  29.128  1.00  0.00     0.031 C 
ATOM     57  C   UNL A   1      45.719  28.278  33.745  1.00  0.00     0.029 A 
ATOM     58  C   UNL A   1      45.156  27.616  32.666  1.00  0.00     0.049 A 
ATOM     59  H   UNL A   1      43.397  28.071  31.595  1.00  0.00     0.167 HD
ATOM     60  C   UNL A   1      45.043  25.876  30.908  1.00  0.00     0.074 A 
ATOM     61  C   UNL A   1      45.579  24.741  30.185  1.00  0.00     0.031 C 
ATOM     62  C   UNL A   1      45.645  26.449  31.980  1.00  0.00     0.034 A 
BRANCH  49  63
ATOM     63  C   UNL A   1      42.735  31.464  34.104  1.00  0.00     0.023 A 
ATOM     64  C   UNL A   1      43.387  32.669  33.768  1.00  0.00     0.012 A 
ATOM     65  C   UNL A   1      42.030  31.376  35.319  1.00  0.00     0.148 A 
ATOM     66  C   UNL A   1      43.363  33.756  34.639  1.00  0.00     0.002 A 
ATOM     67  C   UNL A   1      41.977  32.479  36.165  1.00  0.00     0.091 A 
ATOM     68  F   UNL A   1      41.433  30.217  35.632  1.00  0.00    -0.205 F 
ATOM     69  C   UNL A   1      42.651  33.665  35.831  1.00  0.00     0.022 A 
BRANCH  67  70
ATOM     70  S   UNL A   1      41.021  32.489  37.687  1.00  0.00     0.127 S 
ATOM     71  O   UNL A   1      41.893  31.737  38.587  1.00  0.00    -0.237 OA
ATOM     72  O   UNL A   1      40.927  33.919  37.984  1.00  0.00    -0.237 OA
ATOM     73  O   UNL A   1      39.751  31.852  37.366  1.00  0.00    -0.744 OA
ENDBRANCH  67  70
ENDBRANCH  49  63
BRANCH  50  74
ATOM     74  C   UNL A   1      42.604  24.228  27.230  1.00  0.00     0.023 A 
ATOM     75  C   UNL A   1      43.283  24.464  26.019  1.00  0.00     0.012 A 
ATOM     76  C   UNL A   1      41.979  22.983  27.435  1.00  0.00     0.148 A 
ATOM     77  C   UNL A   1      43.313  23.493  25.018  1.00  0.00     0.002 A 
ATOM     78  C   UNL A   1      42.064  21.997  26.458  1.00  0.00     0.091 A 
ATOM     79  F   UNL A   1      41.325  22.780  28.587  1.00  0.00    -0.205 F 
ATOM     80  C   UNL A   1      42.714  22.257  25.240  1.00  0.00     0.022 A 
BRANCH  78  81
ATOM     81  S   UNL A   1      41.455  20.328  26.724  1.00  0.00     0.127 S 
ATOM     82  O   UNL A   1      42.228  19.906  27.887  1.00  0.00    -0.237 OA
ATOM     83  O   UNL A   1      40.032  20.561  26.979  1.00  0.00    -0.237 OA
ATOM     84  O   UNL A   1      41.723  19.614  25.483  1.00  0.00    -0.744 OA
ENDBRANCH  78  81
ENDBRANCH  50  74
BRANCH  62  85
ATOM     85  C   UNL A   1      46.937  25.846  32.464  1.00  0.00     0.023 A 
ATOM     86  C   UNL A   1      48.162  26.341  31.976  1.00  0.00     0.012 A 
ATOM     87  C   UNL A   1      46.940  24.850  33.461  1.00  0.00     0.148 A 
ATOM     88  C   UNL A   1      49.371  25.834  32.451  1.00  0.00     0.002 A 
ATOM     89  C   UNL A   1      48.149  24.381  33.962  1.00  0.00     0.091 A 
ATOM     90  F   UNL A   1      45.764  24.377  33.899  1.00  0.00    -0.205 F 
ATOM     91  C   UNL A   1      49.365  24.864  33.451  1.00  0.00     0.022 A 
BRANCH  89  92
ATOM     92  S   UNL A   1      48.235  23.199  35.313  1.00  0.00     0.127 S 
ATOM     93  O   UNL A   1      49.586  23.426  35.822  1.00  0.00    -0.237 OA
ATOM     94  O   UNL A   1      47.164  23.659  36.198  1.00  0.00    -0.237 OA
ATOM     95  O   UNL A   1      48.000  21.893  34.714  1.00  0.00    -0.744 OA
ENDBRANCH  89  92
ENDBRANCH  62  85
ENDBRANCH  36  37
ENDBRANCH  28  31
ENDBRANCH  26  27
ENDBRANCH   1  26
TORSDOF 16
ENDMDL
MODEL 2
REMARK VINA RESULT:     -11.9      2.073      8.032
REMARK SMILES NC(=O)c1ccc(C[N@H+]2CCC[C@@H](C(=O)NCCCNC(=O)c3ccc(-c4c5nc(c(-c6cccc(S(=O)(=O)[O-])c6F)c6ccc([nH]6)c(-c6cccc(S(=O)(=O)[O-])c6F)c6nc(c(-c7cccc(S(=O)(=O)[O-])c7F)c7ccc4[nH]7)C=C6)C=C5)cc3)C2)cc1
REMARK SMILES IDX 18 1 17 2 16 3 14 4 15 5 13 7 9 8 10 9 86 10 11 12 12 13
REMARK SMILES IDX 8 14 7 15 4 16 5 17 88 18 6 19 87 20 2 21 1 22 3 25 19 26
REMARK SMILES IDX 20 27 21 28 22 30 23 31 24 32 85 33 25 34 84 35 26 36 27 37
REMARK SMILES IDX 28 38 78 39 29 40 83 41 77 42 79 43 30 44 82 45 76 46 75 47
REMARK SMILES IDX 31 49 63 50 43 51 62 52 44 53 47 54 61 55 80 56 45 57 46 58
REMARK SMILES IDX 60 60 81 61 48 62 32 63 33 64 41 65 34 66 36 67 42 68 35 69
REMARK SMILES IDX 37 70 38 71 39 72 40 73 64 74 65 75 73 76 66 77 68 78 74 79
REMARK SMILES IDX 67 80 69 81 70 82 71 83 72 84 49 85 50 86 58 87 51 88 53 89
REMARK SMILES IDX 59 90 52 91 54 92 55 93 56 94 57 95
REMARK H PARENT 16 6 9 11 1 23 1 24 20 29 79 48 47 59
REMARK Flexibility Score: inf
ROOT
ATOM      1  C   UNL A   1      32.709  27.888  25.240  1.00  0.00     0.042 C 
ENDROOT
BRANCH   1   2
ATOM      2  C   UNL A   1      31.770  27.381  24.152  1.00  0.00     0.117 C 
BRANCH   2   3
ATOM      3  N   UNL A   1      32.483  26.983  22.944  1.00  0.00    -0.356 N 
ATOM      4  C   UNL A   1      33.139  25.832  22.615  1.00  0.00     0.228 C 
ATOM      5  O   UNL A   1      33.647  25.773  21.492  1.00  0.00    -0.275 OA
ATOM      6  H   UNL A   1      32.493  27.667  22.236  1.00  0.00     0.163 HD
BRANCH   4   7
ATOM      7  C   UNL A   1      33.232  24.641  23.564  1.00  0.00     0.133 C 
ATOM      8  N   UNL A   1      32.809  22.155  23.691  1.00  0.00    -0.331 N 
ATOM      9  C   UNL A   1      34.241  21.938  23.898  1.00  0.00     0.262 C 
ATOM     10  C   UNL A   1      32.541  23.406  22.968  1.00  0.00     0.276 C 
ATOM     11  H   UNL A   1      32.398  22.257  24.619  1.00  0.00     0.348 HD
ATOM     12  C   UNL A   1      34.831  23.072  24.734  1.00  0.00     0.062 C 
ATOM     13  C   UNL A   1      34.670  24.417  24.040  1.00  0.00     0.025 C 
BRANCH   8  14
ATOM     14  C   UNL A   1      32.130  20.989  23.080  1.00  0.00     0.299 C 
BRANCH  14  15
ATOM     15  C   UNL A   1      32.505  19.621  23.626  1.00  0.00     0.006 A 
ATOM     16  C   UNL A   1      32.997  17.061  24.654  1.00  0.00     0.039 A 
ATOM     17  C   UNL A   1      32.855  18.138  25.527  1.00  0.00     0.014 A 
ATOM     18  C   UNL A   1      32.946  17.252  23.272  1.00  0.00     0.014 A 
ATOM     19  C   UNL A   1      32.631  19.416  25.011  1.00  0.00     0.010 A 
ATOM     20  C   UNL A   1      32.698  18.530  22.762  1.00  0.00     0.010 A 
BRANCH  16  21
ATOM     21  C   UNL A   1      33.123  15.706  25.213  1.00  0.00     0.248 C 
ATOM     22  N   UNL A   1      31.957  15.043  25.439  1.00  0.00    -0.366 N 
ATOM     23  H   UNL A   1      31.972  14.132  25.812  1.00  0.00     0.159 HD
ATOM     24  H   UNL A   1      31.097  15.475  25.228  1.00  0.00     0.159 HD
ATOM     25  O   UNL A   1      34.226  15.221  25.445  1.00  0.00    -0.270 OA
ENDBRANCH  16  21
ENDBRANCH  14  15
ENDBRANCH   8  14
ENDBRANCH   4   7
ENDBRANCH   2   3
ENDBRANCH   1   2
BRANCH   1  26
ATOM     26  C   UNL A   1      33.398  29.204  24.912  1.00  0.00     0.118 C 
BRANCH  26  27
ATOM     27  N   UNL A   1      32.728  30.344  25.521  1.00  0.00    -0.352 N 
ATOM     28  C   UNL A   1      32.985  30.997  26.702  1.00  0.00     0.251 C 
ATOM     29  H   UNL A   1      31.970  30.702  25.005  1.00  0.00     0.163 HD
ATOM     30  O   UNL A   1      32.158  31.804  27.124  1.00  0.00    -0.269 OA
BRANCH  28  31
ATOM     31  C   UNL A   1      34.240  30.766  27.456  1.00  0.00     0.039 A 
ATOM     32  C   UNL A   1      35.150  31.819  27.593  1.00  0.00     0.014 A 
ATOM     33  C   UNL A   1      34.567  29.502  27.957  1.00  0.00     0.014 A 
ATOM     34  C   UNL A   1      36.363  31.614  28.262  1.00  0.00     0.010 A 
ATOM     35  C   UNL A   1      35.736  29.323  28.695  1.00  0.00     0.010 A 
ATOM     36  C   UNL A   1      36.660  30.369  28.837  1.00  0.00    -0.014 A 
BRANCH  36  37
ATOM     37  C   UNL A   1      37.931  30.130  29.574  1.00  0.00     0.031 A 
ATOM     38  C   UNL A   1      38.982  29.214  28.997  1.00  0.00     0.074 A 
ATOM     39  C   UNL A   1      38.107  30.660  30.801  1.00  0.00     0.049 A 
ATOM     40  N   UNL A   1      40.106  28.808  29.529  1.00  0.00    -0.248 NA
ATOM     41  C   UNL A   1      38.719  28.655  27.660  1.00  0.00     0.031 C 
ATOM     42  C   UNL A   1      37.140  31.504  31.505  1.00  0.00     0.029 A 
ATOM     43  N   UNL A   1      39.151  30.542  31.685  1.00  0.00    -0.354 N 
ATOM     44  C   UNL A   1      40.661  27.917  28.617  1.00  0.00     0.074 A 
ATOM     45  C   UNL A   1      39.735  27.817  27.510  1.00  0.00     0.031 C 
ATOM     46  C   UNL A   1      37.635  31.827  32.711  1.00  0.00     0.029 A 
ATOM     47  C   UNL A   1      38.940  31.193  32.879  1.00  0.00     0.049 A 
ATOM     48  H   UNL A   1      39.974  30.040  31.485  1.00  0.00     0.167 HD
ATOM     49  C   UNL A   1      41.848  27.265  28.674  1.00  0.00     0.034 A 
ATOM     50  C   UNL A   1      39.705  31.267  33.987  1.00  0.00     0.034 A 
ATOM     51  C   UNL A   1      42.801  27.420  29.740  1.00  0.00     0.049 A 
ATOM     52  C   UNL A   1      41.046  30.581  33.999  1.00  0.00     0.074 A 
ATOM     53  C   UNL A   1      44.071  26.879  29.842  1.00  0.00     0.029 A 
ATOM     54  N   UNL A   1      42.595  28.173  30.884  1.00  0.00    -0.354 N 
ATOM     55  N   UNL A   1      41.619  29.870  33.059  1.00  0.00    -0.248 NA
ATOM     56  C   UNL A   1      41.862  30.737  35.214  1.00  0.00     0.031 C 
ATOM     57  C   UNL A   1      44.630  27.299  31.054  1.00  0.00     0.029 A 
ATOM     58  C   UNL A   1      43.711  28.111  31.699  1.00  0.00     0.049 A 
ATOM     59  H   UNL A   1      41.774  28.679  31.086  1.00  0.00     0.167 HD
ATOM     60  C   UNL A   1      42.873  29.525  33.552  1.00  0.00     0.074 A 
ATOM     61  C   UNL A   1      42.986  30.124  34.865  1.00  0.00     0.031 C 
ATOM     62  C   UNL A   1      43.837  28.764  32.976  1.00  0.00     0.034 A 
BRANCH  49  63
ATOM     63  C   UNL A   1      42.219  26.377  27.516  1.00  0.00     0.023 A 
ATOM     64  C   UNL A   1      42.983  26.908  26.455  1.00  0.00     0.012 A 
ATOM     65  C   UNL A   1      41.879  25.010  27.504  1.00  0.00     0.148 A 
ATOM     66  C   UNL A   1      43.374  26.103  25.388  1.00  0.00     0.002 A 
ATOM     67  C   UNL A   1      42.308  24.204  26.455  1.00  0.00     0.091 A 
ATOM     68  F   UNL A   1      41.136  24.527  28.510  1.00  0.00    -0.205 F 
ATOM     69  C   UNL A   1      43.046  24.750  25.393  1.00  0.00     0.022 A 
BRANCH  67  70
ATOM     70  S   UNL A   1      42.003  22.433  26.407  1.00  0.00     0.127 S 
ATOM     71  O   UNL A   1      40.547  22.387  26.291  1.00  0.00    -0.237 OA
ATOM     72  O   UNL A   1      42.724  22.028  25.199  1.00  0.00    -0.237 OA
ATOM     73  O   UNL A   1      42.551  21.899  27.646  1.00  0.00    -0.744 OA
ENDBRANCH  67  70
ENDBRANCH  49  63
BRANCH  50  74
ATOM     74  C   UNL A   1      39.256  32.086  35.148  1.00  0.00     0.023 A 
ATOM     75  C   UNL A   1      38.365  31.522  36.082  1.00  0.00     0.012 A 
ATOM     76  C   UNL A   1      39.725  33.397  35.352  1.00  0.00     0.148 A 
ATOM     77  C   UNL A   1      37.925  32.259  37.181  1.00  0.00     0.002 A 
ATOM     78  C   UNL A   1      39.330  34.105  36.482  1.00  0.00     0.091 A 
ATOM     79  F   UNL A   1      40.560  33.924  34.445  1.00  0.00    -0.205 F 
ATOM     80  C   UNL A   1      38.414  33.546  37.388  1.00  0.00     0.022 A 
BRANCH  78  81
ATOM     81  S   UNL A   1      40.030  35.705  36.904  1.00  0.00     0.127 S 
ATOM     82  O   UNL A   1      41.455  35.402  36.975  1.00  0.00    -0.237 OA
ATOM     83  O   UNL A   1      39.628  36.525  35.759  1.00  0.00    -0.237 OA
ATOM     84  O   UNL A   1      39.394  36.089  38.157  1.00  0.00    -0.744 OA
ENDBRANCH  78  81
ENDBRANCH  50  74
BRANCH  62  85
ATOM     85  C   UNL A   1      45.115  28.555  33.743  1.00  0.00     0.023 A 
ATOM     86  C   UNL A   1      46.172  29.475  33.598  1.00  0.00     0.012 A 
ATOM     87  C   UNL A   1      45.239  27.497  34.667  1.00  0.00     0.148 A 
ATOM     88  C   UNL A   1      47.344  29.330  34.340  1.00  0.00     0.002 A 
ATOM     89  C   UNL A   1      46.392  27.386  35.435  1.00  0.00     0.091 A 
ATOM     90  F   UNL A   1      44.230  26.620  34.776  1.00  0.00    -0.205 F 
ATOM     91  C   UNL A   1      47.449  28.295  35.266  1.00  0.00     0.022 A 
BRANCH  89  92
ATOM     92  S   UNL A   1      46.576  26.137  36.714  1.00  0.00     0.127 S 
ATOM     93  O   UNL A   1      45.797  26.714  37.808  1.00  0.00    -0.237 OA
ATOM     94  O   UNL A   1      45.973  24.959  36.090  1.00  0.00    -0.237 OA
ATOM     95  O   UNL A   1      48.008  26.023  36.955  1.00  0.00    -0.744 OA
ENDBRANCH  89  92
ENDBRANCH  62  85
ENDBRANCH  36  37
ENDBRANCH  28  31
ENDBRANCH  26  27
ENDBRANCH   1  26
TORSDOF 16
ENDMDL
MODEL 3
REMARK VINA RESULT:     -11.7      5.602      8.285
REMARK SMILES NC(=O)c1ccc(C[N@H+]2CCC[C@@H](C(=O)NCCCNC(=O)c3ccc(-c4c5nc(c(-c6cccc(S(=O)(=O)[O-])c6F)c6ccc([nH]6)c(-c6cccc(S(=O)(=O)[O-])c6F)c6nc(c(-c7cccc(S(=O)(=O)[O-])c7F)c7ccc4[nH]7)C=C6)C=C5)cc3)C2)cc1
REMARK SMILES IDX 18 1 17 2 16 3 14 4 15 5 13 7 9 8 10 9 86 10 11 12 12 13
REMARK SMILES IDX 8 14 7 15 4 16 5 17 88 18 6 19 87 20 2 21 1 22 3 25 19 26
REMARK SMILES IDX 20 27 21 28 22 30 23 31 24 32 85 33 25 34 84 35 26 36 27 37
REMARK SMILES IDX 28 38 78 39 29 40 83 41 77 42 79 43 30 44 82 45 76 46 75 47
REMARK SMILES IDX 31 49 63 50 43 51 62 52 44 53 47 54 61 55 80 56 45 57 46 58
REMARK SMILES IDX 60 60 81 61 48 62 32 63 33 64 41 65 34 66 36 67 42 68 35 69
REMARK SMILES IDX 37 70 38 71 39 72 40 73 64 74 65 75 73 76 66 77 68 78 74 79
REMARK SMILES IDX 67 80 69 81 70 82 71 83 72 84 49 85 50 86 58 87 51 88 53 89
REMARK SMILES IDX 59 90 52 91 54 92 55 93 56 94 57 95
REMARK H PARENT 16 6 9 11 1 23 1 24 20 29 79 48 47 59
REMARK Flexibility Score: inf
ROOT
ATOM      1  C   UNL A   1      38.186  19.337  25.012  1.00  0.00     0.042 C 
ENDROOT
BRANCH   1   2
ATOM      2  C   UNL A   1      36.922  20.190  25.005  1.00  0.00     0.117 C 
BRANCH   2   3
ATOM      3  N   UNL A   1      37.186  21.577  25.372  1.00  0.00    -0.356 N 
ATOM      4  C   UNL A   1      36.619  22.747  24.959  1.00  0.00     0.228 C 
ATOM      5  O   UNL A   1      37.046  23.790  25.464  1.00  0.00    -0.275 OA
ATOM      6  H   UNL A   1      37.902  21.689  26.038  1.00  0.00     0.163 HD
BRANCH   4   7
ATOM      7  C   UNL A   1      35.484  22.796  23.941  1.00  0.00     0.133 C 
ATOM      8  N   UNL A   1      33.118  22.002  23.552  1.00  0.00    -0.331 N 
ATOM      9  C   UNL A   1      32.671  23.395  23.539  1.00  0.00     0.262 C 
ATOM     10  C   UNL A   1      34.355  21.829  24.327  1.00  0.00     0.276 C 
ATOM     11  H   UNL A   1      33.341  21.764  22.585  1.00  0.00     0.348 HD
ATOM     12  C   UNL A   1      33.731  24.285  22.893  1.00  0.00     0.062 C 
ATOM     13  C   UNL A   1      35.043  24.236  23.663  1.00  0.00     0.025 C 
BRANCH   8  14
ATOM     14  C   UNL A   1      32.054  21.056  23.960  1.00  0.00     0.299 C 
BRANCH  14  15
ATOM     15  C   UNL A   1      32.490  19.632  24.259  1.00  0.00     0.006 A 
ATOM     16  C   UNL A   1      33.094  16.955  24.827  1.00  0.00     0.039 A 
ATOM     17  C   UNL A   1      32.927  17.860  25.873  1.00  0.00     0.014 A 
ATOM     18  C   UNL A   1      33.014  17.378  23.499  1.00  0.00     0.014 A 
ATOM     19  C   UNL A   1      32.646  19.197  25.587  1.00  0.00     0.010 A 
ATOM     20  C   UNL A   1      32.709  18.713  23.218  1.00  0.00     0.010 A 
BRANCH  16  21
ATOM     21  C   UNL A   1      33.281  15.530  25.143  1.00  0.00     0.248 C 
ATOM     22  N   UNL A   1      32.144  14.807  25.331  1.00  0.00    -0.366 N 
ATOM     23  H   UNL A   1      32.199  13.848  25.545  1.00  0.00     0.159 HD
ATOM     24  H   UNL A   1      31.264  15.244  25.251  1.00  0.00     0.159 HD
ATOM     25  O   UNL A   1      34.405  15.044  25.220  1.00  0.00    -0.270 OA
ENDBRANCH  16  21
ENDBRANCH  14  15
ENDBRANCH   8  14
ENDBRANCH   4   7
ENDBRANCH   2   3
ENDBRANCH   1   2
BRANCH   1  26
ATOM     26  C   UNL A   1      39.379  19.988  25.696  1.00  0.00     0.118 C 
BRANCH  26  27
ATOM     27  N   UNL A   1      40.466  19.046  25.921  1.00  0.00    -0.352 N 
ATOM     28  C   UNL A   1      41.808  19.271  26.117  1.00  0.00     0.251 C 
ATOM     29  H   UNL A   1      40.197  18.100  25.933  1.00  0.00     0.163 HD
ATOM     30  O   UNL A   1      42.580  18.314  26.076  1.00  0.00    -0.269 OA
BRANCH  28  31
ATOM     31  C   UNL A   1      42.331  20.629  26.398  1.00  0.00     0.039 A 
ATOM     32  C   UNL A   1      42.510  21.023  27.728  1.00  0.00     0.014 A 
ATOM     33  C   UNL A   1      42.570  21.545  25.370  1.00  0.00     0.014 A 
ATOM     34  C   UNL A   1      42.960  22.315  28.022  1.00  0.00     0.010 A 
ATOM     35  C   UNL A   1      43.099  22.802  25.661  1.00  0.00     0.010 A 
ATOM     36  C   UNL A   1      43.278  23.212  26.990  1.00  0.00    -0.014 A 
BRANCH  36  37
ATOM     37  C   UNL A   1      43.782  24.584  27.272  1.00  0.00     0.031 A 
ATOM     38  C   UNL A   1      42.842  25.647  27.786  1.00  0.00     0.074 A 
ATOM     39  C   UNL A   1      45.059  24.904  26.984  1.00  0.00     0.049 A 
ATOM     40  N   UNL A   1      43.070  26.917  28.000  1.00  0.00    -0.248 NA
ATOM     41  C   UNL A   1      41.456  25.234  28.065  1.00  0.00     0.031 C 
ATOM     42  C   UNL A   1      46.053  23.991  26.415  1.00  0.00     0.029 A 
ATOM     43  N   UNL A   1      45.732  26.095  27.101  1.00  0.00    -0.354 N 
ATOM     44  C   UNL A   1      41.852  27.462  28.394  1.00  0.00     0.074 A 
ATOM     45  C   UNL A   1      40.881  26.391  28.361  1.00  0.00     0.031 C 
ATOM     46  C   UNL A   1      47.206  24.655  26.233  1.00  0.00     0.029 A 
ATOM     47  C   UNL A   1      47.029  26.045  26.646  1.00  0.00     0.049 A 
ATOM     48  H   UNL A   1      45.325  26.909  27.477  1.00  0.00     0.167 HD
ATOM     49  C   UNL A   1      41.571  28.730  28.782  1.00  0.00     0.034 A 
ATOM     50  C   UNL A   1      47.968  27.009  26.561  1.00  0.00     0.034 A 
ATOM     51  C   UNL A   1      42.551  29.777  28.884  1.00  0.00     0.049 A 
ATOM     52  C   UNL A   1      47.645  28.394  27.055  1.00  0.00     0.074 A 
ATOM     53  C   UNL A   1      42.383  31.067  29.360  1.00  0.00     0.029 A 
ATOM     54  N   UNL A   1      43.880  29.658  28.513  1.00  0.00    -0.354 N 
ATOM     55  N   UNL A   1      46.530  28.847  27.572  1.00  0.00    -0.248 NA
ATOM     56  C   UNL A   1      48.724  29.393  26.988  1.00  0.00     0.031 C 
ATOM     57  C   UNL A   1      43.612  31.730  29.268  1.00  0.00     0.029 A 
ATOM     58  C   UNL A   1      44.546  30.848  28.746  1.00  0.00     0.049 A 
ATOM     59  H   UNL A   1      44.290  28.844  28.140  1.00  0.00     0.167 HD
ATOM     60  C   UNL A   1      46.780  30.169  27.923  1.00  0.00     0.074 A 
ATOM     61  C   UNL A   1      48.162  30.438  27.581  1.00  0.00     0.031 C 
ATOM     62  C   UNL A   1      45.937  31.084  28.461  1.00  0.00     0.034 A 
BRANCH  49  63
ATOM     63  C   UNL A   1      40.156  29.041  29.196  1.00  0.00     0.023 A 
ATOM     64  C   UNL A   1      39.186  29.292  28.204  1.00  0.00     0.012 A 
ATOM     65  C   UNL A   1      39.770  29.019  30.550  1.00  0.00     0.148 A 
ATOM     66  C   UNL A   1      37.861  29.545  28.553  1.00  0.00     0.002 A 
ATOM     67  C   UNL A   1      38.438  29.233  30.888  1.00  0.00     0.091 A 
ATOM     68  F   UNL A   1      40.709  28.799  31.481  1.00  0.00    -0.205 F 
ATOM     69  C   UNL A   1      37.485  29.506  29.893  1.00  0.00     0.022 A 
BRANCH  67  70
ATOM     70  S   UNL A   1      37.838  29.127  32.579  1.00  0.00     0.127 S 
ATOM     71  O   UNL A   1      37.972  27.697  32.851  1.00  0.00    -0.237 OA
ATOM     72  O   UNL A   1      38.788  29.976  33.298  1.00  0.00    -0.237 OA
ATOM     73  O   UNL A   1      36.472  29.634  32.552  1.00  0.00    -0.744 OA
ENDBRANCH  67  70
ENDBRANCH  49  63
BRANCH  50  74
ATOM     74  C   UNL A   1      49.331  26.676  26.059  1.00  0.00     0.023 A 
ATOM     75  C   UNL A   1      50.177  25.872  26.848  1.00  0.00     0.012 A 
ATOM     76  C   UNL A   1      49.782  27.116  24.800  1.00  0.00     0.148 A 
ATOM     77  C   UNL A   1      51.459  25.540  26.408  1.00  0.00     0.002 A 
ATOM     78  C   UNL A   1      51.037  26.731  24.341  1.00  0.00     0.091 A 
ATOM     79  F   UNL A   1      48.971  27.893  24.068  1.00  0.00    -0.205 F 
ATOM     80  C   UNL A   1      51.885  25.959  25.151  1.00  0.00     0.022 A 
BRANCH  78  81
ATOM     81  S   UNL A   1      51.603  27.098  22.675  1.00  0.00     0.127 S 
ATOM     82  O   UNL A   1      51.849  28.534  22.750  1.00  0.00    -0.237 OA
ATOM     83  O   UNL A   1      52.804  26.268  22.572  1.00  0.00    -0.237 OA
ATOM     84  O   UNL A   1      50.519  26.680  21.796  1.00  0.00    -0.744 OA
ENDBRANCH  78  81
ENDBRANCH  50  74
BRANCH  62  85
ATOM     85  C   UNL A   1      46.483  32.458  28.747  1.00  0.00     0.023 A 
ATOM     86  C   UNL A   1      47.173  32.695  29.953  1.00  0.00     0.012 A 
ATOM     87  C   UNL A   1      46.388  33.488  27.790  1.00  0.00     0.148 A 
ATOM     88  C   UNL A   1      47.734  33.945  30.214  1.00  0.00     0.002 A 
ATOM     89  C   UNL A   1      46.989  34.716  28.038  1.00  0.00     0.091 A 
ATOM     90  F   UNL A   1      45.711  33.249  26.657  1.00  0.00    -0.205 F 
ATOM     91  C   UNL A   1      47.653  34.950  29.253  1.00  0.00     0.022 A 
BRANCH  89  92
ATOM     92  S   UNL A   1      47.011  36.037  26.820  1.00  0.00     0.127 S 
ATOM     93  O   UNL A   1      47.804  37.058  27.501  1.00  0.00    -0.237 OA
ATOM     94  O   UNL A   1      47.679  35.403  25.683  1.00  0.00    -0.237 OA
ATOM     95  O   UNL A   1      45.616  36.382  26.581  1.00  0.00    -0.744 OA
ENDBRANCH  89  92
ENDBRANCH  62  85
ENDBRANCH  36  37
ENDBRANCH  28  31
ENDBRANCH  26  27
ENDBRANCH   1  26
TORSDOF 16
ENDMDL
