MODEL 1
REMARK VINA RESULT:     -13.0      0.000      0.000
REMARK SMILES CS(=O)(=O)c1ccc(C2=NN(c3ccc(C(=O)NCCCNC(=O)c4ccc(-c5c6nc(c(-c7cccc(S(=O)(=O)[O-])c7F)c7ccc([nH]7)c(-c7cccc(S(=O)(=O)[O-])c7F)c7nc(c(-c8cccc(S(=O)(=O)[O-])c8F)c8ccc5[nH]8)C=C7)C=C6)cc4)cc3)[C@H](c3ccc(F)cc3)C2)cc1
REMARK SMILES IDX 20 1 19 2 18 3 16 4 17 5 15 7 12 8 13 9 89 10 14 11 88 12
REMARK SMILES IDX 11 13 9 14 10 15 98 16 90 17 8 18 5 19 6 20 100 21 7 22
REMARK SMILES IDX 99 23 2 24 1 25 3 26 4 27 91 28 92 29 97 30 93 31 96 32
REMARK SMILES IDX 94 33 95 34 21 35 22 36 23 37 24 39 25 40 26 41 87 42 27 43
REMARK SMILES IDX 86 44 28 45 29 46 30 47 80 48 31 49 85 50 79 51 81 52 32 53
REMARK SMILES IDX 84 54 78 55 77 56 33 58 65 59 45 60 64 61 46 62 49 63 63 64
REMARK SMILES IDX 82 65 47 66 48 67 62 69 83 70 50 71 34 72 35 73 43 74 36 75
REMARK SMILES IDX 38 76 44 77 37 78 39 79 40 80 41 81 42 82 66 83 67 84 75 85
REMARK SMILES IDX 68 86 70 87 76 88 69 89 71 90 72 91 73 92 74 93 51 94 52 95
REMARK SMILES IDX 60 96 53 97 55 98 61 99 54 100 56 101 57 102 58 103 59 104
REMARK H PARENT 18 6 22 38 81 57 49 68
REMARK Flexibility Score: inf
ROOT
ATOM      1  C   UNL A   1      32.138  33.475  27.277  1.00  0.00     0.042 C 
ENDROOT
BRANCH   1   2
ATOM      2  C   UNL A   1      32.372  31.980  27.077  1.00  0.00     0.118 C 
BRANCH   2   3
ATOM      3  N   UNL A   1      33.582  31.523  27.740  1.00  0.00    -0.352 N 
ATOM      4  C   UNL A   1      34.241  30.319  27.681  1.00  0.00     0.251 C 
ATOM      5  O   UNL A   1      35.355  30.233  28.196  1.00  0.00    -0.269 OA
ATOM      6  H   UNL A   1      34.002  32.190  28.331  1.00  0.00     0.163 HD
BRANCH   4   7
ATOM      7  C   UNL A   1      33.681  29.146  26.960  1.00  0.00     0.039 A 
ATOM      8  C   UNL A   1      32.672  26.980  25.468  1.00  0.00     0.060 A 
ATOM      9  C   UNL A   1      33.827  27.649  25.052  1.00  0.00     0.029 A 
ATOM     10  C   UNL A   1      32.072  27.362  26.670  1.00  0.00     0.029 A 
ATOM     11  C   UNL A   1      34.330  28.726  25.792  1.00  0.00     0.016 A 
ATOM     12  C   UNL A   1      32.581  28.424  27.419  1.00  0.00     0.016 A 
BRANCH   8  13
ATOM     13  N   UNL A   1      32.095  25.968  24.712  1.00  0.00    -0.257 N 
ATOM     14  C   UNL A   1      32.171  24.012  23.891  1.00  0.00     0.071 C 
ATOM     15  N   UNL A   1      32.437  24.682  24.965  1.00  0.00    -0.176 NA
ATOM     16  C   UNL A   1      31.694  24.816  22.713  1.00  0.00     0.091 C 
ATOM     17  C   UNL A   1      31.612  26.212  23.351  1.00  0.00     0.144 C 
BRANCH  14  18
ATOM     18  C   UNL A   1      32.308  22.550  23.826  1.00  0.00    -0.002 A 
ATOM     19  C   UNL A   1      32.573  19.785  23.805  1.00  0.00     0.067 A 
ATOM     20  C   UNL A   1      32.843  20.491  24.979  1.00  0.00     0.021 A 
ATOM     21  C   UNL A   1      32.178  20.455  22.639  1.00  0.00     0.021 A 
ATOM     22  C   UNL A   1      32.727  21.881  24.982  1.00  0.00     0.011 A 
ATOM     23  C   UNL A   1      32.033  21.845  22.653  1.00  0.00     0.011 A 
BRANCH  19  24
ATOM     24  S   UNL A   1      32.719  18.013  23.780  1.00  0.00     0.175 S 
ATOM     25  C   UNL A   1      34.406  17.667  24.201  1.00  0.00     0.163 C 
ATOM     26  O   UNL A   1      32.523  17.584  22.411  1.00  0.00    -0.224 OA
ATOM     27  O   UNL A   1      31.866  17.515  24.846  1.00  0.00    -0.224 OA
ENDBRANCH  19  24
ENDBRANCH  14  18
BRANCH  17  28
ATOM     28  C   UNL A   1      30.251  26.899  23.385  1.00  0.00    -0.023 A 
ATOM     29  C   UNL A   1      30.002  28.162  22.823  1.00  0.00     0.009 A 
ATOM     30  C   UNL A   1      29.160  26.196  23.941  1.00  0.00     0.009 A 
ATOM     31  C   UNL A   1      28.715  28.714  22.844  1.00  0.00     0.039 A 
ATOM     32  C   UNL A   1      27.874  26.736  23.941  1.00  0.00     0.039 A 
ATOM     33  C   UNL A   1      27.665  27.995  23.400  1.00  0.00     0.123 A 
ATOM     34  F   UNL A   1      26.434  28.521  23.407  1.00  0.00    -0.207 F 
ENDBRANCH  17  28
ENDBRANCH   8  13
ENDBRANCH   4   7
ENDBRANCH   2   3
ENDBRANCH   1   2
BRANCH   1  35
ATOM     35  C   UNL A   1      33.324  34.207  27.894  1.00  0.00     0.118 C 
BRANCH  35  36
ATOM     36  N   UNL A   1      32.926  35.080  28.990  1.00  0.00    -0.352 N 
ATOM     37  C   UNL A   1      33.338  35.075  30.302  1.00  0.00     0.251 C 
ATOM     38  H   UNL A   1      32.267  35.774  28.758  1.00  0.00     0.163 HD
ATOM     39  O   UNL A   1      32.746  35.769  31.125  1.00  0.00    -0.269 OA
BRANCH  37  40
ATOM     40  C   UNL A   1      34.475  34.229  30.726  1.00  0.00     0.039 A 
ATOM     41  C   UNL A   1      35.770  34.586  30.337  1.00  0.00     0.014 A 
ATOM     42  C   UNL A   1      34.268  33.079  31.493  1.00  0.00     0.014 A 
ATOM     43  C   UNL A   1      36.862  33.828  30.772  1.00  0.00     0.010 A 
ATOM     44  C   UNL A   1      35.359  32.364  31.978  1.00  0.00     0.010 A 
ATOM     45  C   UNL A   1      36.666  32.729  31.623  1.00  0.00    -0.014 A 
BRANCH  45  46
ATOM     46  C   UNL A   1      37.803  31.946  32.172  1.00  0.00     0.031 A 
ATOM     47  C   UNL A   1      38.407  32.326  33.496  1.00  0.00     0.074 A 
ATOM     48  C   UNL A   1      38.370  30.978  31.423  1.00  0.00     0.049 A 
ATOM     49  N   UNL A   1      39.487  31.866  34.074  1.00  0.00    -0.248 NA
ATOM     50  C   UNL A   1      37.723  33.384  34.258  1.00  0.00     0.031 C 
ATOM     51  C   UNL A   1      37.917  30.563  30.093  1.00  0.00     0.029 A 
ATOM     52  N   UNL A   1      39.475  30.197  31.655  1.00  0.00    -0.354 N 
ATOM     53  C   UNL A   1      39.639  32.608  35.239  1.00  0.00     0.074 A 
ATOM     54  C   UNL A   1      38.550  33.562  35.278  1.00  0.00     0.031 C 
ATOM     55  C   UNL A   1      38.742  29.613  29.625  1.00  0.00     0.029 A 
ATOM     56  C   UNL A   1      39.800  29.376  30.601  1.00  0.00     0.049 A 
ATOM     57  H   UNL A   1      39.985  30.223  32.497  1.00  0.00     0.167 HD
ATOM     58  C   UNL A   1      40.583  32.490  36.203  1.00  0.00     0.034 A 
ATOM     59  C   UNL A   1      40.842  28.537  30.432  1.00  0.00     0.034 A 
ATOM     60  C   UNL A   1      41.629  31.504  36.188  1.00  0.00     0.049 A 
ATOM     61  C   UNL A   1      41.850  28.391  31.541  1.00  0.00     0.074 A 
ATOM     62  C   UNL A   1      42.581  31.246  37.158  1.00  0.00     0.029 A 
ATOM     63  N   UNL A   1      41.860  30.613  35.152  1.00  0.00    -0.354 N 
ATOM     64  N   UNL A   1      41.892  28.998  32.701  1.00  0.00    -0.248 NA
ATOM     65  C   UNL A   1      42.934  27.420  31.331  1.00  0.00     0.031 C 
ATOM     66  C   UNL A   1      43.394  30.202  36.703  1.00  0.00     0.029 A 
ATOM     67  C   UNL A   1      42.940  29.802  35.457  1.00  0.00     0.049 A 
ATOM     68  H   UNL A   1      41.334  30.563  34.321  1.00  0.00     0.167 HD
ATOM     69  C   UNL A   1      42.981  28.458  33.375  1.00  0.00     0.074 A 
ATOM     70  C   UNL A   1      43.563  27.462  32.499  1.00  0.00     0.031 C 
ATOM     71  C   UNL A   1      43.465  28.768  34.603  1.00  0.00     0.034 A 
BRANCH  58  72
ATOM     72  C   UNL A   1      40.492  33.413  37.390  1.00  0.00     0.023 A 
ATOM     73  C   UNL A   1      41.252  34.601  37.401  1.00  0.00     0.012 A 
ATOM     74  C   UNL A   1      39.618  33.142  38.461  1.00  0.00     0.148 A 
ATOM     75  C   UNL A   1      41.170  35.488  38.474  1.00  0.00     0.002 A 
ATOM     76  C   UNL A   1      39.511  34.052  39.508  1.00  0.00     0.091 A 
ATOM     77  F   UNL A   1      38.920  31.998  38.444  1.00  0.00    -0.205 F 
ATOM     78  C   UNL A   1      40.292  35.218  39.521  1.00  0.00     0.022 A 
BRANCH  76  79
ATOM     79  S   UNL A   1      38.353  33.830  40.864  1.00  0.00     0.127 S 
ATOM     80  O   UNL A   1      38.381  35.148  41.494  1.00  0.00    -0.237 OA
ATOM     81  O   UNL A   1      37.108  33.518  40.161  1.00  0.00    -0.237 OA
ATOM     82  O   UNL A   1      38.883  32.737  41.667  1.00  0.00    -0.744 OA
ENDBRANCH  76  79
ENDBRANCH  58  72
BRANCH  59  83
ATOM     83  C   UNL A   1      40.941  27.716  29.192  1.00  0.00     0.023 A 
ATOM     84  C   UNL A   1      40.152  26.555  29.076  1.00  0.00     0.012 A 
ATOM     85  C   UNL A   1      41.771  28.093  28.120  1.00  0.00     0.148 A 
ATOM     86  C   UNL A   1      40.210  25.768  27.925  1.00  0.00     0.002 A 
ATOM     87  C   UNL A   1      41.785  27.333  26.954  1.00  0.00     0.091 A 
ATOM     88  F   UNL A   1      42.524  29.193  28.254  1.00  0.00    -0.205 F 
ATOM     89  C   UNL A   1      41.017  26.162  26.861  1.00  0.00     0.022 A 
BRANCH  87  90
ATOM     90  S   UNL A   1      42.692  27.839  25.488  1.00  0.00     0.127 S 
ATOM     91  O   UNL A   1      42.587  26.651  24.646  1.00  0.00    -0.237 OA
ATOM     92  O   UNL A   1      41.914  28.990  25.030  1.00  0.00    -0.237 OA
ATOM     93  O   UNL A   1      44.031  28.173  25.955  1.00  0.00    -0.744 OA
ENDBRANCH  87  90
ENDBRANCH  59  83
BRANCH  71  94
ATOM     94  C   UNL A   1      44.659  28.000  35.103  1.00  0.00     0.023 A 
ATOM     95  C   UNL A   1      45.957  28.470  34.823  1.00  0.00     0.012 A 
ATOM     96  C   UNL A   1      44.492  26.870  35.927  1.00  0.00     0.148 A 
ATOM     97  C   UNL A   1      47.073  27.812  35.339  1.00  0.00     0.002 A 
ATOM     98  C   UNL A   1      45.606  26.246  36.473  1.00  0.00     0.091 A 
ATOM     99  F   UNL A   1      43.247  26.429  36.163  1.00  0.00    -0.205 F 
ATOM    100  C   UNL A   1      46.897  26.710  36.175  1.00  0.00     0.022 A 
BRANCH  98 101
ATOM    101  S   UNL A   1      45.471  24.879  37.632  1.00  0.00     0.127 S 
ATOM    102  O   UNL A   1      46.867  24.672  38.013  1.00  0.00    -0.237 OA
ATOM    103  O   UNL A   1      44.629  25.446  38.686  1.00  0.00    -0.237 OA
ATOM    104  O   UNL A   1      44.855  23.786  36.891  1.00  0.00    -0.744 OA
ENDBRANCH  98 101
ENDBRANCH  71  94
ENDBRANCH  45  46
ENDBRANCH  37  40
ENDBRANCH  35  36
ENDBRANCH   1  35
TORSDOF 17
ENDMDL
MODEL 2
REMARK VINA RESULT:     -12.5      6.317     10.794
REMARK SMILES CS(=O)(=O)c1ccc(C2=NN(c3ccc(C(=O)NCCCNC(=O)c4ccc(-c5c6nc(c(-c7cccc(S(=O)(=O)[O-])c7F)c7ccc([nH]7)c(-c7cccc(S(=O)(=O)[O-])c7F)c7nc(c(-c8cccc(S(=O)(=O)[O-])c8F)c8ccc5[nH]8)C=C7)C=C6)cc4)cc3)[C@H](c3ccc(F)cc3)C2)cc1
REMARK SMILES IDX 20 1 19 2 18 3 16 4 17 5 15 7 12 8 13 9 89 10 14 11 88 12
REMARK SMILES IDX 11 13 9 14 10 15 98 16 90 17 8 18 5 19 6 20 100 21 7 22
REMARK SMILES IDX 99 23 2 24 1 25 3 26 4 27 91 28 92 29 97 30 93 31 96 32
REMARK SMILES IDX 94 33 95 34 21 35 22 36 23 37 24 39 25 40 26 41 87 42 27 43
REMARK SMILES IDX 86 44 28 45 29 46 30 47 80 48 31 49 85 50 79 51 81 52 32 53
REMARK SMILES IDX 84 54 78 55 77 56 33 58 65 59 45 60 64 61 46 62 49 63 63 64
REMARK SMILES IDX 82 65 47 66 48 67 62 69 83 70 50 71 34 72 35 73 43 74 36 75
REMARK SMILES IDX 38 76 44 77 37 78 39 79 40 80 41 81 42 82 66 83 67 84 75 85
REMARK SMILES IDX 68 86 70 87 76 88 69 89 71 90 72 91 73 92 74 93 51 94 52 95
REMARK SMILES IDX 60 96 53 97 55 98 61 99 54 100 56 101 57 102 58 103 59 104
REMARK H PARENT 18 6 22 38 81 57 49 68
REMARK Flexibility Score: inf
ROOT
ATOM      1  C   UNL A   1      40.072  19.613  25.940  1.00  0.00     0.042 C 
ENDROOT
BRANCH   1   2
ATOM      2  C   UNL A   1      38.977  20.634  25.644  1.00  0.00     0.118 C 
BRANCH   2   3
ATOM      3  N   UNL A   1      39.408  21.994  25.923  1.00  0.00    -0.352 N 
ATOM      4  C   UNL A   1      38.701  23.171  25.972  1.00  0.00     0.251 C 
ATOM      5  O   UNL A   1      39.261  24.175  26.411  1.00  0.00    -0.269 OA
ATOM      6  H   UNL A   1      40.371  22.088  26.109  1.00  0.00     0.163 HD
BRANCH   4   7
ATOM      7  C   UNL A   1      37.271  23.250  25.577  1.00  0.00     0.039 A 
ATOM      8  C   UNL A   1      34.600  23.468  24.708  1.00  0.00     0.060 A 
ATOM      9  C   UNL A   1      35.642  23.377  23.780  1.00  0.00     0.029 A 
ATOM     10  C   UNL A   1      34.905  23.380  26.067  1.00  0.00     0.029 A 
ATOM     11  C   UNL A   1      36.969  23.269  24.210  1.00  0.00     0.016 A 
ATOM     12  C   UNL A   1      36.225  23.254  26.500  1.00  0.00     0.016 A 
BRANCH   8  13
ATOM     13  N   UNL A   1      33.283  23.668  24.317  1.00  0.00    -0.257 N 
ATOM     14  C   UNL A   1      31.602  24.946  24.093  1.00  0.00     0.071 C 
ATOM     15  N   UNL A   1      32.887  24.910  23.949  1.00  0.00    -0.176 NA
ATOM     16  C   UNL A   1      30.971  23.719  24.691  1.00  0.00     0.091 C 
ATOM     17  C   UNL A   1      32.203  22.806  24.801  1.00  0.00     0.144 C 
BRANCH  14  18
ATOM     18  C   UNL A   1      30.801  26.107  23.683  1.00  0.00    -0.002 A 
ATOM     19  C   UNL A   1      29.215  28.276  22.978  1.00  0.00     0.067 A 
ATOM     20  C   UNL A   1      28.676  27.262  23.773  1.00  0.00     0.021 A 
ATOM     21  C   UNL A   1      30.540  28.208  22.527  1.00  0.00     0.021 A 
ATOM     22  C   UNL A   1      29.468  26.166  24.110  1.00  0.00     0.011 A 
ATOM     23  C   UNL A   1      31.341  27.123  22.892  1.00  0.00     0.011 A 
BRANCH  19  24
ATOM     24  S   UNL A   1      28.219  29.681  22.533  1.00  0.00     0.175 S 
ATOM     25  C   UNL A   1      28.842  31.033  23.496  1.00  0.00     0.163 C 
ATOM     26  O   UNL A   1      26.870  29.416  22.991  1.00  0.00    -0.224 OA
ATOM     27  O   UNL A   1      28.489  29.949  21.131  1.00  0.00    -0.224 OA
ENDBRANCH  19  24
ENDBRANCH  14  18
BRANCH  17  28
ATOM     28  C   UNL A   1      32.184  21.493  24.026  1.00  0.00    -0.023 A 
ATOM     29  C   UNL A   1      31.977  21.409  22.639  1.00  0.00     0.009 A 
ATOM     30  C   UNL A   1      32.471  20.299  24.724  1.00  0.00     0.009 A 
ATOM     31  C   UNL A   1      32.022  20.175  21.981  1.00  0.00     0.039 A 
ATOM     32  C   UNL A   1      32.539  19.072  24.064  1.00  0.00     0.039 A 
ATOM     33  C   UNL A   1      32.305  19.020  22.698  1.00  0.00     0.123 A 
ATOM     34  F   UNL A   1      32.361  17.842  22.063  1.00  0.00    -0.207 F 
ENDBRANCH  17  28
ENDBRANCH   8  13
ENDBRANCH   4   7
ENDBRANCH   2   3
ENDBRANCH   1   2
BRANCH   1  35
ATOM     35  C   UNL A   1      41.442  20.234  26.193  1.00  0.00     0.118 C 
BRANCH  35  36
ATOM     36  N   UNL A   1      42.490  19.604  25.400  1.00  0.00    -0.352 N 
ATOM     37  C   UNL A   1      43.653  20.146  24.907  1.00  0.00     0.251 C 
ATOM     38  H   UNL A   1      42.344  18.654  25.187  1.00  0.00     0.163 HD
ATOM     39  O   UNL A   1      44.322  19.509  24.097  1.00  0.00    -0.269 OA
BRANCH  37  40
ATOM     40  C   UNL A   1      44.091  21.493  25.334  1.00  0.00     0.039 A 
ATOM     41  C   UNL A   1      43.853  22.585  24.493  1.00  0.00     0.014 A 
ATOM     42  C   UNL A   1      44.749  21.681  26.553  1.00  0.00     0.014 A 
ATOM     43  C   UNL A   1      44.214  23.872  24.903  1.00  0.00     0.010 A 
ATOM     44  C   UNL A   1      45.049  22.969  26.987  1.00  0.00     0.010 A 
ATOM     45  C   UNL A   1      44.786  24.077  26.168  1.00  0.00    -0.014 A 
BRANCH  45  46
ATOM     46  C   UNL A   1      45.110  25.436  26.675  1.00  0.00     0.031 A 
ATOM     47  C   UNL A   1      44.011  26.331  27.179  1.00  0.00     0.074 A 
ATOM     48  C   UNL A   1      46.369  25.906  26.563  1.00  0.00     0.049 A 
ATOM     49  N   UNL A   1      44.066  27.592  27.523  1.00  0.00    -0.248 NA
ATOM     50  C   UNL A   1      42.667  25.739  27.283  1.00  0.00     0.031 C 
ATOM     51  C   UNL A   1      47.507  25.158  26.027  1.00  0.00     0.029 A 
ATOM     52  N   UNL A   1      46.891  27.142  26.854  1.00  0.00    -0.354 N 
ATOM     53  C   UNL A   1      42.762  27.957  27.836  1.00  0.00     0.074 A 
ATOM     54  C   UNL A   1      41.934  26.788  27.624  1.00  0.00     0.031 C 
ATOM     55  C   UNL A   1      48.590  25.951  26.018  1.00  0.00     0.029 A 
ATOM     56  C   UNL A   1      48.217  27.273  26.513  1.00  0.00     0.049 A 
ATOM     57  H   UNL A   1      46.367  27.865  27.268  1.00  0.00     0.167 HD
ATOM     58  C   UNL A   1      42.298  29.147  28.285  1.00  0.00     0.034 A 
ATOM     59  C   UNL A   1      49.039  28.340  26.577  1.00  0.00     0.034 A 
ATOM     60  C   UNL A   1      43.133  30.288  28.548  1.00  0.00     0.049 A 
ATOM     61  C   UNL A   1      48.508  29.638  27.124  1.00  0.00     0.074 A 
ATOM     62  C   UNL A   1      42.773  31.511  29.086  1.00  0.00     0.029 A 
ATOM     63  N   UNL A   1      44.494  30.346  28.295  1.00  0.00    -0.354 N 
ATOM     64  N   UNL A   1      47.303  29.920  27.554  1.00  0.00    -0.248 NA
ATOM     65  C   UNL A   1      49.458  30.755  27.228  1.00  0.00     0.031 C 
ATOM     66  C   UNL A   1      43.918  32.313  29.149  1.00  0.00     0.029 A 
ATOM     67  C   UNL A   1      44.992  31.584  28.665  1.00  0.00     0.049 A 
ATOM     68  H   UNL A   1      45.030  29.615  27.908  1.00  0.00     0.167 HD
ATOM     69  C   UNL A   1      47.357  31.231  28.014  1.00  0.00     0.074 A 
ATOM     70  C   UNL A   1      48.721  31.683  27.824  1.00  0.00     0.031 C 
ATOM     71  C   UNL A   1      46.366  31.996  28.533  1.00  0.00     0.034 A 
BRANCH  58  72
ATOM     72  C   UNL A   1      40.826  29.260  28.580  1.00  0.00     0.023 A 
ATOM     73  C   UNL A   1      39.920  29.449  27.515  1.00  0.00     0.012 A 
ATOM     74  C   UNL A   1      40.331  29.121  29.891  1.00  0.00     0.148 A 
ATOM     75  C   UNL A   1      38.549  29.532  27.754  1.00  0.00     0.002 A 
ATOM     76  C   UNL A   1      38.959  29.163  30.116  1.00  0.00     0.091 A 
ATOM     77  F   UNL A   1      41.207  28.965  30.894  1.00  0.00    -0.205 F 
ATOM     78  C   UNL A   1      38.068  29.378  29.052  1.00  0.00     0.022 A 
BRANCH  76  79
ATOM     79  S   UNL A   1      38.239  28.900  31.741  1.00  0.00     0.127 S 
ATOM     80  O   UNL A   1      36.815  29.089  31.468  1.00  0.00    -0.237 OA
ATOM     81  O   UNL A   1      38.625  27.519  32.032  1.00  0.00    -0.237 OA
ATOM     82  O   UNL A   1      38.848  29.894  32.614  1.00  0.00    -0.744 OA
ENDBRANCH  76  79
ENDBRANCH  58  72
BRANCH  59  83
ATOM     83  C   UNL A   1      50.468  28.203  26.178  1.00  0.00     0.023 A 
ATOM     84  C   UNL A   1      51.444  28.031  27.178  1.00  0.00     0.012 A 
ATOM     85  C   UNL A   1      50.861  28.201  24.826  1.00  0.00     0.148 A 
ATOM     86  C   UNL A   1      52.790  27.887  26.842  1.00  0.00     0.002 A 
ATOM     87  C   UNL A   1      52.199  28.005  24.495  1.00  0.00     0.091 A 
ATOM     88  F   UNL A   1      49.921  28.380  23.889  1.00  0.00    -0.205 F 
ATOM     89  C   UNL A   1      53.166  27.864  25.501  1.00  0.00     0.022 A 
BRANCH  87  90
ATOM     90  S   UNL A   1      52.751  27.829  22.794  1.00  0.00     0.127 S 
ATOM     91  O   UNL A   1      54.192  27.662  22.963  1.00  0.00    -0.237 OA
ATOM     92  O   UNL A   1      52.037  26.626  22.364  1.00  0.00    -0.237 OA
ATOM     93  O   UNL A   1      52.325  29.048  22.118  1.00  0.00    -0.744 OA
ENDBRANCH  87  90
ENDBRANCH  59  83
BRANCH  71  94
ATOM     94  C   UNL A   1      46.714  33.391  28.976  1.00  0.00     0.023 A 
ATOM     95  C   UNL A   1      47.248  33.601  30.262  1.00  0.00     0.012 A 
ATOM     96  C   UNL A   1      46.599  34.477  28.086  1.00  0.00     0.148 A 
ATOM     97  C   UNL A   1      47.644  34.877  30.663  1.00  0.00     0.002 A 
ATOM     98  C   UNL A   1      47.036  35.736  28.476  1.00  0.00     0.091 A 
ATOM     99  F   UNL A   1      46.069  34.257  26.873  1.00  0.00    -0.205 F 
ATOM    100  C   UNL A   1      47.551  35.940  29.766  1.00  0.00     0.022 A 
BRANCH  98 101
ATOM    101  S   UNL A   1      47.041  37.143  27.357  1.00  0.00     0.127 S 
ATOM    102  O   UNL A   1      47.834  36.632  26.240  1.00  0.00    -0.237 OA
ATOM    103  O   UNL A   1      45.617  37.314  27.067  1.00  0.00    -0.237 OA
ATOM    104  O   UNL A   1      47.641  38.243  28.100  1.00  0.00    -0.744 OA
ENDBRANCH  98 101
ENDBRANCH  71  94
ENDBRANCH  45  46
ENDBRANCH  37  40
ENDBRANCH  35  36
ENDBRANCH   1  35
TORSDOF 17
ENDMDL
MODEL 3
REMARK VINA RESULT:     -12.4      1.671      2.038
REMARK SMILES CS(=O)(=O)c1ccc(C2=NN(c3ccc(C(=O)NCCCNC(=O)c4ccc(-c5c6nc(c(-c7cccc(S(=O)(=O)[O-])c7F)c7ccc([nH]7)c(-c7cccc(S(=O)(=O)[O-])c7F)c7nc(c(-c8cccc(S(=O)(=O)[O-])c8F)c8ccc5[nH]8)C=C7)C=C6)cc4)cc3)[C@H](c3ccc(F)cc3)C2)cc1
REMARK SMILES IDX 20 1 19 2 18 3 16 4 17 5 15 7 12 8 13 9 89 10 14 11 88 12
REMARK SMILES IDX 11 13 9 14 10 15 98 16 90 17 8 18 5 19 6 20 100 21 7 22
REMARK SMILES IDX 99 23 2 24 1 25 3 26 4 27 91 28 92 29 97 30 93 31 96 32
REMARK SMILES IDX 94 33 95 34 21 35 22 36 23 37 24 39 25 40 26 41 87 42 27 43
REMARK SMILES IDX 86 44 28 45 29 46 30 47 80 48 31 49 85 50 79 51 81 52 32 53
REMARK SMILES IDX 84 54 78 55 77 56 33 58 65 59 45 60 64 61 46 62 49 63 63 64
REMARK SMILES IDX 82 65 47 66 48 67 62 69 83 70 50 71 34 72 35 73 43 74 36 75
REMARK SMILES IDX 38 76 44 77 37 78 39 79 40 80 41 81 42 82 66 83 67 84 75 85
REMARK SMILES IDX 68 86 70 87 76 88 69 89 71 90 72 91 73 92 74 93 51 94 52 95
REMARK SMILES IDX 60 96 53 97 55 98 61 99 54 100 56 101 57 102 58 103 59 104
REMARK H PARENT 18 6 22 38 81 57 49 68
REMARK Flexibility Score: inf
ROOT
ATOM      1  C   UNL A   1      32.118  33.215  27.170  1.00  0.00     0.042 C 
ENDROOT
BRANCH   1   2
ATOM      2  C   UNL A   1      32.307  31.702  27.236  1.00  0.00     0.118 C 
BRANCH   2   3
ATOM      3  N   UNL A   1      33.641  31.338  27.685  1.00  0.00    -0.352 N 
ATOM      4  C   UNL A   1      34.394  30.212  27.453  1.00  0.00     0.251 C 
ATOM      5  O   UNL A   1      35.575  30.214  27.796  1.00  0.00    -0.269 OA
ATOM      6  H   UNL A   1      34.080  32.012  28.253  1.00  0.00     0.163 HD
BRANCH   4   7
ATOM      7  C   UNL A   1      33.844  29.028  26.743  1.00  0.00     0.039 A 
ATOM      8  C   UNL A   1      32.832  26.849  25.272  1.00  0.00     0.060 A 
ATOM      9  C   UNL A   1      33.855  27.644  24.746  1.00  0.00     0.029 A 
ATOM     10  C   UNL A   1      32.374  27.114  26.564  1.00  0.00     0.029 A 
ATOM     11  C   UNL A   1      34.359  28.727  25.476  1.00  0.00     0.016 A 
ATOM     12  C   UNL A   1      32.886  28.182  27.301  1.00  0.00     0.016 A 
BRANCH   8  13
ATOM     13  N   UNL A   1      32.247  25.824  24.539  1.00  0.00    -0.257 N 
ATOM     14  C   UNL A   1      32.309  23.850  23.762  1.00  0.00     0.071 C 
ATOM     15  N   UNL A   1      32.581  24.542  24.820  1.00  0.00    -0.176 NA
ATOM     16  C   UNL A   1      31.834  24.630  22.567  1.00  0.00     0.091 C 
ATOM     17  C   UNL A   1      31.763  26.041  23.175  1.00  0.00     0.144 C 
BRANCH  14  18
ATOM     18  C   UNL A   1      32.437  22.386  23.729  1.00  0.00    -0.002 A 
ATOM     19  C   UNL A   1      32.699  19.621  23.768  1.00  0.00     0.067 A 
ATOM     20  C   UNL A   1      33.140  20.367  24.863  1.00  0.00     0.021 A 
ATOM     21  C   UNL A   1      32.135  20.251  22.650  1.00  0.00     0.021 A 
ATOM     22  C   UNL A   1      33.024  21.756  24.833  1.00  0.00     0.011 A 
ATOM     23  C   UNL A   1      31.992  21.641  22.636  1.00  0.00     0.011 A 
BRANCH  19  24
ATOM     24  S   UNL A   1      32.842  17.849  23.784  1.00  0.00     0.175 S 
ATOM     25  C   UNL A   1      34.525  17.509  24.229  1.00  0.00     0.163 C 
ATOM     26  O   UNL A   1      32.658  17.389  22.423  1.00  0.00    -0.224 OA
ATOM     27  O   UNL A   1      31.978  17.376  24.853  1.00  0.00    -0.224 OA
ENDBRANCH  19  24
ENDBRANCH  14  18
BRANCH  17  28
ATOM     28  C   UNL A   1      30.406  26.736  23.197  1.00  0.00    -0.023 A 
ATOM     29  C   UNL A   1      29.264  26.197  23.813  1.00  0.00     0.009 A 
ATOM     30  C   UNL A   1      30.307  28.029  22.638  1.00  0.00     0.009 A 
ATOM     31  C   UNL A   1      28.061  26.912  23.841  1.00  0.00     0.039 A 
ATOM     32  C   UNL A   1      29.114  28.751  22.687  1.00  0.00     0.039 A 
ATOM     33  C   UNL A   1      27.998  28.181  23.280  1.00  0.00     0.123 A 
ATOM     34  F   UNL A   1      26.849  28.867  23.321  1.00  0.00    -0.207 F 
ENDBRANCH  17  28
ENDBRANCH   8  13
ENDBRANCH   4   7
ENDBRANCH   2   3
ENDBRANCH   1   2
BRANCH   1  35
ATOM     35  C   UNL A   1      33.323  34.009  27.663  1.00  0.00     0.118 C 
BRANCH  35  36
ATOM     36  N   UNL A   1      32.969  34.956  28.713  1.00  0.00    -0.352 N 
ATOM     37  C   UNL A   1      33.404  35.015  30.016  1.00  0.00     0.251 C 
ATOM     38  H   UNL A   1      32.326  35.655  28.451  1.00  0.00     0.163 HD
ATOM     39  O   UNL A   1      32.847  35.772  30.806  1.00  0.00    -0.269 OA
BRANCH  37  40
ATOM     40  C   UNL A   1      34.524  34.161  30.470  1.00  0.00     0.039 A 
ATOM     41  C   UNL A   1      35.829  34.496  30.096  1.00  0.00     0.014 A 
ATOM     42  C   UNL A   1      34.290  33.026  31.250  1.00  0.00     0.014 A 
ATOM     43  C   UNL A   1      36.904  33.731  30.559  1.00  0.00     0.010 A 
ATOM     44  C   UNL A   1      35.364  32.304  31.763  1.00  0.00     0.010 A 
ATOM     45  C   UNL A   1      36.681  32.647  31.423  1.00  0.00    -0.014 A 
BRANCH  45  46
ATOM     46  C   UNL A   1      37.800  31.859  32.002  1.00  0.00     0.031 A 
ATOM     47  C   UNL A   1      38.386  32.250  33.331  1.00  0.00     0.074 A 
ATOM     48  C   UNL A   1      38.367  30.874  31.275  1.00  0.00     0.049 A 
ATOM     49  N   UNL A   1      39.451  31.785  33.933  1.00  0.00    -0.248 NA
ATOM     50  C   UNL A   1      37.702  33.325  34.067  1.00  0.00     0.031 C 
ATOM     51  C   UNL A   1      37.931  30.447  29.944  1.00  0.00     0.029 A 
ATOM     52  N   UNL A   1      39.459  30.084  31.537  1.00  0.00    -0.354 N 
ATOM     53  C   UNL A   1      39.592  32.541  35.090  1.00  0.00     0.074 A 
ATOM     54  C   UNL A   1      38.514  33.508  35.098  1.00  0.00     0.031 C 
ATOM     55  C   UNL A   1      38.753  29.481  29.502  1.00  0.00     0.029 A 
ATOM     56  C   UNL A   1      39.792  29.245  30.499  1.00  0.00     0.049 A 
ATOM     57  H   UNL A   1      39.956  30.115  32.386  1.00  0.00     0.167 HD
ATOM     58  C   UNL A   1      40.518  32.425  36.071  1.00  0.00     0.034 A 
ATOM     59  C   UNL A   1      40.826  28.391  30.359  1.00  0.00     0.034 A 
ATOM     60  C   UNL A   1      41.552  31.427  36.087  1.00  0.00     0.049 A 
ATOM     61  C   UNL A   1      41.814  28.249  31.486  1.00  0.00     0.074 A 
ATOM     62  C   UNL A   1      42.485  31.170  37.076  1.00  0.00     0.029 A 
ATOM     63  N   UNL A   1      41.790  30.519  35.067  1.00  0.00    -0.354 N 
ATOM     64  N   UNL A   1      41.844  28.872  32.638  1.00  0.00    -0.248 NA
ATOM     65  C   UNL A   1      42.890  27.263  31.308  1.00  0.00     0.031 C 
ATOM     66  C   UNL A   1      43.294  30.111  36.649  1.00  0.00     0.029 A 
ATOM     67  C   UNL A   1      42.855  29.700  35.401  1.00  0.00     0.049 A 
ATOM     68  H   UNL A   1      41.277  30.464  34.228  1.00  0.00     0.167 HD
ATOM     69  C   UNL A   1      42.915  28.327  33.338  1.00  0.00     0.074 A 
ATOM     70  C   UNL A   1      43.500  27.313  32.484  1.00  0.00     0.031 C 
ATOM     71  C   UNL A   1      43.382  28.649  34.570  1.00  0.00     0.034 A 
BRANCH  58  72
ATOM     72  C   UNL A   1      40.418  33.365  37.244  1.00  0.00     0.023 A 
ATOM     73  C   UNL A   1      39.497  33.088  38.275  1.00  0.00     0.012 A 
ATOM     74  C   UNL A   1      41.268  34.482  37.359  1.00  0.00     0.148 A 
ATOM     75  C   UNL A   1      39.399  33.925  39.386  1.00  0.00     0.002 A 
ATOM     76  C   UNL A   1      41.194  35.289  38.490  1.00  0.00     0.091 A 
ATOM     77  F   UNL A   1      42.122  34.743  36.359  1.00  0.00    -0.205 F 
ATOM     78  C   UNL A   1      40.254  35.018  39.498  1.00  0.00     0.022 A 
BRANCH  76  79
ATOM     79  S   UNL A   1      42.304  36.676  38.761  1.00  0.00     0.127 S 
ATOM     80  O   UNL A   1      42.522  37.151  37.396  1.00  0.00    -0.237 OA
ATOM     81  O   UNL A   1      41.492  37.565  39.592  1.00  0.00    -0.237 OA
ATOM     82  O   UNL A   1      43.474  36.126  39.430  1.00  0.00    -0.744 OA
ENDBRANCH  76  79
ENDBRANCH  58  72
BRANCH  59  83
ATOM     83  C   UNL A   1      40.936  27.553  29.132  1.00  0.00     0.023 A 
ATOM     84  C   UNL A   1      40.114  26.417  29.004  1.00  0.00     0.012 A 
ATOM     85  C   UNL A   1      41.811  27.890  28.081  1.00  0.00     0.148 A 
ATOM     86  C   UNL A   1      40.180  25.615  27.864  1.00  0.00     0.002 A 
ATOM     87  C   UNL A   1      41.835  27.116  26.925  1.00  0.00     0.091 A 
ATOM     88  F   UNL A   1      42.595  28.967  28.227  1.00  0.00    -0.205 F 
ATOM     89  C   UNL A   1      41.033  25.970  26.821  1.00  0.00     0.022 A 
BRANCH  87  90
ATOM     90  S   UNL A   1      42.803  27.574  25.482  1.00  0.00     0.127 S 
ATOM     91  O   UNL A   1      42.091  28.757  25.008  1.00  0.00    -0.237 OA
ATOM     92  O   UNL A   1      44.117  27.840  26.068  1.00  0.00    -0.237 OA
ATOM     93  O   UNL A   1      42.766  26.413  24.604  1.00  0.00    -0.744 OA
ENDBRANCH  87  90
ENDBRANCH  59  83
BRANCH  71  94
ATOM     94  C   UNL A   1      44.559  27.874  35.099  1.00  0.00     0.023 A 
ATOM     95  C   UNL A   1      44.341  26.696  35.840  1.00  0.00     0.012 A 
ATOM     96  C   UNL A   1      45.875  28.262  34.782  1.00  0.00     0.148 A 
ATOM     97  C   UNL A   1      45.420  25.926  36.276  1.00  0.00     0.002 A 
ATOM     98  C   UNL A   1      46.942  27.467  35.182  1.00  0.00     0.091 A 
ATOM     99  F   UNL A   1      46.059  29.398  34.093  1.00  0.00    -0.205 F 
ATOM    100  C   UNL A   1      46.717  26.304  35.936  1.00  0.00     0.022 A 
BRANCH  98 101
ATOM    101  S   UNL A   1      48.639  27.826  34.710  1.00  0.00     0.127 S 
ATOM    102  O   UNL A   1      48.882  29.086  35.409  1.00  0.00    -0.237 OA
ATOM    103  O   UNL A   1      49.363  26.677  35.253  1.00  0.00    -0.237 OA
ATOM    104  O   UNL A   1      48.640  27.906  33.255  1.00  0.00    -0.744 OA
ENDBRANCH  98 101
ENDBRANCH  71  94
ENDBRANCH  45  46
ENDBRANCH  37  40
ENDBRANCH  35  36
ENDBRANCH   1  35
TORSDOF 17
ENDMDL
