MODEL 1
REMARK VINA RESULT:     -11.4      0.000      0.000
REMARK SMILES Cc1cscc1-c1ncc(C(=O)NCCCNC(=O)c2ccc(-c3c4nc(c(-c5cccc(S(=O)(=O)[O-])c5F)c5ccc([nH]5)c(-c5cccc(S(=O)(=O)[O-])c5F)c5nc(c(-c6cccc(S(=O)(=O)[O-])c6F)c6ccc3[nH]6)C=C5)C=C4)cc2)c(=O)[nH]1
REMARK SMILES IDX 16 1 15 2 14 3 13 4 11 5 12 6 10 8 7 9 8 10 85 11 9 12 83 13
REMARK SMILES IDX 84 15 6 16 1 17 2 18 3 19 4 20 5 21 17 22 18 23 19 25 20 26
REMARK SMILES IDX 21 27 82 28 22 29 81 30 23 31 24 32 25 33 75 34 26 35 80 36
REMARK SMILES IDX 74 37 76 38 27 39 79 40 73 41 72 42 28 44 60 45 40 46 59 47
REMARK SMILES IDX 41 48 44 49 58 50 77 51 42 52 43 53 57 55 78 56 45 57 29 58
REMARK SMILES IDX 30 59 38 60 31 61 33 62 39 63 32 64 34 65 35 66 36 67 37 68
REMARK SMILES IDX 61 69 62 70 70 71 63 72 65 73 71 74 64 75 66 76 67 77 68 78
REMARK SMILES IDX 69 79 46 80 47 81 55 82 48 83 50 84 56 85 49 86 51 87 52 88
REMARK SMILES IDX 53 89 54 90
REMARK H PARENT 13 7 85 14 17 24 76 43 44 54
REMARK Flexibility Score: inf
ROOT
ATOM      1  C   UNL A   1      33.793  28.674  26.409  1.00  0.00     0.118 C 
ENDROOT
BRANCH   1   2
ATOM      2  C   UNL A   1      32.565  27.913  26.899  1.00  0.00     0.042 C 
BRANCH   2   3
ATOM      3  C   UNL A   1      31.680  27.371  25.776  1.00  0.00     0.118 C 
BRANCH   3   4
ATOM      4  N   UNL A   1      30.805  26.311  26.245  1.00  0.00    -0.352 N 
ATOM      5  C   UNL A   1      30.967  24.965  26.339  1.00  0.00     0.258 C 
ATOM      6  O   UNL A   1      30.028  24.338  26.839  1.00  0.00    -0.269 OA
ATOM      7  H   UNL A   1      29.927  26.628  26.556  1.00  0.00     0.163 HD
BRANCH   5   8
ATOM      8  C   UNL A   1      32.214  24.255  25.952  1.00  0.00     0.123 A 
ATOM      9  C   UNL A   1      34.545  22.842  25.641  1.00  0.00     0.141 A 
ATOM     10  N   UNL A   1      33.956  22.779  26.786  1.00  0.00    -0.237 NA
ATOM     11  N   UNL A   1      34.071  23.554  24.582  1.00  0.00    -0.306 N 
ATOM     12  C   UNL A   1      32.802  23.518  26.915  1.00  0.00     0.133 A 
ATOM     13  C   UNL A   1      32.864  24.184  24.629  1.00  0.00     0.264 A 
ATOM     14  H   UNL A   1      34.613  23.615  23.763  1.00  0.00     0.171 HD
ATOM     15  O   UNL A   1      32.375  24.614  23.589  1.00  0.00    -0.269 OA
BRANCH   9  16
ATOM     16  C   UNL A   1      35.765  22.099  25.408  1.00  0.00     0.031 A 
ATOM     17  C   UNL A   1      37.424  23.995  26.035  1.00  0.00     0.046 C 
ATOM     18  C   UNL A   1      37.103  22.607  25.583  1.00  0.00    -0.029 A 
ATOM     19  C   UNL A   1      38.044  21.635  25.302  1.00  0.00     0.069 A 
ATOM     20  S   UNL A   1      37.345  20.149  24.835  1.00  0.00    -0.151 S 
ATOM     21  C   UNL A   1      35.767  20.776  25.009  1.00  0.00     0.077 A 
ENDBRANCH   9  16
ENDBRANCH   5   8
ENDBRANCH   3   4
ENDBRANCH   2   3
ENDBRANCH   1   2
BRANCH   1  22
ATOM     22  N   UNL A   1      33.748  30.084  26.768  1.00  0.00    -0.352 N 
ATOM     23  C   UNL A   1      34.553  30.806  27.614  1.00  0.00     0.251 C 
ATOM     24  H   UNL A   1      33.028  30.600  26.338  1.00  0.00     0.163 HD
ATOM     25  O   UNL A   1      34.210  31.941  27.941  1.00  0.00    -0.269 OA
BRANCH  23  26
ATOM     26  C   UNL A   1      35.818  30.239  28.136  1.00  0.00     0.039 A 
ATOM     27  C   UNL A   1      36.949  30.251  27.313  1.00  0.00     0.014 A 
ATOM     28  C   UNL A   1      35.885  29.647  29.399  1.00  0.00     0.014 A 
ATOM     29  C   UNL A   1      38.154  29.711  27.772  1.00  0.00     0.010 A 
ATOM     30  C   UNL A   1      37.102  29.168  29.882  1.00  0.00     0.010 A 
ATOM     31  C   UNL A   1      38.247  29.184  29.070  1.00  0.00    -0.014 A 
BRANCH  31  32
ATOM     32  C   UNL A   1      39.530  28.651  29.598  1.00  0.00     0.031 A 
ATOM     33  C   UNL A   1      40.250  29.363  30.711  1.00  0.00     0.074 A 
ATOM     34  C   UNL A   1      40.096  27.580  29.007  1.00  0.00     0.049 A 
ATOM     35  N   UNL A   1      41.409  29.088  31.254  1.00  0.00    -0.248 NA
ATOM     36  C   UNL A   1      39.598  30.560  31.271  1.00  0.00     0.031 C 
ATOM     37  C   UNL A   1      39.541  26.856  27.862  1.00  0.00     0.029 A 
ATOM     38  N   UNL A   1      41.281  26.935  29.265  1.00  0.00    -0.354 N 
ATOM     39  C   UNL A   1      41.646  30.096  32.180  1.00  0.00     0.074 A 
ATOM     40  C   UNL A   1      40.520  31.003  32.114  1.00  0.00     0.031 C 
ATOM     41  C   UNL A   1      40.388  25.874  27.509  1.00  0.00     0.029 A 
ATOM     42  C   UNL A   1      41.554  25.912  28.387  1.00  0.00     0.049 A 
ATOM     43  H   UNL A   1      41.878  27.182  30.007  1.00  0.00     0.167 HD
ATOM     44  C   UNL A   1      42.692  30.241  33.028  1.00  0.00     0.034 A 
ATOM     45  C   UNL A   1      42.626  25.100  28.292  1.00  0.00     0.034 A 
ATOM     46  C   UNL A   1      43.778  29.303  33.135  1.00  0.00     0.049 A 
ATOM     47  C   UNL A   1      43.737  25.236  29.298  1.00  0.00     0.074 A 
ATOM     48  C   UNL A   1      44.823  29.297  34.042  1.00  0.00     0.029 A 
ATOM     49  N   UNL A   1      43.961  28.206  32.307  1.00  0.00    -0.354 N 
ATOM     50  N   UNL A   1      43.852  26.087  30.289  1.00  0.00    -0.248 NA
ATOM     51  C   UNL A   1      44.845  24.275  29.201  1.00  0.00     0.031 C 
ATOM     52  C   UNL A   1      45.647  28.205  33.752  1.00  0.00     0.029 A 
ATOM     53  C   UNL A   1      45.105  27.521  32.675  1.00  0.00     0.049 A 
ATOM     54  H   UNL A   1      43.365  27.953  31.566  1.00  0.00     0.167 HD
ATOM     55  C   UNL A   1      45.026  25.745  30.950  1.00  0.00     0.074 A 
ATOM     56  C   UNL A   1      45.573  24.594  30.263  1.00  0.00     0.031 C 
ATOM     57  C   UNL A   1      45.608  26.342  32.020  1.00  0.00     0.034 A 
BRANCH  44  58
ATOM     58  C   UNL A   1      42.689  31.426  33.957  1.00  0.00     0.023 A 
ATOM     59  C   UNL A   1      43.243  32.648  33.524  1.00  0.00     0.012 A 
ATOM     60  C   UNL A   1      42.074  31.356  35.223  1.00  0.00     0.148 A 
ATOM     61  C   UNL A   1      43.213  33.773  34.347  1.00  0.00     0.002 A 
ATOM     62  C   UNL A   1      42.012  32.494  36.021  1.00  0.00     0.091 A 
ATOM     63  F   UNL A   1      41.571  30.181  35.626  1.00  0.00    -0.205 F 
ATOM     64  C   UNL A   1      42.589  33.699  35.589  1.00  0.00     0.022 A 
BRANCH  62  65
ATOM     65  S   UNL A   1      41.163  32.521  37.604  1.00  0.00     0.127 S 
ATOM     66  O   UNL A   1      42.007  31.635  38.406  1.00  0.00    -0.237 OA
ATOM     67  O   UNL A   1      41.242  33.935  37.973  1.00  0.00    -0.237 OA
ATOM     68  O   UNL A   1      39.815  32.037  37.345  1.00  0.00    -0.744 OA
ENDBRANCH  62  65
ENDBRANCH  44  58
BRANCH  45  69
ATOM     69  C   UNL A   1      42.662  24.039  27.247  1.00  0.00     0.023 A 
ATOM     70  C   UNL A   1      43.290  24.306  26.015  1.00  0.00     0.012 A 
ATOM     71  C   UNL A   1      42.115  22.762  27.476  1.00  0.00     0.148 A 
ATOM     72  C   UNL A   1      43.346  23.330  25.018  1.00  0.00     0.002 A 
ATOM     73  C   UNL A   1      42.222  21.777  26.500  1.00  0.00     0.091 A 
ATOM     74  F   UNL A   1      41.508  22.531  28.649  1.00  0.00    -0.205 F 
ATOM     75  C   UNL A   1      42.822  22.064  25.264  1.00  0.00     0.022 A 
BRANCH  73  76
ATOM     76  S   UNL A   1      41.695  20.084  26.788  1.00  0.00     0.127 S 
ATOM     77  O   UNL A   1      41.875  19.485  25.469  1.00  0.00    -0.237 OA
ATOM     78  O   UNL A   1      42.650  19.634  27.803  1.00  0.00    -0.237 OA
ATOM     79  O   UNL A   1      40.322  20.180  27.264  1.00  0.00    -0.744 OA
ENDBRANCH  73  76
ENDBRANCH  45  69
BRANCH  57  80
ATOM     80  C   UNL A   1      46.892  25.752  32.538  1.00  0.00     0.023 A 
ATOM     81  C   UNL A   1      48.124  26.206  32.027  1.00  0.00     0.012 A 
ATOM     82  C   UNL A   1      46.882  24.809  33.584  1.00  0.00     0.148 A 
ATOM     83  C   UNL A   1      49.325  25.711  32.530  1.00  0.00     0.002 A 
ATOM     84  C   UNL A   1      48.085  24.353  34.112  1.00  0.00     0.091 A 
ATOM     85  F   UNL A   1      45.700  24.373  34.043  1.00  0.00    -0.205 F 
ATOM     86  C   UNL A   1      49.306  24.795  33.579  1.00  0.00     0.022 A 
BRANCH  84  87
ATOM     87  S   UNL A   1      48.152  23.247  35.526  1.00  0.00     0.127 S 
ATOM     88  O   UNL A   1      49.593  23.124  35.740  1.00  0.00    -0.237 OA
ATOM     89  O   UNL A   1      47.446  24.010  36.555  1.00  0.00    -0.237 OA
ATOM     90  O   UNL A   1      47.472  22.027  35.111  1.00  0.00    -0.744 OA
ENDBRANCH  84  87
ENDBRANCH  57  80
ENDBRANCH  31  32
ENDBRANCH  23  26
ENDBRANCH   1  22
TORSDOF 14
ENDMDL
MODEL 2
REMARK VINA RESULT:     -11.3      1.335      1.867
REMARK SMILES Cc1cscc1-c1ncc(C(=O)NCCCNC(=O)c2ccc(-c3c4nc(c(-c5cccc(S(=O)(=O)[O-])c5F)c5ccc([nH]5)c(-c5cccc(S(=O)(=O)[O-])c5F)c5nc(c(-c6cccc(S(=O)(=O)[O-])c6F)c6ccc3[nH]6)C=C5)C=C4)cc2)c(=O)[nH]1
REMARK SMILES IDX 16 1 15 2 14 3 13 4 11 5 12 6 10 8 7 9 8 10 85 11 9 12 83 13
REMARK SMILES IDX 84 15 6 16 1 17 2 18 3 19 4 20 5 21 17 22 18 23 19 25 20 26
REMARK SMILES IDX 21 27 82 28 22 29 81 30 23 31 24 32 25 33 75 34 26 35 80 36
REMARK SMILES IDX 74 37 76 38 27 39 79 40 73 41 72 42 28 44 60 45 40 46 59 47
REMARK SMILES IDX 41 48 44 49 58 50 77 51 42 52 43 53 57 55 78 56 45 57 29 58
REMARK SMILES IDX 30 59 38 60 31 61 33 62 39 63 32 64 34 65 35 66 36 67 37 68
REMARK SMILES IDX 61 69 62 70 70 71 63 72 65 73 71 74 64 75 66 76 67 77 68 78
REMARK SMILES IDX 69 79 46 80 47 81 55 82 48 83 50 84 56 85 49 86 51 87 52 88
REMARK SMILES IDX 53 89 54 90
REMARK H PARENT 13 7 85 14 17 24 76 43 44 54
REMARK Flexibility Score: inf
ROOT
ATOM      1  C   UNL A   1      33.932  28.945  26.404  1.00  0.00     0.118 C 
ENDROOT
BRANCH   1   2
ATOM      2  C   UNL A   1      32.813  28.605  25.424  1.00  0.00     0.042 C 
BRANCH   2   3
ATOM      3  C   UNL A   1      33.148  28.917  23.965  1.00  0.00     0.118 C 
BRANCH   3   4
ATOM      4  N   UNL A   1      31.994  28.742  23.100  1.00  0.00    -0.352 N 
ATOM      5  C   UNL A   1      31.418  27.638  22.555  1.00  0.00     0.258 C 
ATOM      6  O   UNL A   1      30.395  27.830  21.891  1.00  0.00    -0.269 OA
ATOM      7  H   UNL A   1      31.543  29.583  22.863  1.00  0.00     0.163 HD
BRANCH   5   8
ATOM      8  C   UNL A   1      31.906  26.254  22.786  1.00  0.00     0.123 A 
ATOM      9  C   UNL A   1      32.589  23.714  23.566  1.00  0.00     0.141 A 
ATOM     10  N   UNL A   1      31.692  24.331  24.258  1.00  0.00    -0.237 NA
ATOM     11  N   UNL A   1      33.200  24.243  22.472  1.00  0.00    -0.306 N 
ATOM     12  C   UNL A   1      31.390  25.611  23.852  1.00  0.00     0.133 A 
ATOM     13  C   UNL A   1      32.830  25.450  21.961  1.00  0.00     0.264 A 
ATOM     14  H   UNL A   1      33.928  23.741  22.039  1.00  0.00     0.171 HD
ATOM     15  O   UNL A   1      33.241  25.780  20.853  1.00  0.00    -0.269 OA
BRANCH   9  16
ATOM     16  C   UNL A   1      32.973  22.362  23.914  1.00  0.00     0.031 A 
ATOM     17  C   UNL A   1      35.112  22.968  25.255  1.00  0.00     0.046 C 
ATOM     18  C   UNL A   1      34.130  21.992  24.691  1.00  0.00    -0.029 A 
ATOM     19  C   UNL A   1      34.195  20.623  24.866  1.00  0.00     0.069 A 
ATOM     20  S   UNL A   1      32.904  19.796  24.113  1.00  0.00    -0.151 S 
ATOM     21  C   UNL A   1      32.227  21.258  23.548  1.00  0.00     0.077 A 
ENDBRANCH   9  16
ENDBRANCH   5   8
ENDBRANCH   3   4
ENDBRANCH   2   3
ENDBRANCH   1   2
BRANCH   1  22
ATOM     22  N   UNL A   1      33.870  30.328  26.853  1.00  0.00    -0.352 N 
ATOM     23  C   UNL A   1      34.659  31.000  27.754  1.00  0.00     0.251 C 
ATOM     24  H   UNL A   1      33.151  30.865  26.449  1.00  0.00     0.163 HD
ATOM     25  O   UNL A   1      34.303  32.108  28.150  1.00  0.00    -0.269 OA
BRANCH  23  26
ATOM     26  C   UNL A   1      35.922  30.410  28.254  1.00  0.00     0.039 A 
ATOM     27  C   UNL A   1      37.077  30.535  27.474  1.00  0.00     0.014 A 
ATOM     28  C   UNL A   1      35.968  29.688  29.449  1.00  0.00     0.014 A 
ATOM     29  C   UNL A   1      38.282  29.977  27.912  1.00  0.00     0.010 A 
ATOM     30  C   UNL A   1      37.182  29.189  29.918  1.00  0.00     0.010 A 
ATOM     31  C   UNL A   1      38.349  29.317  29.150  1.00  0.00    -0.014 A 
BRANCH  31  32
ATOM     32  C   UNL A   1      39.630  28.761  29.660  1.00  0.00     0.031 A 
ATOM     33  C   UNL A   1      40.368  29.449  30.777  1.00  0.00     0.074 A 
ATOM     34  C   UNL A   1      40.177  27.691  29.050  1.00  0.00     0.049 A 
ATOM     35  N   UNL A   1      41.527  29.151  31.306  1.00  0.00    -0.248 NA
ATOM     36  C   UNL A   1      39.736  30.645  31.358  1.00  0.00     0.031 C 
ATOM     37  C   UNL A   1      39.604  26.990  27.900  1.00  0.00     0.029 A 
ATOM     38  N   UNL A   1      41.356  27.027  29.289  1.00  0.00    -0.354 N 
ATOM     39  C   UNL A   1      41.785  30.143  32.244  1.00  0.00     0.074 A 
ATOM     40  C   UNL A   1      40.670  31.065  32.200  1.00  0.00     0.031 C 
ATOM     41  C   UNL A   1      40.435  26.002  27.526  1.00  0.00     0.029 A 
ATOM     42  C   UNL A   1      41.609  26.013  28.395  1.00  0.00     0.049 A 
ATOM     43  H   UNL A   1      41.962  27.257  30.030  1.00  0.00     0.167 HD
ATOM     44  C   UNL A   1      42.840  30.263  33.086  1.00  0.00     0.034 A 
ATOM     45  C   UNL A   1      42.669  25.189  28.280  1.00  0.00     0.034 A 
ATOM     46  C   UNL A   1      43.914  29.310  33.171  1.00  0.00     0.049 A 
ATOM     47  C   UNL A   1      43.790  25.297  29.279  1.00  0.00     0.074 A 
ATOM     48  C   UNL A   1      44.966  29.278  34.070  1.00  0.00     0.029 A 
ATOM     49  N   UNL A   1      44.076  28.222  32.327  1.00  0.00    -0.354 N 
ATOM     50  N   UNL A   1      43.924  26.132  30.281  1.00  0.00    -0.248 NA
ATOM     51  C   UNL A   1      44.885  24.323  29.160  1.00  0.00     0.031 C 
ATOM     52  C   UNL A   1      45.774  28.179  33.758  1.00  0.00     0.029 A 
ATOM     53  C   UNL A   1      45.215  27.517  32.676  1.00  0.00     0.049 A 
ATOM     54  H   UNL A   1      43.471  27.986  31.587  1.00  0.00     0.167 HD
ATOM     55  C   UNL A   1      45.098  25.766  30.928  1.00  0.00     0.074 A 
ATOM     56  C   UNL A   1      45.625  24.618  30.220  1.00  0.00     0.031 C 
ATOM     57  C   UNL A   1      45.697  26.341  32.000  1.00  0.00     0.034 A 
BRANCH  44  58
ATOM     58  C   UNL A   1      42.859  31.435  34.030  1.00  0.00     0.023 A 
ATOM     59  C   UNL A   1      43.443  32.649  33.617  1.00  0.00     0.012 A 
ATOM     60  C   UNL A   1      42.236  31.362  35.293  1.00  0.00     0.148 A 
ATOM     61  C   UNL A   1      43.435  33.764  34.455  1.00  0.00     0.002 A 
ATOM     62  C   UNL A   1      42.196  32.490  36.106  1.00  0.00     0.091 A 
ATOM     63  F   UNL A   1      41.703  30.194  35.677  1.00  0.00    -0.205 F 
ATOM     64  C   UNL A   1      42.803  33.687  35.693  1.00  0.00     0.022 A 
BRANCH  62  65
ATOM     65  S   UNL A   1      41.339  32.516  37.685  1.00  0.00     0.127 S 
ATOM     66  O   UNL A   1      41.381  33.939  38.020  1.00  0.00    -0.237 OA
ATOM     67  O   UNL A   1      40.012  32.014  37.325  1.00  0.00    -0.237 OA
ATOM     68  O   UNL A   1      42.099  31.641  38.567  1.00  0.00    -0.744 OA
ENDBRANCH  62  65
ENDBRANCH  44  58
BRANCH  45  69
ATOM     69  C   UNL A   1      42.684  24.142  27.220  1.00  0.00     0.023 A 
ATOM     70  C   UNL A   1      43.345  24.401  26.004  1.00  0.00     0.012 A 
ATOM     71  C   UNL A   1      42.082  22.884  27.421  1.00  0.00     0.148 A 
ATOM     72  C   UNL A   1      43.381  23.438  24.995  1.00  0.00     0.002 A 
ATOM     73  C   UNL A   1      42.169  21.910  26.433  1.00  0.00     0.091 A 
ATOM     74  F   UNL A   1      41.444  22.661  28.579  1.00  0.00    -0.205 F 
ATOM     75  C   UNL A   1      42.803  22.190  25.212  1.00  0.00     0.022 A 
BRANCH  73  76
ATOM     76  S   UNL A   1      41.570  20.235  26.686  1.00  0.00     0.127 S 
ATOM     77  O   UNL A   1      40.137  20.452  26.865  1.00  0.00    -0.237 OA
ATOM     78  O   UNL A   1      41.942  19.583  25.429  1.00  0.00    -0.237 OA
ATOM     79  O   UNL A   1      42.291  19.738  27.850  1.00  0.00    -0.744 OA
ENDBRANCH  73  76
ENDBRANCH  45  69
BRANCH  57  80
ATOM     80  C   UNL A   1      46.977  25.727  32.500  1.00  0.00     0.023 A 
ATOM     81  C   UNL A   1      48.208  26.136  31.948  1.00  0.00     0.012 A 
ATOM     82  C   UNL A   1      46.969  24.809  33.567  1.00  0.00     0.148 A 
ATOM     83  C   UNL A   1      49.407  25.619  32.433  1.00  0.00     0.002 A 
ATOM     84  C   UNL A   1      48.172  24.331  34.075  1.00  0.00     0.091 A 
ATOM     85  F   UNL A   1      45.787  24.415  34.065  1.00  0.00    -0.205 F 
ATOM     86  C   UNL A   1      49.390  24.728  33.503  1.00  0.00     0.022 A 
BRANCH  84  87
ATOM     87  S   UNL A   1      48.245  23.256  35.512  1.00  0.00     0.127 S 
ATOM     88  O   UNL A   1      47.538  22.069  35.033  1.00  0.00    -0.237 OA
ATOM     89  O   UNL A   1      49.686  23.074  35.695  1.00  0.00    -0.237 OA
ATOM     90  O   UNL A   1      47.591  23.985  36.591  1.00  0.00    -0.744 OA
ENDBRANCH  84  87
ENDBRANCH  57  80
ENDBRANCH  31  32
ENDBRANCH  23  26
ENDBRANCH   1  22
TORSDOF 14
ENDMDL
MODEL 3
REMARK VINA RESULT:     -11.3      2.631      4.120
REMARK SMILES Cc1cscc1-c1ncc(C(=O)NCCCNC(=O)c2ccc(-c3c4nc(c(-c5cccc(S(=O)(=O)[O-])c5F)c5ccc([nH]5)c(-c5cccc(S(=O)(=O)[O-])c5F)c5nc(c(-c6cccc(S(=O)(=O)[O-])c6F)c6ccc3[nH]6)C=C5)C=C4)cc2)c(=O)[nH]1
REMARK SMILES IDX 16 1 15 2 14 3 13 4 11 5 12 6 10 8 7 9 8 10 85 11 9 12 83 13
REMARK SMILES IDX 84 15 6 16 1 17 2 18 3 19 4 20 5 21 17 22 18 23 19 25 20 26
REMARK SMILES IDX 21 27 82 28 22 29 81 30 23 31 24 32 25 33 75 34 26 35 80 36
REMARK SMILES IDX 74 37 76 38 27 39 79 40 73 41 72 42 28 44 60 45 40 46 59 47
REMARK SMILES IDX 41 48 44 49 58 50 77 51 42 52 43 53 57 55 78 56 45 57 29 58
REMARK SMILES IDX 30 59 38 60 31 61 33 62 39 63 32 64 34 65 35 66 36 67 37 68
REMARK SMILES IDX 61 69 62 70 70 71 63 72 65 73 71 74 64 75 66 76 67 77 68 78
REMARK SMILES IDX 69 79 46 80 47 81 55 82 48 83 50 84 56 85 49 86 51 87 52 88
REMARK SMILES IDX 53 89 54 90
REMARK H PARENT 13 7 85 14 17 24 76 43 44 54
REMARK Flexibility Score: inf
ROOT
ATOM      1  C   UNL A   1      33.331  28.473  27.320  1.00  0.00     0.118 C 
ENDROOT
BRANCH   1   2
ATOM      2  C   UNL A   1      33.556  27.826  25.956  1.00  0.00     0.042 C 
BRANCH   2   3
ATOM      3  C   UNL A   1      32.791  26.517  25.756  1.00  0.00     0.118 C 
BRANCH   3   4
ATOM      4  N   UNL A   1      33.085  25.915  24.467  1.00  0.00    -0.352 N 
ATOM      5  C   UNL A   1      32.763  26.272  23.195  1.00  0.00     0.258 C 
ATOM      6  O   UNL A   1      33.221  25.557  22.297  1.00  0.00    -0.269 OA
ATOM      7  H   UNL A   1      33.621  25.092  24.525  1.00  0.00     0.163 HD
BRANCH   5   8
ATOM      8  C   UNL A   1      31.981  27.487  22.852  1.00  0.00     0.123 A 
ATOM      9  C   UNL A   1      30.204  29.480  22.222  1.00  0.00     0.141 A 
ATOM     10  N   UNL A   1      29.721  28.330  22.548  1.00  0.00    -0.237 NA
ATOM     11  N   UNL A   1      31.535  29.762  22.186  1.00  0.00    -0.306 N 
ATOM     12  C   UNL A   1      30.641  27.347  22.836  1.00  0.00     0.133 A 
ATOM     13  C   UNL A   1      32.467  28.858  22.596  1.00  0.00     0.264 A 
ATOM     14  H   UNL A   1      31.831  30.641  21.857  1.00  0.00     0.171 HD
ATOM     15  O   UNL A   1      33.625  29.229  22.765  1.00  0.00    -0.269 OA
BRANCH   9  16
ATOM     16  C   UNL A   1      29.316  30.578  21.903  1.00  0.00     0.031 A 
ATOM     17  C   UNL A   1      29.281  31.663  24.261  1.00  0.00     0.046 C 
ATOM     18  C   UNL A   1      28.876  31.597  22.824  1.00  0.00    -0.029 A 
ATOM     19  C   UNL A   1      28.055  32.513  22.196  1.00  0.00     0.069 A 
ATOM     20  S   UNL A   1      27.809  32.162  20.543  1.00  0.00    -0.151 S 
ATOM     21  C   UNL A   1      28.808  30.781  20.634  1.00  0.00     0.077 A 
ENDBRANCH   9  16
ENDBRANCH   5   8
ENDBRANCH   3   4
ENDBRANCH   2   3
ENDBRANCH   1   2
BRANCH   1  22
ATOM     22  N   UNL A   1      33.436  29.924  27.265  1.00  0.00    -0.352 N 
ATOM     23  C   UNL A   1      34.410  30.758  27.754  1.00  0.00     0.251 C 
ATOM     24  H   UNL A   1      32.692  30.378  26.806  1.00  0.00     0.163 HD
ATOM     25  O   UNL A   1      34.199  31.969  27.787  1.00  0.00    -0.269 OA
BRANCH  23  26
ATOM     26  C   UNL A   1      35.702  30.222  28.241  1.00  0.00     0.039 A 
ATOM     27  C   UNL A   1      36.802  30.228  27.376  1.00  0.00     0.014 A 
ATOM     28  C   UNL A   1      35.826  29.662  29.516  1.00  0.00     0.014 A 
ATOM     29  C   UNL A   1      38.031  29.716  27.803  1.00  0.00     0.010 A 
ATOM     30  C   UNL A   1      37.067  29.213  29.963  1.00  0.00     0.010 A 
ATOM     31  C   UNL A   1      38.180  29.224  29.109  1.00  0.00    -0.014 A 
BRANCH  31  32
ATOM     32  C   UNL A   1      39.490  28.722  29.601  1.00  0.00     0.031 A 
ATOM     33  C   UNL A   1      40.213  29.440  30.708  1.00  0.00     0.074 A 
ATOM     34  C   UNL A   1      40.073  27.676  28.983  1.00  0.00     0.049 A 
ATOM     35  N   UNL A   1      41.391  29.192  31.222  1.00  0.00    -0.248 NA
ATOM     36  C   UNL A   1      39.539  30.609  31.299  1.00  0.00     0.031 C 
ATOM     37  C   UNL A   1      39.515  26.951  27.840  1.00  0.00     0.029 A 
ATOM     38  N   UNL A   1      41.282  27.063  29.206  1.00  0.00    -0.354 N 
ATOM     39  C   UNL A   1      41.619  30.194  32.157  1.00  0.00     0.074 A 
ATOM     40  C   UNL A   1      40.466  31.068  32.129  1.00  0.00     0.031 C 
ATOM     41  C   UNL A   1      40.381  26.000  27.455  1.00  0.00     0.029 A 
ATOM     42  C   UNL A   1      41.566  26.061  28.308  1.00  0.00     0.049 A 
ATOM     43  H   UNL A   1      41.888  27.318  29.938  1.00  0.00     0.167 HD
ATOM     44  C   UNL A   1      42.680  30.358  32.984  1.00  0.00     0.034 A 
ATOM     45  C   UNL A   1      42.658  25.282  28.178  1.00  0.00     0.034 A 
ATOM     46  C   UNL A   1      43.794  29.451  33.053  1.00  0.00     0.049 A 
ATOM     47  C   UNL A   1      43.787  25.437  29.161  1.00  0.00     0.074 A 
ATOM     48  C   UNL A   1      44.859  29.464  33.938  1.00  0.00     0.029 A 
ATOM     49  N   UNL A   1      43.990  28.372  32.207  1.00  0.00    -0.354 N 
ATOM     50  N   UNL A   1      43.899  26.277  30.161  1.00  0.00    -0.248 NA
ATOM     51  C   UNL A   1      44.920  24.511  29.026  1.00  0.00     0.031 C 
ATOM     52  C   UNL A   1      45.708  28.400  33.614  1.00  0.00     0.029 A 
ATOM     53  C   UNL A   1      45.163  27.716  32.540  1.00  0.00     0.049 A 
ATOM     54  H   UNL A   1      43.386  28.111  31.475  1.00  0.00     0.167 HD
ATOM     55  C   UNL A   1      45.097  25.961  30.792  1.00  0.00     0.074 A 
ATOM     56  C   UNL A   1      45.662  24.836  30.076  1.00  0.00     0.031 C 
ATOM     57  C   UNL A   1      45.685  26.561  31.856  1.00  0.00     0.034 A 
BRANCH  44  58
ATOM     58  C   UNL A   1      42.662  31.530  33.929  1.00  0.00     0.023 A 
ATOM     59  C   UNL A   1      43.144  32.781  33.492  1.00  0.00     0.012 A 
ATOM     60  C   UNL A   1      42.103  31.417  35.218  1.00  0.00     0.148 A 
ATOM     61  C   UNL A   1      43.098  33.893  34.331  1.00  0.00     0.002 A 
ATOM     62  C   UNL A   1      42.024  32.540  36.034  1.00  0.00     0.091 A 
ATOM     63  F   UNL A   1      41.669  30.216  35.624  1.00  0.00    -0.205 F 
ATOM     64  C   UNL A   1      42.529  33.775  35.597  1.00  0.00     0.022 A 
BRANCH  62  65
ATOM     65  S   UNL A   1      41.240  32.509  37.651  1.00  0.00     0.127 S 
ATOM     66  O   UNL A   1      42.112  31.590  38.383  1.00  0.00    -0.237 OA
ATOM     67  O   UNL A   1      41.342  33.908  38.070  1.00  0.00    -0.237 OA
ATOM     68  O   UNL A   1      39.881  32.040  37.428  1.00  0.00    -0.744 OA
ENDBRANCH  62  65
ENDBRANCH  44  58
BRANCH  45  69
ATOM     69  C   UNL A   1      42.702  24.237  27.117  1.00  0.00     0.023 A 
ATOM     70  C   UNL A   1      43.408  24.493  25.925  1.00  0.00     0.012 A 
ATOM     71  C   UNL A   1      42.084  22.983  27.294  1.00  0.00     0.148 A 
ATOM     72  C   UNL A   1      43.472  23.531  24.916  1.00  0.00     0.002 A 
ATOM     73  C   UNL A   1      42.199  22.010  26.307  1.00  0.00     0.091 A 
ATOM     74  F   UNL A   1      41.405  22.763  28.428  1.00  0.00    -0.205 F 
ATOM     75  C   UNL A   1      42.878  22.288  25.111  1.00  0.00     0.022 A 
BRANCH  73  76
ATOM     76  S   UNL A   1      41.580  20.339  26.536  1.00  0.00     0.127 S 
ATOM     77  O   UNL A   1      42.196  19.962  27.805  1.00  0.00    -0.237 OA
ATOM     78  O   UNL A   1      40.133  20.553  26.594  1.00  0.00    -0.237 OA
ATOM     79  O   UNL A   1      42.025  19.597  25.364  1.00  0.00    -0.744 OA
ENDBRANCH  73  76
ENDBRANCH  45  69
BRANCH  57  80
ATOM     80  C   UNL A   1      46.997  26.002  32.338  1.00  0.00     0.023 A 
ATOM     81  C   UNL A   1      48.204  26.515  31.824  1.00  0.00     0.012 A 
ATOM     82  C   UNL A   1      47.037  25.029  33.355  1.00  0.00     0.148 A 
ATOM     83  C   UNL A   1      49.429  26.049  32.295  1.00  0.00     0.002 A 
ATOM     84  C   UNL A   1      48.263  24.600  33.851  1.00  0.00     0.091 A 
ATOM     85  F   UNL A   1      45.878  24.536  33.817  1.00  0.00    -0.205 F 
ATOM     86  C   UNL A   1      49.459  25.102  33.316  1.00  0.00     0.022 A 
BRANCH  84  87
ATOM     87  S   UNL A   1      48.391  23.455  35.230  1.00  0.00     0.127 S 
ATOM     88  O   UNL A   1      49.839  23.347  35.394  1.00  0.00    -0.237 OA
ATOM     89  O   UNL A   1      47.709  24.180  36.304  1.00  0.00    -0.237 OA
ATOM     90  O   UNL A   1      47.713  22.239  34.803  1.00  0.00    -0.744 OA
ENDBRANCH  84  87
ENDBRANCH  57  80
ENDBRANCH  31  32
ENDBRANCH  23  26
ENDBRANCH   1  22
TORSDOF 14
ENDMDL
