MODEL 1
REMARK VINA RESULT:     -13.7      0.000      0.000
REMARK SMILES C[NH+]1CCC(C(=O)N2C[C@@H](C(=O)NCCCNC(=O)c3ccc(-c4c5nc(c(-c6cccc(S(=O)(=O)[O-])c6F)c6ccc([nH]6)c(-c6cccc(S(=O)(=O)[O-])c6F)c6nc(c(-c7cccc(S(=O)(=O)[O-])c7F)c7ccc4[nH]7)C=C6)C=C5)cc3)[C@H](c3ccc4c(c3)OCO4)C2)CC1
REMARK SMILES IDX 15 1 14 2 13 3 11 4 12 5 10 7 8 8 9 9 93 10 83 11 6 12 7 13
REMARK SMILES IDX 5 14 1 15 2 16 3 17 95 18 4 20 94 21 84 22 85 23 89 24 86 25
REMARK SMILES IDX 88 26 87 27 90 28 92 29 91 30 16 31 17 32 18 33 19 35 20 36
REMARK SMILES IDX 21 37 82 38 22 39 81 40 23 41 24 42 25 43 75 44 26 45 80 46
REMARK SMILES IDX 74 47 76 48 27 49 79 50 73 51 72 52 28 54 60 55 40 56 59 57
REMARK SMILES IDX 41 58 44 59 58 60 77 61 42 62 43 63 57 65 78 66 45 67 29 68
REMARK SMILES IDX 30 69 38 70 31 71 33 72 39 73 32 74 34 75 35 76 36 77 37 78
REMARK SMILES IDX 61 79 62 80 70 81 63 82 65 83 71 84 64 85 66 86 67 87 68 88
REMARK SMILES IDX 69 89 46 90 47 91 55 92 48 93 50 94 56 95 49 96 51 97 52 98
REMARK SMILES IDX 53 99 54 100
REMARK H PARENT 13 6 2 19 17 34 76 53 44 64
REMARK Flexibility Score: inf
ROOT
ATOM      1  C   UNL A   1      31.882  32.192  26.831  1.00  0.00     0.042 C 
ENDROOT
BRANCH   1   2
ATOM      2  C   UNL A   1      32.120  30.699  26.722  1.00  0.00     0.117 C 
BRANCH   2   3
ATOM      3  N   UNL A   1      32.931  30.311  25.579  1.00  0.00    -0.356 N 
ATOM      4  C   UNL A   1      32.649  29.410  24.595  1.00  0.00     0.225 C 
ATOM      5  O   UNL A   1      33.375  29.380  23.601  1.00  0.00    -0.275 OA
ATOM      6  H   UNL A   1      33.804  30.760  25.506  1.00  0.00     0.163 HD
BRANCH   4   7
ATOM      7  C   UNL A   1      31.468  28.485  24.753  1.00  0.00     0.107 C 
ATOM      8  N   UNL A   1      30.756  26.296  24.825  1.00  0.00    -0.341 N 
ATOM      9  C   UNL A   1      31.948  27.080  25.051  1.00  0.00     0.133 C 
ATOM     10  C   UNL A   1      30.030  26.853  23.684  1.00  0.00     0.128 C 
ATOM     11  C   UNL A   1      30.631  28.269  23.469  1.00  0.00     0.053 C 
BRANCH   8  12
ATOM     12  C   UNL A   1      30.280  25.198  25.495  1.00  0.00     0.226 C 
ATOM     13  O   UNL A   1      29.503  25.355  26.446  1.00  0.00    -0.275 OA
BRANCH  12  14
ATOM     14  C   UNL A   1      30.908  23.810  25.290  1.00  0.00     0.090 C 
ATOM     15  C   UNL A   1      33.787  20.622  25.042  1.00  0.00     0.332 C 
ATOM     16  N   UNL A   1      33.094  21.910  25.050  1.00  0.00    -0.337 N 
ATOM     17  C   UNL A   1      32.525  22.186  26.371  1.00  0.00     0.262 C 
ATOM     18  C   UNL A   1      32.066  21.973  24.004  1.00  0.00     0.262 C 
ATOM     19  H   UNL A   1      33.781  22.636  24.844  1.00  0.00     0.347 HD
ATOM     20  C   UNL A   1      31.937  23.595  26.410  1.00  0.00     0.075 C 
ATOM     21  C   UNL A   1      31.493  23.393  23.942  1.00  0.00     0.075 C 
ENDBRANCH  12  14
ENDBRANCH   8  12
BRANCH  11  22
ATOM     22  C   UNL A   1      29.686  29.440  23.247  1.00  0.00    -0.038 A 
ATOM     23  C   UNL A   1      29.625  30.550  24.120  1.00  0.00     0.008 A 
ATOM     24  C   UNL A   1      29.000  29.505  22.015  1.00  0.00     0.054 A 
ATOM     25  C   UNL A   1      28.951  31.725  23.755  1.00  0.00     0.051 A 
ATOM     26  C   UNL A   1      28.398  30.696  21.660  1.00  0.00     0.166 A 
ATOM     27  C   UNL A   1      28.386  31.779  22.501  1.00  0.00     0.165 A 
ATOM     28  O   UNL A   1      27.897  30.992  20.429  1.00  0.00    -0.454 OA
ATOM     29  O   UNL A   1      27.850  32.883  21.912  1.00  0.00    -0.454 OA
ATOM     30  C   UNL A   1      27.756  32.425  20.544  1.00  0.00     0.468 C 
ENDBRANCH  11  22
ENDBRANCH   4   7
ENDBRANCH   2   3
ENDBRANCH   1   2
BRANCH   1  31
ATOM     31  C   UNL A   1      33.075  32.960  27.381  1.00  0.00     0.118 C 
BRANCH  31  32
ATOM     32  N   UNL A   1      32.744  34.320  27.808  1.00  0.00    -0.352 N 
ATOM     33  C   UNL A   1      33.153  35.022  28.918  1.00  0.00     0.251 C 
ATOM     34  H   UNL A   1      32.135  34.808  27.208  1.00  0.00     0.163 HD
ATOM     35  O   UNL A   1      32.619  36.092  29.201  1.00  0.00    -0.269 OA
BRANCH  33  36
ATOM     36  C   UNL A   1      34.210  34.464  29.785  1.00  0.00     0.039 A 
ATOM     37  C   UNL A   1      33.858  33.804  30.967  1.00  0.00     0.014 A 
ATOM     38  C   UNL A   1      35.547  34.550  29.400  1.00  0.00     0.014 A 
ATOM     39  C   UNL A   1      34.841  33.133  31.701  1.00  0.00     0.010 A 
ATOM     40  C   UNL A   1      36.500  33.797  30.070  1.00  0.00     0.010 A 
ATOM     41  C   UNL A   1      36.159  33.075  31.225  1.00  0.00    -0.014 A 
BRANCH  41  42
ATOM     42  C   UNL A   1      37.222  32.271  31.880  1.00  0.00     0.031 A 
ATOM     43  C   UNL A   1      37.755  32.713  33.216  1.00  0.00     0.074 A 
ATOM     44  C   UNL A   1      37.822  31.269  31.207  1.00  0.00     0.049 A 
ATOM     45  N   UNL A   1      38.841  32.340  33.838  1.00  0.00    -0.248 NA
ATOM     46  C   UNL A   1      36.988  33.758  33.919  1.00  0.00     0.031 C 
ATOM     47  C   UNL A   1      37.442  30.788  29.878  1.00  0.00     0.029 A 
ATOM     48  N   UNL A   1      38.917  30.505  31.532  1.00  0.00    -0.354 N 
ATOM     49  C   UNL A   1      38.927  33.151  34.964  1.00  0.00     0.074 A 
ATOM     50  C   UNL A   1      37.794  34.049  34.929  1.00  0.00     0.031 C 
ATOM     51  C   UNL A   1      38.294  29.822  29.496  1.00  0.00     0.029 A 
ATOM     52  C   UNL A   1      39.308  29.646  30.530  1.00  0.00     0.049 A 
ATOM     53  H   UNL A   1      39.380  30.566  32.400  1.00  0.00     0.167 HD
ATOM     54  C   UNL A   1      39.853  33.134  35.951  1.00  0.00     0.034 A 
ATOM     55  C   UNL A   1      40.376  28.828  30.443  1.00  0.00     0.034 A 
ATOM     56  C   UNL A   1      40.927  32.183  36.021  1.00  0.00     0.049 A 
ATOM     57  C   UNL A   1      41.347  28.771  31.591  1.00  0.00     0.074 A 
ATOM     58  C   UNL A   1      41.860  32.013  37.027  1.00  0.00     0.029 A 
ATOM     59  N   UNL A   1      41.201  31.230  35.052  1.00  0.00    -0.354 N 
ATOM     60  N   UNL A   1      41.341  29.458  32.708  1.00  0.00    -0.248 NA
ATOM     61  C   UNL A   1      42.454  27.809  31.485  1.00  0.00     0.031 C 
ATOM     62  C   UNL A   1      42.702  30.957  36.664  1.00  0.00     0.029 A 
ATOM     63  C   UNL A   1      42.283  30.462  35.439  1.00  0.00     0.049 A 
ATOM     64  H   UNL A   1      40.699  31.117  34.212  1.00  0.00     0.167 HD
ATOM     65  C   UNL A   1      42.412  28.980  33.455  1.00  0.00     0.074 A 
ATOM     66  C   UNL A   1      43.042  27.941  32.667  1.00  0.00     0.031 C 
ATOM     67  C   UNL A   1      42.843  29.376  34.677  1.00  0.00     0.034 A 
BRANCH  54  68
ATOM     68  C   UNL A   1      39.709  34.133  37.067  1.00  0.00     0.023 A 
ATOM     69  C   UNL A   1      40.078  35.476  36.849  1.00  0.00     0.012 A 
ATOM     70  C   UNL A   1      39.162  33.760  38.310  1.00  0.00     0.148 A 
ATOM     71  C   UNL A   1      39.940  36.424  37.861  1.00  0.00     0.002 A 
ATOM     72  C   UNL A   1      38.985  34.721  39.300  1.00  0.00     0.091 A 
ATOM     73  F   UNL A   1      38.838  32.474  38.508  1.00  0.00    -0.205 F 
ATOM     74  C   UNL A   1      39.385  36.049  39.081  1.00  0.00     0.022 A 
BRANCH  72  75
ATOM     75  S   UNL A   1      38.204  34.352  40.874  1.00  0.00     0.127 S 
ATOM     76  O   UNL A   1      37.067  33.535  40.456  1.00  0.00    -0.237 OA
ATOM     77  O   UNL A   1      39.257  33.617  41.577  1.00  0.00    -0.237 OA
ATOM     78  O   UNL A   1      37.868  35.640  41.465  1.00  0.00    -0.744 OA
ENDBRANCH  72  75
ENDBRANCH  54  68
BRANCH  55  79
ATOM     79  C   UNL A   1      40.541  27.943  29.253  1.00  0.00     0.023 A 
ATOM     80  C   UNL A   1      39.768  26.769  29.163  1.00  0.00     0.012 A 
ATOM     81  C   UNL A   1      41.420  28.268  28.202  1.00  0.00     0.148 A 
ATOM     82  C   UNL A   1      39.887  25.920  28.063  1.00  0.00     0.002 A 
ATOM     83  C   UNL A   1      41.496  27.444  27.083  1.00  0.00     0.091 A 
ATOM     84  F   UNL A   1      42.157  29.383  28.309  1.00  0.00    -0.205 F 
ATOM     85  C   UNL A   1      40.742  26.262  27.019  1.00  0.00     0.022 A 
BRANCH  83  86
ATOM     86  S   UNL A   1      42.471  27.873  25.637  1.00  0.00     0.127 S 
ATOM     87  O   UNL A   1      43.813  27.988  26.201  1.00  0.00    -0.237 OA
ATOM     88  O   UNL A   1      42.263  26.711  24.772  1.00  0.00    -0.237 OA
ATOM     89  O   UNL A   1      41.889  29.107  25.125  1.00  0.00    -0.744 OA
ENDBRANCH  83  86
ENDBRANCH  55  79
BRANCH  67  90
ATOM     90  C   UNL A   1      44.013  28.652  35.285  1.00  0.00     0.023 A 
ATOM     91  C   UNL A   1      45.324  29.065  34.984  1.00  0.00     0.012 A 
ATOM     92  C   UNL A   1      43.803  27.650  36.252  1.00  0.00     0.148 A 
ATOM     93  C   UNL A   1      46.413  28.479  35.628  1.00  0.00     0.002 A 
ATOM     94  C   UNL A   1      44.890  27.102  36.921  1.00  0.00     0.091 A 
ATOM     95  F   UNL A   1      42.545  27.262  36.507  1.00  0.00    -0.205 F 
ATOM     96  C   UNL A   1      46.196  27.511  36.605  1.00  0.00     0.022 A 
BRANCH  94  97
ATOM     97  S   UNL A   1      44.701  25.922  38.262  1.00  0.00     0.127 S 
ATOM     98  O   UNL A   1      44.098  24.782  37.573  1.00  0.00    -0.237 OA
ATOM     99  O   UNL A   1      46.084  25.714  38.690  1.00  0.00    -0.237 OA
ATOM    100  O   UNL A   1      43.853  26.570  39.253  1.00  0.00    -0.744 OA
ENDBRANCH  94  97
ENDBRANCH  67  90
ENDBRANCH  41  42
ENDBRANCH  33  36
ENDBRANCH  31  32
ENDBRANCH   1  31
TORSDOF 16
ENDMDL
MODEL 2
REMARK VINA RESULT:     -13.5      2.212      7.908
REMARK SMILES C[NH+]1CCC(C(=O)N2C[C@@H](C(=O)NCCCNC(=O)c3ccc(-c4c5nc(c(-c6cccc(S(=O)(=O)[O-])c6F)c6ccc([nH]6)c(-c6cccc(S(=O)(=O)[O-])c6F)c6nc(c(-c7cccc(S(=O)(=O)[O-])c7F)c7ccc4[nH]7)C=C6)C=C5)cc3)[C@H](c3ccc4c(c3)OCO4)C2)CC1
REMARK SMILES IDX 15 1 14 2 13 3 11 4 12 5 10 7 8 8 9 9 93 10 83 11 6 12 7 13
REMARK SMILES IDX 5 14 1 15 2 16 3 17 95 18 4 20 94 21 84 22 85 23 89 24 86 25
REMARK SMILES IDX 88 26 87 27 90 28 92 29 91 30 16 31 17 32 18 33 19 35 20 36
REMARK SMILES IDX 21 37 82 38 22 39 81 40 23 41 24 42 25 43 75 44 26 45 80 46
REMARK SMILES IDX 74 47 76 48 27 49 79 50 73 51 72 52 28 54 60 55 40 56 59 57
REMARK SMILES IDX 41 58 44 59 58 60 77 61 42 62 43 63 57 65 78 66 45 67 29 68
REMARK SMILES IDX 30 69 38 70 31 71 33 72 39 73 32 74 34 75 35 76 36 77 37 78
REMARK SMILES IDX 61 79 62 80 70 81 63 82 65 83 71 84 64 85 66 86 67 87 68 88
REMARK SMILES IDX 69 89 46 90 47 91 55 92 48 93 50 94 56 95 49 96 51 97 52 98
REMARK SMILES IDX 53 99 54 100
REMARK H PARENT 13 6 2 19 17 34 76 53 44 64
REMARK Flexibility Score: inf
ROOT
ATOM      1  C   UNL A   1      31.806  29.142  27.255  1.00  0.00     0.042 C 
ENDROOT
BRANCH   1   2
ATOM      2  C   UNL A   1      31.973  27.687  26.867  1.00  0.00     0.117 C 
BRANCH   2   3
ATOM      3  N   UNL A   1      30.772  26.884  27.043  1.00  0.00    -0.356 N 
ATOM      4  C   UNL A   1      30.262  25.916  26.230  1.00  0.00     0.225 C 
ATOM      5  O   UNL A   1      29.352  25.207  26.661  1.00  0.00    -0.275 OA
ATOM      6  H   UNL A   1      30.257  27.067  27.861  1.00  0.00     0.163 HD
BRANCH   4   7
ATOM      7  C   UNL A   1      30.823  25.744  24.840  1.00  0.00     0.107 C 
ATOM      8  N   UNL A   1      32.646  25.109  23.584  1.00  0.00    -0.341 N 
ATOM      9  C   UNL A   1      32.066  24.881  24.887  1.00  0.00     0.133 C 
ATOM     10  C   UNL A   1      32.450  26.511  23.216  1.00  0.00     0.128 C 
ATOM     11  C   UNL A   1      31.362  27.041  24.188  1.00  0.00     0.053 C 
BRANCH   8  12
ATOM     12  C   UNL A   1      33.294  24.244  22.740  1.00  0.00     0.226 C 
ATOM     13  O   UNL A   1      33.532  24.592  21.576  1.00  0.00    -0.275 OA
BRANCH  12  14
ATOM     14  C   UNL A   1      33.464  22.760  23.105  1.00  0.00     0.090 C 
ATOM     15  C   UNL A   1      32.716  18.824  24.672  1.00  0.00     0.332 C 
ATOM     16  N   UNL A   1      32.749  20.261  24.405  1.00  0.00    -0.337 N 
ATOM     17  C   UNL A   1      32.220  20.553  23.070  1.00  0.00     0.262 C 
ATOM     18  C   UNL A   1      34.101  20.808  24.572  1.00  0.00     0.262 C 
ATOM     19  H   UNL A   1      32.149  20.720  25.090  1.00  0.00     0.347 HD
ATOM     20  C   UNL A   1      32.118  22.062  22.861  1.00  0.00     0.075 C 
ATOM     21  C   UNL A   1      34.048  22.335  24.451  1.00  0.00     0.075 C 
ENDBRANCH  12  14
ENDBRANCH   8  12
BRANCH  11  22
ATOM     22  C   UNL A   1      30.217  27.869  23.626  1.00  0.00    -0.038 A 
ATOM     23  C   UNL A   1      28.930  27.332  23.386  1.00  0.00     0.008 A 
ATOM     24  C   UNL A   1      30.398  29.266  23.538  1.00  0.00     0.054 A 
ATOM     25  C   UNL A   1      27.833  28.166  23.126  1.00  0.00     0.051 A 
ATOM     26  C   UNL A   1      29.287  30.062  23.341  1.00  0.00     0.166 A 
ATOM     27  C   UNL A   1      28.038  29.527  23.153  1.00  0.00     0.165 A 
ATOM     28  O   UNL A   1      29.256  31.419  23.455  1.00  0.00    -0.454 OA
ATOM     29  O   UNL A   1      27.071  30.483  23.099  1.00  0.00    -0.454 OA
ATOM     30  C   UNL A   1      27.830  31.642  23.513  1.00  0.00     0.468 C 
ENDBRANCH  11  22
ENDBRANCH   4   7
ENDBRANCH   2   3
ENDBRANCH   1   2
BRANCH   1  31
ATOM     31  C   UNL A   1      32.597  30.101  26.377  1.00  0.00     0.118 C 
BRANCH  31  32
ATOM     32  N   UNL A   1      32.364  31.509  26.699  1.00  0.00    -0.352 N 
ATOM     33  C   UNL A   1      33.127  32.386  27.436  1.00  0.00     0.251 C 
ATOM     34  H   UNL A   1      31.534  31.888  26.330  1.00  0.00     0.163 HD
ATOM     35  O   UNL A   1      32.672  33.482  27.751  1.00  0.00    -0.269 OA
BRANCH  33  36
ATOM     36  C   UNL A   1      34.478  31.983  27.875  1.00  0.00     0.039 A 
ATOM     37  C   UNL A   1      35.499  32.937  27.929  1.00  0.00     0.014 A 
ATOM     38  C   UNL A   1      34.719  30.672  28.282  1.00  0.00     0.014 A 
ATOM     39  C   UNL A   1      36.731  32.598  28.500  1.00  0.00     0.010 A 
ATOM     40  C   UNL A   1      35.901  30.368  28.942  1.00  0.00     0.010 A 
ATOM     41  C   UNL A   1      36.919  31.327  29.064  1.00  0.00    -0.014 A 
BRANCH  41  42
ATOM     42  C   UNL A   1      38.149  30.944  29.803  1.00  0.00     0.031 A 
ATOM     43  C   UNL A   1      39.088  29.940  29.190  1.00  0.00     0.074 A 
ATOM     44  C   UNL A   1      38.327  31.352  31.076  1.00  0.00     0.049 A 
ATOM     45  N   UNL A   1      40.055  29.264  29.748  1.00  0.00    -0.248 NA
ATOM     46  C   UNL A   1      38.869  29.615  27.769  1.00  0.00     0.031 C 
ATOM     47  C   UNL A   1      37.453  32.272  31.806  1.00  0.00     0.029 A 
ATOM     48  N   UNL A   1      39.282  31.002  32.000  1.00  0.00    -0.354 N 
ATOM     49  C   UNL A   1      40.511  28.385  28.772  1.00  0.00     0.074 A 
ATOM     50  C   UNL A   1      39.702  28.600  27.593  1.00  0.00     0.031 C 
ATOM     51  C   UNL A   1      37.902  32.403  33.065  1.00  0.00     0.029 A 
ATOM     52  C   UNL A   1      39.067  31.545  33.247  1.00  0.00     0.049 A 
ATOM     53  H   UNL A   1      40.047  30.417  31.791  1.00  0.00     0.167 HD
ATOM     54  C   UNL A   1      41.528  27.494  28.844  1.00  0.00     0.034 A 
ATOM     55  C   UNL A   1      39.720  31.353  34.411  1.00  0.00     0.034 A 
ATOM     56  C   UNL A   1      42.381  27.347  29.990  1.00  0.00     0.049 A 
ATOM     57  C   UNL A   1      40.897  30.417  34.441  1.00  0.00     0.074 A 
ATOM     58  C   UNL A   1      43.500  26.548  30.131  1.00  0.00     0.029 A 
ATOM     59  N   UNL A   1      42.217  28.026  31.187  1.00  0.00    -0.354 N 
ATOM     60  N   UNL A   1      41.394  29.687  33.472  1.00  0.00    -0.248 NA
ATOM     61  C   UNL A   1      41.626  30.298  35.714  1.00  0.00     0.031 C 
ATOM     62  C   UNL A   1      44.013  26.742  31.418  1.00  0.00     0.029 A 
ATOM     63  C   UNL A   1      43.220  27.673  32.071  1.00  0.00     0.049 A 
ATOM     64  H   UNL A   1      41.494  28.666  31.379  1.00  0.00     0.167 HD
ATOM     65  C   UNL A   1      42.515  29.059  34.002  1.00  0.00     0.074 A 
ATOM     66  C   UNL A   1      42.630  29.499  35.377  1.00  0.00     0.031 C 
ATOM     67  C   UNL A   1      43.364  28.186  33.408  1.00  0.00     0.034 A 
BRANCH  54  68
ATOM     68  C   UNL A   1      41.814  26.655  27.628  1.00  0.00     0.023 A 
ATOM     69  C   UNL A   1      42.448  27.241  26.513  1.00  0.00     0.012 A 
ATOM     70  C   UNL A   1      41.507  25.280  27.604  1.00  0.00     0.148 A 
ATOM     71  C   UNL A   1      42.738  26.483  25.381  1.00  0.00     0.002 A 
ATOM     72  C   UNL A   1      41.840  24.520  26.488  1.00  0.00     0.091 A 
ATOM     73  F   UNL A   1      40.883  24.745  28.663  1.00  0.00    -0.205 F 
ATOM     74  C   UNL A   1      42.444  25.123  25.372  1.00  0.00     0.022 A 
BRANCH  72  75
ATOM     75  S   UNL A   1      41.575  22.745  26.416  1.00  0.00     0.127 S 
ATOM     76  O   UNL A   1      42.338  22.381  25.223  1.00  0.00    -0.237 OA
ATOM     77  O   UNL A   1      42.164  22.293  27.677  1.00  0.00    -0.237 OA
ATOM     78  O   UNL A   1      40.134  22.561  26.321  1.00  0.00    -0.744 OA
ENDBRANCH  72  75
ENDBRANCH  54  68
BRANCH  55  79
ATOM     79  C   UNL A   1      39.317  32.119  35.626  1.00  0.00     0.023 A 
ATOM     80  C   UNL A   1      39.689  33.474  35.733  1.00  0.00     0.012 A 
ATOM     81  C   UNL A   1      38.542  31.538  36.648  1.00  0.00     0.148 A 
ATOM     82  C   UNL A   1      39.325  34.227  36.849  1.00  0.00     0.002 A 
ATOM     83  C   UNL A   1      38.138  32.309  37.734  1.00  0.00     0.091 A 
ATOM     84  F   UNL A   1      38.206  30.245  36.535  1.00  0.00    -0.205 F 
ATOM     85  C   UNL A   1      38.541  33.648  37.843  1.00  0.00     0.022 A 
BRANCH  83  86
ATOM     86  S   UNL A   1      37.020  31.684  38.994  1.00  0.00     0.127 S 
ATOM     87  O   UNL A   1      36.746  30.333  38.510  1.00  0.00    -0.237 OA
ATOM     88  O   UNL A   1      37.849  31.751  40.198  1.00  0.00    -0.237 OA
ATOM     89  O   UNL A   1      35.886  32.599  38.999  1.00  0.00    -0.744 OA
ENDBRANCH  83  86
ENDBRANCH  55  79
BRANCH  67  90
ATOM     90  C   UNL A   1      44.538  27.686  34.204  1.00  0.00     0.023 A 
ATOM     91  C   UNL A   1      45.724  28.442  34.252  1.00  0.00     0.012 A 
ATOM     92  C   UNL A   1      44.413  26.534  35.004  1.00  0.00     0.148 A 
ATOM     93  C   UNL A   1      46.777  28.049  35.078  1.00  0.00     0.002 A 
ATOM     94  C   UNL A   1      45.449  26.173  35.857  1.00  0.00     0.091 A 
ATOM     95  F   UNL A   1      43.280  25.821  34.927  1.00  0.00    -0.205 F 
ATOM     96  C   UNL A   1      46.635  26.926  35.889  1.00  0.00     0.022 A 
BRANCH  94  97
ATOM     97  S   UNL A   1      45.317  24.801  37.008  1.00  0.00     0.127 S 
ATOM     98  O   UNL A   1      46.633  24.818  37.644  1.00  0.00    -0.237 OA
ATOM     99  O   UNL A   1      44.216  25.227  37.873  1.00  0.00    -0.237 OA
ATOM    100  O   UNL A   1      45.031  23.623  36.201  1.00  0.00    -0.744 OA
ENDBRANCH  94  97
ENDBRANCH  67  90
ENDBRANCH  41  42
ENDBRANCH  33  36
ENDBRANCH  31  32
ENDBRANCH   1  31
TORSDOF 16
ENDMDL
MODEL 3
REMARK VINA RESULT:     -13.5      0.909      7.612
REMARK SMILES C[NH+]1CCC(C(=O)N2C[C@@H](C(=O)NCCCNC(=O)c3ccc(-c4c5nc(c(-c6cccc(S(=O)(=O)[O-])c6F)c6ccc([nH]6)c(-c6cccc(S(=O)(=O)[O-])c6F)c6nc(c(-c7cccc(S(=O)(=O)[O-])c7F)c7ccc4[nH]7)C=C6)C=C5)cc3)[C@H](c3ccc4c(c3)OCO4)C2)CC1
REMARK SMILES IDX 15 1 14 2 13 3 11 4 12 5 10 7 8 8 9 9 93 10 83 11 6 12 7 13
REMARK SMILES IDX 5 14 1 15 2 16 3 17 95 18 4 20 94 21 84 22 85 23 89 24 86 25
REMARK SMILES IDX 88 26 87 27 90 28 92 29 91 30 16 31 17 32 18 33 19 35 20 36
REMARK SMILES IDX 21 37 82 38 22 39 81 40 23 41 24 42 25 43 75 44 26 45 80 46
REMARK SMILES IDX 74 47 76 48 27 49 79 50 73 51 72 52 28 54 60 55 40 56 59 57
REMARK SMILES IDX 41 58 44 59 58 60 77 61 42 62 43 63 57 65 78 66 45 67 29 68
REMARK SMILES IDX 30 69 38 70 31 71 33 72 39 73 32 74 34 75 35 76 36 77 37 78
REMARK SMILES IDX 61 79 62 80 70 81 63 82 65 83 71 84 64 85 66 86 67 87 68 88
REMARK SMILES IDX 69 89 46 90 47 91 55 92 48 93 50 94 56 95 49 96 51 97 52 98
REMARK SMILES IDX 53 99 54 100
REMARK H PARENT 13 6 2 19 17 34 76 53 44 64
REMARK Flexibility Score: inf
ROOT
ATOM      1  C   UNL A   1      32.196  31.342  26.657  1.00  0.00     0.042 C 
ENDROOT
BRANCH   1   2
ATOM      2  C   UNL A   1      32.646  29.913  26.433  1.00  0.00     0.117 C 
BRANCH   2   3
ATOM      3  N   UNL A   1      33.243  29.677  25.128  1.00  0.00    -0.356 N 
ATOM      4  C   UNL A   1      32.957  28.700  24.220  1.00  0.00     0.225 C 
ATOM      5  O   UNL A   1      33.425  28.799  23.085  1.00  0.00    -0.275 OA
ATOM      6  H   UNL A   1      33.950  30.309  24.864  1.00  0.00     0.163 HD
BRANCH   4   7
ATOM      7  C   UNL A   1      32.087  27.539  24.630  1.00  0.00     0.107 C 
ATOM      8  N   UNL A   1      32.014  25.288  25.114  1.00  0.00    -0.341 N 
ATOM      9  C   UNL A   1      32.950  26.388  25.103  1.00  0.00     0.133 C 
ATOM     10  C   UNL A   1      31.113  25.420  23.969  1.00  0.00     0.128 C 
ATOM     11  C   UNL A   1      31.288  26.882  23.478  1.00  0.00     0.053 C 
BRANCH   8  12
ATOM     12  C   UNL A   1      31.890  24.240  25.990  1.00  0.00     0.226 C 
ATOM     13  O   UNL A   1      31.279  24.406  27.054  1.00  0.00    -0.275 OA
BRANCH  12  14
ATOM     14  C   UNL A   1      32.734  22.966  25.827  1.00  0.00     0.090 C 
ATOM     15  C   UNL A   1      36.042  20.323  25.062  1.00  0.00     0.332 C 
ATOM     16  N   UNL A   1      35.095  21.437  25.096  1.00  0.00    -0.337 N 
ATOM     17  C   UNL A   1      34.984  21.983  26.451  1.00  0.00     0.262 C 
ATOM     18  C   UNL A   1      33.782  21.043  24.573  1.00  0.00     0.262 C 
ATOM     19  H   UNL A   1      35.456  22.173  24.488  1.00  0.00     0.347 HD
ATOM     20  C   UNL A   1      34.113  23.237  26.446  1.00  0.00     0.075 C 
ATOM     21  C   UNL A   1      32.885  22.281  24.470  1.00  0.00     0.075 C 
ENDBRANCH  12  14
ENDBRANCH   8  12
BRANCH  11  22
ATOM     22  C   UNL A   1      30.047  27.701  23.158  1.00  0.00    -0.038 A 
ATOM     23  C   UNL A   1      28.741  27.278  23.499  1.00  0.00     0.008 A 
ATOM     24  C   UNL A   1      30.233  29.019  22.688  1.00  0.00     0.054 A 
ATOM     25  C   UNL A   1      27.653  28.160  23.437  1.00  0.00     0.051 A 
ATOM     26  C   UNL A   1      29.153  29.879  22.697  1.00  0.00     0.166 A 
ATOM     27  C   UNL A   1      27.901  29.464  23.073  1.00  0.00     0.165 A 
ATOM     28  O   UNL A   1      29.212  31.225  22.493  1.00  0.00    -0.454 OA
ATOM     29  O   UNL A   1      27.011  30.493  23.126  1.00  0.00    -0.454 OA
ATOM     30  C   UNL A   1      27.908  31.617  22.976  1.00  0.00     0.468 C 
ENDBRANCH  11  22
ENDBRANCH   4   7
ENDBRANCH   2   3
ENDBRANCH   1   2
BRANCH   1  31
ATOM     31  C   UNL A   1      33.186  32.174  27.460  1.00  0.00     0.118 C 
BRANCH  31  32
ATOM     32  N   UNL A   1      32.758  33.560  27.654  1.00  0.00    -0.352 N 
ATOM     33  C   UNL A   1      33.182  34.497  28.567  1.00  0.00     0.251 C 
ATOM     34  H   UNL A   1      32.058  33.869  27.034  1.00  0.00     0.163 HD
ATOM     35  O   UNL A   1      32.570  35.554  28.694  1.00  0.00    -0.269 OA
BRANCH  33  36
ATOM     36  C   UNL A   1      34.355  34.207  29.416  1.00  0.00     0.039 A 
ATOM     37  C   UNL A   1      34.183  33.509  30.616  1.00  0.00     0.014 A 
ATOM     38  C   UNL A   1      35.630  34.582  28.999  1.00  0.00     0.014 A 
ATOM     39  C   UNL A   1      35.305  33.090  31.338  1.00  0.00     0.010 A 
ATOM     40  C   UNL A   1      36.741  34.075  29.658  1.00  0.00     0.010 A 
ATOM     41  C   UNL A   1      36.593  33.318  30.831  1.00  0.00    -0.014 A 
BRANCH  41  42
ATOM     42  C   UNL A   1      37.822  32.786  31.473  1.00  0.00     0.031 A 
ATOM     43  C   UNL A   1      38.554  31.645  30.819  1.00  0.00     0.074 A 
ATOM     44  C   UNL A   1      38.172  33.198  32.708  1.00  0.00     0.049 A 
ATOM     45  N   UNL A   1      39.467  30.855  31.315  1.00  0.00    -0.248 NA
ATOM     46  C   UNL A   1      38.162  31.316  29.436  1.00  0.00     0.031 C 
ATOM     47  C   UNL A   1      37.503  34.250  33.476  1.00  0.00     0.029 A 
ATOM     48  N   UNL A   1      39.151  32.742  33.558  1.00  0.00    -0.354 N 
ATOM     49  C   UNL A   1      39.705  29.895  30.338  1.00  0.00     0.074 A 
ATOM     50  C   UNL A   1      38.828  30.191  29.228  1.00  0.00     0.031 C 
ATOM     51  C   UNL A   1      38.081  34.351  34.684  1.00  0.00     0.029 A 
ATOM     52  C   UNL A   1      39.129  33.343  34.796  1.00  0.00     0.049 A 
ATOM     53  H   UNL A   1      39.805  32.051  33.305  1.00  0.00     0.167 HD
ATOM     54  C   UNL A   1      40.593  28.873  30.355  1.00  0.00     0.034 A 
ATOM     55  C   UNL A   1      39.854  33.093  35.905  1.00  0.00     0.034 A 
ATOM     56  C   UNL A   1      41.520  28.638  31.427  1.00  0.00     0.049 A 
ATOM     57  C   UNL A   1      40.890  32.001  35.868  1.00  0.00     0.074 A 
ATOM     58  C   UNL A   1      42.528  27.694  31.500  1.00  0.00     0.029 A 
ATOM     59  N   UNL A   1      41.562  29.365  32.606  1.00  0.00    -0.354 N 
ATOM     60  N   UNL A   1      41.190  31.184  34.888  1.00  0.00    -0.248 NA
ATOM     61  C   UNL A   1      41.710  31.815  37.075  1.00  0.00     0.031 C 
ATOM     62  C   UNL A   1      43.179  27.849  32.728  1.00  0.00     0.029 A 
ATOM     63  C   UNL A   1      42.585  28.898  33.411  1.00  0.00     0.049 A 
ATOM     64  H   UNL A   1      40.954  30.105  32.836  1.00  0.00     0.167 HD
ATOM     65  C   UNL A   1      42.259  30.420  35.342  1.00  0.00     0.074 A 
ATOM     66  C   UNL A   1      42.559  30.875  36.683  1.00  0.00     0.031 C 
ATOM     67  C   UNL A   1      42.922  29.421  34.709  1.00  0.00     0.034 A 
BRANCH  54  68
ATOM     68  C   UNL A   1      40.648  27.971  29.152  1.00  0.00     0.023 A 
ATOM     69  C   UNL A   1      39.745  26.893  29.051  1.00  0.00     0.012 A 
ATOM     70  C   UNL A   1      41.551  28.217  28.099  1.00  0.00     0.148 A 
ATOM     71  C   UNL A   1      39.765  26.052  27.940  1.00  0.00     0.002 A 
ATOM     72  C   UNL A   1      41.534  27.401  26.973  1.00  0.00     0.091 A 
ATOM     73  F   UNL A   1      42.418  29.233  28.223  1.00  0.00    -0.205 F 
ATOM     74  C   UNL A   1      40.650  26.312  26.898  1.00  0.00     0.022 A 
BRANCH  72  75
ATOM     75  S   UNL A   1      42.580  27.704  25.546  1.00  0.00     0.127 S 
ATOM     76  O   UNL A   1      42.317  26.520  24.730  1.00  0.00    -0.237 OA
ATOM     77  O   UNL A   1      42.023  28.948  25.012  1.00  0.00    -0.237 OA
ATOM     78  O   UNL A   1      43.936  27.822  26.063  1.00  0.00    -0.744 OA
ENDBRANCH  72  75
ENDBRANCH  54  68
BRANCH  55  79
ATOM     79  C   UNL A   1      39.674  33.939  37.120  1.00  0.00     0.023 A 
ATOM     80  C   UNL A   1      40.157  35.263  37.107  1.00  0.00     0.012 A 
ATOM     81  C   UNL A   1      39.002  33.466  38.263  1.00  0.00     0.148 A 
ATOM     82  C   UNL A   1      40.001  36.089  38.220  1.00  0.00     0.002 A 
ATOM     83  C   UNL A   1      38.803  34.312  39.350  1.00  0.00     0.091 A 
ATOM     84  F   UNL A   1      38.558  32.200  38.263  1.00  0.00    -0.205 F 
ATOM     85  C   UNL A   1      39.316  35.618  39.336  1.00  0.00     0.022 A 
BRANCH  83  86
ATOM     86  S   UNL A   1      37.820  33.832  40.775  1.00  0.00     0.127 S 
ATOM     87  O   UNL A   1      36.665  33.199  40.144  1.00  0.00    -0.237 OA
ATOM     88  O   UNL A   1      38.722  32.915  41.473  1.00  0.00    -0.237 OA
ATOM     89  O   UNL A   1      37.551  35.069  41.498  1.00  0.00    -0.744 OA
ENDBRANCH  83  86
ENDBRANCH  55  79
BRANCH  67  90
ATOM     90  C   UNL A   1      44.085  28.783  35.418  1.00  0.00     0.023 A 
ATOM     91  C   UNL A   1      45.374  29.330  35.281  1.00  0.00     0.012 A 
ATOM     92  C   UNL A   1      43.870  27.721  36.319  1.00  0.00     0.148 A 
ATOM     93  C   UNL A   1      46.439  28.819  36.022  1.00  0.00     0.002 A 
ATOM     94  C   UNL A   1      44.927  27.247  37.086  1.00  0.00     0.091 A 
ATOM     95  F   UNL A   1      42.636  27.206  36.418  1.00  0.00    -0.205 F 
ATOM     96  C   UNL A   1      46.214  27.791  36.933  1.00  0.00     0.022 A 
BRANCH  94  97
ATOM     97  S   UNL A   1      44.711  25.993  38.354  1.00  0.00     0.127 S 
ATOM     98  O   UNL A   1      43.796  26.660  39.279  1.00  0.00    -0.237 OA
ATOM     99  O   UNL A   1      44.119  24.888  37.600  1.00  0.00    -0.237 OA
ATOM    100  O   UNL A   1      46.041  25.721  38.882  1.00  0.00    -0.744 OA
ENDBRANCH  94  97
ENDBRANCH  67  90
ENDBRANCH  41  42
ENDBRANCH  33  36
ENDBRANCH  31  32
ENDBRANCH   1  31
TORSDOF 16
ENDMDL
