MODEL 1
REMARK VINA RESULT:     -11.6      0.000      0.000
REMARK SMILES [NH3+][C@H]1C=C[C@@H](C(=O)NC2(CC(=O)NCCCNC(=O)c3ccc(-c4c5nc(c(-c6cccc(S(=O)(=O)[O-])c6F)c6ccc([nH]6)c(-c6cccc(S(=O)(=O)[O-])c6F)c6nc(c(-c7cccc(S(=O)(=O)[O-])c7F)c7ccc4[nH]7)C=C6)C=C5)cc3)CCCCC2)C1
REMARK SMILES IDX 14 1 13 2 11 3 12 4 10 6 9 7 83 8 87 9 84 10 86 11 85 12
REMARK SMILES IDX 8 13 6 14 7 15 5 17 2 18 3 19 88 20 4 21 1 22 15 26 16 27
REMARK SMILES IDX 17 28 18 29 19 31 20 32 21 33 82 34 22 35 81 36 23 37 24 38
REMARK SMILES IDX 25 39 75 40 26 41 80 42 74 43 76 44 27 45 79 46 73 47 72 48
REMARK SMILES IDX 28 50 60 51 40 52 59 53 41 54 44 55 58 56 77 57 42 58 43 59
REMARK SMILES IDX 57 61 78 62 45 63 29 64 30 65 38 66 31 67 33 68 39 69 32 70
REMARK SMILES IDX 34 71 35 72 36 73 37 74 61 75 62 76 70 77 63 78 65 79 71 80
REMARK SMILES IDX 64 81 66 82 67 83 68 84 69 85 46 86 47 87 55 88 48 89 50 90
REMARK SMILES IDX 56 91 49 92 51 93 52 94 53 95 54 96
REMARK H PARENT 13 5 8 16 1 23 1 24 1 25 17 30 76 49 44 60
REMARK Flexibility Score: inf
ROOT
ATOM      1  C   UNL A   1      35.036  23.714  23.767  1.00  0.00     0.117 C 
ENDROOT
BRANCH   1   2
ATOM      2  N   UNL A   1      33.606  23.694  24.029  1.00  0.00    -0.356 N 
ATOM      3  C   UNL A   1      32.813  24.493  24.791  1.00  0.00     0.222 C 
ATOM      4  O   UNL A   1      31.636  24.140  24.932  1.00  0.00    -0.275 OA
ATOM      5  H   UNL A   1      33.124  22.969  23.570  1.00  0.00     0.163 HD
BRANCH   3   6
ATOM      6  C   UNL A   1      33.274  25.817  25.396  1.00  0.00     0.128 C 
BRANCH   6   7
ATOM      7  C   UNL A   1      32.521  27.133  24.995  1.00  0.00     0.049 C 
ATOM      8  C   UNL A   1      33.545  28.304  24.881  1.00  0.00     0.029 C 
ATOM      9  C   UNL A   1      31.527  27.527  26.082  1.00  0.00     0.029 C 
ATOM     10  C   UNL A   1      34.124  28.779  26.222  1.00  0.00     0.002 C 
ATOM     11  C   UNL A   1      32.124  27.876  27.436  1.00  0.00     0.002 C 
ATOM     12  C   UNL A   1      33.053  29.065  27.271  1.00  0.00     0.000 C 
BRANCH   7  13
ATOM     13  N   UNL A   1      31.892  26.930  23.660  1.00  0.00    -0.350 N 
ATOM     14  C   UNL A   1      30.945  27.495  22.871  1.00  0.00     0.227 C 
ATOM     15  O   UNL A   1      30.970  27.089  21.698  1.00  0.00    -0.274 OA
ATOM     16  H   UNL A   1      32.283  26.144  23.215  1.00  0.00     0.164 HD
BRANCH  14  17
ATOM     17  C   UNL A   1      29.844  28.498  23.264  1.00  0.00     0.107 C 
ATOM     18  C   UNL A   1      28.248  30.113  22.305  1.00  0.00     0.205 C 
ATOM     19  C   UNL A   1      27.572  28.893  22.843  1.00  0.00     0.033 C 
ATOM     20  C   UNL A   1      29.746  29.757  22.393  1.00  0.00     0.087 C 
ATOM     21  C   UNL A   1      28.437  28.004  23.348  1.00  0.00    -0.012 C 
BRANCH  18  22
ATOM     22  N   UNL A   1      27.812  30.409  20.944  1.00  0.00    -0.352 N 
ATOM     23  H   UNL A   1      28.125  29.667  20.318  1.00  0.00     0.345 HD
ATOM     24  H   UNL A   1      28.212  31.298  20.645  1.00  0.00     0.345 HD
ATOM     25  H   UNL A   1      26.794  30.469  20.919  1.00  0.00     0.345 HD
ENDBRANCH  18  22
ENDBRANCH  14  17
ENDBRANCH   7  13
ENDBRANCH   6   7
ENDBRANCH   3   6
ENDBRANCH   1   2
BRANCH   1  26
ATOM     26  C   UNL A   1      35.757  22.672  24.626  1.00  0.00     0.042 C 
BRANCH  26  27
ATOM     27  C   UNL A   1      36.613  23.216  25.756  1.00  0.00     0.118 C 
BRANCH  27  28
ATOM     28  N   UNL A   1      37.764  22.366  26.019  1.00  0.00    -0.352 N 
ATOM     29  C   UNL A   1      39.049  22.663  26.410  1.00  0.00     0.251 C 
ATOM     30  H   UNL A   1      37.592  21.405  25.895  1.00  0.00     0.163 HD
ATOM     31  O   UNL A   1      39.888  21.764  26.349  1.00  0.00    -0.269 OA
BRANCH  29  32
ATOM     32  C   UNL A   1      39.459  24.013  26.886  1.00  0.00     0.039 A 
ATOM     33  C   UNL A   1      40.038  24.896  25.964  1.00  0.00     0.014 A 
ATOM     34  C   UNL A   1      39.361  24.407  28.220  1.00  0.00     0.014 A 
ATOM     35  C   UNL A   1      40.475  26.164  26.371  1.00  0.00     0.010 A 
ATOM     36  C   UNL A   1      39.695  25.707  28.603  1.00  0.00     0.010 A 
ATOM     37  C   UNL A   1      40.283  26.595  27.692  1.00  0.00    -0.014 A 
BRANCH  37  38
ATOM     38  C   UNL A   1      40.713  27.949  28.143  1.00  0.00     0.031 A 
ATOM     39  C   UNL A   1      42.179  28.309  28.188  1.00  0.00     0.074 A 
ATOM     40  C   UNL A   1      39.797  28.833  28.586  1.00  0.00     0.049 A 
ATOM     41  N   UNL A   1      42.749  29.407  28.616  1.00  0.00    -0.248 NA
ATOM     42  C   UNL A   1      43.133  27.291  27.717  1.00  0.00     0.031 C 
ATOM     43  C   UNL A   1      38.355  28.587  28.670  1.00  0.00     0.029 A 
ATOM     44  N   UNL A   1      39.943  30.108  29.079  1.00  0.00    -0.354 N 
ATOM     45  C   UNL A   1      44.119  29.197  28.505  1.00  0.00     0.074 A 
ATOM     46  C   UNL A   1      44.297  27.851  28.008  1.00  0.00     0.031 C 
ATOM     47  C   UNL A   1      37.752  29.672  29.179  1.00  0.00     0.029 A 
ATOM     48  C   UNL A   1      38.763  30.678  29.494  1.00  0.00     0.049 A 
ATOM     49  H   UNL A   1      40.812  30.568  29.130  1.00  0.00     0.167 HD
ATOM     50  C   UNL A   1      45.139  30.053  28.760  1.00  0.00     0.034 A 
ATOM     51  C   UNL A   1      38.517  31.869  30.076  1.00  0.00     0.034 A 
ATOM     52  C   UNL A   1      44.960  31.406  29.214  1.00  0.00     0.049 A 
ATOM     53  C   UNL A   1      39.661  32.817  30.316  1.00  0.00     0.074 A 
ATOM     54  C   UNL A   1      45.922  32.379  29.422  1.00  0.00     0.029 A 
ATOM     55  N   UNL A   1      43.739  31.977  29.539  1.00  0.00    -0.354 N 
ATOM     56  N   UNL A   1      40.937  32.652  30.063  1.00  0.00    -0.248 NA
ATOM     57  C   UNL A   1      39.329  34.130  30.889  1.00  0.00     0.031 C 
ATOM     58  C   UNL A   1      45.285  33.528  29.901  1.00  0.00     0.029 A 
ATOM     59  C   UNL A   1      43.922  33.284  29.956  1.00  0.00     0.049 A 
ATOM     60  H   UNL A   1      42.869  31.519  29.482  1.00  0.00     0.167 HD
ATOM     61  C   UNL A   1      41.554  33.848  30.413  1.00  0.00     0.074 A 
ATOM     62  C   UNL A   1      40.507  34.738  30.874  1.00  0.00     0.031 C 
ATOM     63  C   UNL A   1      42.869  34.176  30.367  1.00  0.00     0.034 A 
BRANCH  50  64
ATOM     64  C   UNL A   1      46.544  29.565  28.502  1.00  0.00     0.023 A 
ATOM     65  C   UNL A   1      47.187  29.899  27.291  1.00  0.00     0.012 A 
ATOM     66  C   UNL A   1      47.245  28.820  29.470  1.00  0.00     0.148 A 
ATOM     67  C   UNL A   1      48.484  29.461  27.028  1.00  0.00     0.002 A 
ATOM     68  C   UNL A   1      48.557  28.429  29.221  1.00  0.00     0.091 A 
ATOM     69  F   UNL A   1      46.617  28.498  30.609  1.00  0.00    -0.205 F 
ATOM     70  C   UNL A   1      49.171  28.736  27.996  1.00  0.00     0.022 A 
BRANCH  68  71
ATOM     71  S   UNL A   1      49.559  27.564  30.435  1.00  0.00     0.127 S 
ATOM     72  O   UNL A   1      50.854  27.503  29.758  1.00  0.00    -0.237 OA
ATOM     73  O   UNL A   1      49.514  28.476  31.579  1.00  0.00    -0.237 OA
ATOM     74  O   UNL A   1      48.908  26.280  30.654  1.00  0.00    -0.744 OA
ENDBRANCH  68  71
ENDBRANCH  50  64
BRANCH  51  75
ATOM     75  C   UNL A   1      37.119  32.249  30.426  1.00  0.00     0.023 A 
ATOM     76  C   UNL A   1      36.636  32.006  31.727  1.00  0.00     0.012 A 
ATOM     77  C   UNL A   1      36.280  32.881  29.489  1.00  0.00     0.148 A 
ATOM     78  C   UNL A   1      35.332  32.357  32.078  1.00  0.00     0.002 A 
ATOM     79  C   UNL A   1      35.002  33.281  29.862  1.00  0.00     0.091 A 
ATOM     80  F   UNL A   1      36.754  33.092  28.254  1.00  0.00    -0.205 F 
ATOM     81  C   UNL A   1      34.519  33.003  31.150  1.00  0.00     0.022 A 
BRANCH  79  82
ATOM     82  S   UNL A   1      33.935  34.236  28.778  1.00  0.00     0.127 S 
ATOM     83  O   UNL A   1      33.554  33.242  27.780  1.00  0.00    -0.237 OA
ATOM     84  O   UNL A   1      32.864  34.640  29.689  1.00  0.00    -0.237 OA
ATOM     85  O   UNL A   1      34.757  35.339  28.291  1.00  0.00    -0.744 OA
ENDBRANCH  79  82
ENDBRANCH  51  75
BRANCH  63  86
ATOM     86  C   UNL A   1      43.258  35.570  30.788  1.00  0.00     0.023 A 
ATOM     87  C   UNL A   1      43.632  35.825  32.121  1.00  0.00     0.012 A 
ATOM     88  C   UNL A   1      43.325  36.610  29.839  1.00  0.00     0.148 A 
ATOM     89  C   UNL A   1      44.034  37.102  32.512  1.00  0.00     0.002 A 
ATOM     90  C   UNL A   1      43.776  37.867  30.225  1.00  0.00     0.091 A 
ATOM     91  F   UNL A   1      42.948  36.351  28.579  1.00  0.00    -0.205 F 
ATOM     92  C   UNL A   1      44.118  38.118  31.563  1.00  0.00     0.022 A 
BRANCH  90  93
ATOM     93  S   UNL A   1      44.010  39.208  29.053  1.00  0.00     0.127 S 
ATOM     94  O   UNL A   1      44.532  40.268  29.916  1.00  0.00    -0.237 OA
ATOM     95  O   UNL A   1      44.988  38.641  28.125  1.00  0.00    -0.237 OA
ATOM     96  O   UNL A   1      42.701  39.468  28.469  1.00  0.00    -0.744 OA
ENDBRANCH  90  93
ENDBRANCH  63  86
ENDBRANCH  37  38
ENDBRANCH  29  32
ENDBRANCH  27  28
ENDBRANCH  26  27
ENDBRANCH   1  26
TORSDOF 17
ENDMDL
MODEL 2
REMARK VINA RESULT:     -11.5      4.628      9.738
REMARK SMILES [NH3+][C@H]1C=C[C@@H](C(=O)NC2(CC(=O)NCCCNC(=O)c3ccc(-c4c5nc(c(-c6cccc(S(=O)(=O)[O-])c6F)c6ccc([nH]6)c(-c6cccc(S(=O)(=O)[O-])c6F)c6nc(c(-c7cccc(S(=O)(=O)[O-])c7F)c7ccc4[nH]7)C=C6)C=C5)cc3)CCCCC2)C1
REMARK SMILES IDX 14 1 13 2 11 3 12 4 10 6 9 7 83 8 87 9 84 10 86 11 85 12
REMARK SMILES IDX 8 13 6 14 7 15 5 17 2 18 3 19 88 20 4 21 1 22 15 26 16 27
REMARK SMILES IDX 17 28 18 29 19 31 20 32 21 33 82 34 22 35 81 36 23 37 24 38
REMARK SMILES IDX 25 39 75 40 26 41 80 42 74 43 76 44 27 45 79 46 73 47 72 48
REMARK SMILES IDX 28 50 60 51 40 52 59 53 41 54 44 55 58 56 77 57 42 58 43 59
REMARK SMILES IDX 57 61 78 62 45 63 29 64 30 65 38 66 31 67 33 68 39 69 32 70
REMARK SMILES IDX 34 71 35 72 36 73 37 74 61 75 62 76 70 77 63 78 65 79 71 80
REMARK SMILES IDX 64 81 66 82 67 83 68 84 69 85 46 86 47 87 55 88 48 89 50 90
REMARK SMILES IDX 56 91 49 92 51 93 52 94 53 95 54 96
REMARK H PARENT 13 5 8 16 1 23 1 24 1 25 17 30 76 49 44 60
REMARK Flexibility Score: inf
ROOT
ATOM      1  C   UNL A   1      32.198  28.669  23.066  1.00  0.00     0.117 C 
ENDROOT
BRANCH   1   2
ATOM      2  N   UNL A   1      32.808  27.705  22.165  1.00  0.00    -0.356 N 
ATOM      3  C   UNL A   1      32.655  26.360  22.038  1.00  0.00     0.222 C 
ATOM      4  O   UNL A   1      33.424  25.782  21.261  1.00  0.00    -0.275 OA
ATOM      5  H   UNL A   1      33.448  28.098  21.530  1.00  0.00     0.163 HD
BRANCH   3   6
ATOM      6  C   UNL A   1      31.552  25.562  22.728  1.00  0.00     0.128 C 
BRANCH   6   7
ATOM      7  C   UNL A   1      31.952  24.354  23.644  1.00  0.00     0.049 C 
ATOM      8  C   UNL A   1      30.813  24.080  24.672  1.00  0.00     0.029 C 
ATOM      9  C   UNL A   1      33.199  24.693  24.453  1.00  0.00     0.029 C 
ATOM     10  C   UNL A   1      30.670  25.149  25.766  1.00  0.00     0.002 C 
ATOM     11  C   UNL A   1      33.059  25.838  25.444  1.00  0.00     0.002 C 
ATOM     12  C   UNL A   1      31.989  25.481  26.459  1.00  0.00     0.000 C 
BRANCH   7  13
ATOM     13  N   UNL A   1      32.110  23.145  22.788  1.00  0.00    -0.350 N 
ATOM     14  C   UNL A   1      32.416  21.829  22.911  1.00  0.00     0.227 C 
ATOM     15  O   UNL A   1      32.156  21.163  21.896  1.00  0.00    -0.274 OA
ATOM     16  H   UNL A   1      31.942  23.369  21.845  1.00  0.00     0.164 HD
BRANCH  14  17
ATOM     17  C   UNL A   1      33.081  21.107  24.097  1.00  0.00     0.107 C 
ATOM     18  C   UNL A   1      34.688  21.452  25.935  1.00  0.00     0.205 C 
ATOM     19  C   UNL A   1      33.280  21.327  26.423  1.00  0.00     0.033 C 
ATOM     20  C   UNL A   1      34.527  21.517  24.403  1.00  0.00     0.087 C 
ATOM     21  C   UNL A   1      32.401  21.158  25.426  1.00  0.00    -0.012 C 
BRANCH  18  22
ATOM     22  N   UNL A   1      35.342  22.632  26.491  1.00  0.00    -0.352 N 
ATOM     23  H   UNL A   1      34.944  22.841  27.406  1.00  0.00     0.345 HD
ATOM     24  H   UNL A   1      35.197  23.426  25.867  1.00  0.00     0.345 HD
ATOM     25  H   UNL A   1      36.341  22.452  26.586  1.00  0.00     0.345 HD
ENDBRANCH  18  22
ENDBRANCH  14  17
ENDBRANCH   7  13
ENDBRANCH   6   7
ENDBRANCH   3   6
ENDBRANCH   1   2
BRANCH   1  26
ATOM     26  C   UNL A   1      33.252  29.290  23.987  1.00  0.00     0.042 C 
BRANCH  26  27
ATOM     27  C   UNL A   1      32.887  29.368  25.459  1.00  0.00     0.118 C 
BRANCH  27  28
ATOM     28  N   UNL A   1      32.639  30.738  25.881  1.00  0.00    -0.352 N 
ATOM     29  C   UNL A   1      33.198  31.502  26.880  1.00  0.00     0.251 C 
ATOM     30  H   UNL A   1      31.945  31.202  25.359  1.00  0.00     0.163 HD
ATOM     31  O   UNL A   1      32.646  32.565  27.163  1.00  0.00    -0.269 OA
BRANCH  29  32
ATOM     32  C   UNL A   1      34.419  31.091  27.625  1.00  0.00     0.039 A 
ATOM     33  C   UNL A   1      34.522  29.760  28.051  1.00  0.00     0.014 A 
ATOM     34  C   UNL A   1      35.425  31.989  27.983  1.00  0.00     0.014 A 
ATOM     35  C   UNL A   1      35.635  29.333  28.789  1.00  0.00     0.010 A 
ATOM     36  C   UNL A   1      36.583  31.540  28.622  1.00  0.00     0.010 A 
ATOM     37  C   UNL A   1      36.693  30.214  29.059  1.00  0.00    -0.014 A 
BRANCH  37  38
ATOM     38  C   UNL A   1      37.899  29.777  29.818  1.00  0.00     0.031 A 
ATOM     39  C   UNL A   1      38.178  30.331  31.194  1.00  0.00     0.074 A 
ATOM     40  C   UNL A   1      38.788  28.942  29.244  1.00  0.00     0.049 A 
ATOM     41  N   UNL A   1      39.208  30.125  31.976  1.00  0.00    -0.248 NA
ATOM     42  C   UNL A   1      37.184  31.261  31.756  1.00  0.00     0.031 C 
ATOM     43  C   UNL A   1      38.682  28.392  27.891  1.00  0.00     0.029 A 
ATOM     44  N   UNL A   1      39.974  28.430  29.715  1.00  0.00    -0.354 N 
ATOM     45  C   UNL A   1      39.006  30.926  33.095  1.00  0.00     0.074 A 
ATOM     46  C   UNL A   1      37.776  31.653  32.874  1.00  0.00     0.031 C 
ATOM     47  C   UNL A   1      39.752  27.622  27.641  1.00  0.00     0.029 A 
ATOM     48  C   UNL A   1      40.640  27.650  28.800  1.00  0.00     0.049 A 
ATOM     49  H   UNL A   1      40.314  28.607  30.623  1.00  0.00     0.167 HD
ATOM     50  C   UNL A   1      39.754  31.027  34.221  1.00  0.00     0.034 A 
ATOM     51  C   UNL A   1      41.839  27.036  28.873  1.00  0.00     0.034 A 
ATOM     52  C   UNL A   1      40.955  30.272  34.460  1.00  0.00     0.049 A 
ATOM     53  C   UNL A   1      42.635  27.132  30.147  1.00  0.00     0.074 A 
ATOM     54  C   UNL A   1      41.740  30.240  35.599  1.00  0.00     0.029 A 
ATOM     55  N   UNL A   1      41.552  29.423  33.540  1.00  0.00    -0.354 N 
ATOM     56  N   UNL A   1      42.350  27.778  31.251  1.00  0.00    -0.248 NA
ATOM     57  C   UNL A   1      43.901  26.386  30.199  1.00  0.00     0.031 C 
ATOM     58  C   UNL A   1      42.827  29.394  35.358  1.00  0.00     0.029 A 
ATOM     59  C   UNL A   1      42.699  28.869  34.082  1.00  0.00     0.049 A 
ATOM     60  H   UNL A   1      41.209  29.240  32.636  1.00  0.00     0.167 HD
ATOM     61  C   UNL A   1      43.380  27.491  32.139  1.00  0.00     0.074 A 
ATOM     62  C   UNL A   1      44.285  26.593  31.451  1.00  0.00     0.031 C 
ATOM     63  C   UNL A   1      43.567  27.939  33.405  1.00  0.00     0.034 A 
BRANCH  50  64
ATOM     64  C   UNL A   1      39.264  31.954  35.307  1.00  0.00     0.023 A 
ATOM     65  C   UNL A   1      38.273  31.510  36.208  1.00  0.00     0.012 A 
ATOM     66  C   UNL A   1      39.813  33.241  35.469  1.00  0.00     0.148 A 
ATOM     67  C   UNL A   1      37.802  32.345  37.219  1.00  0.00     0.002 A 
ATOM     68  C   UNL A   1      39.375  34.051  36.512  1.00  0.00     0.091 A 
ATOM     69  F   UNL A   1      40.743  33.655  34.598  1.00  0.00    -0.205 F 
ATOM     70  C   UNL A   1      38.360  33.611  37.377  1.00  0.00     0.022 A 
BRANCH  68  71
ATOM     71  S   UNL A   1      40.087  35.664  36.854  1.00  0.00     0.127 S 
ATOM     72  O   UNL A   1      39.653  36.431  35.686  1.00  0.00    -0.237 OA
ATOM     73  O   UNL A   1      39.423  36.035  38.104  1.00  0.00    -0.237 OA
ATOM     74  O   UNL A   1      41.523  35.455  36.966  1.00  0.00    -0.744 OA
ENDBRANCH  68  71
ENDBRANCH  50  64
BRANCH  51  75
ATOM     75  C   UNL A   1      42.333  26.234  27.718  1.00  0.00     0.023 A 
ATOM     76  C   UNL A   1      43.246  26.807  26.812  1.00  0.00     0.012 A 
ATOM     77  C   UNL A   1      41.931  24.897  27.535  1.00  0.00     0.148 A 
ATOM     78  C   UNL A   1      43.725  26.073  25.726  1.00  0.00     0.002 A 
ATOM     79  C   UNL A   1      42.456  24.153  26.485  1.00  0.00     0.091 A 
ATOM     80  F   UNL A   1      41.052  24.374  28.401  1.00  0.00    -0.205 F 
ATOM     81  C   UNL A   1      43.338  24.744  25.568  1.00  0.00     0.022 A 
BRANCH  79  82
ATOM     82  S   UNL A   1      42.120  22.401  26.282  1.00  0.00     0.127 S 
ATOM     83  O   UNL A   1      40.661  22.376  26.249  1.00  0.00    -0.237 OA
ATOM     84  O   UNL A   1      42.771  22.115  25.003  1.00  0.00    -0.237 OA
ATOM     85  O   UNL A   1      42.739  21.746  27.430  1.00  0.00    -0.744 OA
ENDBRANCH  79  82
ENDBRANCH  51  75
BRANCH  63  86
ATOM     86  C   UNL A   1      44.774  27.438  34.155  1.00  0.00     0.023 A 
ATOM     87  C   UNL A   1      45.972  28.179  34.140  1.00  0.00     0.012 A 
ATOM     88  C   UNL A   1      44.695  26.269  34.938  1.00  0.00     0.148 A 
ATOM     89  C   UNL A   1      47.082  27.747  34.863  1.00  0.00     0.002 A 
ATOM     90  C   UNL A   1      45.789  25.872  35.697  1.00  0.00     0.091 A 
ATOM     91  F   UNL A   1      43.552  25.568  34.926  1.00  0.00    -0.205 F 
ATOM     92  C   UNL A   1      46.987  26.602  35.651  1.00  0.00     0.022 A 
BRANCH  90  93
ATOM     93  S   UNL A   1      45.727  24.469  36.817  1.00  0.00     0.127 S 
ATOM     94  O   UNL A   1      47.060  24.509  37.418  1.00  0.00    -0.237 OA
ATOM     95  O   UNL A   1      44.638  24.841  37.721  1.00  0.00    -0.237 OA
ATOM     96  O   UNL A   1      45.453  23.303  35.988  1.00  0.00    -0.744 OA
ENDBRANCH  90  93
ENDBRANCH  63  86
ENDBRANCH  37  38
ENDBRANCH  29  32
ENDBRANCH  27  28
ENDBRANCH  26  27
ENDBRANCH   1  26
TORSDOF 17
ENDMDL
MODEL 3
REMARK VINA RESULT:     -11.5      5.152     10.087
REMARK SMILES [NH3+][C@H]1C=C[C@@H](C(=O)NC2(CC(=O)NCCCNC(=O)c3ccc(-c4c5nc(c(-c6cccc(S(=O)(=O)[O-])c6F)c6ccc([nH]6)c(-c6cccc(S(=O)(=O)[O-])c6F)c6nc(c(-c7cccc(S(=O)(=O)[O-])c7F)c7ccc4[nH]7)C=C6)C=C5)cc3)CCCCC2)C1
REMARK SMILES IDX 14 1 13 2 11 3 12 4 10 6 9 7 83 8 87 9 84 10 86 11 85 12
REMARK SMILES IDX 8 13 6 14 7 15 5 17 2 18 3 19 88 20 4 21 1 22 15 26 16 27
REMARK SMILES IDX 17 28 18 29 19 31 20 32 21 33 82 34 22 35 81 36 23 37 24 38
REMARK SMILES IDX 25 39 75 40 26 41 80 42 74 43 76 44 27 45 79 46 73 47 72 48
REMARK SMILES IDX 28 50 60 51 40 52 59 53 41 54 44 55 58 56 77 57 42 58 43 59
REMARK SMILES IDX 57 61 78 62 45 63 29 64 30 65 38 66 31 67 33 68 39 69 32 70
REMARK SMILES IDX 34 71 35 72 36 73 37 74 61 75 62 76 70 77 63 78 65 79 71 80
REMARK SMILES IDX 64 81 66 82 67 83 68 84 69 85 46 86 47 87 55 88 48 89 50 90
REMARK SMILES IDX 56 91 49 92 51 93 52 94 53 95 54 96
REMARK H PARENT 13 5 8 16 1 23 1 24 1 25 17 30 76 49 44 60
REMARK Flexibility Score: inf
ROOT
ATOM      1  C   UNL A   1      31.422  30.267  25.481  1.00  0.00     0.117 C 
ENDROOT
BRANCH   1   2
ATOM      2  N   UNL A   1      31.704  29.259  26.490  1.00  0.00    -0.356 N 
ATOM      3  C   UNL A   1      31.448  27.924  26.535  1.00  0.00     0.222 C 
ATOM      4  O   UNL A   1      31.686  27.347  27.602  1.00  0.00    -0.275 OA
ATOM      5  H   UNL A   1      32.163  29.607  27.287  1.00  0.00     0.163 HD
BRANCH   3   6
ATOM      6  C   UNL A   1      30.975  27.110  25.333  1.00  0.00     0.128 C 
BRANCH   6   7
ATOM      7  C   UNL A   1      31.708  25.767  24.995  1.00  0.00     0.049 C 
ATOM      8  C   UNL A   1      33.243  26.023  24.892  1.00  0.00     0.029 C 
ATOM      9  C   UNL A   1      31.261  25.246  23.634  1.00  0.00     0.029 C 
ATOM     10  C   UNL A   1      33.674  26.828  23.656  1.00  0.00     0.002 C 
ATOM     11  C   UNL A   1      31.597  26.126  22.440  1.00  0.00     0.002 C 
ATOM     12  C   UNL A   1      33.105  26.279  22.352  1.00  0.00     0.000 C 
BRANCH   7  13
ATOM     13  N   UNL A   1      31.469  24.805  26.107  1.00  0.00    -0.350 N 
ATOM     14  C   UNL A   1      31.924  23.605  26.547  1.00  0.00     0.227 C 
ATOM     15  O   UNL A   1      31.570  23.336  27.707  1.00  0.00    -0.274 OA
ATOM     16  H   UNL A   1      30.764  25.143  26.704  1.00  0.00     0.164 HD
BRANCH  14  17
ATOM     17  C   UNL A   1      32.746  22.553  25.781  1.00  0.00     0.107 C 
ATOM     18  C   UNL A   1      33.404  20.177  25.836  1.00  0.00     0.205 C 
ATOM     19  C   UNL A   1      32.436  20.476  24.736  1.00  0.00     0.033 C 
ATOM     20  C   UNL A   1      33.441  21.491  26.643  1.00  0.00     0.087 C 
ATOM     21  C   UNL A   1      32.060  21.762  24.714  1.00  0.00    -0.012 C 
BRANCH  18  22
ATOM     22  N   UNL A   1      32.973  19.032  26.631  1.00  0.00    -0.352 N 
ATOM     23  H   UNL A   1      32.766  18.248  26.012  1.00  0.00     0.345 HD
ATOM     24  H   UNL A   1      32.135  19.281  27.157  1.00  0.00     0.345 HD
ATOM     25  H   UNL A   1      33.715  18.769  27.278  1.00  0.00     0.345 HD
ENDBRANCH  18  22
ENDBRANCH  14  17
ENDBRANCH   7  13
ENDBRANCH   6   7
ENDBRANCH   3   6
ENDBRANCH   1   2
BRANCH   1  26
ATOM     26  C   UNL A   1      31.306  31.654  26.118  1.00  0.00     0.042 C 
BRANCH  26  27
ATOM     27  C   UNL A   1      32.252  31.938  27.272  1.00  0.00     0.118 C 
BRANCH  27  28
ATOM     28  N   UNL A   1      32.564  33.355  27.378  1.00  0.00    -0.352 N 
ATOM     29  C   UNL A   1      33.557  34.024  28.055  1.00  0.00     0.251 C 
ATOM     30  H   UNL A   1      31.954  33.941  26.874  1.00  0.00     0.163 HD
ATOM     31  O   UNL A   1      33.460  35.247  28.152  1.00  0.00    -0.269 OA
BRANCH  29  32
ATOM     32  C   UNL A   1      34.720  33.332  28.676  1.00  0.00     0.039 A 
ATOM     33  C   UNL A   1      34.484  32.161  29.409  1.00  0.00     0.014 A 
ATOM     34  C   UNL A   1      36.019  33.839  28.623  1.00  0.00     0.014 A 
ATOM     35  C   UNL A   1      35.541  31.494  30.044  1.00  0.00     0.010 A 
ATOM     36  C   UNL A   1      37.085  33.118  29.162  1.00  0.00     0.010 A 
ATOM     37  C   UNL A   1      36.860  31.951  29.904  1.00  0.00    -0.014 A 
BRANCH  37  38
ATOM     38  C   UNL A   1      38.004  31.244  30.547  1.00  0.00     0.031 A 
ATOM     39  C   UNL A   1      38.396  31.560  31.970  1.00  0.00     0.074 A 
ATOM     40  C   UNL A   1      38.742  30.372  29.831  1.00  0.00     0.049 A 
ATOM     41  N   UNL A   1      39.401  31.102  32.673  1.00  0.00    -0.248 NA
ATOM     42  C   UNL A   1      37.567  32.542  32.690  1.00  0.00     0.031 C 
ATOM     43  C   UNL A   1      38.522  30.031  28.424  1.00  0.00     0.029 A 
ATOM     44  N   UNL A   1      39.848  29.633  30.180  1.00  0.00    -0.354 N 
ATOM     45  C   UNL A   1      39.349  31.766  33.894  1.00  0.00     0.074 A 
ATOM     46  C   UNL A   1      38.239  32.689  33.822  1.00  0.00     0.031 C 
ATOM     47  C   UNL A   1      39.457  29.153  28.030  1.00  0.00     0.029 A 
ATOM     48  C   UNL A   1      40.367  28.894  29.143  1.00  0.00     0.049 A 
ATOM     49  H   UNL A   1      40.232  29.634  31.087  1.00  0.00     0.167 HD
ATOM     50  C   UNL A   1      40.131  31.603  34.990  1.00  0.00     0.034 A 
ATOM     51  C   UNL A   1      41.460  28.107  29.084  1.00  0.00     0.034 A 
ATOM     52  C   UNL A   1      41.209  30.655  35.076  1.00  0.00     0.049 A 
ATOM     53  C   UNL A   1      42.292  27.913  30.323  1.00  0.00     0.074 A 
ATOM     54  C   UNL A   1      42.007  30.356  36.166  1.00  0.00     0.029 A 
ATOM     55  N   UNL A   1      41.649  29.860  34.029  1.00  0.00    -0.354 N 
ATOM     56  N   UNL A   1      42.134  28.439  31.513  1.00  0.00    -0.248 NA
ATOM     57  C   UNL A   1      43.432  26.989  30.222  1.00  0.00     0.031 C 
ATOM     58  C   UNL A   1      42.947  29.399  35.770  1.00  0.00     0.029 A 
ATOM     59  C   UNL A   1      42.712  29.076  34.443  1.00  0.00     0.049 A 
ATOM     60  H   UNL A   1      41.261  29.853  33.124  1.00  0.00     0.167 HD
ATOM     61  C   UNL A   1      43.130  27.887  32.310  1.00  0.00     0.074 A 
ATOM     62  C   UNL A   1      43.872  26.967  31.473  1.00  0.00     0.031 C 
ATOM     63  C   UNL A   1      43.412  28.128  33.615  1.00  0.00     0.034 A 
BRANCH  50  64
ATOM     64  C   UNL A   1      39.812  32.438  36.207  1.00  0.00     0.023 A 
ATOM     65  C   UNL A   1      40.504  33.648  36.422  1.00  0.00     0.012 A 
ATOM     66  C   UNL A   1      38.801  32.054  37.110  1.00  0.00     0.148 A 
ATOM     67  C   UNL A   1      40.230  34.438  37.538  1.00  0.00     0.002 A 
ATOM     68  C   UNL A   1      38.499  32.872  38.193  1.00  0.00     0.091 A 
ATOM     69  F   UNL A   1      38.163  30.894  36.900  1.00  0.00    -0.205 F 
ATOM     70  C   UNL A   1      39.222  34.055  38.417  1.00  0.00     0.022 A 
BRANCH  68  71
ATOM     71  S   UNL A   1      37.162  32.512  39.338  1.00  0.00     0.127 S 
ATOM     72  O   UNL A   1      37.476  31.140  39.735  1.00  0.00    -0.237 OA
ATOM     73  O   UNL A   1      37.375  33.512  40.384  1.00  0.00    -0.237 OA
ATOM     74  O   UNL A   1      35.929  32.676  38.581  1.00  0.00    -0.744 OA
ENDBRANCH  68  71
ENDBRANCH  50  64
BRANCH  51  75
ATOM     75  C   UNL A   1      41.800  27.404  27.814  1.00  0.00     0.023 A 
ATOM     76  C   UNL A   1      42.300  28.140  26.722  1.00  0.00     0.012 A 
ATOM     77  C   UNL A   1      41.664  26.008  27.696  1.00  0.00     0.148 A 
ATOM     78  C   UNL A   1      42.628  27.502  25.525  1.00  0.00     0.002 A 
ATOM     79  C   UNL A   1      42.048  25.370  26.521  1.00  0.00     0.091 A 
ATOM     80  F   UNL A   1      41.176  25.327  28.742  1.00  0.00    -0.205 F 
ATOM     81  C   UNL A   1      42.512  26.117  25.428  1.00  0.00     0.022 A 
BRANCH  79  82
ATOM     82  S   UNL A   1      42.060  23.583  26.354  1.00  0.00     0.127 S 
ATOM     83  O   UNL A   1      42.672  23.408  25.041  1.00  0.00    -0.237 OA
ATOM     84  O   UNL A   1      42.897  23.180  27.484  1.00  0.00    -0.237 OA
ATOM     85  O   UNL A   1      40.665  23.168  26.462  1.00  0.00    -0.744 OA
ENDBRANCH  79  82
ENDBRANCH  51  75
BRANCH  63  86
ATOM     86  C   UNL A   1      44.548  27.359  34.240  1.00  0.00     0.023 A 
ATOM     87  C   UNL A   1      45.868  27.837  34.131  1.00  0.00     0.012 A 
ATOM     88  C   UNL A   1      44.293  26.200  35.001  1.00  0.00     0.148 A 
ATOM     89  C   UNL A   1      46.921  27.157  34.740  1.00  0.00     0.002 A 
ATOM     90  C   UNL A   1      45.340  25.557  35.648  1.00  0.00     0.091 A 
ATOM     91  F   UNL A   1      43.031  25.752  35.078  1.00  0.00    -0.205 F 
ATOM     92  C   UNL A   1      46.656  26.025  35.508  1.00  0.00     0.022 A 
BRANCH  90  93
ATOM     93  S   UNL A   1      45.081  24.152  36.738  1.00  0.00     0.127 S 
ATOM     94  O   UNL A   1      44.168  24.712  37.733  1.00  0.00    -0.237 OA
ATOM     95  O   UNL A   1      44.475  23.170  35.838  1.00  0.00    -0.237 OA
ATOM     96  O   UNL A   1      46.398  23.782  37.239  1.00  0.00    -0.744 OA
ENDBRANCH  90  93
ENDBRANCH  63  86
ENDBRANCH  37  38
ENDBRANCH  29  32
ENDBRANCH  27  28
ENDBRANCH  26  27
ENDBRANCH   1  26
TORSDOF 17
ENDMDL
