MODEL 1
REMARK VINA RESULT:     -13.0      0.000      0.000
REMARK SMILES Cc1cc(C)c(S(=O)(=O)Nc2ccc(N3CC[NH+](C)CC3)c(C(=O)NCCCNC(=O)c3ccc(-c4c5nc(c(-c6cccc(S(=O)(=O)[O-])c6F)c6ccc([nH]6)c(-c6cccc(S(=O)(=O)[O-])c6F)c6nc(c(-c7cccc(S(=O)(=O)[O-])c7F)c7ccc4[nH]7)C=C6)C=C5)cc3)c2)c(C)c1
REMARK SMILES IDX 27 1 26 2 25 3 23 4 24 5 22 7 11 8 12 9 95 10 13 11 14 12
REMARK SMILES IDX 10 13 7 15 8 16 9 17 6 18 1 19 2 20 3 21 98 22 4 23 96 24
REMARK SMILES IDX 5 25 97 26 15 27 16 28 21 29 17 30 20 31 18 32 19 33 28 35
REMARK SMILES IDX 29 36 30 37 31 39 32 40 33 41 94 42 34 43 93 44 35 45 36 46
REMARK SMILES IDX 37 47 87 48 38 49 92 50 86 51 88 52 39 53 91 54 85 55 84 56
REMARK SMILES IDX 40 58 72 59 52 60 71 61 53 62 56 63 70 64 89 65 54 66 55 67
REMARK SMILES IDX 69 69 90 70 57 71 41 72 42 73 50 74 43 75 45 76 51 77 44 78
REMARK SMILES IDX 46 79 47 80 48 81 49 82 73 83 74 84 82 85 75 86 77 87 83 88
REMARK SMILES IDX 76 89 78 90 79 91 80 92 81 93 58 94 59 95 67 96 60 97 62 98
REMARK SMILES IDX 68 99 61 100 63 101 64 102 65 103 66 104
REMARK H PARENT 25 6 10 14 18 34 29 38 88 57 56 68
REMARK Flexibility Score: inf
ROOT
ATOM      1  C   UNL A   1      33.257  27.981  27.013  1.00  0.00     0.042 C 
ENDROOT
BRANCH   1   2
ATOM      2  C   UNL A   1      31.790  28.383  27.152  1.00  0.00     0.118 C 
BRANCH   2   3
ATOM      3  N   UNL A   1      30.918  27.235  27.014  1.00  0.00    -0.352 N 
ATOM      4  C   UNL A   1      30.857  26.190  26.126  1.00  0.00     0.253 C 
ATOM      5  O   UNL A   1      29.860  25.479  26.247  1.00  0.00    -0.269 OA
ATOM      6  H   UNL A   1      30.219  27.196  27.706  1.00  0.00     0.163 HD
BRANCH   4   7
ATOM      7  C   UNL A   1      31.902  25.910  25.080  1.00  0.00     0.065 A 
ATOM      8  C   UNL A   1      33.533  24.381  24.118  1.00  0.00     0.050 A 
ATOM      9  C   UNL A   1      33.839  25.309  23.132  1.00  0.00     0.029 A 
ATOM     10  C   UNL A   1      32.703  24.756  25.170  1.00  0.00     0.042 A 
ATOM     11  C   UNL A   1      33.111  26.490  23.057  1.00  0.00     0.029 A 
ATOM     12  C   UNL A   1      32.054  26.759  23.948  1.00  0.00     0.050 A 
BRANCH   8  13
ATOM     13  N   UNL A   1      33.980  23.054  23.887  1.00  0.00    -0.280 N 
ATOM     14  H   UNL A   1      33.535  22.565  23.157  1.00  0.00     0.180 HD
BRANCH  13  15
ATOM     15  S   UNL A   1      35.174  22.226  24.709  1.00  0.00     0.262 S 
ATOM     16  O   UNL A   1      35.168  22.746  26.067  1.00  0.00    -0.201 OA
ATOM     17  O   UNL A   1      36.345  22.332  23.870  1.00  0.00    -0.201 OA
BRANCH  15  18
ATOM     18  C   UNL A   1      34.823  20.459  24.843  1.00  0.00     0.093 A 
ATOM     19  C   UNL A   1      33.602  16.389  23.991  1.00  0.00     0.044 C 
ATOM     20  C   UNL A   1      34.025  17.783  24.347  1.00  0.00    -0.051 A 
ATOM     21  C   UNL A   1      33.074  18.756  24.642  1.00  0.00     0.008 A 
ATOM     22  C   UNL A   1      35.373  18.121  24.462  1.00  0.00     0.008 A 
ATOM     23  C   UNL A   1      33.450  20.090  24.894  1.00  0.00    -0.030 A 
ATOM     24  C   UNL A   1      35.794  19.440  24.757  1.00  0.00    -0.030 A 
ATOM     25  C   UNL A   1      32.327  21.018  25.294  1.00  0.00     0.046 C 
ATOM     26  C   UNL A   1      37.265  19.601  24.991  1.00  0.00     0.046 C 
ENDBRANCH  15  18
ENDBRANCH  13  15
ENDBRANCH   8  13
BRANCH  12  27
ATOM     27  N   UNL A   1      31.131  27.721  23.573  1.00  0.00    -0.360 N 
ATOM     28  C   UNL A   1      31.478  29.146  23.518  1.00  0.00     0.178 C 
ATOM     29  C   UNL A   1      30.005  27.351  22.707  1.00  0.00     0.178 C 
ATOM     30  C   UNL A   1      30.220  29.976  23.890  1.00  0.00     0.283 C 
ATOM     31  C   UNL A   1      28.776  28.218  23.051  1.00  0.00     0.283 C 
ATOM     32  N   UNL A   1      29.053  29.672  23.012  1.00  0.00    -0.334 N 
ATOM     33  C   UNL A   1      27.876  30.416  23.459  1.00  0.00     0.332 C 
ATOM     34  H   UNL A   1      29.272  29.953  22.056  1.00  0.00     0.347 HD
ENDBRANCH  12  27
ENDBRANCH   4   7
ENDBRANCH   2   3
ENDBRANCH   1   2
BRANCH   1  35
ATOM     35  C   UNL A   1      34.090  29.018  26.273  1.00  0.00     0.118 C 
BRANCH  35  36
ATOM     36  N   UNL A   1      33.898  30.356  26.816  1.00  0.00    -0.352 N 
ATOM     37  C   UNL A   1      34.631  31.014  27.771  1.00  0.00     0.251 C 
ATOM     38  H   UNL A   1      33.137  30.858  26.446  1.00  0.00     0.163 HD
ATOM     39  O   UNL A   1      34.201  32.061  28.248  1.00  0.00    -0.269 OA
BRANCH  37  40
ATOM     40  C   UNL A   1      35.926  30.462  28.230  1.00  0.00     0.039 A 
ATOM     41  C   UNL A   1      35.960  29.725  29.417  1.00  0.00     0.014 A 
ATOM     42  C   UNL A   1      37.106  30.698  27.518  1.00  0.00     0.014 A 
ATOM     43  C   UNL A   1      37.171  29.202  29.875  1.00  0.00     0.010 A 
ATOM     44  C   UNL A   1      38.299  30.117  27.938  1.00  0.00     0.010 A 
ATOM     45  C   UNL A   1      38.349  29.386  29.133  1.00  0.00    -0.014 A 
BRANCH  45  46
ATOM     46  C   UNL A   1      39.649  28.854  29.611  1.00  0.00     0.031 A 
ATOM     47  C   UNL A   1      40.369  29.535  30.744  1.00  0.00     0.074 A 
ATOM     48  C   UNL A   1      40.217  27.809  28.979  1.00  0.00     0.049 A 
ATOM     49  N   UNL A   1      41.527  29.244  31.279  1.00  0.00    -0.248 NA
ATOM     50  C   UNL A   1      39.722  30.720  31.331  1.00  0.00     0.031 C 
ATOM     51  C   UNL A   1      39.663  27.126  27.809  1.00  0.00     0.029 A 
ATOM     52  N   UNL A   1      41.399  27.156  29.218  1.00  0.00    -0.354 N 
ATOM     53  C   UNL A   1      41.766  30.232  32.226  1.00  0.00     0.074 A 
ATOM     54  C   UNL A   1      40.649  31.148  32.174  1.00  0.00     0.031 C 
ATOM     55  C   UNL A   1      40.502  26.146  27.434  1.00  0.00     0.029 A 
ATOM     56  C   UNL A   1      41.656  26.137  28.330  1.00  0.00     0.049 A 
ATOM     57  H   UNL A   1      42.007  27.393  29.955  1.00  0.00     0.167 HD
ATOM     58  C   UNL A   1      42.804  30.347  33.088  1.00  0.00     0.034 A 
ATOM     59  C   UNL A   1      42.696  25.285  28.257  1.00  0.00     0.034 A 
ATOM     60  C   UNL A   1      43.869  29.388  33.194  1.00  0.00     0.049 A 
ATOM     61  C   UNL A   1      43.777  25.363  29.300  1.00  0.00     0.074 A 
ATOM     62  C   UNL A   1      44.907  29.350  34.107  1.00  0.00     0.029 A 
ATOM     63  N   UNL A   1      44.025  28.290  32.363  1.00  0.00    -0.354 N 
ATOM     64  N   UNL A   1      43.896  26.200  30.303  1.00  0.00    -0.248 NA
ATOM     65  C   UNL A   1      44.844  24.353  29.231  1.00  0.00     0.031 C 
ATOM     66  C   UNL A   1      45.689  28.222  33.831  1.00  0.00     0.029 A 
ATOM     67  C   UNL A   1      45.137  27.561  32.745  1.00  0.00     0.049 A 
ATOM     68  H   UNL A   1      43.431  28.061  31.612  1.00  0.00     0.167 HD
ATOM     69  C   UNL A   1      45.030  25.800  31.001  1.00  0.00     0.074 A 
ATOM     70  C   UNL A   1      45.550  24.632  30.320  1.00  0.00     0.031 C 
ATOM     71  C   UNL A   1      45.601  26.362  32.094  1.00  0.00     0.034 A 
BRANCH  58  72
ATOM     72  C   UNL A   1      42.788  31.509  34.044  1.00  0.00     0.023 A 
ATOM     73  C   UNL A   1      43.382  32.727  33.655  1.00  0.00     0.012 A 
ATOM     74  C   UNL A   1      42.159  31.418  35.300  1.00  0.00     0.148 A 
ATOM     75  C   UNL A   1      43.381  33.826  34.513  1.00  0.00     0.002 A 
ATOM     76  C   UNL A   1      42.129  32.529  36.136  1.00  0.00     0.091 A 
ATOM     77  F   UNL A   1      41.624  30.244  35.668  1.00  0.00    -0.205 F 
ATOM     78  C   UNL A   1      42.747  33.731  35.748  1.00  0.00     0.022 A 
BRANCH  76  79
ATOM     79  S   UNL A   1      41.275  32.517  37.717  1.00  0.00     0.127 S 
ATOM     80  O   UNL A   1      42.087  31.575  38.486  1.00  0.00    -0.237 OA
ATOM     81  O   UNL A   1      41.389  33.911  38.148  1.00  0.00    -0.237 OA
ATOM     82  O   UNL A   1      39.913  32.089  37.424  1.00  0.00    -0.744 OA
ENDBRANCH  76  79
ENDBRANCH  58  72
BRANCH  59  83
ATOM     83  C   UNL A   1      42.698  24.213  27.222  1.00  0.00     0.023 A 
ATOM     84  C   UNL A   1      43.405  24.424  26.023  1.00  0.00     0.012 A 
ATOM     85  C   UNL A   1      42.057  22.978  27.435  1.00  0.00     0.148 A 
ATOM     86  C   UNL A   1      43.456  23.431  25.043  1.00  0.00     0.002 A 
ATOM     87  C   UNL A   1      42.151  21.976  26.474  1.00  0.00     0.091 A 
ATOM     88  F   UNL A   1      41.376  22.801  28.576  1.00  0.00    -0.205 F 
ATOM     89  C   UNL A   1      42.840  22.205  25.274  1.00  0.00     0.022 A 
BRANCH  87  90
ATOM     90  S   UNL A   1      41.490  20.327  26.750  1.00  0.00     0.127 S 
ATOM     91  O   UNL A   1      41.785  19.670  25.480  1.00  0.00    -0.237 OA
ATOM     92  O   UNL A   1      42.289  19.859  27.884  1.00  0.00    -0.237 OA
ATOM     93  O   UNL A   1      40.080  20.525  27.058  1.00  0.00    -0.744 OA
ENDBRANCH  87  90
ENDBRANCH  59  83
BRANCH  71  94
ATOM     94  C   UNL A   1      46.845  25.718  32.639  1.00  0.00     0.023 A 
ATOM     95  C   UNL A   1      46.741  24.815  33.716  1.00  0.00     0.012 A 
ATOM     96  C   UNL A   1      48.100  25.937  32.039  1.00  0.00     0.148 A 
ATOM     97  C   UNL A   1      47.869  24.157  34.201  1.00  0.00     0.002 A 
ATOM     98  C   UNL A   1      49.215  25.248  32.503  1.00  0.00     0.091 A 
ATOM     99  F   UNL A   1      48.185  26.818  31.031  1.00  0.00    -0.205 F 
ATOM    100  C   UNL A   1      49.104  24.364  33.587  1.00  0.00     0.022 A 
BRANCH  98 101
ATOM    101  S   UNL A   1      50.818  25.401  31.703  1.00  0.00     0.127 S 
ATOM    102  O   UNL A   1      50.522  24.944  30.348  1.00  0.00    -0.237 OA
ATOM    103  O   UNL A   1      51.095  26.834  31.816  1.00  0.00    -0.237 OA
ATOM    104  O   UNL A   1      51.718  24.557  32.477  1.00  0.00    -0.744 OA
ENDBRANCH  98 101
ENDBRANCH  71  94
ENDBRANCH  45  46
ENDBRANCH  37  40
ENDBRANCH  35  36
ENDBRANCH   1  35
TORSDOF 17
ENDMDL
MODEL 2
REMARK VINA RESULT:     -12.8      1.849      2.396
REMARK SMILES Cc1cc(C)c(S(=O)(=O)Nc2ccc(N3CC[NH+](C)CC3)c(C(=O)NCCCNC(=O)c3ccc(-c4c5nc(c(-c6cccc(S(=O)(=O)[O-])c6F)c6ccc([nH]6)c(-c6cccc(S(=O)(=O)[O-])c6F)c6nc(c(-c7cccc(S(=O)(=O)[O-])c7F)c7ccc4[nH]7)C=C6)C=C5)cc3)c2)c(C)c1
REMARK SMILES IDX 27 1 26 2 25 3 23 4 24 5 22 7 11 8 12 9 95 10 13 11 14 12
REMARK SMILES IDX 10 13 7 15 8 16 9 17 6 18 1 19 2 20 3 21 98 22 4 23 96 24
REMARK SMILES IDX 5 25 97 26 15 27 16 28 21 29 17 30 20 31 18 32 19 33 28 35
REMARK SMILES IDX 29 36 30 37 31 39 32 40 33 41 94 42 34 43 93 44 35 45 36 46
REMARK SMILES IDX 37 47 87 48 38 49 92 50 86 51 88 52 39 53 91 54 85 55 84 56
REMARK SMILES IDX 40 58 72 59 52 60 71 61 53 62 56 63 70 64 89 65 54 66 55 67
REMARK SMILES IDX 69 69 90 70 57 71 41 72 42 73 50 74 43 75 45 76 51 77 44 78
REMARK SMILES IDX 46 79 47 80 48 81 49 82 73 83 74 84 82 85 75 86 77 87 83 88
REMARK SMILES IDX 76 89 78 90 79 91 80 92 81 93 58 94 59 95 67 96 60 97 62 98
REMARK SMILES IDX 68 99 61 100 63 101 64 102 65 103 66 104
REMARK H PARENT 25 6 10 14 18 34 29 38 88 57 56 68
REMARK Flexibility Score: inf
ROOT
ATOM      1  C   UNL A   1      33.389  28.051  27.035  1.00  0.00     0.042 C 
ENDROOT
BRANCH   1   2
ATOM      2  C   UNL A   1      31.950  28.382  27.424  1.00  0.00     0.118 C 
BRANCH   2   3
ATOM      3  N   UNL A   1      31.051  27.304  27.071  1.00  0.00    -0.352 N 
ATOM      4  C   UNL A   1      30.866  26.555  25.935  1.00  0.00     0.253 C 
ATOM      5  O   UNL A   1      29.881  25.818  25.968  1.00  0.00    -0.269 OA
ATOM      6  H   UNL A   1      30.442  27.054  27.802  1.00  0.00     0.163 HD
BRANCH   4   7
ATOM      7  C   UNL A   1      31.771  26.609  24.734  1.00  0.00     0.065 A 
ATOM      8  C   UNL A   1      33.450  25.533  23.338  1.00  0.00     0.050 A 
ATOM      9  C   UNL A   1      33.459  26.628  22.485  1.00  0.00     0.029 A 
ATOM     10  C   UNL A   1      32.742  25.609  24.533  1.00  0.00     0.042 A 
ATOM     11  C   UNL A   1      32.558  27.665  22.695  1.00  0.00     0.029 A 
ATOM     12  C   UNL A   1      31.619  27.619  23.744  1.00  0.00     0.050 A 
BRANCH   8  13
ATOM     13  N   UNL A   1      34.053  24.349  22.840  1.00  0.00    -0.280 N 
ATOM     14  H   UNL A   1      33.818  24.096  21.917  1.00  0.00     0.180 HD
BRANCH  13  15
ATOM     15  S   UNL A   1      35.113  23.335  23.637  1.00  0.00     0.262 S 
ATOM     16  O   UNL A   1      35.344  23.933  24.941  1.00  0.00    -0.201 OA
ATOM     17  O   UNL A   1      36.196  23.123  22.705  1.00  0.00    -0.201 OA
BRANCH  15  18
ATOM     18  C   UNL A   1      34.406  21.702  23.949  1.00  0.00     0.093 A 
ATOM     19  C   UNL A   1      32.634  18.236  25.853  1.00  0.00     0.044 C 
ATOM     20  C   UNL A   1      33.263  19.399  25.145  1.00  0.00    -0.051 A 
ATOM     21  C   UNL A   1      34.621  19.662  25.287  1.00  0.00     0.008 A 
ATOM     22  C   UNL A   1      32.522  20.200  24.275  1.00  0.00     0.008 A 
ATOM     23  C   UNL A   1      35.210  20.798  24.698  1.00  0.00    -0.030 A 
ATOM     24  C   UNL A   1      33.085  21.326  23.629  1.00  0.00    -0.030 A 
ATOM     25  C   UNL A   1      36.708  20.909  24.851  1.00  0.00     0.046 C 
ATOM     26  C   UNL A   1      32.199  21.987  22.618  1.00  0.00     0.046 C 
ENDBRANCH  15  18
ENDBRANCH  13  15
ENDBRANCH   8  13
BRANCH  12  27
ATOM     27  N   UNL A   1      30.515  28.451  23.650  1.00  0.00    -0.360 N 
ATOM     28  C   UNL A   1      29.186  27.937  23.300  1.00  0.00     0.178 C 
ATOM     29  C   UNL A   1      30.484  29.707  24.409  1.00  0.00     0.178 C 
ATOM     30  C   UNL A   1      28.429  29.029  22.499  1.00  0.00     0.283 C 
ATOM     31  C   UNL A   1      29.685  30.770  23.627  1.00  0.00     0.283 C 
ATOM     32  N   UNL A   1      28.328  30.318  23.242  1.00  0.00    -0.334 N 
ATOM     33  C   UNL A   1      27.683  31.333  22.410  1.00  0.00     0.332 C 
ATOM     34  H   UNL A   1      27.763  30.178  24.080  1.00  0.00     0.347 HD
ENDBRANCH  12  27
ENDBRANCH   4   7
ENDBRANCH   2   3
ENDBRANCH   1   2
BRANCH   1  35
ATOM     35  C   UNL A   1      34.037  29.132  26.180  1.00  0.00     0.118 C 
BRANCH  35  36
ATOM     36  N   UNL A   1      33.854  30.459  26.751  1.00  0.00    -0.352 N 
ATOM     37  C   UNL A   1      34.560  31.072  27.754  1.00  0.00     0.251 C 
ATOM     38  H   UNL A   1      33.121  30.988  26.363  1.00  0.00     0.163 HD
ATOM     39  O   UNL A   1      34.134  32.116  28.242  1.00  0.00    -0.269 OA
BRANCH  37  40
ATOM     40  C   UNL A   1      35.821  30.476  28.252  1.00  0.00     0.039 A 
ATOM     41  C   UNL A   1      35.778  29.662  29.387  1.00  0.00     0.014 A 
ATOM     42  C   UNL A   1      37.043  30.746  27.629  1.00  0.00     0.014 A 
ATOM     43  C   UNL A   1      36.955  29.097  29.881  1.00  0.00     0.010 A 
ATOM     44  C   UNL A   1      38.204  30.125  28.080  1.00  0.00     0.010 A 
ATOM     45  C   UNL A   1      38.177  29.316  29.224  1.00  0.00    -0.014 A 
BRANCH  45  46
ATOM     46  C   UNL A   1      39.442  28.739  29.743  1.00  0.00     0.031 A 
ATOM     47  C   UNL A   1      40.088  29.324  30.970  1.00  0.00     0.074 A 
ATOM     48  C   UNL A   1      40.048  27.743  29.068  1.00  0.00     0.049 A 
ATOM     49  N   UNL A   1      41.207  28.983  31.554  1.00  0.00    -0.248 NA
ATOM     50  C   UNL A   1      39.405  30.464  31.606  1.00  0.00     0.031 C 
ATOM     51  C   UNL A   1      39.571  27.158  27.814  1.00  0.00     0.029 A 
ATOM     52  N   UNL A   1      41.211  27.065  29.332  1.00  0.00    -0.354 N 
ATOM     53  C   UNL A   1      41.386  29.892  32.590  1.00  0.00     0.074 A 
ATOM     54  C   UNL A   1      40.276  30.817  32.538  1.00  0.00     0.031 C 
ATOM     55  C   UNL A   1      40.431  26.205  27.418  1.00  0.00     0.029 A 
ATOM     56  C   UNL A   1      41.523  26.117  28.384  1.00  0.00     0.049 A 
ATOM     57  H   UNL A   1      41.769  27.239  30.123  1.00  0.00     0.167 HD
ATOM     58  C   UNL A   1      42.365  29.932  33.525  1.00  0.00     0.034 A 
ATOM     59  C   UNL A   1      42.565  25.266  28.312  1.00  0.00     0.034 A 
ATOM     60  C   UNL A   1      43.419  28.960  33.623  1.00  0.00     0.049 A 
ATOM     61  C   UNL A   1      43.575  25.254  29.427  1.00  0.00     0.074 A 
ATOM     62  C   UNL A   1      44.395  28.843  34.596  1.00  0.00     0.029 A 
ATOM     63  N   UNL A   1      43.627  27.929  32.721  1.00  0.00    -0.354 N 
ATOM     64  N   UNL A   1      43.630  26.009  30.498  1.00  0.00    -0.248 NA
ATOM     65  C   UNL A   1      44.642  24.246  29.347  1.00  0.00     0.031 C 
ATOM     66  C   UNL A   1      45.191  27.735  34.284  1.00  0.00     0.029 A 
ATOM     67  C   UNL A   1      44.711  27.165  33.116  1.00  0.00     0.049 A 
ATOM     68  H   UNL A   1      43.083  27.765  31.916  1.00  0.00     0.167 HD
ATOM     69  C   UNL A   1      44.714  25.548  31.234  1.00  0.00     0.074 A 
ATOM     70  C   UNL A   1      45.275  24.434  30.499  1.00  0.00     0.031 C 
ATOM     71  C   UNL A   1      45.213  26.018  32.404  1.00  0.00     0.034 A 
BRANCH  58  72
ATOM     72  C   UNL A   1      42.288  31.015  34.566  1.00  0.00     0.023 A 
ATOM     73  C   UNL A   1      41.684  30.733  35.808  1.00  0.00     0.012 A 
ATOM     74  C   UNL A   1      42.841  32.290  34.342  1.00  0.00     0.148 A 
ATOM     75  C   UNL A   1      41.600  31.711  36.798  1.00  0.00     0.002 A 
ATOM     76  C   UNL A   1      42.787  33.250  35.347  1.00  0.00     0.091 A 
ATOM     77  F   UNL A   1      43.388  32.552  33.145  1.00  0.00    -0.205 F 
ATOM     78  C   UNL A   1      42.160  32.965  36.571  1.00  0.00     0.022 A 
BRANCH  76  79
ATOM     79  S   UNL A   1      43.543  34.870  35.166  1.00  0.00     0.127 S 
ATOM     80  O   UNL A   1      44.966  34.535  35.158  1.00  0.00    -0.237 OA
ATOM     81  O   UNL A   1      43.017  35.322  33.876  1.00  0.00    -0.237 OA
ATOM     82  O   UNL A   1      43.081  35.648  36.308  1.00  0.00    -0.744 OA
ENDBRANCH  76  79
ENDBRANCH  58  72
BRANCH  59  83
ATOM     83  C   UNL A   1      42.633  24.279  27.199  1.00  0.00     0.023 A 
ATOM     84  C   UNL A   1      43.357  24.609  26.037  1.00  0.00     0.012 A 
ATOM     85  C   UNL A   1      42.036  23.008  27.299  1.00  0.00     0.148 A 
ATOM     86  C   UNL A   1      43.470  23.699  24.986  1.00  0.00     0.002 A 
ATOM     87  C   UNL A   1      42.191  22.088  26.267  1.00  0.00     0.091 A 
ATOM     88  F   UNL A   1      41.336  22.718  28.405  1.00  0.00    -0.205 F 
ATOM     89  C   UNL A   1      42.898  22.436  25.105  1.00  0.00     0.022 A 
BRANCH  87  90
ATOM     90  S   UNL A   1      41.590  20.400  26.397  1.00  0.00     0.127 S 
ATOM     91  O   UNL A   1      41.986  20.044  27.757  1.00  0.00    -0.237 OA
ATOM     92  O   UNL A   1      40.148  20.568  26.201  1.00  0.00    -0.237 OA
ATOM     93  O   UNL A   1      42.254  19.672  25.324  1.00  0.00    -0.744 OA
ENDBRANCH  87  90
ENDBRANCH  59  83
BRANCH  71  94
ATOM     94  C   UNL A   1      46.419  25.324  32.976  1.00  0.00     0.023 A 
ATOM     95  C   UNL A   1      47.705  25.815  32.677  1.00  0.00     0.012 A 
ATOM     96  C   UNL A   1      46.279  24.247  33.872  1.00  0.00     0.148 A 
ATOM     97  C   UNL A   1      48.835  25.230  33.243  1.00  0.00     0.002 A 
ATOM     98  C   UNL A   1      47.410  23.693  34.463  1.00  0.00     0.091 A 
ATOM     99  F   UNL A   1      45.049  23.778  34.128  1.00  0.00    -0.205 F 
ATOM    100  C   UNL A   1      48.688  24.177  34.145  1.00  0.00     0.022 A 
BRANCH  98 101
ATOM    101  S   UNL A   1      47.286  22.394  35.699  1.00  0.00     0.127 S 
ATOM    102  O   UNL A   1      46.440  23.021  36.711  1.00  0.00    -0.237 OA
ATOM    103  O   UNL A   1      46.645  21.307  34.957  1.00  0.00    -0.237 OA
ATOM    104  O   UNL A   1      48.657  22.112  36.103  1.00  0.00    -0.744 OA
ENDBRANCH  98 101
ENDBRANCH  71  94
ENDBRANCH  45  46
ENDBRANCH  37  40
ENDBRANCH  35  36
ENDBRANCH   1  35
TORSDOF 17
ENDMDL
MODEL 3
REMARK VINA RESULT:     -12.6      4.259      9.827
REMARK SMILES Cc1cc(C)c(S(=O)(=O)Nc2ccc(N3CC[NH+](C)CC3)c(C(=O)NCCCNC(=O)c3ccc(-c4c5nc(c(-c6cccc(S(=O)(=O)[O-])c6F)c6ccc([nH]6)c(-c6cccc(S(=O)(=O)[O-])c6F)c6nc(c(-c7cccc(S(=O)(=O)[O-])c7F)c7ccc4[nH]7)C=C6)C=C5)cc3)c2)c(C)c1
REMARK SMILES IDX 27 1 26 2 25 3 23 4 24 5 22 7 11 8 12 9 95 10 13 11 14 12
REMARK SMILES IDX 10 13 7 15 8 16 9 17 6 18 1 19 2 20 3 21 98 22 4 23 96 24
REMARK SMILES IDX 5 25 97 26 15 27 16 28 21 29 17 30 20 31 18 32 19 33 28 35
REMARK SMILES IDX 29 36 30 37 31 39 32 40 33 41 94 42 34 43 93 44 35 45 36 46
REMARK SMILES IDX 37 47 87 48 38 49 92 50 86 51 88 52 39 53 91 54 85 55 84 56
REMARK SMILES IDX 40 58 72 59 52 60 71 61 53 62 56 63 70 64 89 65 54 66 55 67
REMARK SMILES IDX 69 69 90 70 57 71 41 72 42 73 50 74 43 75 45 76 51 77 44 78
REMARK SMILES IDX 46 79 47 80 48 81 49 82 73 83 74 84 82 85 75 86 77 87 83 88
REMARK SMILES IDX 76 89 78 90 79 91 80 92 81 93 58 94 59 95 67 96 60 97 62 98
REMARK SMILES IDX 68 99 61 100 63 101 64 102 65 103 66 104
REMARK H PARENT 25 6 10 14 18 34 29 38 88 57 56 68
REMARK Flexibility Score: inf
ROOT
ATOM      1  C   UNL A   1      36.925  23.782  24.698  1.00  0.00     0.042 C 
ENDROOT
BRANCH   1   2
ATOM      2  C   UNL A   1      36.706  22.686  23.657  1.00  0.00     0.118 C 
BRANCH   2   3
ATOM      3  N   UNL A   1      35.540  22.961  22.844  1.00  0.00    -0.352 N 
ATOM      4  C   UNL A   1      34.200  23.085  23.116  1.00  0.00     0.253 C 
ATOM      5  O   UNL A   1      33.486  23.174  22.118  1.00  0.00    -0.269 OA
ATOM      6  H   UNL A   1      35.755  23.088  21.892  1.00  0.00     0.163 HD
BRANCH   4   7
ATOM      7  C   UNL A   1      33.621  23.111  24.505  1.00  0.00     0.065 A 
ATOM      8  C   UNL A   1      32.486  24.347  26.267  1.00  0.00     0.050 A 
ATOM      9  C   UNL A   1      32.487  23.219  27.075  1.00  0.00     0.029 A 
ATOM     10  C   UNL A   1      33.199  24.328  25.073  1.00  0.00     0.042 A 
ATOM     11  C   UNL A   1      32.959  22.015  26.567  1.00  0.00     0.029 A 
ATOM     12  C   UNL A   1      33.419  21.910  25.239  1.00  0.00     0.050 A 
BRANCH   8  13
ATOM     13  N   UNL A   1      31.617  25.397  26.662  1.00  0.00    -0.280 N 
ATOM     14  H   UNL A   1      30.729  25.126  26.993  1.00  0.00     0.180 HD
BRANCH  13  15
ATOM     15  S   UNL A   1      31.924  27.037  26.630  1.00  0.00     0.262 S 
ATOM     16  O   UNL A   1      33.328  27.182  26.282  1.00  0.00    -0.201 OA
ATOM     17  O   UNL A   1      31.405  27.537  27.883  1.00  0.00    -0.201 OA
BRANCH  15  18
ATOM     18  C   UNL A   1      30.992  27.890  25.338  1.00  0.00     0.093 A 
ATOM     19  C   UNL A   1      29.880  29.964  21.699  1.00  0.00     0.044 C 
ATOM     20  C   UNL A   1      30.210  29.265  22.984  1.00  0.00    -0.051 A 
ATOM     21  C   UNL A   1      30.850  29.947  24.015  1.00  0.00     0.008 A 
ATOM     22  C   UNL A   1      29.825  27.943  23.206  1.00  0.00     0.008 A 
ATOM     23  C   UNL A   1      31.244  29.283  25.194  1.00  0.00    -0.030 A 
ATOM     24  C   UNL A   1      30.162  27.252  24.394  1.00  0.00    -0.030 A 
ATOM     25  C   UNL A   1      31.840  30.163  26.268  1.00  0.00     0.046 C 
ATOM     26  C   UNL A   1      29.546  25.893  24.537  1.00  0.00     0.046 C 
ENDBRANCH  15  18
ENDBRANCH  13  15
ENDBRANCH   8  13
BRANCH  12  27
ATOM     27  N   UNL A   1      33.481  20.643  24.683  1.00  0.00    -0.360 N 
ATOM     28  C   UNL A   1      32.530  20.201  23.656  1.00  0.00     0.178 C 
ATOM     29  C   UNL A   1      34.758  19.920  24.658  1.00  0.00     0.178 C 
ATOM     30  C   UNL A   1      32.288  18.678  23.828  1.00  0.00     0.283 C 
ATOM     31  C   UNL A   1      34.503  18.403  24.778  1.00  0.00     0.283 C 
ATOM     32  N   UNL A   1      33.551  17.887  23.767  1.00  0.00    -0.334 N 
ATOM     33  C   UNL A   1      33.276  16.473  24.019  1.00  0.00     0.332 C 
ATOM     34  H   UNL A   1      33.959  17.978  22.836  1.00  0.00     0.347 HD
ENDBRANCH  12  27
ENDBRANCH   4   7
ENDBRANCH   2   3
ENDBRANCH   1   2
BRANCH   1  35
ATOM     35  C   UNL A   1      37.067  23.238  26.113  1.00  0.00     0.118 C 
BRANCH  35  36
ATOM     36  N   UNL A   1      38.188  22.317  26.231  1.00  0.00    -0.352 N 
ATOM     37  C   UNL A   1      39.507  22.589  26.494  1.00  0.00     0.251 C 
ATOM     38  H   UNL A   1      37.969  21.366  26.103  1.00  0.00     0.163 HD
ATOM     39  O   UNL A   1      40.346  21.703  26.356  1.00  0.00    -0.269 OA
BRANCH  37  40
ATOM     40  C   UNL A   1      39.916  23.943  26.932  1.00  0.00     0.039 A 
ATOM     41  C   UNL A   1      40.044  24.198  28.300  1.00  0.00     0.014 A 
ATOM     42  C   UNL A   1      40.135  24.968  26.005  1.00  0.00     0.014 A 
ATOM     43  C   UNL A   1      40.419  25.469  28.737  1.00  0.00     0.010 A 
ATOM     44  C   UNL A   1      40.578  26.214  26.439  1.00  0.00     0.010 A 
ATOM     45  C   UNL A   1      40.699  26.484  27.809  1.00  0.00    -0.014 A 
BRANCH  45  46
ATOM     46  C   UNL A   1      41.083  27.848  28.254  1.00  0.00     0.031 A 
ATOM     47  C   UNL A   1      42.530  28.262  28.243  1.00  0.00     0.074 A 
ATOM     48  C   UNL A   1      40.143  28.682  28.739  1.00  0.00     0.049 A 
ATOM     49  N   UNL A   1      43.067  29.392  28.626  1.00  0.00    -0.248 NA
ATOM     50  C   UNL A   1      43.507  27.266  27.774  1.00  0.00     0.031 C 
ATOM     51  C   UNL A   1      38.723  28.360  28.891  1.00  0.00     0.029 A 
ATOM     52  N   UNL A   1      40.248  29.963  29.217  1.00  0.00    -0.354 N 
ATOM     53  C   UNL A   1      44.439  29.225  28.489  1.00  0.00     0.074 A 
ATOM     54  C   UNL A   1      44.657  27.876  28.017  1.00  0.00     0.031 C 
ATOM     55  C   UNL A   1      38.087  29.417  29.422  1.00  0.00     0.029 A 
ATOM     56  C   UNL A   1      39.054  30.487  29.656  1.00  0.00     0.049 A 
ATOM     57  H   UNL A   1      41.096  30.461  29.245  1.00  0.00     0.167 HD
ATOM     58  C   UNL A   1      45.429  30.125  28.701  1.00  0.00     0.034 A 
ATOM     59  C   UNL A   1      38.770  31.698  30.174  1.00  0.00     0.034 A 
ATOM     60  C   UNL A   1      45.202  31.490  29.089  1.00  0.00     0.049 A 
ATOM     61  C   UNL A   1      39.870  32.718  30.289  1.00  0.00     0.074 A 
ATOM     62  C   UNL A   1      46.123  32.513  29.223  1.00  0.00     0.029 A 
ATOM     63  N   UNL A   1      43.961  32.026  29.395  1.00  0.00    -0.354 N 
ATOM     64  N   UNL A   1      41.141  32.597  29.985  1.00  0.00    -0.248 NA
ATOM     65  C   UNL A   1      39.492  34.053  30.774  1.00  0.00     0.031 C 
ATOM     66  C   UNL A   1      45.436  33.671  29.604  1.00  0.00     0.029 A 
ATOM     67  C   UNL A   1      44.088  33.367  29.710  1.00  0.00     0.049 A 
ATOM     68  H   UNL A   1      43.112  31.525  29.389  1.00  0.00     0.167 HD
ATOM     69  C   UNL A   1      41.707  33.846  30.213  1.00  0.00     0.074 A 
ATOM     70  C   UNL A   1      40.637  34.715  30.658  1.00  0.00     0.031 C 
ATOM     71  C   UNL A   1      43.000  34.232  30.086  1.00  0.00     0.034 A 
BRANCH  58  72
ATOM     72  C   UNL A   1      46.841  29.681  28.433  1.00  0.00     0.023 A 
ATOM     73  C   UNL A   1      47.409  29.925  27.166  1.00  0.00     0.012 A 
ATOM     74  C   UNL A   1      47.619  29.064  29.431  1.00  0.00     0.148 A 
ATOM     75  C   UNL A   1      48.717  29.532  26.885  1.00  0.00     0.002 A 
ATOM     76  C   UNL A   1      48.935  28.708  29.155  1.00  0.00     0.091 A 
ATOM     77  F   UNL A   1      47.055  28.813  30.622  1.00  0.00    -0.205 F 
ATOM     78  C   UNL A   1      49.482  28.933  27.881  1.00  0.00     0.022 A 
BRANCH  76  79
ATOM     79  S   UNL A   1      50.016  27.993  30.400  1.00  0.00     0.127 S 
ATOM     80  O   UNL A   1      51.260  27.823  29.652  1.00  0.00    -0.237 OA
ATOM     81  O   UNL A   1      50.058  29.042  31.421  1.00  0.00    -0.237 OA
ATOM     82  O   UNL A   1      49.361  26.764  30.830  1.00  0.00    -0.744 OA
ENDBRANCH  76  79
ENDBRANCH  58  72
BRANCH  59  83
ATOM     83  C   UNL A   1      37.360  32.042  30.510  1.00  0.00     0.023 A 
ATOM     84  C   UNL A   1      36.901  31.829  31.824  1.00  0.00     0.012 A 
ATOM     85  C   UNL A   1      36.495  32.623  29.564  1.00  0.00     0.148 A 
ATOM     86  C   UNL A   1      35.596  32.168  32.185  1.00  0.00     0.002 A 
ATOM     87  C   UNL A   1      35.210  33.001  29.943  1.00  0.00     0.091 A 
ATOM     88  F   UNL A   1      36.944  32.804  28.314  1.00  0.00    -0.205 F 
ATOM     89  C   UNL A   1      34.756  32.764  31.249  1.00  0.00     0.022 A 
BRANCH  87  90
ATOM     90  S   UNL A   1      34.111  33.887  28.831  1.00  0.00     0.127 S 
ATOM     91  O   UNL A   1      33.683  32.826  27.924  1.00  0.00    -0.237 OA
ATOM     92  O   UNL A   1      33.072  34.371  29.743  1.00  0.00    -0.237 OA
ATOM     93  O   UNL A   1      34.926  34.943  28.246  1.00  0.00    -0.744 OA
ENDBRANCH  87  90
ENDBRANCH  59  83
BRANCH  71  94
ATOM     94  C   UNL A   1      43.336  35.661  30.415  1.00  0.00     0.023 A 
ATOM     95  C   UNL A   1      43.839  35.975  31.692  1.00  0.00     0.012 A 
ATOM     96  C   UNL A   1      43.236  36.673  29.441  1.00  0.00     0.148 A 
ATOM     97  C   UNL A   1      44.217  37.280  32.003  1.00  0.00     0.002 A 
ATOM     98  C   UNL A   1      43.650  37.965  29.747  1.00  0.00     0.091 A 
ATOM     99  F   UNL A   1      42.732  36.361  28.237  1.00  0.00    -0.205 F 
ATOM    100  C   UNL A   1      44.134  38.272  31.028  1.00  0.00     0.022 A 
BRANCH  98 101
ATOM    101  S   UNL A   1      43.653  39.271  28.512  1.00  0.00     0.127 S 
ATOM    102  O   UNL A   1      44.206  40.395  29.264  1.00  0.00    -0.237 OA
ATOM    103  O   UNL A   1      44.542  38.733  27.480  1.00  0.00    -0.237 OA
ATOM    104  O   UNL A   1      42.266  39.408  28.089  1.00  0.00    -0.744 OA
ENDBRANCH  98 101
ENDBRANCH  71  94
ENDBRANCH  45  46
ENDBRANCH  37  40
ENDBRANCH  35  36
ENDBRANCH   1  35
TORSDOF 17
ENDMDL
