MODEL 1
REMARK VINA RESULT:      -9.7      0.000      0.000
REMARK SMILES C[C@H](Oc1ccc(/C=C2/SC(=S)N(c3ccc(F)c(Cl)c3)C2=O)cc1)C(=O)NCCCNC(=O)c1ccc(-c2c3nc(c(-c4cccc(S(=O)(=O)[O-])c4F)c4ccc([nH]4)c(-c4cccc(S(=O)(=O)[O-])c4F)c4nc(c(-c5cccc(S(=O)(=O)[O-])c5F)c5ccc2[nH]5)C=C4)C=C3)cc1
REMARK SMILES IDX 29 1 28 2 26 3 27 4 2 6 1 7 3 8 4 9 5 10 25 11 6 12 24 13
REMARK SMILES IDX 7 14 8 15 9 16 10 17 22 18 11 19 13 20 23 21 12 22 14 23
REMARK SMILES IDX 15 24 21 25 16 26 19 27 17 28 20 29 18 30 30 31 31 32 32 33
REMARK SMILES IDX 33 34 34 36 35 37 36 38 97 39 37 40 96 41 38 42 39 43 40 44
REMARK SMILES IDX 90 45 41 46 95 47 89 48 91 49 42 50 94 51 88 52 87 53 43 55
REMARK SMILES IDX 75 56 55 57 74 58 56 59 59 60 73 61 92 62 57 63 58 64 72 66
REMARK SMILES IDX 93 67 60 68 44 69 45 70 53 71 46 72 48 73 54 74 47 75 49 76
REMARK SMILES IDX 50 77 51 78 52 79 76 80 77 81 85 82 78 83 80 84 86 85 79 86
REMARK SMILES IDX 81 87 82 88 83 89 84 90 61 91 62 92 70 93 63 94 65 95 71 96
REMARK SMILES IDX 64 97 66 98 67 99 68 100 69 101
REMARK H PARENT 28 5 32 35 91 54 59 65
REMARK Flexibility Score: inf
ROOT
ATOM      1  C   UNL A   1      34.389  34.815  30.350  1.00  0.00     0.118 C 
ENDROOT
BRANCH   1   2
ATOM      2  N   UNL A   1      33.980  34.279  31.640  1.00  0.00    -0.353 N 
ATOM      3  C   UNL A   1      34.631  33.370  32.437  1.00  0.00     0.260 C 
ATOM      4  O   UNL A   1      34.150  33.106  33.541  1.00  0.00    -0.271 OA
ATOM      5  H   UNL A   1      33.122  34.613  31.988  1.00  0.00     0.163 HD
BRANCH   3   6
ATOM      6  C   UNL A   1      35.956  32.746  31.970  1.00  0.00     0.258 C 
ATOM      7  C   UNL A   1      36.032  31.310  32.501  1.00  0.00     0.064 C 
BRANCH   6   8
ATOM      8  O   UNL A   1      36.937  33.696  32.392  1.00  0.00    -0.481 OA
BRANCH   8   9
ATOM      9  C   UNL A   1      38.113  33.904  31.752  1.00  0.00     0.120 A 
ATOM     10  C   UNL A   1      39.335  34.230  32.324  1.00  0.00     0.047 A 
ATOM     11  C   UNL A   1      38.014  33.804  30.363  1.00  0.00     0.047 A 
ATOM     12  C   UNL A   1      40.413  34.600  31.507  1.00  0.00     0.012 A 
ATOM     13  C   UNL A   1      39.094  34.133  29.547  1.00  0.00     0.012 A 
ATOM     14  C   UNL A   1      40.281  34.605  30.114  1.00  0.00    -0.024 A 
BRANCH  14  15
ATOM     15  C   UNL A   1      41.383  35.079  29.270  1.00  0.00     0.029 C 
ATOM     16  C   UNL A   1      42.486  34.383  28.947  1.00  0.00     0.081 C 
ATOM     17  S   UNL A   1      43.776  35.080  28.046  1.00  0.00    -0.054 SA
ATOM     18  C   UNL A   1      42.831  32.973  29.314  1.00  0.00     0.270 C 
ATOM     19  C   UNL A   1      44.826  33.679  28.275  1.00  0.00     0.152 C 
ATOM     20  N   UNL A   1      44.175  32.718  29.039  1.00  0.00    -0.261 N 
ATOM     21  O   UNL A   1      42.011  32.190  29.768  1.00  0.00    -0.268 OA
ATOM     22  S   UNL A   1      46.308  33.617  27.498  1.00  0.00    -0.051 S 
BRANCH  20  23
ATOM     23  C   UNL A   1      44.788  31.513  29.523  1.00  0.00     0.052 A 
ATOM     24  C   UNL A   1      45.366  31.457  30.804  1.00  0.00     0.030 A 
ATOM     25  C   UNL A   1      44.889  30.378  28.702  1.00  0.00     0.050 A 
ATOM     26  C   UNL A   1      46.004  30.298  31.257  1.00  0.00     0.043 A 
ATOM     27  C   UNL A   1      45.526  29.218  29.159  1.00  0.00     0.078 A 
ATOM     28  C   UNL A   1      46.080  29.183  30.433  1.00  0.00     0.141 A 
ATOM     29  Cl  UNL A   1      45.606  27.842  28.131  1.00  0.00    -0.081 Cl
ATOM     30  F   UNL A   1      46.687  28.081  30.896  1.00  0.00    -0.205 F 
ENDBRANCH  20  23
ENDBRANCH  14  15
ENDBRANCH   8   9
ENDBRANCH   6   8
ENDBRANCH   3   6
ENDBRANCH   1   2
BRANCH   1  31
ATOM     31  C   UNL A   1      33.792  34.066  29.169  1.00  0.00     0.042 C 
BRANCH  31  32
ATOM     32  C   UNL A   1      34.751  33.098  28.490  1.00  0.00     0.118 C 
BRANCH  32  33
ATOM     33  N   UNL A   1      34.065  32.036  27.766  1.00  0.00    -0.352 N 
ATOM     34  C   UNL A   1      34.485  30.774  27.423  1.00  0.00     0.251 C 
ATOM     35  H   UNL A   1      33.152  32.259  27.473  1.00  0.00     0.163 HD
ATOM     36  O   UNL A   1      33.796  30.106  26.656  1.00  0.00    -0.269 OA
BRANCH  34  37
ATOM     37  C   UNL A   1      35.751  30.218  27.955  1.00  0.00     0.039 A 
ATOM     38  C   UNL A   1      35.733  29.583  29.201  1.00  0.00     0.014 A 
ATOM     39  C   UNL A   1      36.959  30.361  27.269  1.00  0.00     0.014 A 
ATOM     40  C   UNL A   1      36.915  29.063  29.736  1.00  0.00     0.010 A 
ATOM     41  C   UNL A   1      38.117  29.764  27.760  1.00  0.00     0.010 A 
ATOM     42  C   UNL A   1      38.115  29.134  29.012  1.00  0.00    -0.014 A 
BRANCH  42  43
ATOM     43  C   UNL A   1      39.382  28.592  29.567  1.00  0.00     0.031 A 
ATOM     44  C   UNL A   1      39.994  29.210  30.798  1.00  0.00     0.074 A 
ATOM     45  C   UNL A   1      40.017  27.590  28.929  1.00  0.00     0.049 A 
ATOM     46  N   UNL A   1      41.100  28.890  31.418  1.00  0.00    -0.248 NA
ATOM     47  C   UNL A   1      39.291  30.361  31.389  1.00  0.00     0.031 C 
ATOM     48  C   UNL A   1      39.579  26.967  27.677  1.00  0.00     0.029 A 
ATOM     49  N   UNL A   1      41.181  26.931  29.236  1.00  0.00    -0.354 N 
ATOM     50  C   UNL A   1      41.244  29.818  32.443  1.00  0.00     0.074 A 
ATOM     51  C   UNL A   1      40.136  30.740  32.338  1.00  0.00     0.031 C 
ATOM     52  C   UNL A   1      40.456  26.012  27.330  1.00  0.00     0.029 A 
ATOM     53  C   UNL A   1      41.524  25.959  28.323  1.00  0.00     0.049 A 
ATOM     54  H   UNL A   1      41.719  27.132  30.035  1.00  0.00     0.167 HD
ATOM     55  C   UNL A   1      42.191  29.878  33.411  1.00  0.00     0.034 A 
ATOM     56  C   UNL A   1      42.573  25.115  28.300  1.00  0.00     0.034 A 
ATOM     57  C   UNL A   1      43.254  28.922  33.554  1.00  0.00     0.049 A 
ATOM     58  C   UNL A   1      43.554  25.138  29.441  1.00  0.00     0.074 A 
ATOM     59  C   UNL A   1      44.212  28.841  34.548  1.00  0.00     0.029 A 
ATOM     60  N   UNL A   1      43.492  27.873  32.680  1.00  0.00    -0.354 N 
ATOM     61  N   UNL A   1      43.580  25.919  30.492  1.00  0.00    -0.248 NA
ATOM     62  C   UNL A   1      44.622  24.127  29.419  1.00  0.00     0.031 C 
ATOM     63  C   UNL A   1      45.034  27.741  34.273  1.00  0.00     0.029 A 
ATOM     64  C   UNL A   1      44.578  27.132  33.115  1.00  0.00     0.049 A 
ATOM     65  H   UNL A   1      42.968  27.683  31.869  1.00  0.00     0.167 HD
ATOM     66  C   UNL A   1      44.636  25.471  31.276  1.00  0.00     0.074 A 
ATOM     67  C   UNL A   1      45.215  24.337  30.585  1.00  0.00     0.031 C 
ATOM     68  C   UNL A   1      45.098  25.965  32.452  1.00  0.00     0.034 A 
BRANCH  55  69
ATOM     69  C   UNL A   1      42.072  30.977  34.436  1.00  0.00     0.023 A 
ATOM     70  C   UNL A   1      41.455  30.704  35.674  1.00  0.00     0.012 A 
ATOM     71  C   UNL A   1      42.609  32.258  34.201  1.00  0.00     0.148 A 
ATOM     72  C   UNL A   1      41.340  31.695  36.647  1.00  0.00     0.002 A 
ATOM     73  C   UNL A   1      42.529  33.229  35.193  1.00  0.00     0.091 A 
ATOM     74  F   UNL A   1      43.172  32.508  33.010  1.00  0.00    -0.205 F 
ATOM     75  C   UNL A   1      41.886  32.953  36.411  1.00  0.00     0.022 A 
BRANCH  73  76
ATOM     76  S   UNL A   1      43.270  34.857  35.016  1.00  0.00     0.127 S 
ATOM     77  O   UNL A   1      44.543  34.534  34.372  1.00  0.00    -0.237 OA
ATOM     78  O   UNL A   1      42.308  35.543  34.153  1.00  0.00    -0.237 OA
ATOM     79  O   UNL A   1      43.368  35.399  36.363  1.00  0.00    -0.744 OA
ENDBRANCH  73  76
ENDBRANCH  55  69
BRANCH  56  80
ATOM     80  C   UNL A   1      42.686  24.104  27.211  1.00  0.00     0.023 A 
ATOM     81  C   UNL A   1      43.435  24.416  26.059  1.00  0.00     0.012 A 
ATOM     82  C   UNL A   1      42.087  22.836  27.316  1.00  0.00     0.148 A 
ATOM     83  C   UNL A   1      43.560  23.494  25.020  1.00  0.00     0.002 A 
ATOM     84  C   UNL A   1      42.251  21.905  26.296  1.00  0.00     0.091 A 
ATOM     85  F   UNL A   1      41.362  22.561  28.411  1.00  0.00    -0.205 F 
ATOM     86  C   UNL A   1      42.977  22.235  25.142  1.00  0.00     0.022 A 
BRANCH  84  87
ATOM     87  S   UNL A   1      41.614  20.231  26.441  1.00  0.00     0.127 S 
ATOM     88  O   UNL A   1      42.185  19.588  25.261  1.00  0.00    -0.237 OA
ATOM     89  O   UNL A   1      42.176  19.784  27.715  1.00  0.00    -0.237 OA
ATOM     90  O   UNL A   1      40.162  20.380  26.452  1.00  0.00    -0.744 OA
ENDBRANCH  84  87
ENDBRANCH  56  80
BRANCH  68  91
ATOM     91  C   UNL A   1      46.261  25.259  33.098  1.00  0.00     0.023 A 
ATOM     92  C   UNL A   1      47.573  25.716  32.868  1.00  0.00     0.012 A 
ATOM     93  C   UNL A   1      46.047  24.188  33.989  1.00  0.00     0.148 A 
ATOM     94  C   UNL A   1      48.658  25.098  33.489  1.00  0.00     0.002 A 
ATOM     95  C   UNL A   1      47.129  23.607  34.639  1.00  0.00     0.091 A 
ATOM     96  F   UNL A   1      44.793  23.751  34.178  1.00  0.00    -0.205 F 
ATOM     97  C   UNL A   1      48.435  24.052  34.382  1.00  0.00     0.022 A 
BRANCH  95  98
ATOM     98  S   UNL A   1      46.914  22.321  35.876  1.00  0.00     0.127 S 
ATOM     99  O   UNL A   1      46.574  23.102  37.064  1.00  0.00    -0.237 OA
ATOM    100  O   UNL A   1      45.807  21.536  35.326  1.00  0.00    -0.237 OA
ATOM    101  O   UNL A   1      48.184  21.609  35.928  1.00  0.00    -0.744 OA
ENDBRANCH  95  98
ENDBRANCH  68  91
ENDBRANCH  42  43
ENDBRANCH  34  37
ENDBRANCH  32  33
ENDBRANCH  31  32
ENDBRANCH   1  31
TORSDOF 17
ENDMDL
MODEL 2
REMARK VINA RESULT:      -9.7      3.355     10.696
REMARK SMILES C[C@H](Oc1ccc(/C=C2/SC(=S)N(c3ccc(F)c(Cl)c3)C2=O)cc1)C(=O)NCCCNC(=O)c1ccc(-c2c3nc(c(-c4cccc(S(=O)(=O)[O-])c4F)c4ccc([nH]4)c(-c4cccc(S(=O)(=O)[O-])c4F)c4nc(c(-c5cccc(S(=O)(=O)[O-])c5F)c5ccc2[nH]5)C=C4)C=C3)cc1
REMARK SMILES IDX 29 1 28 2 26 3 27 4 2 6 1 7 3 8 4 9 5 10 25 11 6 12 24 13
REMARK SMILES IDX 7 14 8 15 9 16 10 17 22 18 11 19 13 20 23 21 12 22 14 23
REMARK SMILES IDX 15 24 21 25 16 26 19 27 17 28 20 29 18 30 30 31 31 32 32 33
REMARK SMILES IDX 33 34 34 36 35 37 36 38 97 39 37 40 96 41 38 42 39 43 40 44
REMARK SMILES IDX 90 45 41 46 95 47 89 48 91 49 42 50 94 51 88 52 87 53 43 55
REMARK SMILES IDX 75 56 55 57 74 58 56 59 59 60 73 61 92 62 57 63 58 64 72 66
REMARK SMILES IDX 93 67 60 68 44 69 45 70 53 71 46 72 48 73 54 74 47 75 49 76
REMARK SMILES IDX 50 77 51 78 52 79 76 80 77 81 85 82 78 83 80 84 86 85 79 86
REMARK SMILES IDX 81 87 82 88 83 89 84 90 61 91 62 92 70 93 63 94 65 95 71 96
REMARK SMILES IDX 64 97 66 98 67 99 68 100 69 101
REMARK H PARENT 28 5 32 35 91 54 59 65
REMARK Flexibility Score: inf
ROOT
ATOM      1  C   UNL A   1      42.660  22.879  25.377  1.00  0.00     0.118 C 
ENDROOT
BRANCH   1   2
ATOM      2  N   UNL A   1      43.871  22.867  24.569  1.00  0.00    -0.353 N 
ATOM      3  C   UNL A   1      44.978  23.673  24.669  1.00  0.00     0.260 C 
ATOM      4  O   UNL A   1      45.940  23.445  23.932  1.00  0.00    -0.271 OA
ATOM      5  H   UNL A   1      43.901  22.191  23.854  1.00  0.00     0.163 HD
BRANCH   3   6
ATOM      6  C   UNL A   1      45.021  24.796  25.718  1.00  0.00     0.258 C 
ATOM      7  C   UNL A   1      45.519  26.077  25.040  1.00  0.00     0.064 C 
BRANCH   6   8
ATOM      8  O   UNL A   1      45.788  24.228  26.781  1.00  0.00    -0.481 OA
BRANCH   8   9
ATOM      9  C   UNL A   1      45.547  24.457  28.094  1.00  0.00     0.120 A 
ATOM     10  C   UNL A   1      46.329  25.188  28.979  1.00  0.00     0.047 A 
ATOM     11  C   UNL A   1      44.390  23.833  28.564  1.00  0.00     0.047 A 
ATOM     12  C   UNL A   1      46.038  25.169  30.350  1.00  0.00     0.012 A 
ATOM     13  C   UNL A   1      44.074  23.844  29.920  1.00  0.00     0.012 A 
ATOM     14  C   UNL A   1      44.938  24.452  30.834  1.00  0.00    -0.024 A 
BRANCH  14  15
ATOM     15  C   UNL A   1      44.694  24.363  32.278  1.00  0.00     0.029 C 
ATOM     16  C   UNL A   1      44.140  25.318  33.044  1.00  0.00     0.081 C 
ATOM     17  S   UNL A   1      44.007  25.156  34.753  1.00  0.00    -0.054 SA
ATOM     18  C   UNL A   1      43.604  26.650  32.620  1.00  0.00     0.270 C 
ATOM     19  C   UNL A   1      43.449  26.818  34.967  1.00  0.00     0.152 C 
ATOM     20  N   UNL A   1      43.386  27.460  33.736  1.00  0.00    -0.261 N 
ATOM     21  O   UNL A   1      43.387  26.933  31.452  1.00  0.00    -0.268 OA
ATOM     22  S   UNL A   1      42.971  27.343  36.483  1.00  0.00    -0.051 S 
BRANCH  20  23
ATOM     23  C   UNL A   1      43.097  28.855  33.563  1.00  0.00     0.052 A 
ATOM     24  C   UNL A   1      41.772  29.317  33.470  1.00  0.00     0.030 A 
ATOM     25  C   UNL A   1      44.135  29.790  33.410  1.00  0.00     0.050 A 
ATOM     26  C   UNL A   1      41.493  30.670  33.254  1.00  0.00     0.043 A 
ATOM     27  C   UNL A   1      43.853  31.145  33.197  1.00  0.00     0.078 A 
ATOM     28  C   UNL A   1      42.535  31.578  33.120  1.00  0.00     0.141 A 
ATOM     29  Cl  UNL A   1      45.153  32.259  33.040  1.00  0.00    -0.081 Cl
ATOM     30  F   UNL A   1      42.240  32.871  32.925  1.00  0.00    -0.205 F 
ENDBRANCH  20  23
ENDBRANCH  14  15
ENDBRANCH   8   9
ENDBRANCH   6   8
ENDBRANCH   3   6
ENDBRANCH   1   2
BRANCH   1  31
ATOM     31  C   UNL A   1      42.345  21.533  26.010  1.00  0.00     0.042 C 
BRANCH  31  32
ATOM     32  C   UNL A   1      41.244  21.576  27.060  1.00  0.00     0.118 C 
BRANCH  32  33
ATOM     33  N   UNL A   1      39.914  21.706  26.480  1.00  0.00    -0.352 N 
ATOM     34  C   UNL A   1      39.044  22.769  26.473  1.00  0.00     0.251 C 
ATOM     35  H   UNL A   1      39.584  20.902  26.018  1.00  0.00     0.163 HD
ATOM     36  O   UNL A   1      37.897  22.596  26.068  1.00  0.00    -0.269 OA
BRANCH  34  37
ATOM     37  C   UNL A   1      39.465  24.107  26.951  1.00  0.00     0.039 A 
ATOM     38  C   UNL A   1      40.013  25.006  26.031  1.00  0.00     0.014 A 
ATOM     39  C   UNL A   1      39.377  24.464  28.298  1.00  0.00     0.014 A 
ATOM     40  C   UNL A   1      40.435  26.269  26.455  1.00  0.00     0.010 A 
ATOM     41  C   UNL A   1      39.713  25.753  28.703  1.00  0.00     0.010 A 
ATOM     42  C   UNL A   1      40.272  26.660  27.793  1.00  0.00    -0.014 A 
BRANCH  42  43
ATOM     43  C   UNL A   1      40.720  27.996  28.264  1.00  0.00     0.031 A 
ATOM     44  C   UNL A   1      42.187  28.341  28.278  1.00  0.00     0.074 A 
ATOM     45  C   UNL A   1      39.817  28.874  28.742  1.00  0.00     0.049 A 
ATOM     46  N   UNL A   1      42.771  29.443  28.668  1.00  0.00    -0.248 NA
ATOM     47  C   UNL A   1      43.124  27.298  27.826  1.00  0.00     0.031 C 
ATOM     48  C   UNL A   1      38.379  28.627  28.871  1.00  0.00     0.029 A 
ATOM     49  N   UNL A   1      39.979  30.147  29.228  1.00  0.00    -0.354 N 
ATOM     50  C   UNL A   1      44.138  29.215  28.547  1.00  0.00     0.074 A 
ATOM     51  C   UNL A   1      44.299  27.854  28.086  1.00  0.00     0.031 C 
ATOM     52  C   UNL A   1      37.790  29.717  29.391  1.00  0.00     0.029 A 
ATOM     53  C   UNL A   1      38.806  30.734  29.644  1.00  0.00     0.049 A 
ATOM     54  H   UNL A   1      40.852  30.599  29.274  1.00  0.00     0.167 HD
ATOM     55  C   UNL A   1      45.167  30.069  28.761  1.00  0.00     0.034 A 
ATOM     56  C   UNL A   1      38.576  31.957  30.157  1.00  0.00     0.034 A 
ATOM     57  C   UNL A   1      45.001  31.441  29.155  1.00  0.00     0.049 A 
ATOM     58  C   UNL A   1      39.724  32.921  30.291  1.00  0.00     0.074 A 
ATOM     59  C   UNL A   1      45.971  32.415  29.315  1.00  0.00     0.029 A 
ATOM     60  N   UNL A   1      43.784  32.037  29.443  1.00  0.00    -0.354 N 
ATOM     61  N   UNL A   1      40.992  32.738  30.013  1.00  0.00    -0.248 NA
ATOM     62  C   UNL A   1      39.402  34.277  30.759  1.00  0.00     0.031 C 
ATOM     63  C   UNL A   1      45.337  33.602  29.702  1.00  0.00     0.029 A 
ATOM     64  C   UNL A   1      43.973  33.368  29.771  1.00  0.00     0.049 A 
ATOM     65  H   UNL A   1      42.911  31.580  29.419  1.00  0.00     0.167 HD
ATOM     66  C   UNL A   1      41.611  33.962  30.232  1.00  0.00     0.074 A 
ATOM     67  C   UNL A   1      40.575  34.885  30.649  1.00  0.00     0.031 C 
ATOM     68  C   UNL A   1      42.923  34.290  30.117  1.00  0.00     0.034 A 
BRANCH  55  69
ATOM     69  C   UNL A   1      46.562  29.562  28.500  1.00  0.00     0.023 A 
ATOM     70  C   UNL A   1      47.126  29.719  27.217  1.00  0.00     0.012 A 
ATOM     71  C   UNL A   1      47.332  28.978  29.525  1.00  0.00     0.148 A 
ATOM     72  C   UNL A   1      48.417  29.270  26.946  1.00  0.00     0.002 A 
ATOM     73  C   UNL A   1      48.635  28.573  29.259  1.00  0.00     0.091 A 
ATOM     74  F   UNL A   1      46.773  28.815  30.733  1.00  0.00    -0.205 F 
ATOM     75  C   UNL A   1      49.174  28.708  27.969  1.00  0.00     0.022 A 
BRANCH  73  76
ATOM     76  S   UNL A   1      49.720  27.907  30.528  1.00  0.00     0.127 S 
ATOM     77  O   UNL A   1      50.981  27.777  29.801  1.00  0.00    -0.237 OA
ATOM     78  O   UNL A   1      49.705  28.967  31.537  1.00  0.00    -0.237 OA
ATOM     79  O   UNL A   1      49.110  26.656  30.957  1.00  0.00    -0.744 OA
ENDBRANCH  73  76
ENDBRANCH  55  69
BRANCH  56  80
ATOM     80  C   UNL A   1      37.182  32.376  30.480  1.00  0.00     0.023 A 
ATOM     81  C   UNL A   1      36.710  32.230  31.799  1.00  0.00     0.012 A 
ATOM     82  C   UNL A   1      36.336  32.937  29.507  1.00  0.00     0.148 A 
ATOM     83  C   UNL A   1      35.410  32.609  32.136  1.00  0.00     0.002 A 
ATOM     84  C   UNL A   1      35.056  33.354  29.859  1.00  0.00     0.091 A 
ATOM     85  F   UNL A   1      36.794  33.052  28.252  1.00  0.00    -0.205 F 
ATOM     86  C   UNL A   1      34.587  33.180  31.169  1.00  0.00     0.022 A 
BRANCH  84  87
ATOM     87  S   UNL A   1      33.986  34.193  28.684  1.00  0.00     0.127 S 
ATOM     88  O   UNL A   1      33.696  33.128  27.728  1.00  0.00    -0.237 OA
ATOM     89  O   UNL A   1      32.852  34.595  29.516  1.00  0.00    -0.237 OA
ATOM     90  O   UNL A   1      34.779  35.309  28.182  1.00  0.00    -0.744 OA
ENDBRANCH  84  87
ENDBRANCH  56  80
BRANCH  68  91
ATOM     91  C   UNL A   1      43.314  35.716  30.401  1.00  0.00     0.023 A 
ATOM     92  C   UNL A   1      43.427  36.636  29.341  1.00  0.00     0.012 A 
ATOM     93  C   UNL A   1      43.501  36.159  31.726  1.00  0.00     0.148 A 
ATOM     94  C   UNL A   1      43.751  37.969  29.591  1.00  0.00     0.002 A 
ATOM     95  C   UNL A   1      43.778  37.499  31.970  1.00  0.00     0.091 A 
ATOM     96  F   UNL A   1      43.412  35.264  32.721  1.00  0.00    -0.205 F 
ATOM     97  C   UNL A   1      43.915  38.402  30.905  1.00  0.00     0.022 A 
BRANCH  95  98
ATOM     98  S   UNL A   1      43.906  38.152  33.640  1.00  0.00     0.127 S 
ATOM     99  O   UNL A   1      45.060  37.420  34.160  1.00  0.00    -0.237 OA
ATOM    100  O   UNL A   1      44.146  39.577  33.404  1.00  0.00    -0.237 OA
ATOM    101  O   UNL A   1      42.630  37.857  34.277  1.00  0.00    -0.744 OA
ENDBRANCH  95  98
ENDBRANCH  68  91
ENDBRANCH  42  43
ENDBRANCH  34  37
ENDBRANCH  32  33
ENDBRANCH  31  32
ENDBRANCH   1  31
TORSDOF 17
ENDMDL
MODEL 3
REMARK VINA RESULT:      -9.1      3.752     10.995
REMARK SMILES C[C@H](Oc1ccc(/C=C2/SC(=S)N(c3ccc(F)c(Cl)c3)C2=O)cc1)C(=O)NCCCNC(=O)c1ccc(-c2c3nc(c(-c4cccc(S(=O)(=O)[O-])c4F)c4ccc([nH]4)c(-c4cccc(S(=O)(=O)[O-])c4F)c4nc(c(-c5cccc(S(=O)(=O)[O-])c5F)c5ccc2[nH]5)C=C4)C=C3)cc1
REMARK SMILES IDX 29 1 28 2 26 3 27 4 2 6 1 7 3 8 4 9 5 10 25 11 6 12 24 13
REMARK SMILES IDX 7 14 8 15 9 16 10 17 22 18 11 19 13 20 23 21 12 22 14 23
REMARK SMILES IDX 15 24 21 25 16 26 19 27 17 28 20 29 18 30 30 31 31 32 32 33
REMARK SMILES IDX 33 34 34 36 35 37 36 38 97 39 37 40 96 41 38 42 39 43 40 44
REMARK SMILES IDX 90 45 41 46 95 47 89 48 91 49 42 50 94 51 88 52 87 53 43 55
REMARK SMILES IDX 75 56 55 57 74 58 56 59 59 60 73 61 92 62 57 63 58 64 72 66
REMARK SMILES IDX 93 67 60 68 44 69 45 70 53 71 46 72 48 73 54 74 47 75 49 76
REMARK SMILES IDX 50 77 51 78 52 79 76 80 77 81 85 82 78 83 80 84 86 85 79 86
REMARK SMILES IDX 81 87 82 88 83 89 84 90 61 91 62 92 70 93 63 94 65 95 71 96
REMARK SMILES IDX 64 97 66 98 67 99 68 100 69 101
REMARK H PARENT 28 5 32 35 91 54 59 65
REMARK Flexibility Score: inf
ROOT
ATOM      1  C   UNL A   1      43.784  21.482  25.589  1.00  0.00     0.118 C 
ENDROOT
BRANCH   1   2
ATOM      2  N   UNL A   1      44.823  22.107  24.783  1.00  0.00    -0.353 N 
ATOM      3  C   UNL A   1      45.398  23.345  24.932  1.00  0.00     0.260 C 
ATOM      4  O   UNL A   1      46.327  23.656  24.184  1.00  0.00    -0.271 OA
ATOM      5  H   UNL A   1      45.160  21.570  24.029  1.00  0.00     0.163 HD
BRANCH   3   6
ATOM      6  C   UNL A   1      44.916  24.288  26.046  1.00  0.00     0.258 C 
ATOM      7  C   UNL A   1      44.874  25.716  25.491  1.00  0.00     0.064 C 
BRANCH   6   8
ATOM      8  O   UNL A   1      45.793  23.991  27.134  1.00  0.00    -0.481 OA
BRANCH   8   9
ATOM      9  C   UNL A   1      45.527  24.302  28.426  1.00  0.00     0.120 A 
ATOM     10  C   UNL A   1      46.274  25.119  29.266  1.00  0.00     0.047 A 
ATOM     11  C   UNL A   1      44.386  23.673  28.926  1.00  0.00     0.047 A 
ATOM     12  C   UNL A   1      45.967  25.185  30.632  1.00  0.00     0.012 A 
ATOM     13  C   UNL A   1      44.053  23.768  30.275  1.00  0.00     0.012 A 
ATOM     14  C   UNL A   1      44.885  24.466  31.153  1.00  0.00    -0.024 A 
BRANCH  14  15
ATOM     15  C   UNL A   1      44.625  24.470  32.597  1.00  0.00     0.029 C 
ATOM     16  C   UNL A   1      44.100  25.486  33.302  1.00  0.00     0.081 C 
ATOM     17  S   UNL A   1      43.947  25.428  35.015  1.00  0.00    -0.054 SA
ATOM     18  C   UNL A   1      43.616  26.810  32.797  1.00  0.00     0.270 C 
ATOM     19  C   UNL A   1      43.447  27.117  35.128  1.00  0.00     0.152 C 
ATOM     20  N   UNL A   1      43.417  27.689  33.863  1.00  0.00    -0.261 N 
ATOM     21  O   UNL A   1      43.419  27.032  31.612  1.00  0.00    -0.268 OA
ATOM     22  S   UNL A   1      42.976  27.746  36.607  1.00  0.00    -0.051 S 
BRANCH  20  23
ATOM     23  C   UNL A   1      43.181  29.082  33.606  1.00  0.00     0.052 A 
ATOM     24  C   UNL A   1      44.241  30.006  33.582  1.00  0.00     0.030 A 
ATOM     25  C   UNL A   1      41.875  29.571  33.440  1.00  0.00     0.050 A 
ATOM     26  C   UNL A   1      44.006  31.369  33.378  1.00  0.00     0.043 A 
ATOM     27  C   UNL A   1      41.641  30.936  33.234  1.00  0.00     0.078 A 
ATOM     28  C   UNL A   1      42.706  31.828  33.203  1.00  0.00     0.141 A 
ATOM     29  Cl  UNL A   1      40.029  31.488  33.011  1.00  0.00    -0.081 Cl
ATOM     30  F   UNL A   1      42.509  33.138  32.999  1.00  0.00    -0.205 F 
ENDBRANCH  20  23
ENDBRANCH  14  15
ENDBRANCH   8   9
ENDBRANCH   6   8
ENDBRANCH   3   6
ENDBRANCH   1   2
BRANCH   1  31
ATOM     31  C   UNL A   1      42.442  22.190  25.496  1.00  0.00     0.042 C 
BRANCH  31  32
ATOM     32  C   UNL A   1      41.467  21.836  26.610  1.00  0.00     0.118 C 
BRANCH  32  33
ATOM     33  N   UNL A   1      40.075  21.913  26.190  1.00  0.00    -0.352 N 
ATOM     34  C   UNL A   1      39.153  22.920  26.337  1.00  0.00     0.251 C 
ATOM     35  H   UNL A   1      39.739  21.113  25.724  1.00  0.00     0.163 HD
ATOM     36  O   UNL A   1      37.978  22.697  26.054  1.00  0.00    -0.269 OA
BRANCH  34  37
ATOM     37  C   UNL A   1      39.552  24.256  26.838  1.00  0.00     0.039 A 
ATOM     38  C   UNL A   1      40.063  25.188  25.929  1.00  0.00     0.014 A 
ATOM     39  C   UNL A   1      39.479  24.582  28.195  1.00  0.00     0.014 A 
ATOM     40  C   UNL A   1      40.463  26.451  26.374  1.00  0.00     0.010 A 
ATOM     41  C   UNL A   1      39.793  25.869  28.623  1.00  0.00     0.010 A 
ATOM     42  C   UNL A   1      40.315  26.808  27.724  1.00  0.00    -0.014 A 
BRANCH  42  43
ATOM     43  C   UNL A   1      40.740  28.143  28.216  1.00  0.00     0.031 A 
ATOM     44  C   UNL A   1      42.197  28.423  28.484  1.00  0.00     0.074 A 
ATOM     45  C   UNL A   1      39.813  29.083  28.488  1.00  0.00     0.049 A 
ATOM     46  N   UNL A   1      42.759  29.515  28.932  1.00  0.00    -0.248 NA
ATOM     47  C   UNL A   1      43.144  27.318  28.250  1.00  0.00     0.031 C 
ATOM     48  C   UNL A   1      38.365  28.907  28.362  1.00  0.00     0.029 A 
ATOM     49  N   UNL A   1      39.952  30.369  28.946  1.00  0.00    -0.354 N 
ATOM     50  C   UNL A   1      44.111  29.220  29.070  1.00  0.00     0.074 A 
ATOM     51  C   UNL A   1      44.280  27.833  28.698  1.00  0.00     0.031 C 
ATOM     52  C   UNL A   1      37.750  30.045  28.724  1.00  0.00     0.029 A 
ATOM     53  C   UNL A   1      38.756  31.026  29.119  1.00  0.00     0.049 A 
ATOM     54  H   UNL A   1      40.825  30.783  29.133  1.00  0.00     0.167 HD
ATOM     55  C   UNL A   1      45.128  30.037  29.436  1.00  0.00     0.034 A 
ATOM     56  C   UNL A   1      38.502  32.282  29.534  1.00  0.00     0.034 A 
ATOM     57  C   UNL A   1      44.966  31.432  29.740  1.00  0.00     0.049 A 
ATOM     58  C   UNL A   1      39.656  33.198  29.838  1.00  0.00     0.074 A 
ATOM     59  C   UNL A   1      45.941  32.368  30.036  1.00  0.00     0.029 A 
ATOM     60  N   UNL A   1      43.750  32.094  29.778  1.00  0.00    -0.354 N 
ATOM     61  N   UNL A   1      40.942  32.946  29.803  1.00  0.00    -0.248 NA
ATOM     62  C   UNL A   1      39.327  34.588  30.187  1.00  0.00     0.031 C 
ATOM     63  C   UNL A   1      45.312  33.599  30.256  1.00  0.00     0.029 A 
ATOM     64  C   UNL A   1      43.947  33.430  30.084  1.00  0.00     0.049 A 
ATOM     65  H   UNL A   1      42.873  31.676  29.613  1.00  0.00     0.167 HD
ATOM     66  C   UNL A   1      41.575  34.150  30.084  1.00  0.00     0.074 A 
ATOM     67  C   UNL A   1      40.531  35.137  30.270  1.00  0.00     0.031 C 
ATOM     68  C   UNL A   1      42.902  34.413  30.197  1.00  0.00     0.034 A 
BRANCH  55  69
ATOM     69  C   UNL A   1      46.518  29.455  29.452  1.00  0.00     0.023 A 
ATOM     70  C   UNL A   1      46.997  28.841  30.628  1.00  0.00     0.012 A 
ATOM     71  C   UNL A   1      47.331  29.470  28.302  1.00  0.00     0.148 A 
ATOM     72  C   UNL A   1      48.273  28.284  30.673  1.00  0.00     0.002 A 
ATOM     73  C   UNL A   1      48.587  28.873  28.341  1.00  0.00     0.091 A 
ATOM     74  F   UNL A   1      46.871  30.078  27.200  1.00  0.00    -0.205 F 
ATOM     75  C   UNL A   1      49.063  28.291  29.527  1.00  0.00     0.022 A 
BRANCH  73  76
ATOM     76  S   UNL A   1      49.650  28.761  26.896  1.00  0.00     0.127 S 
ATOM     77  O   UNL A   1      50.781  27.996  27.419  1.00  0.00    -0.237 OA
ATOM     78  O   UNL A   1      48.808  28.032  25.947  1.00  0.00    -0.237 OA
ATOM     79  O   UNL A   1      49.944  30.134  26.511  1.00  0.00    -0.744 OA
ENDBRANCH  73  76
ENDBRANCH  55  69
BRANCH  56  80
ATOM     80  C   UNL A   1      37.097  32.777  29.582  1.00  0.00     0.023 A 
ATOM     81  C   UNL A   1      36.357  32.861  28.387  1.00  0.00     0.012 A 
ATOM     82  C   UNL A   1      36.483  33.139  30.795  1.00  0.00     0.148 A 
ATOM     83  C   UNL A   1      35.041  33.324  28.394  1.00  0.00     0.002 A 
ATOM     84  C   UNL A   1      35.156  33.557  30.802  1.00  0.00     0.091 A 
ATOM     85  F   UNL A   1      37.206  33.071  31.922  1.00  0.00    -0.205 F 
ATOM     86  C   UNL A   1      34.437  33.662  29.603  1.00  0.00     0.022 A 
BRANCH  84  87
ATOM     87  S   UNL A   1      34.290  33.906  32.338  1.00  0.00     0.127 S 
ATOM     88  O   UNL A   1      33.146  34.683  31.869  1.00  0.00    -0.237 OA
ATOM     89  O   UNL A   1      33.963  32.568  32.831  1.00  0.00    -0.237 OA
ATOM     90  O   UNL A   1      35.259  34.621  33.162  1.00  0.00    -0.744 OA
ENDBRANCH  84  87
ENDBRANCH  56  80
BRANCH  68  91
ATOM     91  C   UNL A   1      43.310  35.832  30.493  1.00  0.00     0.023 A 
ATOM     92  C   UNL A   1      43.583  36.220  31.820  1.00  0.00     0.012 A 
ATOM     93  C   UNL A   1      43.493  36.760  29.449  1.00  0.00     0.148 A 
ATOM     94  C   UNL A   1      44.000  37.519  32.106  1.00  0.00     0.002 A 
ATOM     95  C   UNL A   1      43.953  38.039  29.738  1.00  0.00     0.091 A 
ATOM     96  F   UNL A   1      43.207  36.380  28.194  1.00  0.00    -0.205 F 
ATOM     97  C   UNL A   1      44.195  38.424  31.066  1.00  0.00     0.022 A 
BRANCH  95  98
ATOM     98  S   UNL A   1      44.322  39.230  28.444  1.00  0.00     0.127 S 
ATOM     99  O   UNL A   1      45.170  38.445  27.548  1.00  0.00    -0.237 OA
ATOM    100  O   UNL A   1      42.994  39.538  27.909  1.00  0.00    -0.237 OA
ATOM    101  O   UNL A   1      44.971  40.349  29.112  1.00  0.00    -0.744 OA
ENDBRANCH  95  98
ENDBRANCH  68  91
ENDBRANCH  42  43
ENDBRANCH  34  37
ENDBRANCH  32  33
ENDBRANCH  31  32
ENDBRANCH   1  31
TORSDOF 17
ENDMDL
