MODEL 1
REMARK VINA RESULT:     -11.9      0.000      0.000
REMARK SMILES C[C@@H](C(=O)NCCCNC(=O)c1ccc(-c2c3nc(c(-c4cccc(S(=O)(=O)[O-])c4F)c4ccc([nH]4)c(-c4cccc(S(=O)(=O)[O-])c4F)c4nc(c(-c5cccc(S(=O)(=O)[O-])c5F)c5ccc2[nH]5)C=C4)C=C3)cc1)c1ccc(C[C@@H]2CCC[C@@H]2O)cc1Br
REMARK SMILES IDX 6 1 5 2 3 3 4 4 2 6 1 7 75 8 76 9 87 10 77 11 86 12 88 13
REMARK SMILES IDX 78 14 79 15 80 16 81 17 84 18 82 19 83 20 85 21 7 23 8 24
REMARK SMILES IDX 9 25 10 26 11 28 12 29 13 30 74 31 14 32 73 33 15 34 16 35
REMARK SMILES IDX 17 36 67 37 18 38 72 39 66 40 68 41 19 42 71 43 65 44 64 45
REMARK SMILES IDX 20 47 52 48 32 49 51 50 33 51 36 52 50 53 69 54 34 55 35 56
REMARK SMILES IDX 49 58 70 59 37 60 21 61 22 62 30 63 23 64 25 65 31 66 24 67
REMARK SMILES IDX 26 68 27 69 28 70 29 71 53 72 54 73 62 74 55 75 57 76 63 77
REMARK SMILES IDX 56 78 58 79 59 80 60 81 61 82 38 83 39 84 47 85 40 86 42 87
REMARK SMILES IDX 48 88 41 89 43 90 44 91 45 92 46 93
REMARK H PARENT 5 5 85 22 9 27 68 46 36 57
REMARK Flexibility Score: inf
ROOT
ATOM      1  C   UNL A   1      33.145  27.965  24.627  1.00  0.00     0.117 C 
ENDROOT
BRANCH   1   2
ATOM      2  N   UNL A   1      32.065  27.006  24.742  1.00  0.00    -0.356 N 
ATOM      3  C   UNL A   1      31.872  25.815  24.104  1.00  0.00     0.227 C 
ATOM      4  O   UNL A   1      30.783  25.264  24.280  1.00  0.00    -0.274 OA
ATOM      5  H   UNL A   1      31.357  27.252  25.380  1.00  0.00     0.163 HD
BRANCH   3   6
ATOM      6  C   UNL A   1      32.993  25.205  23.238  1.00  0.00     0.106 C 
ATOM      7  C   UNL A   1      32.886  25.715  21.793  1.00  0.00     0.023 C 
BRANCH   6   8
ATOM      8  C   UNL A   1      32.989  23.676  23.347  1.00  0.00    -0.022 A 
ATOM      9  C   UNL A   1      32.275  22.895  22.420  1.00  0.00     0.006 A 
ATOM     10  C   UNL A   1      33.623  23.000  24.407  1.00  0.00     0.022 A 
ATOM     11  C   UNL A   1      32.180  21.510  22.551  1.00  0.00     0.004 A 
ATOM     12  C   UNL A   1      33.486  21.612  24.561  1.00  0.00     0.019 A 
ATOM     13  Br  UNL A   1      34.681  23.901  25.710  1.00  0.00    -0.051 Br
ATOM     14  C   UNL A   1      32.735  20.857  23.651  1.00  0.00    -0.047 A 
BRANCH  14  15
ATOM     15  C   UNL A   1      32.502  19.384  23.871  1.00  0.00     0.041 C 
BRANCH  15  16
ATOM     16  C   UNL A   1      33.666  18.536  24.439  1.00  0.00     0.022 C 
ATOM     17  C   UNL A   1      34.197  17.435  23.512  1.00  0.00     0.007 C 
ATOM     18  C   UNL A   1      33.403  17.767  25.737  1.00  0.00     0.117 C 
ATOM     19  C   UNL A   1      33.556  16.123  23.977  1.00  0.00     0.003 C 
ATOM     20  C   UNL A   1      32.838  16.427  25.289  1.00  0.00     0.032 C 
BRANCH  18  21
ATOM     21  O   UNL A   1      32.548  18.442  26.636  1.00  0.00    -0.393 OA
ATOM     22  H   UNL A   1      32.903  19.326  26.818  1.00  0.00     0.210 HD
ENDBRANCH  18  21
ENDBRANCH  15  16
ENDBRANCH  14  15
ENDBRANCH   6   8
ENDBRANCH   3   6
ENDBRANCH   1   2
BRANCH   1  23
ATOM     23  C   UNL A   1      34.049  27.935  25.859  1.00  0.00     0.042 C 
BRANCH  23  24
ATOM     24  C   UNL A   1      33.397  28.496  27.120  1.00  0.00     0.118 C 
BRANCH  24  25
ATOM     25  N   UNL A   1      33.481  29.947  27.190  1.00  0.00    -0.352 N 
ATOM     26  C   UNL A   1      34.440  30.746  27.756  1.00  0.00     0.251 C 
ATOM     27  H   UNL A   1      32.734  30.429  26.766  1.00  0.00     0.163 HD
ATOM     28  O   UNL A   1      34.217  31.952  27.888  1.00  0.00    -0.269 OA
BRANCH  26  29
ATOM     29  C   UNL A   1      35.726  30.180  28.216  1.00  0.00     0.039 A 
ATOM     30  C   UNL A   1      36.817  30.188  27.342  1.00  0.00     0.014 A 
ATOM     31  C   UNL A   1      35.854  29.610  29.485  1.00  0.00     0.014 A 
ATOM     32  C   UNL A   1      38.047  29.672  27.760  1.00  0.00     0.010 A 
ATOM     33  C   UNL A   1      37.099  29.169  29.928  1.00  0.00     0.010 A 
ATOM     34  C   UNL A   1      38.206  29.183  29.067  1.00  0.00    -0.014 A 
BRANCH  34  35
ATOM     35  C   UNL A   1      39.520  28.683  29.551  1.00  0.00     0.031 A 
ATOM     36  C   UNL A   1      40.246  29.402  30.656  1.00  0.00     0.074 A 
ATOM     37  C   UNL A   1      40.099  27.633  28.936  1.00  0.00     0.049 A 
ATOM     38  N   UNL A   1      41.421  29.148  31.172  1.00  0.00    -0.248 NA
ATOM     39  C   UNL A   1      39.578  30.576  31.241  1.00  0.00     0.031 C 
ATOM     40  C   UNL A   1      39.532  26.898  27.804  1.00  0.00     0.029 A 
ATOM     41  N   UNL A   1      41.306  27.018  29.160  1.00  0.00    -0.354 N 
ATOM     42  C   UNL A   1      41.651  30.149  32.107  1.00  0.00     0.074 A 
ATOM     43  C   UNL A   1      40.508  31.034  32.065  1.00  0.00     0.031 C 
ATOM     44  C   UNL A   1      40.385  25.929  27.437  1.00  0.00     0.029 A 
ATOM     45  C   UNL A   1      41.572  25.992  28.284  1.00  0.00     0.049 A 
ATOM     46  H   UNL A   1      41.922  27.287  29.880  1.00  0.00     0.167 HD
ATOM     47  C   UNL A   1      42.704  30.305  32.946  1.00  0.00     0.034 A 
ATOM     48  C   UNL A   1      42.654  25.196  28.170  1.00  0.00     0.034 A 
ATOM     49  C   UNL A   1      43.819  29.399  33.014  1.00  0.00     0.049 A 
ATOM     50  C   UNL A   1      43.793  25.365  29.137  1.00  0.00     0.074 A 
ATOM     51  C   UNL A   1      44.888  29.414  33.893  1.00  0.00     0.029 A 
ATOM     52  N   UNL A   1      44.016  28.321  32.164  1.00  0.00    -0.354 N 
ATOM     53  N   UNL A   1      43.919  26.220  30.123  1.00  0.00    -0.248 NA
ATOM     54  C   UNL A   1      44.924  24.435  29.001  1.00  0.00     0.031 C 
ATOM     55  C   UNL A   1      45.747  28.363  33.554  1.00  0.00     0.029 A 
ATOM     56  C   UNL A   1      45.196  27.672  32.487  1.00  0.00     0.049 A 
ATOM     57  H   UNL A   1      43.407  28.057  31.437  1.00  0.00     0.167 HD
ATOM     58  C   UNL A   1      45.120  25.908  30.748  1.00  0.00     0.074 A 
ATOM     59  C   UNL A   1      45.677  24.775  30.038  1.00  0.00     0.031 C 
ATOM     60  C   UNL A   1      45.715  26.513  31.806  1.00  0.00     0.034 A 
BRANCH  47  61
ATOM     61  C   UNL A   1      42.677  31.480  33.890  1.00  0.00     0.023 A 
ATOM     62  C   UNL A   1      43.231  32.714  33.486  1.00  0.00     0.012 A 
ATOM     63  C   UNL A   1      42.067  31.381  35.156  1.00  0.00     0.148 A 
ATOM     64  C   UNL A   1      43.220  33.814  34.343  1.00  0.00     0.002 A 
ATOM     65  C   UNL A   1      42.016  32.496  35.985  1.00  0.00     0.091 A 
ATOM     66  F   UNL A   1      41.563  30.197  35.533  1.00  0.00    -0.205 F 
ATOM     67  C   UNL A   1      42.605  33.708  35.587  1.00  0.00     0.022 A 
BRANCH  65  68
ATOM     68  S   UNL A   1      41.173  32.483  37.571  1.00  0.00     0.127 S 
ATOM     69  O   UNL A   1      42.046  31.618  38.363  1.00  0.00    -0.237 OA
ATOM     70  O   UNL A   1      41.209  33.896  37.951  1.00  0.00    -0.237 OA
ATOM     71  O   UNL A   1      39.840  31.959  37.312  1.00  0.00    -0.744 OA
ENDBRANCH  65  68
ENDBRANCH  47  61
BRANCH  48  72
ATOM     72  C   UNL A   1      42.673  24.116  27.141  1.00  0.00     0.023 A 
ATOM     73  C   UNL A   1      43.357  24.333  25.930  1.00  0.00     0.012 A 
ATOM     74  C   UNL A   1      42.057  22.872  27.371  1.00  0.00     0.148 A 
ATOM     75  C   UNL A   1      43.402  23.340  24.951  1.00  0.00     0.002 A 
ATOM     76  C   UNL A   1      42.153  21.866  26.415  1.00  0.00     0.091 A 
ATOM     77  F   UNL A   1      41.406  22.689  28.528  1.00  0.00    -0.205 F 
ATOM     78  C   UNL A   1      42.810  22.103  25.198  1.00  0.00     0.022 A 
BRANCH  76  79
ATOM     79  S   UNL A   1      41.536  20.203  26.697  1.00  0.00     0.127 S 
ATOM     80  O   UNL A   1      40.102  20.438  26.853  1.00  0.00    -0.237 OA
ATOM     81  O   UNL A   1      41.919  19.527  25.457  1.00  0.00    -0.237 OA
ATOM     82  O   UNL A   1      42.228  19.720  27.883  1.00  0.00    -0.744 OA
ENDBRANCH  76  79
ENDBRANCH  48  72
BRANCH  60  83
ATOM     83  C   UNL A   1      47.020  25.942  32.297  1.00  0.00     0.023 A 
ATOM     84  C   UNL A   1      47.039  25.095  33.423  1.00  0.00     0.012 A 
ATOM     85  C   UNL A   1      48.218  26.188  31.596  1.00  0.00     0.148 A 
ATOM     86  C   UNL A   1      48.234  24.527  33.862  1.00  0.00     0.002 A 
ATOM     87  C   UNL A   1      49.396  25.578  32.010  1.00  0.00     0.091 A 
ATOM     88  F   UNL A   1      48.184  27.013  30.540  1.00  0.00    -0.205 F 
ATOM     89  C   UNL A   1      49.409  24.758  33.149  1.00  0.00     0.022 A 
BRANCH  87  90
ATOM     90  S   UNL A   1      50.935  25.738  31.097  1.00  0.00     0.127 S 
ATOM     91  O   UNL A   1      50.557  25.225  29.782  1.00  0.00    -0.237 OA
ATOM     92  O   UNL A   1      51.175  27.181  31.144  1.00  0.00    -0.237 OA
ATOM     93  O   UNL A   1      51.915  24.940  31.822  1.00  0.00    -0.744 OA
ENDBRANCH  87  90
ENDBRANCH  60  83
ENDBRANCH  34  35
ENDBRANCH  26  29
ENDBRANCH  24  25
ENDBRANCH  23  24
ENDBRANCH   1  23
TORSDOF 17
ENDMDL
MODEL 2
REMARK VINA RESULT:     -11.7      2.710      3.358
REMARK SMILES C[C@@H](C(=O)NCCCNC(=O)c1ccc(-c2c3nc(c(-c4cccc(S(=O)(=O)[O-])c4F)c4ccc([nH]4)c(-c4cccc(S(=O)(=O)[O-])c4F)c4nc(c(-c5cccc(S(=O)(=O)[O-])c5F)c5ccc2[nH]5)C=C4)C=C3)cc1)c1ccc(C[C@@H]2CCC[C@@H]2O)cc1Br
REMARK SMILES IDX 6 1 5 2 3 3 4 4 2 6 1 7 75 8 76 9 87 10 77 11 86 12 88 13
REMARK SMILES IDX 78 14 79 15 80 16 81 17 84 18 82 19 83 20 85 21 7 23 8 24
REMARK SMILES IDX 9 25 10 26 11 28 12 29 13 30 74 31 14 32 73 33 15 34 16 35
REMARK SMILES IDX 17 36 67 37 18 38 72 39 66 40 68 41 19 42 71 43 65 44 64 45
REMARK SMILES IDX 20 47 52 48 32 49 51 50 33 51 36 52 50 53 69 54 34 55 35 56
REMARK SMILES IDX 49 58 70 59 37 60 21 61 22 62 30 63 23 64 25 65 31 66 24 67
REMARK SMILES IDX 26 68 27 69 28 70 29 71 53 72 54 73 62 74 55 75 57 76 63 77
REMARK SMILES IDX 56 78 58 79 59 80 60 81 61 82 38 83 39 84 47 85 40 86 42 87
REMARK SMILES IDX 48 88 41 89 43 90 44 91 45 92 46 93
REMARK H PARENT 5 5 85 22 9 27 68 46 36 57
REMARK Flexibility Score: inf
ROOT
ATOM      1  C   UNL A   1      31.780  27.894  23.760  1.00  0.00     0.117 C 
ENDROOT
BRANCH   1   2
ATOM      2  N   UNL A   1      32.546  27.024  22.890  1.00  0.00    -0.356 N 
ATOM      3  C   UNL A   1      33.338  25.954  23.190  1.00  0.00     0.227 C 
ATOM      4  O   UNL A   1      33.999  25.479  22.263  1.00  0.00    -0.274 OA
ATOM      5  H   UNL A   1      32.487  27.239  21.931  1.00  0.00     0.163 HD
BRANCH   3   6
ATOM      6  C   UNL A   1      33.359  25.377  24.620  1.00  0.00     0.106 C 
ATOM      7  C   UNL A   1      34.622  25.839  25.361  1.00  0.00     0.023 C 
BRANCH   6   8
ATOM      8  C   UNL A   1      33.192  23.852  24.590  1.00  0.00    -0.022 A 
ATOM      9  C   UNL A   1      34.239  23.028  24.140  1.00  0.00     0.006 A 
ATOM     10  C   UNL A   1      31.977  23.226  24.928  1.00  0.00     0.022 A 
ATOM     11  C   UNL A   1      34.081  21.648  24.016  1.00  0.00     0.004 A 
ATOM     12  C   UNL A   1      31.808  21.844  24.758  1.00  0.00     0.019 A 
ATOM     13  Br  UNL A   1      30.483  24.190  25.611  1.00  0.00    -0.051 Br
ATOM     14  C   UNL A   1      32.849  21.045  24.269  1.00  0.00    -0.047 A 
BRANCH  14  15
ATOM     15  C   UNL A   1      32.637  19.580  23.989  1.00  0.00     0.041 C 
BRANCH  15  16
ATOM     16  C   UNL A   1      33.703  18.576  24.491  1.00  0.00     0.022 C 
ATOM     17  C   UNL A   1      34.120  17.494  23.487  1.00  0.00     0.007 C 
ATOM     18  C   UNL A   1      33.356  17.750  25.733  1.00  0.00     0.117 C 
ATOM     19  C   UNL A   1      33.344  16.227  23.860  1.00  0.00     0.003 C 
ATOM     20  C   UNL A   1      32.657  16.510  25.193  1.00  0.00     0.032 C 
BRANCH  18  21
ATOM     21  O   UNL A   1      32.573  18.444  26.680  1.00  0.00    -0.393 OA
ATOM     22  H   UNL A   1      31.962  17.826  27.109  1.00  0.00     0.210 HD
ENDBRANCH  18  21
ENDBRANCH  15  16
ENDBRANCH  14  15
ENDBRANCH   6   8
ENDBRANCH   3   6
ENDBRANCH   1   2
BRANCH   1  23
ATOM     23  C   UNL A   1      32.503  29.219  23.999  1.00  0.00     0.042 C 
BRANCH  23  24
ATOM     24  C   UNL A   1      32.925  29.444  25.447  1.00  0.00     0.118 C 
BRANCH  24  25
ATOM     25  N   UNL A   1      32.608  30.785  25.917  1.00  0.00    -0.352 N 
ATOM     26  C   UNL A   1      33.155  31.508  26.945  1.00  0.00     0.251 C 
ATOM     27  H   UNL A   1      31.892  31.243  25.420  1.00  0.00     0.163 HD
ATOM     28  O   UNL A   1      32.601  32.548  27.309  1.00  0.00    -0.269 OA
BRANCH  26  29
ATOM     29  C   UNL A   1      34.388  31.053  27.622  1.00  0.00     0.039 A 
ATOM     30  C   UNL A   1      35.437  31.961  27.794  1.00  0.00     0.014 A 
ATOM     31  C   UNL A   1      34.531  29.733  28.055  1.00  0.00     0.014 A 
ATOM     32  C   UNL A   1      36.606  31.557  28.445  1.00  0.00     0.010 A 
ATOM     33  C   UNL A   1      35.663  29.354  28.773  1.00  0.00     0.010 A 
ATOM     34  C   UNL A   1      36.719  30.258  28.965  1.00  0.00    -0.014 A 
BRANCH  34  35
ATOM     35  C   UNL A   1      37.929  29.826  29.711  1.00  0.00     0.031 A 
ATOM     36  C   UNL A   1      38.190  30.341  31.101  1.00  0.00     0.074 A 
ATOM     37  C   UNL A   1      38.839  29.037  29.104  1.00  0.00     0.049 A 
ATOM     38  N   UNL A   1      39.214  30.120  31.884  1.00  0.00    -0.248 NA
ATOM     39  C   UNL A   1      37.181  31.244  31.678  1.00  0.00     0.031 C 
ATOM     40  C   UNL A   1      38.739  28.534  27.733  1.00  0.00     0.029 A 
ATOM     41  N   UNL A   1      40.039  28.545  29.553  1.00  0.00    -0.354 N 
ATOM     42  C   UNL A   1      38.996  30.886  33.023  1.00  0.00     0.074 A 
ATOM     43  C   UNL A   1      37.757  31.603  32.815  1.00  0.00     0.031 C 
ATOM     44  C   UNL A   1      39.827  27.798  27.456  1.00  0.00     0.029 A 
ATOM     45  C   UNL A   1      40.716  27.803  28.613  1.00  0.00     0.049 A 
ATOM     46  H   UNL A   1      40.381  28.706  30.462  1.00  0.00     0.167 HD
ATOM     47  C   UNL A   1      39.743  30.965  34.151  1.00  0.00     0.034 A 
ATOM     48  C   UNL A   1      41.921  27.202  28.673  1.00  0.00     0.034 A 
ATOM     49  C   UNL A   1      40.952  30.219  34.370  1.00  0.00     0.049 A 
ATOM     50  C   UNL A   1      42.712  27.274  29.949  1.00  0.00     0.074 A 
ATOM     51  C   UNL A   1      41.730  30.156  35.512  1.00  0.00     0.029 A 
ATOM     52  N   UNL A   1      41.566  29.413  33.423  1.00  0.00    -0.354 N 
ATOM     53  N   UNL A   1      42.410  27.874  31.076  1.00  0.00    -0.248 NA
ATOM     54  C   UNL A   1      43.995  26.556  29.978  1.00  0.00     0.031 C 
ATOM     55  C   UNL A   1      42.831  29.335  35.246  1.00  0.00     0.029 A 
ATOM     56  C   UNL A   1      42.722  28.859  33.950  1.00  0.00     0.049 A 
ATOM     57  H   UNL A   1      41.231  29.257  32.511  1.00  0.00     0.167 HD
ATOM     58  C   UNL A   1      43.442  27.575  31.957  1.00  0.00     0.074 A 
ATOM     59  C   UNL A   1      44.370  26.726  31.238  1.00  0.00     0.031 C 
ATOM     60  C   UNL A   1      43.612  27.975  33.241  1.00  0.00     0.034 A 
BRANCH  47  61
ATOM     61  C   UNL A   1      39.245  31.864  35.255  1.00  0.00     0.023 A 
ATOM     62  C   UNL A   1      38.296  31.377  36.179  1.00  0.00     0.012 A 
ATOM     63  C   UNL A   1      39.746  33.172  35.407  1.00  0.00     0.148 A 
ATOM     64  C   UNL A   1      37.821  32.191  37.206  1.00  0.00     0.002 A 
ATOM     65  C   UNL A   1      39.303  33.961  36.464  1.00  0.00     0.091 A 
ATOM     66  F   UNL A   1      40.632  33.628  34.510  1.00  0.00    -0.205 F 
ATOM     67  C   UNL A   1      38.330  33.477  37.354  1.00  0.00     0.022 A 
BRANCH  65  68
ATOM     68  S   UNL A   1      39.960  35.601  36.788  1.00  0.00     0.127 S 
ATOM     69  O   UNL A   1      41.393  35.330  36.887  1.00  0.00    -0.237 OA
ATOM     70  O   UNL A   1      39.562  36.335  35.585  1.00  0.00    -0.237 OA
ATOM     71  O   UNL A   1      39.321  36.054  38.014  1.00  0.00    -0.744 OA
ENDBRANCH  65  68
ENDBRANCH  47  61
BRANCH  48  72
ATOM     72  C   UNL A   1      42.414  26.415  27.507  1.00  0.00     0.023 A 
ATOM     73  C   UNL A   1      43.269  27.032  26.574  1.00  0.00     0.012 A 
ATOM     74  C   UNL A   1      42.077  25.059  27.339  1.00  0.00     0.148 A 
ATOM     75  C   UNL A   1      43.757  26.321  25.477  1.00  0.00     0.002 A 
ATOM     76  C   UNL A   1      42.610  24.340  26.275  1.00  0.00     0.091 A 
ATOM     77  F   UNL A   1      41.256  24.494  28.235  1.00  0.00    -0.205 F 
ATOM     78  C   UNL A   1      43.435  24.973  25.333  1.00  0.00     0.022 A 
BRANCH  76  79
ATOM     79  S   UNL A   1      42.359  22.573  26.081  1.00  0.00     0.127 S 
ATOM     80  O   UNL A   1      43.069  22.303  24.833  1.00  0.00    -0.237 OA
ATOM     81  O   UNL A   1      43.005  22.045  27.284  1.00  0.00    -0.237 OA
ATOM     82  O   UNL A   1      40.917  22.379  26.040  1.00  0.00    -0.744 OA
ENDBRANCH  76  79
ENDBRANCH  48  72
BRANCH  60  83
ATOM     83  C   UNL A   1      44.826  27.472  33.978  1.00  0.00     0.023 A 
ATOM     84  C   UNL A   1      46.020  28.219  33.963  1.00  0.00     0.012 A 
ATOM     85  C   UNL A   1      44.758  26.293  34.748  1.00  0.00     0.148 A 
ATOM     86  C   UNL A   1      47.137  27.785  34.675  1.00  0.00     0.002 A 
ATOM     87  C   UNL A   1      45.859  25.894  35.495  1.00  0.00     0.091 A 
ATOM     88  F   UNL A   1      43.620  25.584  34.734  1.00  0.00    -0.205 F 
ATOM     89  C   UNL A   1      47.053  26.631  35.451  1.00  0.00     0.022 A 
BRANCH  87  90
ATOM     90  S   UNL A   1      45.811  24.476  36.599  1.00  0.00     0.127 S 
ATOM     91  O   UNL A   1      47.188  24.432  37.087  1.00  0.00    -0.237 OA
ATOM     92  O   UNL A   1      44.823  24.893  37.596  1.00  0.00    -0.237 OA
ATOM     93  O   UNL A   1      45.400  23.344  35.780  1.00  0.00    -0.744 OA
ENDBRANCH  87  90
ENDBRANCH  60  83
ENDBRANCH  34  35
ENDBRANCH  26  29
ENDBRANCH  24  25
ENDBRANCH  23  24
ENDBRANCH   1  23
TORSDOF 17
ENDMDL
MODEL 3
REMARK VINA RESULT:     -11.6      4.955      8.586
REMARK SMILES C[C@@H](C(=O)NCCCNC(=O)c1ccc(-c2c3nc(c(-c4cccc(S(=O)(=O)[O-])c4F)c4ccc([nH]4)c(-c4cccc(S(=O)(=O)[O-])c4F)c4nc(c(-c5cccc(S(=O)(=O)[O-])c5F)c5ccc2[nH]5)C=C4)C=C3)cc1)c1ccc(C[C@@H]2CCC[C@@H]2O)cc1Br
REMARK SMILES IDX 6 1 5 2 3 3 4 4 2 6 1 7 75 8 76 9 87 10 77 11 86 12 88 13
REMARK SMILES IDX 78 14 79 15 80 16 81 17 84 18 82 19 83 20 85 21 7 23 8 24
REMARK SMILES IDX 9 25 10 26 11 28 12 29 13 30 74 31 14 32 73 33 15 34 16 35
REMARK SMILES IDX 17 36 67 37 18 38 72 39 66 40 68 41 19 42 71 43 65 44 64 45
REMARK SMILES IDX 20 47 52 48 32 49 51 50 33 51 36 52 50 53 69 54 34 55 35 56
REMARK SMILES IDX 49 58 70 59 37 60 21 61 22 62 30 63 23 64 25 65 31 66 24 67
REMARK SMILES IDX 26 68 27 69 28 70 29 71 53 72 54 73 62 74 55 75 57 76 63 77
REMARK SMILES IDX 56 78 58 79 59 80 60 81 61 82 38 83 39 84 47 85 40 86 42 87
REMARK SMILES IDX 48 88 41 89 43 90 44 91 45 92 46 93
REMARK H PARENT 5 5 85 22 9 27 68 46 36 57
REMARK Flexibility Score: inf
ROOT
ATOM      1  C   UNL A   1      36.177  19.876  25.031  1.00  0.00     0.117 C 
ENDROOT
BRANCH   1   2
ATOM      2  N   UNL A   1      36.142  21.122  25.771  1.00  0.00    -0.356 N 
ATOM      3  C   UNL A   1      35.867  22.390  25.347  1.00  0.00     0.227 C 
ATOM      4  O   UNL A   1      36.054  23.296  26.163  1.00  0.00    -0.274 OA
ATOM      5  H   UNL A   1      36.350  21.041  26.729  1.00  0.00     0.163 HD
BRANCH   3   6
ATOM      6  C   UNL A   1      35.323  22.635  23.925  1.00  0.00     0.106 C 
ATOM      7  C   UNL A   1      36.477  22.953  22.963  1.00  0.00     0.023 C 
BRANCH   6   8
ATOM      8  C   UNL A   1      34.230  23.711  23.943  1.00  0.00    -0.022 A 
ATOM      9  C   UNL A   1      34.517  25.028  23.543  1.00  0.00     0.006 A 
ATOM     10  C   UNL A   1      32.933  23.451  24.427  1.00  0.00     0.022 A 
ATOM     11  C   UNL A   1      33.566  26.044  23.638  1.00  0.00     0.004 A 
ATOM     12  C   UNL A   1      31.995  24.485  24.563  1.00  0.00     0.019 A 
ATOM     13  Br  UNL A   1      32.365  21.710  24.949  1.00  0.00    -0.051 Br
ATOM     14  C   UNL A   1      32.314  25.799  24.199  1.00  0.00    -0.047 A 
BRANCH  14  15
ATOM     15  C   UNL A   1      31.344  26.928  24.441  1.00  0.00     0.041 C 
BRANCH  15  16
ATOM     16  C   UNL A   1      31.648  28.304  23.800  1.00  0.00     0.022 C 
ATOM     17  C   UNL A   1      31.169  29.525  24.594  1.00  0.00     0.007 C 
ATOM     18  C   UNL A   1      31.065  28.572  22.409  1.00  0.00     0.117 C 
ATOM     19  C   UNL A   1      29.852  29.976  23.953  1.00  0.00     0.003 C 
ATOM     20  C   UNL A   1      29.687  29.163  22.672  1.00  0.00     0.032 C 
BRANCH  18  21
ATOM     21  O   UNL A   1      31.015  27.430  21.582  1.00  0.00    -0.393 OA
ATOM     22  H   UNL A   1      30.090  27.177  21.434  1.00  0.00     0.210 HD
ENDBRANCH  18  21
ENDBRANCH  15  16
ENDBRANCH  14  15
ENDBRANCH   6   8
ENDBRANCH   3   6
ENDBRANCH   1   2
BRANCH   1  23
ATOM     23  C   UNL A   1      37.613  19.409  24.796  1.00  0.00     0.042 C 
BRANCH  23  24
ATOM     24  C   UNL A   1      38.629  20.019  25.756  1.00  0.00     0.118 C 
BRANCH  24  25
ATOM     25  N   UNL A   1      39.789  19.163  25.956  1.00  0.00    -0.352 N 
ATOM     26  C   UNL A   1      41.099  19.497  26.183  1.00  0.00     0.251 C 
ATOM     27  H   UNL A   1      39.604  18.196  25.924  1.00  0.00     0.163 HD
ATOM     28  O   UNL A   1      41.963  18.618  26.119  1.00  0.00    -0.269 OA
BRANCH  26  29
ATOM     29  C   UNL A   1      41.486  20.889  26.492  1.00  0.00     0.039 A 
ATOM     30  C   UNL A   1      42.176  21.150  27.680  1.00  0.00     0.014 A 
ATOM     31  C   UNL A   1      41.144  21.942  25.640  1.00  0.00     0.014 A 
ATOM     32  C   UNL A   1      42.565  22.457  27.986  1.00  0.00     0.010 A 
ATOM     33  C   UNL A   1      41.601  23.231  25.907  1.00  0.00     0.010 A 
ATOM     34  C   UNL A   1      42.305  23.505  27.088  1.00  0.00    -0.014 A 
BRANCH  34  35
ATOM     35  C   UNL A   1      42.761  24.892  27.366  1.00  0.00     0.031 A 
ATOM     36  C   UNL A   1      41.830  25.883  28.014  1.00  0.00     0.074 A 
ATOM     37  C   UNL A   1      43.984  25.285  26.958  1.00  0.00     0.049 A 
ATOM     38  N   UNL A   1      42.030  27.146  28.285  1.00  0.00    -0.248 NA
ATOM     39  C   UNL A   1      40.490  25.397  28.380  1.00  0.00     0.031 C 
ATOM     40  C   UNL A   1      44.950  24.443  26.252  1.00  0.00     0.029 A 
ATOM     41  N   UNL A   1      44.611  26.503  27.054  1.00  0.00    -0.354 N 
ATOM     42  C   UNL A   1      40.834  27.617  28.812  1.00  0.00     0.074 A 
ATOM     43  C   UNL A   1      39.902  26.511  28.792  1.00  0.00     0.031 C 
ATOM     44  C   UNL A   1      46.050  25.165  25.985  1.00  0.00     0.029 A 
ATOM     45  C   UNL A   1      45.857  26.527  26.469  1.00  0.00     0.049 A 
ATOM     46  H   UNL A   1      44.208  27.283  27.498  1.00  0.00     0.167 HD
ATOM     47  C   UNL A   1      40.542  28.849  29.294  1.00  0.00     0.034 A 
ATOM     48  C   UNL A   1      46.741  27.536  26.333  1.00  0.00     0.034 A 
ATOM     49  C   UNL A   1      41.484  29.935  29.350  1.00  0.00     0.049 A 
ATOM     50  C   UNL A   1      46.408  28.884  26.910  1.00  0.00     0.074 A 
ATOM     51  C   UNL A   1      41.317  31.191  29.906  1.00  0.00     0.029 A 
ATOM     52  N   UNL A   1      42.765  29.898  28.822  1.00  0.00    -0.354 N 
ATOM     53  N   UNL A   1      45.329  29.265  27.551  1.00  0.00    -0.248 NA
ATOM     54  C   UNL A   1      47.430  29.933  26.779  1.00  0.00     0.031 C 
ATOM     55  C   UNL A   1      42.488  31.924  29.687  1.00  0.00     0.029 A 
ATOM     56  C   UNL A   1      43.397  31.114  29.026  1.00  0.00     0.049 A 
ATOM     57  H   UNL A   1      43.167  29.123  28.369  1.00  0.00     0.167 HD
ATOM     58  C   UNL A   1      45.557  30.581  27.933  1.00  0.00     0.074 A 
ATOM     59  C   UNL A   1      46.883  30.927  27.466  1.00  0.00     0.031 C 
ATOM     60  C   UNL A   1      44.737  31.431  28.600  1.00  0.00     0.034 A 
BRANCH  47  61
ATOM     61  C   UNL A   1      39.155  29.075  29.841  1.00  0.00     0.023 A 
ATOM     62  C   UNL A   1      38.843  28.652  31.151  1.00  0.00     0.012 A 
ATOM     63  C   UNL A   1      38.174  29.741  29.081  1.00  0.00     0.148 A 
ATOM     64  C   UNL A   1      37.566  28.848  31.677  1.00  0.00     0.002 A 
ATOM     65  C   UNL A   1      36.918  29.976  29.630  1.00  0.00     0.091 A 
ATOM     66  F   UNL A   1      38.480  30.118  27.831  1.00  0.00    -0.205 F 
ATOM     67  C   UNL A   1      36.608  29.518  30.921  1.00  0.00     0.022 A 
BRANCH  65  68
ATOM     68  S   UNL A   1      35.644  30.904  28.767  1.00  0.00     0.127 S 
ATOM     69  O   UNL A   1      36.434  31.652  27.791  1.00  0.00    -0.237 OA
ATOM     70  O   UNL A   1      34.822  29.837  28.195  1.00  0.00    -0.237 OA
ATOM     71  O   UNL A   1      34.976  31.705  29.781  1.00  0.00    -0.744 OA
ENDBRANCH  65  68
ENDBRANCH  47  61
BRANCH  48  72
ATOM     72  C   UNL A   1      48.058  27.283  25.682  1.00  0.00     0.023 A 
ATOM     73  C   UNL A   1      49.132  26.816  26.463  1.00  0.00     0.012 A 
ATOM     74  C   UNL A   1      48.239  27.461  24.298  1.00  0.00     0.148 A 
ATOM     75  C   UNL A   1      50.375  26.560  25.882  1.00  0.00     0.002 A 
ATOM     76  C   UNL A   1      49.464  27.152  23.715  1.00  0.00     0.091 A 
ATOM     77  F   UNL A   1      47.205  27.913  23.575  1.00  0.00    -0.205 F 
ATOM     78  C   UNL A   1      50.538  26.718  24.508  1.00  0.00     0.022 A 
BRANCH  76  79
ATOM     79  S   UNL A   1      49.728  27.198  21.940  1.00  0.00     0.127 S 
ATOM     80  O   UNL A   1      49.452  28.600  21.632  1.00  0.00    -0.237 OA
ATOM     81  O   UNL A   1      51.135  26.810  21.835  1.00  0.00    -0.237 OA
ATOM     82  O   UNL A   1      48.795  26.234  21.375  1.00  0.00    -0.744 OA
ENDBRANCH  76  79
ENDBRANCH  48  72
BRANCH  60  83
ATOM     83  C   UNL A   1      45.257  32.810  28.909  1.00  0.00     0.023 A 
ATOM     84  C   UNL A   1      45.988  33.041  30.091  1.00  0.00     0.012 A 
ATOM     85  C   UNL A   1      45.084  33.863  27.987  1.00  0.00     0.148 A 
ATOM     86  C   UNL A   1      46.511  34.304  30.366  1.00  0.00     0.002 A 
ATOM     87  C   UNL A   1      45.651  35.105  28.244  1.00  0.00     0.091 A 
ATOM     88  F   UNL A   1      44.369  33.631  26.877  1.00  0.00    -0.205 F 
ATOM     89  C   UNL A   1      46.354  35.332  29.439  1.00  0.00     0.022 A 
BRANCH  87  90
ATOM     90  S   UNL A   1      45.585  36.458  27.063  1.00  0.00     0.127 S 
ATOM     91  O   UNL A   1      46.223  35.862  25.892  1.00  0.00    -0.237 OA
ATOM     92  O   UNL A   1      44.144  36.680  26.928  1.00  0.00    -0.237 OA
ATOM     93  O   UNL A   1      46.310  37.562  27.678  1.00  0.00    -0.744 OA
ENDBRANCH  87  90
ENDBRANCH  60  83
ENDBRANCH  34  35
ENDBRANCH  26  29
ENDBRANCH  24  25
ENDBRANCH  23  24
ENDBRANCH   1  23
TORSDOF 17
ENDMDL
