MODEL 1
REMARK VINA RESULT:     -12.7      0.000      0.000
REMARK SMILES Cc1ccc(C)c(N2C(=O)S[C@H](CC(=O)Nc3ccc(C(=O)NCCCNC(=O)c4ccc(-c5c6nc(c(-c7cccc(S(=O)(=O)[O-])c7F)c7ccc([nH]7)c(-c7cccc(S(=O)(=O)[O-])c7F)c7nc(c(-c8cccc(S(=O)(=O)[O-])c8F)c8ccc5[nH]8)C=C7)C=C6)cc4)c(O)c3)C2=O)c1
REMARK SMILES IDX 24 1 23 2 21 3 22 4 20 6 17 7 18 8 95 9 19 10 93 11 16 12
REMARK SMILES IDX 14 13 15 14 13 16 12 17 8 18 9 19 96 20 10 21 11 22 97 23
REMARK SMILES IDX 7 24 1 25 2 26 3 27 98 28 4 29 5 30 6 31 94 32 25 34 26 35
REMARK SMILES IDX 27 36 28 37 29 39 30 40 31 41 92 42 32 43 91 44 33 45 34 46
REMARK SMILES IDX 35 47 85 48 36 49 90 50 84 51 86 52 37 53 89 54 83 55 82 56
REMARK SMILES IDX 38 58 70 59 50 60 69 61 51 62 54 63 68 64 87 65 52 66 53 67
REMARK SMILES IDX 67 69 88 70 55 71 39 72 40 73 48 74 41 75 43 76 49 77 42 78
REMARK SMILES IDX 44 79 45 80 46 81 47 82 71 83 72 84 80 85 73 86 75 87 81 88
REMARK SMILES IDX 74 89 76 90 77 91 78 92 79 93 56 94 57 95 65 96 58 97 60 98
REMARK SMILES IDX 66 99 59 100 61 101 62 102 63 103 64 104
REMARK H PARENT 23 5 16 15 94 33 27 38 86 57 54 68
REMARK Flexibility Score: inf
ROOT
ATOM      1  C   UNL A   1      34.769  29.899  27.630  1.00  0.00     0.118 C 
ENDROOT
BRANCH   1   2
ATOM      2  N   UNL A   1      33.718  30.788  27.213  1.00  0.00    -0.352 N 
ATOM      3  C   UNL A   1      32.491  30.423  26.692  1.00  0.00     0.255 C 
ATOM      4  O   UNL A   1      31.585  31.253  26.675  1.00  0.00    -0.269 OA
ATOM      5  H   UNL A   1      33.889  31.753  27.308  1.00  0.00     0.163 HD
BRANCH   3   6
ATOM      6  C   UNL A   1      32.267  29.081  26.059  1.00  0.00     0.081 A 
ATOM      7  C   UNL A   1      31.117  26.837  24.818  1.00  0.00     0.044 A 
ATOM      8  C   UNL A   1      31.016  27.039  26.186  1.00  0.00     0.027 A 
ATOM      9  C   UNL A   1      32.048  27.588  24.129  1.00  0.00     0.073 A 
ATOM     10  C   UNL A   1      31.494  28.194  26.794  1.00  0.00     0.020 A 
ATOM     11  C   UNL A   1      32.693  28.637  24.798  1.00  0.00     0.130 A 
BRANCH   7  12
ATOM     12  N   UNL A   1      30.372  25.823  24.199  1.00  0.00    -0.326 N 
ATOM     13  C   UNL A   1      30.755  24.506  24.024  1.00  0.00     0.226 C 
ATOM     14  O   UNL A   1      30.252  23.832  23.124  1.00  0.00    -0.275 OA
ATOM     15  H   UNL A   1      29.484  26.074  23.855  1.00  0.00     0.169 HD
BRANCH  13  16
ATOM     16  C   UNL A   1      31.618  23.862  25.103  1.00  0.00     0.125 C 
BRANCH  16  17
ATOM     17  C   UNL A   1      33.116  23.739  24.823  1.00  0.00     0.156 C 
ATOM     18  N   UNL A   1      33.671  21.509  25.460  1.00  0.00    -0.240 N 
ATOM     19  C   UNL A   1      34.040  22.150  26.607  1.00  0.00     0.293 C 
ATOM     20  C   UNL A   1      33.358  22.314  24.374  1.00  0.00     0.248 C 
ATOM     21  O   UNL A   1      34.232  21.728  27.742  1.00  0.00    -0.261 OA
ATOM     22  S   UNL A   1      34.228  23.870  26.250  1.00  0.00    -0.050 SA
ATOM     23  O   UNL A   1      33.253  21.984  23.197  1.00  0.00    -0.273 OA
BRANCH  18  24
ATOM     24  C   UNL A   1      33.981  20.152  25.247  1.00  0.00     0.056 A 
ATOM     25  C   UNL A   1      32.234  16.764  25.135  1.00  0.00     0.044 C 
ATOM     26  C   UNL A   1      33.229  17.868  24.908  1.00  0.00    -0.049 A 
ATOM     27  C   UNL A   1      34.515  17.540  24.463  1.00  0.00     0.004 A 
ATOM     28  C   UNL A   1      32.961  19.189  25.287  1.00  0.00     0.030 A 
ATOM     29  C   UNL A   1      35.539  18.486  24.472  1.00  0.00     0.006 A 
ATOM     30  C   UNL A   1      35.292  19.800  24.875  1.00  0.00    -0.027 A 
ATOM     31  C   UNL A   1      36.464  20.732  24.998  1.00  0.00     0.046 C 
ENDBRANCH  18  24
ENDBRANCH  16  17
ENDBRANCH  13  16
ENDBRANCH   7  12
BRANCH  11  32
ATOM     32  O   UNL A   1      33.819  29.110  24.178  1.00  0.00    -0.507 OA
ATOM     33  H   UNL A   1      34.646  28.696  24.331  1.00  0.00     0.293 HD
ENDBRANCH  11  32
ENDBRANCH   3   6
ENDBRANCH   1   2
BRANCH   1  34
ATOM     34  C   UNL A   1      36.191  30.385  27.660  1.00  0.00     0.042 C 
BRANCH  34  35
ATOM     35  C   UNL A   1      36.399  31.793  28.163  1.00  0.00     0.118 C 
BRANCH  35  36
ATOM     36  N   UNL A   1      35.351  32.349  29.024  1.00  0.00    -0.352 N 
ATOM     37  C   UNL A   1      35.269  32.281  30.413  1.00  0.00     0.251 C 
ATOM     38  H   UNL A   1      34.620  32.824  28.568  1.00  0.00     0.163 HD
ATOM     39  O   UNL A   1      34.346  32.819  31.016  1.00  0.00    -0.269 OA
BRANCH  37  40
ATOM     40  C   UNL A   1      36.402  31.676  31.156  1.00  0.00     0.039 A 
ATOM     41  C   UNL A   1      37.604  32.388  31.206  1.00  0.00     0.014 A 
ATOM     42  C   UNL A   1      36.395  30.317  31.397  1.00  0.00     0.014 A 
ATOM     43  C   UNL A   1      38.807  31.693  31.084  1.00  0.00     0.010 A 
ATOM     44  C   UNL A   1      37.571  29.637  31.166  1.00  0.00     0.010 A 
ATOM     45  C   UNL A   1      38.769  30.317  30.877  1.00  0.00    -0.014 A 
BRANCH  45  46
ATOM     46  C   UNL A   1      39.967  29.527  30.544  1.00  0.00     0.031 A 
ATOM     47  C   UNL A   1      40.740  29.192  31.765  1.00  0.00     0.074 A 
ATOM     48  C   UNL A   1      40.296  28.930  29.375  1.00  0.00     0.049 A 
ATOM     49  N   UNL A   1      41.497  30.011  32.429  1.00  0.00    -0.248 NA
ATOM     50  C   UNL A   1      40.319  27.994  32.521  1.00  0.00     0.031 C 
ATOM     51  C   UNL A   1      39.526  28.792  28.138  1.00  0.00     0.029 A 
ATOM     52  N   UNL A   1      41.429  28.215  29.097  1.00  0.00    -0.354 N 
ATOM     53  C   UNL A   1      41.804  29.306  33.585  1.00  0.00     0.074 A 
ATOM     54  C   UNL A   1      40.711  28.394  33.730  1.00  0.00     0.031 C 
ATOM     55  C   UNL A   1      40.141  27.898  27.319  1.00  0.00     0.029 A 
ATOM     56  C   UNL A   1      41.401  27.477  27.914  1.00  0.00     0.049 A 
ATOM     57  H   UNL A   1      42.212  28.219  29.693  1.00  0.00     0.167 HD
ATOM     58  C   UNL A   1      43.087  29.168  34.036  1.00  0.00     0.034 A 
ATOM     59  C   UNL A   1      42.327  26.566  27.497  1.00  0.00     0.034 A 
ATOM     60  C   UNL A   1      43.977  29.973  33.217  1.00  0.00     0.049 A 
ATOM     61  C   UNL A   1      43.543  26.748  28.312  1.00  0.00     0.074 A 
ATOM     62  C   UNL A   1      44.118  31.310  32.903  1.00  0.00     0.029 A 
ATOM     63  N   UNL A   1      44.643  29.279  32.231  1.00  0.00    -0.354 N 
ATOM     64  N   UNL A   1      44.335  27.765  28.166  1.00  0.00    -0.248 NA
ATOM     65  C   UNL A   1      43.655  26.034  29.573  1.00  0.00     0.031 C 
ATOM     66  C   UNL A   1      44.518  31.339  31.531  1.00  0.00     0.029 A 
ATOM     67  C   UNL A   1      44.677  30.027  31.090  1.00  0.00     0.049 A 
ATOM     68  H   UNL A   1      45.034  28.381  32.333  1.00  0.00     0.167 HD
ATOM     69  C   UNL A   1      44.637  28.128  29.466  1.00  0.00     0.074 A 
ATOM     70  C   UNL A   1      44.327  26.951  30.278  1.00  0.00     0.031 C 
ATOM     71  C   UNL A   1      44.785  29.447  29.774  1.00  0.00     0.034 A 
BRANCH  58  72
ATOM     72  C   UNL A   1      43.629  27.957  34.808  1.00  0.00     0.023 A 
ATOM     73  C   UNL A   1      44.235  28.237  36.054  1.00  0.00     0.012 A 
ATOM     74  C   UNL A   1      43.799  26.638  34.328  1.00  0.00     0.148 A 
ATOM     75  C   UNL A   1      45.094  27.330  36.685  1.00  0.00     0.002 A 
ATOM     76  C   UNL A   1      44.668  25.741  34.940  1.00  0.00     0.091 A 
ATOM     77  F   UNL A   1      43.110  26.192  33.285  1.00  0.00    -0.205 F 
ATOM     78  C   UNL A   1      45.342  26.094  36.106  1.00  0.00     0.022 A 
BRANCH  76  79
ATOM     79  S   UNL A   1      45.022  24.125  34.222  1.00  0.00     0.127 S 
ATOM     80  O   UNL A   1      46.009  23.601  35.162  1.00  0.00    -0.237 OA
ATOM     81  O   UNL A   1      43.708  23.487  34.276  1.00  0.00    -0.237 OA
ATOM     82  O   UNL A   1      45.523  24.374  32.876  1.00  0.00    -0.744 OA
ENDBRANCH  76  79
ENDBRANCH  58  72
BRANCH  59  83
ATOM     83  C   UNL A   1      42.266  25.399  26.589  1.00  0.00     0.023 A 
ATOM     84  C   UNL A   1      43.299  25.147  25.653  1.00  0.00     0.012 A 
ATOM     85  C   UNL A   1      41.388  24.354  26.900  1.00  0.00     0.148 A 
ATOM     86  C   UNL A   1      43.470  23.882  25.074  1.00  0.00     0.002 A 
ATOM     87  C   UNL A   1      41.578  23.100  26.342  1.00  0.00     0.091 A 
ATOM     88  F   UNL A   1      40.446  24.567  27.827  1.00  0.00    -0.205 F 
ATOM     89  C   UNL A   1      42.616  22.851  25.434  1.00  0.00     0.022 A 
BRANCH  87  90
ATOM     90  S   UNL A   1      40.654  21.686  26.904  1.00  0.00     0.127 S 
ATOM     91  O   UNL A   1      39.301  22.033  26.476  1.00  0.00    -0.237 OA
ATOM     92  O   UNL A   1      41.302  20.622  26.135  1.00  0.00    -0.237 OA
ATOM     93  O   UNL A   1      40.871  21.631  28.345  1.00  0.00    -0.744 OA
ENDBRANCH  87  90
ENDBRANCH  59  83
BRANCH  71  94
ATOM     94  C   UNL A   1      44.869  30.398  28.608  1.00  0.00     0.023 A 
ATOM     95  C   UNL A   1      43.734  30.859  27.904  1.00  0.00     0.012 A 
ATOM     96  C   UNL A   1      46.128  30.913  28.281  1.00  0.00     0.148 A 
ATOM     97  C   UNL A   1      43.859  31.799  26.878  1.00  0.00     0.002 A 
ATOM     98  C   UNL A   1      46.244  31.884  27.298  1.00  0.00     0.091 A 
ATOM     99  F   UNL A   1      47.191  30.450  28.954  1.00  0.00    -0.205 F 
ATOM    100  C   UNL A   1      45.116  32.323  26.585  1.00  0.00     0.022 A 
BRANCH  98 101
ATOM    101  S   UNL A   1      47.812  32.679  26.964  1.00  0.00     0.127 S 
ATOM    102  O   UNL A   1      48.635  31.557  26.519  1.00  0.00    -0.237 OA
ATOM    103  O   UNL A   1      47.457  33.637  25.917  1.00  0.00    -0.237 OA
ATOM    104  O   UNL A   1      48.224  33.296  28.220  1.00  0.00    -0.744 OA
ENDBRANCH  98 101
ENDBRANCH  71  94
ENDBRANCH  45  46
ENDBRANCH  37  40
ENDBRANCH  35  36
ENDBRANCH  34  35
ENDBRANCH   1  34
TORSDOF 18
ENDMDL
MODEL 2
REMARK VINA RESULT:     -12.3      2.659      4.379
REMARK SMILES Cc1ccc(C)c(N2C(=O)S[C@H](CC(=O)Nc3ccc(C(=O)NCCCNC(=O)c4ccc(-c5c6nc(c(-c7cccc(S(=O)(=O)[O-])c7F)c7ccc([nH]7)c(-c7cccc(S(=O)(=O)[O-])c7F)c7nc(c(-c8cccc(S(=O)(=O)[O-])c8F)c8ccc5[nH]8)C=C7)C=C6)cc4)c(O)c3)C2=O)c1
REMARK SMILES IDX 24 1 23 2 21 3 22 4 20 6 17 7 18 8 95 9 19 10 93 11 16 12
REMARK SMILES IDX 14 13 15 14 13 16 12 17 8 18 9 19 96 20 10 21 11 22 97 23
REMARK SMILES IDX 7 24 1 25 2 26 3 27 98 28 4 29 5 30 6 31 94 32 25 34 26 35
REMARK SMILES IDX 27 36 28 37 29 39 30 40 31 41 92 42 32 43 91 44 33 45 34 46
REMARK SMILES IDX 35 47 85 48 36 49 90 50 84 51 86 52 37 53 89 54 83 55 82 56
REMARK SMILES IDX 38 58 70 59 50 60 69 61 51 62 54 63 68 64 87 65 52 66 53 67
REMARK SMILES IDX 67 69 88 70 55 71 39 72 40 73 48 74 41 75 43 76 49 77 42 78
REMARK SMILES IDX 44 79 45 80 46 81 47 82 71 83 72 84 80 85 73 86 75 87 81 88
REMARK SMILES IDX 74 89 76 90 77 91 78 92 79 93 56 94 57 95 65 96 58 97 60 98
REMARK SMILES IDX 66 99 59 100 61 101 62 102 63 103 64 104
REMARK H PARENT 23 5 16 15 94 33 27 38 86 57 54 68
REMARK Flexibility Score: inf
ROOT
ATOM      1  C   UNL A   1      32.934  35.307  31.524  1.00  0.00     0.118 C 
ENDROOT
BRANCH   1   2
ATOM      2  N   UNL A   1      32.864  36.345  30.529  1.00  0.00    -0.352 N 
ATOM      3  C   UNL A   1      33.009  36.185  29.164  1.00  0.00     0.255 C 
ATOM      4  O   UNL A   1      32.619  37.082  28.420  1.00  0.00    -0.269 OA
ATOM      5  H   UNL A   1      32.697  37.259  30.853  1.00  0.00     0.163 HD
BRANCH   3   6
ATOM      6  C   UNL A   1      33.715  35.001  28.576  1.00  0.00     0.081 A 
ATOM      7  C   UNL A   1      35.217  32.651  28.222  1.00  0.00     0.044 A 
ATOM      8  C   UNL A   1      35.828  33.886  28.363  1.00  0.00     0.027 A 
ATOM      9  C   UNL A   1      33.863  32.636  27.950  1.00  0.00     0.073 A 
ATOM     10  C   UNL A   1      35.101  35.039  28.638  1.00  0.00     0.020 A 
ATOM     11  C   UNL A   1      33.150  33.840  28.025  1.00  0.00     0.130 A 
BRANCH   7  12
ATOM     12  N   UNL A   1      35.985  31.477  28.247  1.00  0.00    -0.326 N 
ATOM     13  C   UNL A   1      35.539  30.194  27.990  1.00  0.00     0.226 C 
ATOM     14  O   UNL A   1      36.150  29.227  28.446  1.00  0.00    -0.275 OA
ATOM     15  H   UNL A   1      36.938  31.577  28.468  1.00  0.00     0.169 HD
BRANCH  13  16
ATOM     16  C   UNL A   1      34.437  30.012  26.953  1.00  0.00     0.125 C 
BRANCH  16  17
ATOM     17  C   UNL A   1      33.322  29.018  27.279  1.00  0.00     0.156 C 
ATOM     18  N   UNL A   1      32.590  28.210  25.159  1.00  0.00    -0.240 N 
ATOM     19  C   UNL A   1      31.646  29.176  25.350  1.00  0.00     0.293 C 
ATOM     20  C   UNL A   1      33.404  27.918  26.243  1.00  0.00     0.248 C 
ATOM     21  O   UNL A   1      30.894  29.738  24.560  1.00  0.00    -0.261 OA
ATOM     22  S   UNL A   1      31.618  29.601  27.065  1.00  0.00    -0.050 SA
ATOM     23  O   UNL A   1      34.131  26.941  26.399  1.00  0.00    -0.273 OA
BRANCH  18  24
ATOM     24  C   UNL A   1      32.487  27.283  24.103  1.00  0.00     0.056 A 
ATOM     25  C   UNL A   1      30.620  24.071  23.239  1.00  0.00     0.044 C 
ATOM     26  C   UNL A   1      31.376  25.365  23.111  1.00  0.00    -0.049 A 
ATOM     27  C   UNL A   1      32.000  25.668  21.896  1.00  0.00     0.004 A 
ATOM     28  C   UNL A   1      31.612  26.192  24.217  1.00  0.00     0.030 A 
ATOM     29  C   UNL A   1      32.907  26.722  21.799  1.00  0.00     0.006 A 
ATOM     30  C   UNL A   1      33.174  27.536  22.902  1.00  0.00    -0.027 A 
ATOM     31  C   UNL A   1      34.264  28.562  22.774  1.00  0.00     0.046 C 
ENDBRANCH  18  24
ENDBRANCH  16  17
ENDBRANCH  13  16
ENDBRANCH   7  12
BRANCH  11  32
ATOM     32  O   UNL A   1      31.918  33.818  27.428  1.00  0.00    -0.507 OA
ATOM     33  H   UNL A   1      31.513  34.620  27.159  1.00  0.00     0.293 HD
ENDBRANCH  11  32
ENDBRANCH   3   6
ENDBRANCH   1   2
BRANCH   1  34
ATOM     34  C   UNL A   1      34.241  35.012  32.205  1.00  0.00     0.042 C 
BRANCH  34  35
ATOM     35  C   UNL A   1      34.640  33.557  32.271  1.00  0.00     0.118 C 
BRANCH  35  36
ATOM     36  N   UNL A   1      35.365  33.124  33.469  1.00  0.00    -0.352 N 
ATOM     37  C   UNL A   1      36.422  32.220  33.541  1.00  0.00     0.251 C 
ATOM     38  H   UNL A   1      35.071  33.518  34.322  1.00  0.00     0.163 HD
ATOM     39  O   UNL A   1      36.963  31.968  34.612  1.00  0.00    -0.269 OA
BRANCH  37  40
ATOM     40  C   UNL A   1      36.979  31.685  32.274  1.00  0.00     0.039 A 
ATOM     41  C   UNL A   1      36.703  30.354  31.951  1.00  0.00     0.014 A 
ATOM     42  C   UNL A   1      38.051  32.329  31.690  1.00  0.00     0.014 A 
ATOM     43  C   UNL A   1      37.712  29.571  31.388  1.00  0.00     0.010 A 
ATOM     44  C   UNL A   1      39.083  31.535  31.238  1.00  0.00     0.010 A 
ATOM     45  C   UNL A   1      38.972  30.133  31.204  1.00  0.00    -0.014 A 
BRANCH  45  46
ATOM     46  C   UNL A   1      40.148  29.341  30.802  1.00  0.00     0.031 A 
ATOM     47  C   UNL A   1      40.960  28.956  31.983  1.00  0.00     0.074 A 
ATOM     48  C   UNL A   1      40.427  28.779  29.603  1.00  0.00     0.049 A 
ATOM     49  N   UNL A   1      41.751  29.744  32.645  1.00  0.00    -0.248 NA
ATOM     50  C   UNL A   1      40.550  27.739  32.713  1.00  0.00     0.031 C 
ATOM     51  C   UNL A   1      39.610  28.691  28.391  1.00  0.00     0.029 A 
ATOM     52  N   UNL A   1      41.540  28.060  29.261  1.00  0.00    -0.354 N 
ATOM     53  C   UNL A   1      42.090  28.998  33.765  1.00  0.00     0.074 A 
ATOM     54  C   UNL A   1      40.992  28.094  33.921  1.00  0.00     0.031 C 
ATOM     55  C   UNL A   1      40.184  27.818  27.522  1.00  0.00     0.029 A 
ATOM     56  C   UNL A   1      41.459  27.362  28.056  1.00  0.00     0.049 A 
ATOM     57  H   UNL A   1      42.344  28.036  29.828  1.00  0.00     0.167 HD
ATOM     58  C   UNL A   1      43.386  28.830  34.165  1.00  0.00     0.034 A 
ATOM     59  C   UNL A   1      42.358  26.455  27.576  1.00  0.00     0.034 A 
ATOM     60  C   UNL A   1      44.257  29.650  33.341  1.00  0.00     0.049 A 
ATOM     61  C   UNL A   1      43.605  26.595  28.351  1.00  0.00     0.074 A 
ATOM     62  C   UNL A   1      44.404  30.996  33.065  1.00  0.00     0.029 A 
ATOM     63  N   UNL A   1      44.877  28.982  32.309  1.00  0.00    -0.354 N 
ATOM     64  N   UNL A   1      44.404  27.608  28.210  1.00  0.00    -0.248 NA
ATOM     65  C   UNL A   1      43.753  25.839  29.584  1.00  0.00     0.031 C 
ATOM     66  C   UNL A   1      44.754  31.066  31.682  1.00  0.00     0.029 A 
ATOM     67  C   UNL A   1      44.880  29.767  31.192  1.00  0.00     0.049 A 
ATOM     68  H   UNL A   1      45.260  28.076  32.367  1.00  0.00     0.167 HD
ATOM     69  C   UNL A   1      44.758  27.924  29.509  1.00  0.00     0.074 A 
ATOM     70  C   UNL A   1      44.462  26.725  30.293  1.00  0.00     0.031 C 
ATOM     71  C   UNL A   1      44.933  29.230  29.855  1.00  0.00     0.034 A 
BRANCH  58  72
ATOM     72  C   UNL A   1      43.941  27.588  34.877  1.00  0.00     0.023 A 
ATOM     73  C   UNL A   1      44.536  27.811  36.139  1.00  0.00     0.012 A 
ATOM     74  C   UNL A   1      44.130  26.297  34.330  1.00  0.00     0.148 A 
ATOM     75  C   UNL A   1      45.404  26.883  36.727  1.00  0.00     0.002 A 
ATOM     76  C   UNL A   1      45.008  25.381  34.899  1.00  0.00     0.091 A 
ATOM     77  F   UNL A   1      43.453  25.897  33.261  1.00  0.00    -0.205 F 
ATOM     78  C   UNL A   1      45.671  25.681  36.086  1.00  0.00     0.022 A 
BRANCH  76  79
ATOM     79  S   UNL A   1      45.387  23.809  34.101  1.00  0.00     0.127 S 
ATOM     80  O   UNL A   1      44.836  24.023  32.765  1.00  0.00    -0.237 OA
ATOM     81  O   UNL A   1      46.847  23.787  34.178  1.00  0.00    -0.237 OA
ATOM     82  O   UNL A   1      44.720  22.778  34.886  1.00  0.00    -0.744 OA
ENDBRANCH  76  79
ENDBRANCH  58  72
BRANCH  59  83
ATOM     83  C   UNL A   1      42.249  25.319  26.633  1.00  0.00     0.023 A 
ATOM     84  C   UNL A   1      43.234  25.099  25.639  1.00  0.00     0.012 A 
ATOM     85  C   UNL A   1      41.385  24.266  26.952  1.00  0.00     0.148 A 
ATOM     86  C   UNL A   1      43.373  23.854  25.010  1.00  0.00     0.002 A 
ATOM     87  C   UNL A   1      41.544  23.031  26.342  1.00  0.00     0.091 A 
ATOM     88  F   UNL A   1      40.490  24.448  27.931  1.00  0.00    -0.205 F 
ATOM     89  C   UNL A   1      42.536  22.812  25.376  1.00  0.00     0.022 A 
BRANCH  87  90
ATOM     90  S   UNL A   1      40.646  21.599  26.902  1.00  0.00     0.127 S 
ATOM     91  O   UNL A   1      39.285  21.925  26.479  1.00  0.00    -0.237 OA
ATOM     92  O   UNL A   1      41.308  20.550  26.125  1.00  0.00    -0.237 OA
ATOM     93  O   UNL A   1      40.868  21.542  28.341  1.00  0.00    -0.744 OA
ENDBRANCH  87  90
ENDBRANCH  59  83
BRANCH  71  94
ATOM     94  C   UNL A   1      44.988  30.218  28.718  1.00  0.00     0.023 A 
ATOM     95  C   UNL A   1      43.833  30.741  28.094  1.00  0.00     0.012 A 
ATOM     96  C   UNL A   1      46.244  30.701  28.340  1.00  0.00     0.148 A 
ATOM     97  C   UNL A   1      43.935  31.713  27.095  1.00  0.00     0.002 A 
ATOM     98  C   UNL A   1      46.341  31.702  27.384  1.00  0.00     0.091 A 
ATOM     99  F   UNL A   1      47.325  30.180  28.937  1.00  0.00    -0.205 F 
ATOM    100  C   UNL A   1      45.192  32.204  26.750  1.00  0.00     0.022 A 
BRANCH  98 101
ATOM    101  S   UNL A   1      47.916  32.456  26.991  1.00  0.00     0.127 S 
ATOM    102  O   UNL A   1      47.535  33.465  26.007  1.00  0.00    -0.237 OA
ATOM    103  O   UNL A   1      48.337  32.988  28.288  1.00  0.00    -0.237 OA
ATOM    104  O   UNL A   1      48.761  31.379  26.488  1.00  0.00    -0.744 OA
ENDBRANCH  98 101
ENDBRANCH  71  94
ENDBRANCH  45  46
ENDBRANCH  37  40
ENDBRANCH  35  36
ENDBRANCH  34  35
ENDBRANCH   1  34
TORSDOF 18
ENDMDL
MODEL 3
REMARK VINA RESULT:     -12.1      3.114      8.890
REMARK SMILES Cc1ccc(C)c(N2C(=O)S[C@H](CC(=O)Nc3ccc(C(=O)NCCCNC(=O)c4ccc(-c5c6nc(c(-c7cccc(S(=O)(=O)[O-])c7F)c7ccc([nH]7)c(-c7cccc(S(=O)(=O)[O-])c7F)c7nc(c(-c8cccc(S(=O)(=O)[O-])c8F)c8ccc5[nH]8)C=C7)C=C6)cc4)c(O)c3)C2=O)c1
REMARK SMILES IDX 24 1 23 2 21 3 22 4 20 6 17 7 18 8 95 9 19 10 93 11 16 12
REMARK SMILES IDX 14 13 15 14 13 16 12 17 8 18 9 19 96 20 10 21 11 22 97 23
REMARK SMILES IDX 7 24 1 25 2 26 3 27 98 28 4 29 5 30 6 31 94 32 25 34 26 35
REMARK SMILES IDX 27 36 28 37 29 39 30 40 31 41 92 42 32 43 91 44 33 45 34 46
REMARK SMILES IDX 35 47 85 48 36 49 90 50 84 51 86 52 37 53 89 54 83 55 82 56
REMARK SMILES IDX 38 58 70 59 50 60 69 61 51 62 54 63 68 64 87 65 52 66 53 67
REMARK SMILES IDX 67 69 88 70 55 71 39 72 40 73 48 74 41 75 43 76 49 77 42 78
REMARK SMILES IDX 44 79 45 80 46 81 47 82 71 83 72 84 80 85 73 86 75 87 81 88
REMARK SMILES IDX 74 89 76 90 77 91 78 92 79 93 56 94 57 95 65 96 58 97 60 98
REMARK SMILES IDX 66 99 59 100 61 101 62 102 63 103 64 104
REMARK H PARENT 23 5 16 15 94 33 27 38 86 57 54 68
REMARK Flexibility Score: inf
ROOT
ATOM      1  C   UNL A   1      37.657  23.901  26.128  1.00  0.00     0.118 C 
ENDROOT
BRANCH   1   2
ATOM      2  N   UNL A   1      37.412  22.487  26.030  1.00  0.00    -0.352 N 
ATOM      3  C   UNL A   1      36.279  21.883  25.518  1.00  0.00     0.255 C 
ATOM      4  O   UNL A   1      36.331  20.695  25.208  1.00  0.00    -0.269 OA
ATOM      5  H   UNL A   1      38.121  21.889  26.360  1.00  0.00     0.163 HD
BRANCH   3   6
ATOM      6  C   UNL A   1      34.969  22.607  25.426  1.00  0.00     0.081 A 
ATOM      7  C   UNL A   1      32.874  24.454  25.742  1.00  0.00     0.044 A 
ATOM      8  C   UNL A   1      33.110  23.459  26.678  1.00  0.00     0.027 A 
ATOM      9  C   UNL A   1      33.486  24.329  24.511  1.00  0.00     0.073 A 
ATOM     10  C   UNL A   1      34.202  22.605  26.582  1.00  0.00     0.020 A 
ATOM     11  C   UNL A   1      34.451  23.329  24.340  1.00  0.00     0.130 A 
BRANCH   7  12
ATOM     12  N   UNL A   1      31.956  25.479  26.018  1.00  0.00    -0.326 N 
ATOM     13  C   UNL A   1      32.241  26.718  26.560  1.00  0.00     0.226 C 
ATOM     14  O   UNL A   1      31.363  27.350  27.148  1.00  0.00    -0.275 OA
ATOM     15  H   UNL A   1      31.013  25.297  25.803  1.00  0.00     0.169 HD
BRANCH  13  16
ATOM     16  C   UNL A   1      33.575  27.365  26.205  1.00  0.00     0.125 C 
BRANCH  16  17
ATOM     17  C   UNL A   1      33.543  28.564  25.256  1.00  0.00     0.156 C 
ATOM     18  N   UNL A   1      31.468  28.366  24.098  1.00  0.00    -0.240 N 
ATOM     19  C   UNL A   1      32.280  27.782  23.170  1.00  0.00     0.293 C 
ATOM     20  C   UNL A   1      32.097  29.002  25.158  1.00  0.00     0.248 C 
ATOM     21  O   UNL A   1      32.025  27.044  22.224  1.00  0.00    -0.261 OA
ATOM     22  S   UNL A   1      33.950  28.242  23.518  1.00  0.00    -0.050 SA
ATOM     23  O   UNL A   1      31.611  29.797  25.956  1.00  0.00    -0.273 OA
BRANCH  18  24
ATOM     24  C   UNL A   1      30.125  28.676  23.806  1.00  0.00     0.056 A 
ATOM     25  C   UNL A   1      27.990  31.686  22.846  1.00  0.00     0.044 C 
ATOM     26  C   UNL A   1      28.477  30.274  23.014  1.00  0.00    -0.049 A 
ATOM     27  C   UNL A   1      27.567  29.221  22.870  1.00  0.00     0.004 A 
ATOM     28  C   UNL A   1      29.771  29.992  23.470  1.00  0.00     0.030 A 
ATOM     29  C   UNL A   1      27.905  27.924  23.252  1.00  0.00     0.006 A 
ATOM     30  C   UNL A   1      29.183  27.633  23.737  1.00  0.00    -0.027 A 
ATOM     31  C   UNL A   1      29.440  26.250  24.264  1.00  0.00     0.046 C 
ENDBRANCH  18  24
ENDBRANCH  16  17
ENDBRANCH  13  16
ENDBRANCH   7  12
BRANCH  11  32
ATOM     32  O   UNL A   1      34.763  23.046  23.036  1.00  0.00    -0.507 OA
ATOM     33  H   UNL A   1      34.700  22.166  22.720  1.00  0.00     0.293 HD
ENDBRANCH  11  32
ENDBRANCH   3   6
ENDBRANCH   1   2
BRANCH   1  34
ATOM     34  C   UNL A   1      39.024  24.397  26.511  1.00  0.00     0.042 C 
BRANCH  34  35
ATOM     35  C   UNL A   1      39.929  23.393  27.183  1.00  0.00     0.118 C 
BRANCH  35  36
ATOM     36  N   UNL A   1      40.738  22.543  26.305  1.00  0.00    -0.352 N 
ATOM     37  C   UNL A   1      41.990  22.829  25.765  1.00  0.00     0.251 C 
ATOM     38  H   UNL A   1      40.353  21.667  26.071  1.00  0.00     0.163 HD
ATOM     39  O   UNL A   1      42.575  22.009  25.065  1.00  0.00    -0.269 OA
BRANCH  37  40
ATOM     40  C   UNL A   1      42.665  24.084  26.178  1.00  0.00     0.039 A 
ATOM     41  C   UNL A   1      43.210  24.138  27.464  1.00  0.00     0.014 A 
ATOM     42  C   UNL A   1      42.380  25.252  25.499  1.00  0.00     0.014 A 
ATOM     43  C   UNL A   1      43.079  25.314  28.204  1.00  0.00     0.010 A 
ATOM     44  C   UNL A   1      42.151  26.376  26.262  1.00  0.00     0.010 A 
ATOM     45  C   UNL A   1      42.376  26.381  27.651  1.00  0.00    -0.014 A 
BRANCH  45  46
ATOM     46  C   UNL A   1      42.018  27.585  28.421  1.00  0.00     0.031 A 
ATOM     47  C   UNL A   1      42.956  28.698  28.135  1.00  0.00     0.074 A 
ATOM     48  C   UNL A   1      40.894  27.840  29.129  1.00  0.00     0.049 A 
ATOM     49  N   UNL A   1      44.168  28.801  28.588  1.00  0.00    -0.248 NA
ATOM     50  C   UNL A   1      42.670  29.530  26.947  1.00  0.00     0.031 C 
ATOM     51  C   UNL A   1      39.661  27.060  29.254  1.00  0.00     0.029 A 
ATOM     52  N   UNL A   1      40.602  28.968  29.847  1.00  0.00    -0.354 N 
ATOM     53  C   UNL A   1      44.694  29.865  27.869  1.00  0.00     0.074 A 
ATOM     54  C   UNL A   1      43.925  29.879  26.663  1.00  0.00     0.031 C 
ATOM     55  C   UNL A   1      38.705  27.818  29.853  1.00  0.00     0.029 A 
ATOM     56  C   UNL A   1      39.274  29.096  30.255  1.00  0.00     0.049 A 
ATOM     57  H   UNL A   1      41.283  29.645  30.061  1.00  0.00     0.167 HD
ATOM     58  C   UNL A   1      45.335  30.910  28.476  1.00  0.00     0.034 A 
ATOM     59  C   UNL A   1      38.699  30.189  30.834  1.00  0.00     0.034 A 
ATOM     60  C   UNL A   1      45.479  30.630  29.894  1.00  0.00     0.049 A 
ATOM     61  C   UNL A   1      39.780  31.080  31.295  1.00  0.00     0.074 A 
ATOM     62  C   UNL A   1      46.091  29.665  30.670  1.00  0.00     0.029 A 
ATOM     63  N   UNL A   1      44.534  31.223  30.701  1.00  0.00    -0.354 N 
ATOM     64  N   UNL A   1      40.521  30.804  32.324  1.00  0.00    -0.248 NA
ATOM     65  C   UNL A   1      40.321  32.063  30.371  1.00  0.00     0.031 C 
ATOM     66  C   UNL A   1      45.213  29.454  31.778  1.00  0.00     0.029 A 
ATOM     67  C   UNL A   1      44.147  30.346  31.673  1.00  0.00     0.049 A 
ATOM     68  H   UNL A   1      44.189  32.140  30.594  1.00  0.00     0.167 HD
ATOM     69  C   UNL A   1      41.794  31.152  31.908  1.00  0.00     0.074 A 
ATOM     70  C   UNL A   1      41.596  32.056  30.775  1.00  0.00     0.031 C 
ATOM     71  C   UNL A   1      42.857  30.404  32.315  1.00  0.00     0.034 A 
BRANCH  58  72
ATOM     72  C   UNL A   1      45.345  32.358  27.968  1.00  0.00     0.023 A 
ATOM     73  C   UNL A   1      46.619  32.923  27.730  1.00  0.00     0.012 A 
ATOM     74  C   UNL A   1      44.258  33.262  27.927  1.00  0.00     0.148 A 
ATOM     75  C   UNL A   1      46.815  34.306  27.638  1.00  0.00     0.002 A 
ATOM     76  C   UNL A   1      44.450  34.638  27.858  1.00  0.00     0.091 A 
ATOM     77  F   UNL A   1      43.003  32.829  27.924  1.00  0.00    -0.205 F 
ATOM     78  C   UNL A   1      45.732  35.167  27.743  1.00  0.00     0.022 A 
BRANCH  76  79
ATOM     79  S   UNL A   1      43.073  35.795  27.991  1.00  0.00     0.127 S 
ATOM     80  O   UNL A   1      42.376  35.561  26.729  1.00  0.00    -0.237 OA
ATOM     81  O   UNL A   1      42.388  35.298  29.183  1.00  0.00    -0.237 OA
ATOM     82  O   UNL A   1      43.662  37.120  28.135  1.00  0.00    -0.744 OA
ENDBRANCH  76  79
ENDBRANCH  58  72
BRANCH  59  83
ATOM     83  C   UNL A   1      37.308  30.690  30.899  1.00  0.00     0.023 A 
ATOM     84  C   UNL A   1      36.761  31.171  32.114  1.00  0.00     0.012 A 
ATOM     85  C   UNL A   1      36.663  31.030  29.704  1.00  0.00     0.148 A 
ATOM     86  C   UNL A   1      35.627  31.994  32.131  1.00  0.00     0.002 A 
ATOM     87  C   UNL A   1      35.556  31.863  29.728  1.00  0.00     0.091 A 
ATOM     88  F   UNL A   1      37.207  30.628  28.549  1.00  0.00    -0.205 F 
ATOM     89  C   UNL A   1      35.033  32.355  30.931  1.00  0.00     0.022 A 
BRANCH  87  90
ATOM     90  S   UNL A   1      34.866  32.529  28.227  1.00  0.00     0.127 S 
ATOM     91  O   UNL A   1      36.014  33.241  27.670  1.00  0.00    -0.237 OA
ATOM     92  O   UNL A   1      34.497  31.294  27.534  1.00  0.00    -0.237 OA
ATOM     93  O   UNL A   1      33.748  33.361  28.653  1.00  0.00    -0.744 OA
ENDBRANCH  87  90
ENDBRANCH  59  83
BRANCH  71  94
ATOM     94  C   UNL A   1      42.589  29.405  33.411  1.00  0.00     0.023 A 
ATOM     95  C   UNL A   1      41.809  28.242  33.222  1.00  0.00     0.012 A 
ATOM     96  C   UNL A   1      43.227  29.605  34.639  1.00  0.00     0.148 A 
ATOM     97  C   UNL A   1      41.653  27.309  34.250  1.00  0.00     0.002 A 
ATOM     98  C   UNL A   1      43.112  28.652  35.641  1.00  0.00     0.091 A 
ATOM     99  F   UNL A   1      43.950  30.722  34.799  1.00  0.00    -0.205 F 
ATOM    100  C   UNL A   1      42.318  27.508  35.457  1.00  0.00     0.022 A 
BRANCH  98 101
ATOM    101  S   UNL A   1      44.042  28.795  37.164  1.00  0.00     0.127 S 
ATOM    102  O   UNL A   1      43.455  29.989  37.768  1.00  0.00    -0.237 OA
ATOM    103  O   UNL A   1      43.719  27.540  37.842  1.00  0.00    -0.237 OA
ATOM    104  O   UNL A   1      45.440  28.917  36.770  1.00  0.00    -0.744 OA
ENDBRANCH  98 101
ENDBRANCH  71  94
ENDBRANCH  45  46
ENDBRANCH  37  40
ENDBRANCH  35  36
ENDBRANCH  34  35
ENDBRANCH   1  34
TORSDOF 18
ENDMDL
