MODEL 1
REMARK VINA RESULT:     -12.3      0.000      0.000
REMARK SMILES C[C@H](C(=O)NCCCNC(=O)c1ccc(-c2c3nc(c(-c4cccc(S(=O)(=O)[O-])c4F)c4ccc([nH]4)c(-c4cccc(S(=O)(=O)[O-])c4F)c4nc(c(-c5cccc(S(=O)(=O)[O-])c5F)c5ccc2[nH]5)C=C4)C=C3)cc1)[C@@H](C(=O)c1ccccc1)c1ccc(F)cc1
REMARK SMILES IDX 7 1 6 2 5 3 3 4 4 5 2 7 1 8 75 9 76 10 77 11 78 12 79 13
REMARK SMILES IDX 83 14 80 15 82 16 81 17 84 18 85 19 90 20 86 21 89 22 87 23
REMARK SMILES IDX 88 24 8 25 9 26 10 27 11 29 12 30 13 31 74 32 14 33 73 34
REMARK SMILES IDX 15 35 16 36 17 37 67 38 18 39 72 40 66 41 68 42 19 43 71 44
REMARK SMILES IDX 65 45 64 46 20 48 52 49 32 50 51 51 33 52 36 53 50 54 69 55
REMARK SMILES IDX 34 56 35 57 49 59 70 60 37 61 21 62 22 63 30 64 23 65 25 66
REMARK SMILES IDX 31 67 24 68 26 69 27 70 28 71 29 72 53 73 54 74 62 75 55 76
REMARK SMILES IDX 57 77 63 78 56 79 58 80 59 81 60 82 61 83 38 84 39 85 47 86
REMARK SMILES IDX 40 87 42 88 48 89 41 90 43 91 44 92 45 93 46 94
REMARK H PARENT 5 6 9 28 68 47 36 58
REMARK Flexibility Score: inf
ROOT
ATOM      1  C   UNL A   1      31.641  31.865  26.721  1.00  0.00     0.042 C 
ENDROOT
BRANCH   1   2
ATOM      2  C   UNL A   1      31.847  30.356  26.595  1.00  0.00     0.117 C 
BRANCH   2   3
ATOM      3  N   UNL A   1      33.245  29.979  26.658  1.00  0.00    -0.356 N 
ATOM      4  C   UNL A   1      33.860  28.774  26.633  1.00  0.00     0.223 C 
ATOM      5  O   UNL A   1      35.014  28.742  27.075  1.00  0.00    -0.275 OA
ATOM      6  H   UNL A   1      33.863  30.742  26.735  1.00  0.00     0.163 HD
BRANCH   4   7
ATOM      7  C   UNL A   1      33.212  27.491  26.135  1.00  0.00     0.090 C 
ATOM      8  C   UNL A   1      31.890  27.323  26.903  1.00  0.00     0.019 C 
BRANCH   7   9
ATOM      9  C   UNL A   1      33.095  27.299  24.588  1.00  0.00     0.103 C 
BRANCH   9  10
ATOM     10  C   UNL A   1      33.489  25.895  24.026  1.00  0.00     0.171 C 
ATOM     11  O   UNL A   1      33.675  25.666  22.829  1.00  0.00    -0.293 OA
BRANCH  10  12
ATOM     12  C   UNL A   1      33.834  24.775  24.934  1.00  0.00     0.018 A 
ATOM     13  C   UNL A   1      32.810  24.038  25.542  1.00  0.00     0.012 A 
ATOM     14  C   UNL A   1      35.149  24.584  25.351  1.00  0.00     0.012 A 
ATOM     15  C   UNL A   1      33.122  23.058  26.493  1.00  0.00     0.001 A 
ATOM     16  C   UNL A   1      35.467  23.568  26.254  1.00  0.00     0.001 A 
ATOM     17  C   UNL A   1      34.454  22.805  26.827  1.00  0.00     0.000 A 
ENDBRANCH  10  12
ENDBRANCH   9  10
BRANCH   9  18
ATOM     18  C   UNL A   1      31.655  27.610  24.099  1.00  0.00    -0.036 A 
ATOM     19  C   UNL A   1      30.633  26.637  24.129  1.00  0.00     0.007 A 
ATOM     20  C   UNL A   1      31.354  28.868  23.547  1.00  0.00     0.007 A 
ATOM     21  C   UNL A   1      29.339  26.932  23.696  1.00  0.00     0.039 A 
ATOM     22  C   UNL A   1      30.064  29.149  23.080  1.00  0.00     0.039 A 
ATOM     23  C   UNL A   1      29.067  28.186  23.172  1.00  0.00     0.123 A 
ATOM     24  F   UNL A   1      27.832  28.463  22.733  1.00  0.00    -0.207 F 
ENDBRANCH   9  18
ENDBRANCH   7   9
ENDBRANCH   4   7
ENDBRANCH   2   3
ENDBRANCH   1   2
BRANCH   1  25
ATOM     25  C   UNL A   1      32.823  32.636  27.303  1.00  0.00     0.118 C 
BRANCH  25  26
ATOM     26  N   UNL A   1      32.490  34.006  27.656  1.00  0.00    -0.352 N 
ATOM     27  C   UNL A   1      33.020  34.818  28.633  1.00  0.00     0.251 C 
ATOM     28  H   UNL A   1      31.778  34.416  27.112  1.00  0.00     0.163 HD
ATOM     29  O   UNL A   1      32.486  35.893  28.878  1.00  0.00    -0.269 OA
BRANCH  27  30
ATOM     30  C   UNL A   1      34.207  34.386  29.410  1.00  0.00     0.039 A 
ATOM     31  C   UNL A   1      34.006  33.723  30.623  1.00  0.00     0.014 A 
ATOM     32  C   UNL A   1      35.507  34.630  28.958  1.00  0.00     0.014 A 
ATOM     33  C   UNL A   1      35.102  33.232  31.340  1.00  0.00     0.010 A 
ATOM     34  C   UNL A   1      36.595  34.075  29.635  1.00  0.00     0.010 A 
ATOM     35  C   UNL A   1      36.405  33.361  30.828  1.00  0.00    -0.014 A 
BRANCH  35  36
ATOM     36  C   UNL A   1      37.559  32.702  31.498  1.00  0.00     0.031 A 
ATOM     37  C   UNL A   1      38.271  31.541  30.853  1.00  0.00     0.074 A 
ATOM     38  C   UNL A   1      37.915  33.100  32.738  1.00  0.00     0.049 A 
ATOM     39  N   UNL A   1      39.266  30.828  31.317  1.00  0.00    -0.248 NA
ATOM     40  C   UNL A   1      37.796  31.115  29.527  1.00  0.00     0.031 C 
ATOM     41  C   UNL A   1      37.258  34.160  33.506  1.00  0.00     0.029 A 
ATOM     42  N   UNL A   1      38.899  32.643  33.582  1.00  0.00    -0.354 N 
ATOM     43  C   UNL A   1      39.515  29.851  30.360  1.00  0.00     0.074 A 
ATOM     44  C   UNL A   1      38.553  30.049  29.297  1.00  0.00     0.031 C 
ATOM     45  C   UNL A   1      37.854  34.273  34.703  1.00  0.00     0.029 A 
ATOM     46  C   UNL A   1      38.910  33.271  34.807  1.00  0.00     0.049 A 
ATOM     47  H   UNL A   1      39.535  31.935  33.334  1.00  0.00     0.167 HD
ATOM     48  C   UNL A   1      40.469  28.889  30.357  1.00  0.00     0.034 A 
ATOM     49  C   UNL A   1      39.669  33.055  35.900  1.00  0.00     0.034 A 
ATOM     50  C   UNL A   1      41.446  28.713  31.399  1.00  0.00     0.049 A 
ATOM     51  C   UNL A   1      40.732  31.991  35.855  1.00  0.00     0.074 A 
ATOM     52  C   UNL A   1      42.512  27.830  31.433  1.00  0.00     0.029 A 
ATOM     53  N   UNL A   1      41.471  29.415  32.593  1.00  0.00    -0.354 N 
ATOM     54  N   UNL A   1      41.063  31.197  34.868  1.00  0.00    -0.248 NA
ATOM     55  C   UNL A   1      41.547  31.815  37.066  1.00  0.00     0.031 C 
ATOM     56  C   UNL A   1      43.156  27.969  32.667  1.00  0.00     0.029 A 
ATOM     57  C   UNL A   1      42.517  28.968  33.382  1.00  0.00     0.049 A 
ATOM     58  H   UNL A   1      40.838  30.125  32.843  1.00  0.00     0.167 HD
ATOM     59  C   UNL A   1      42.146  30.452  35.325  1.00  0.00     0.074 A 
ATOM     60  C   UNL A   1      42.433  30.913  36.667  1.00  0.00     0.031 C 
ATOM     61  C   UNL A   1      42.828  29.464  34.697  1.00  0.00     0.034 A 
BRANCH  48  62
ATOM     62  C   UNL A   1      40.542  27.962  29.172  1.00  0.00     0.023 A 
ATOM     63  C   UNL A   1      39.601  26.921  29.041  1.00  0.00     0.012 A 
ATOM     64  C   UNL A   1      41.468  28.191  28.136  1.00  0.00     0.148 A 
ATOM     65  C   UNL A   1      39.594  26.109  27.908  1.00  0.00     0.002 A 
ATOM     66  C   UNL A   1      41.427  27.407  26.989  1.00  0.00     0.091 A 
ATOM     67  F   UNL A   1      42.364  29.177  28.286  1.00  0.00    -0.205 F 
ATOM     68  C   UNL A   1      40.497  26.359  26.877  1.00  0.00     0.022 A 
BRANCH  66  69
ATOM     69  S   UNL A   1      42.488  27.700  25.570  1.00  0.00     0.127 S 
ATOM     70  O   UNL A   1      42.247  26.500  24.769  1.00  0.00    -0.237 OA
ATOM     71  O   UNL A   1      41.922  28.928  25.013  1.00  0.00    -0.237 OA
ATOM     72  O   UNL A   1      43.839  27.831  26.096  1.00  0.00    -0.744 OA
ENDBRANCH  66  69
ENDBRANCH  48  62
BRANCH  49  73
ATOM     73  C   UNL A   1      39.476  33.880  37.127  1.00  0.00     0.023 A 
ATOM     74  C   UNL A   1      40.000  35.186  37.180  1.00  0.00     0.012 A 
ATOM     75  C   UNL A   1      38.786  33.373  38.246  1.00  0.00     0.148 A 
ATOM     76  C   UNL A   1      39.882  35.954  38.339  1.00  0.00     0.002 A 
ATOM     77  C   UNL A   1      38.618  34.166  39.375  1.00  0.00     0.091 A 
ATOM     78  F   UNL A   1      38.306  32.123  38.185  1.00  0.00    -0.205 F 
ATOM     79  C   UNL A   1      39.184  35.449  39.433  1.00  0.00     0.022 A 
BRANCH  77  80
ATOM     80  S   UNL A   1      37.615  33.645  40.770  1.00  0.00     0.127 S 
ATOM     81  O   UNL A   1      38.467  32.633  41.389  1.00  0.00    -0.237 OA
ATOM     82  O   UNL A   1      37.484  34.890  41.529  1.00  0.00    -0.237 OA
ATOM     83  O   UNL A   1      36.367  33.164  40.196  1.00  0.00    -0.744 OA
ENDBRANCH  77  80
ENDBRANCH  49  73
BRANCH  61  84
ATOM     84  C   UNL A   1      43.980  28.831  35.435  1.00  0.00     0.023 A 
ATOM     85  C   UNL A   1      45.289  29.323  35.251  1.00  0.00     0.012 A 
ATOM     86  C   UNL A   1      43.757  27.790  36.357  1.00  0.00     0.148 A 
ATOM     87  C   UNL A   1      46.360  28.762  35.944  1.00  0.00     0.002 A 
ATOM     88  C   UNL A   1      44.823  27.272  37.083  1.00  0.00     0.091 A 
ATOM     89  F   UNL A   1      42.509  27.324  36.506  1.00  0.00    -0.205 F 
ATOM     90  C   UNL A   1      46.127  27.747  36.868  1.00  0.00     0.022 A 
BRANCH  88  91
ATOM     91  S   UNL A   1      44.606  26.030  38.363  1.00  0.00     0.127 S 
ATOM     92  O   UNL A   1      43.871  24.989  37.647  1.00  0.00    -0.237 OA
ATOM     93  O   UNL A   1      45.988  25.684  38.694  1.00  0.00    -0.237 OA
ATOM     94  O   UNL A   1      43.871  26.683  39.438  1.00  0.00    -0.744 OA
ENDBRANCH  88  91
ENDBRANCH  61  84
ENDBRANCH  35  36
ENDBRANCH  27  30
ENDBRANCH  25  26
ENDBRANCH   1  25
TORSDOF 17
ENDMDL
MODEL 2
REMARK VINA RESULT:     -12.2      6.544     11.531
REMARK SMILES C[C@H](C(=O)NCCCNC(=O)c1ccc(-c2c3nc(c(-c4cccc(S(=O)(=O)[O-])c4F)c4ccc([nH]4)c(-c4cccc(S(=O)(=O)[O-])c4F)c4nc(c(-c5cccc(S(=O)(=O)[O-])c5F)c5ccc2[nH]5)C=C4)C=C3)cc1)[C@@H](C(=O)c1ccccc1)c1ccc(F)cc1
REMARK SMILES IDX 7 1 6 2 5 3 3 4 4 5 2 7 1 8 75 9 76 10 77 11 78 12 79 13
REMARK SMILES IDX 83 14 80 15 82 16 81 17 84 18 85 19 90 20 86 21 89 22 87 23
REMARK SMILES IDX 88 24 8 25 9 26 10 27 11 29 12 30 13 31 74 32 14 33 73 34
REMARK SMILES IDX 15 35 16 36 17 37 67 38 18 39 72 40 66 41 68 42 19 43 71 44
REMARK SMILES IDX 65 45 64 46 20 48 52 49 32 50 51 51 33 52 36 53 50 54 69 55
REMARK SMILES IDX 34 56 35 57 49 59 70 60 37 61 21 62 22 63 30 64 23 65 25 66
REMARK SMILES IDX 31 67 24 68 26 69 27 70 28 71 29 72 53 73 54 74 62 75 55 76
REMARK SMILES IDX 57 77 63 78 56 79 58 80 59 81 60 82 61 83 38 84 39 85 47 86
REMARK SMILES IDX 40 87 42 88 48 89 41 90 43 91 44 92 45 93 46 94
REMARK H PARENT 5 6 9 28 68 47 36 58
REMARK Flexibility Score: inf
ROOT
ATOM      1  C   UNL A   1      37.567  20.008  24.919  1.00  0.00     0.042 C 
ENDROOT
BRANCH   1   2
ATOM      2  C   UNL A   1      36.434  21.031  24.852  1.00  0.00     0.117 C 
BRANCH   2   3
ATOM      3  N   UNL A   1      35.595  21.009  26.035  1.00  0.00    -0.356 N 
ATOM      4  C   UNL A   1      34.696  21.893  26.525  1.00  0.00     0.223 C 
ATOM      5  O   UNL A   1      34.417  21.779  27.724  1.00  0.00    -0.275 OA
ATOM      6  H   UNL A   1      35.700  20.199  26.585  1.00  0.00     0.163 HD
BRANCH   4   7
ATOM      7  C   UNL A   1      34.055  23.005  25.708  1.00  0.00     0.090 C 
ATOM      8  C   UNL A   1      35.197  23.798  25.048  1.00  0.00     0.019 C 
BRANCH   7   9
ATOM      9  C   UNL A   1      32.894  22.609  24.741  1.00  0.00     0.103 C 
BRANCH   9  10
ATOM     10  C   UNL A   1      32.081  21.326  25.111  1.00  0.00     0.171 C 
ATOM     11  O   UNL A   1      31.106  21.331  25.865  1.00  0.00    -0.293 OA
BRANCH  10  12
ATOM     12  C   UNL A   1      32.336  20.034  24.431  1.00  0.00     0.018 A 
ATOM     13  C   UNL A   1      32.925  18.982  25.144  1.00  0.00     0.012 A 
ATOM     14  C   UNL A   1      32.193  19.924  23.050  1.00  0.00     0.012 A 
ATOM     15  C   UNL A   1      33.280  17.801  24.482  1.00  0.00     0.001 A 
ATOM     16  C   UNL A   1      32.491  18.726  22.400  1.00  0.00     0.001 A 
ATOM     17  C   UNL A   1      33.037  17.663  23.114  1.00  0.00     0.000 A 
ENDBRANCH  10  12
ENDBRANCH   9  10
BRANCH   9  18
ATOM     18  C   UNL A   1      31.881  23.775  24.585  1.00  0.00    -0.036 A 
ATOM     19  C   UNL A   1      31.666  24.717  25.614  1.00  0.00     0.007 A 
ATOM     20  C   UNL A   1      31.097  23.877  23.422  1.00  0.00     0.007 A 
ATOM     21  C   UNL A   1      30.760  25.767  25.457  1.00  0.00     0.039 A 
ATOM     22  C   UNL A   1      30.163  24.911  23.282  1.00  0.00     0.039 A 
ATOM     23  C   UNL A   1      30.013  25.852  24.293  1.00  0.00     0.123 A 
ATOM     24  F   UNL A   1      29.125  26.845  24.151  1.00  0.00    -0.207 F 
ENDBRANCH   9  18
ENDBRANCH   7   9
ENDBRANCH   4   7
ENDBRANCH   2   3
ENDBRANCH   1   2
BRANCH   1  25
ATOM     25  C   UNL A   1      38.777  20.430  25.748  1.00  0.00     0.118 C 
BRANCH  25  26
ATOM     26  N   UNL A   1      39.773  19.379  25.876  1.00  0.00    -0.352 N 
ATOM     27  C   UNL A   1      41.127  19.472  26.112  1.00  0.00     0.251 C 
ATOM     28  H   UNL A   1      39.427  18.461  25.780  1.00  0.00     0.163 HD
ATOM     29  O   UNL A   1      41.823  18.469  26.021  1.00  0.00    -0.269 OA
BRANCH  27  30
ATOM     30  C   UNL A   1      41.746  20.779  26.440  1.00  0.00     0.039 A 
ATOM     31  C   UNL A   1      42.042  21.659  25.395  1.00  0.00     0.014 A 
ATOM     32  C   UNL A   1      42.038  21.141  27.758  1.00  0.00     0.014 A 
ATOM     33  C   UNL A   1      42.553  22.929  25.678  1.00  0.00     0.010 A 
ATOM     34  C   UNL A   1      42.477  22.436  28.043  1.00  0.00     0.010 A 
ATOM     35  C   UNL A   1      42.729  23.348  27.008  1.00  0.00    -0.014 A 
BRANCH  35  36
ATOM     36  C   UNL A   1      43.114  24.751  27.323  1.00  0.00     0.031 A 
ATOM     37  C   UNL A   1      42.133  25.702  27.956  1.00  0.00     0.074 A 
ATOM     38  C   UNL A   1      44.336  25.195  26.960  1.00  0.00     0.049 A 
ATOM     39  N   UNL A   1      42.291  26.965  28.259  1.00  0.00    -0.248 NA
ATOM     40  C   UNL A   1      40.795  25.175  28.273  1.00  0.00     0.031 C 
ATOM     41  C   UNL A   1      45.354  24.398  26.270  1.00  0.00     0.029 A 
ATOM     42  N   UNL A   1      44.922  26.431  27.094  1.00  0.00    -0.354 N 
ATOM     43  C   UNL A   1      41.072  27.393  28.770  1.00  0.00     0.074 A 
ATOM     44  C   UNL A   1      40.174  26.259  28.718  1.00  0.00     0.031 C 
ATOM     45  C   UNL A   1      46.434  25.161  26.043  1.00  0.00     0.029 A 
ATOM     46  C   UNL A   1      46.177  26.512  26.533  1.00  0.00     0.049 A 
ATOM     47  H   UNL A   1      44.485  27.188  27.547  1.00  0.00     0.167 HD
ATOM     48  C   UNL A   1      40.735  28.612  29.255  1.00  0.00     0.034 A 
ATOM     49  C   UNL A   1      47.019  27.556  26.409  1.00  0.00     0.034 A 
ATOM     50  C   UNL A   1      41.638  29.729  29.338  1.00  0.00     0.049 A 
ATOM     51  C   UNL A   1      46.621  28.892  26.977  1.00  0.00     0.074 A 
ATOM     52  C   UNL A   1      41.414  30.971  29.908  1.00  0.00     0.029 A 
ATOM     53  N   UNL A   1      42.925  29.752  28.826  1.00  0.00    -0.354 N 
ATOM     54  N   UNL A   1      45.527  29.223  27.615  1.00  0.00    -0.248 NA
ATOM     55  C   UNL A   1      47.589  29.989  26.835  1.00  0.00     0.031 C 
ATOM     56  C   UNL A   1      42.551  31.759  29.702  1.00  0.00     0.029 A 
ATOM     57  C   UNL A   1      43.498  30.994  29.043  1.00  0.00     0.049 A 
ATOM     58  H   UNL A   1      43.365  28.997  28.374  1.00  0.00     0.167 HD
ATOM     59  C   UNL A   1      45.688  30.555  27.981  1.00  0.00     0.074 A 
ATOM     60  C   UNL A   1      46.999  30.960  27.519  1.00  0.00     0.031 C 
ATOM     61  C   UNL A   1      44.822  31.375  28.624  1.00  0.00     0.034 A 
BRANCH  48  62
ATOM     62  C   UNL A   1      39.337  28.808  29.781  1.00  0.00     0.023 A 
ATOM     63  C   UNL A   1      39.025  28.415  31.099  1.00  0.00     0.012 A 
ATOM     64  C   UNL A   1      38.367  29.481  29.013  1.00  0.00     0.148 A 
ATOM     65  C   UNL A   1      37.764  28.670  31.636  1.00  0.00     0.002 A 
ATOM     66  C   UNL A   1      37.126  29.771  29.570  1.00  0.00     0.091 A 
ATOM     67  F   UNL A   1      38.678  29.832  27.757  1.00  0.00    -0.205 F 
ATOM     68  C   UNL A   1      36.821  29.358  30.878  1.00  0.00     0.022 A 
BRANCH  66  69
ATOM     69  S   UNL A   1      35.872  30.726  28.709  1.00  0.00     0.127 S 
ATOM     70  O   UNL A   1      35.196  29.690  27.930  1.00  0.00    -0.237 OA
ATOM     71  O   UNL A   1      35.085  31.265  29.818  1.00  0.00    -0.237 OA
ATOM     72  O   UNL A   1      36.589  31.721  27.925  1.00  0.00    -0.744 OA
ENDBRANCH  66  69
ENDBRANCH  48  62
BRANCH  49  73
ATOM     73  C   UNL A   1      48.341  27.382  25.741  1.00  0.00     0.023 A 
ATOM     74  C   UNL A   1      49.477  27.067  26.513  1.00  0.00     0.012 A 
ATOM     75  C   UNL A   1      48.482  27.538  24.348  1.00  0.00     0.148 A 
ATOM     76  C   UNL A   1      50.735  26.959  25.918  1.00  0.00     0.002 A 
ATOM     77  C   UNL A   1      49.726  27.367  23.753  1.00  0.00     0.091 A 
ATOM     78  F   UNL A   1      47.395  27.852  23.630  1.00  0.00    -0.205 F 
ATOM     79  C   UNL A   1      50.858  27.099  24.538  1.00  0.00     0.022 A 
BRANCH  77  80
ATOM     80  S   UNL A   1      49.947  27.393  21.972  1.00  0.00     0.127 S 
ATOM     81  O   UNL A   1      51.360  27.048  21.840  1.00  0.00    -0.237 OA
ATOM     82  O   UNL A   1      49.015  26.353  21.536  1.00  0.00    -0.237 OA
ATOM     83  O   UNL A   1      49.578  28.738  21.552  1.00  0.00    -0.744 OA
ENDBRANCH  77  80
ENDBRANCH  49  73
BRANCH  61  84
ATOM     84  C   UNL A   1      45.270  32.786  28.905  1.00  0.00     0.023 A 
ATOM     85  C   UNL A   1      45.999  33.072  30.077  1.00  0.00     0.012 A 
ATOM     86  C   UNL A   1      45.023  33.817  27.977  1.00  0.00     0.148 A 
ATOM     87  C   UNL A   1      46.440  34.368  30.338  1.00  0.00     0.002 A 
ATOM     88  C   UNL A   1      45.512  35.094  28.218  1.00  0.00     0.091 A 
ATOM     89  F   UNL A   1      44.314  33.529  26.876  1.00  0.00    -0.205 F 
ATOM     90  C   UNL A   1      46.208  35.376  29.406  1.00  0.00     0.022 A 
BRANCH  88  91
ATOM     91  S   UNL A   1      45.345  36.432  27.032  1.00  0.00     0.127 S 
ATOM     92  O   UNL A   1      45.917  37.558  27.769  1.00  0.00    -0.237 OA
ATOM     93  O   UNL A   1      46.161  35.958  25.914  1.00  0.00    -0.237 OA
ATOM     94  O   UNL A   1      43.922  36.539  26.740  1.00  0.00    -0.744 OA
ENDBRANCH  88  91
ENDBRANCH  61  84
ENDBRANCH  35  36
ENDBRANCH  27  30
ENDBRANCH  25  26
ENDBRANCH   1  25
TORSDOF 17
ENDMDL
MODEL 3
REMARK VINA RESULT:     -12.2      5.680      8.970
REMARK SMILES C[C@H](C(=O)NCCCNC(=O)c1ccc(-c2c3nc(c(-c4cccc(S(=O)(=O)[O-])c4F)c4ccc([nH]4)c(-c4cccc(S(=O)(=O)[O-])c4F)c4nc(c(-c5cccc(S(=O)(=O)[O-])c5F)c5ccc2[nH]5)C=C4)C=C3)cc1)[C@@H](C(=O)c1ccccc1)c1ccc(F)cc1
REMARK SMILES IDX 7 1 6 2 5 3 3 4 4 5 2 7 1 8 75 9 76 10 77 11 78 12 79 13
REMARK SMILES IDX 83 14 80 15 82 16 81 17 84 18 85 19 90 20 86 21 89 22 87 23
REMARK SMILES IDX 88 24 8 25 9 26 10 27 11 29 12 30 13 31 74 32 14 33 73 34
REMARK SMILES IDX 15 35 16 36 17 37 67 38 18 39 72 40 66 41 68 42 19 43 71 44
REMARK SMILES IDX 65 45 64 46 20 48 52 49 32 50 51 51 33 52 36 53 50 54 69 55
REMARK SMILES IDX 34 56 35 57 49 59 70 60 37 61 21 62 22 63 30 64 23 65 25 66
REMARK SMILES IDX 31 67 24 68 26 69 27 70 28 71 29 72 53 73 54 74 62 75 55 76
REMARK SMILES IDX 57 77 63 78 56 79 58 80 59 81 60 82 61 83 38 84 39 85 47 86
REMARK SMILES IDX 40 87 42 88 48 89 41 90 43 91 44 92 45 93 46 94
REMARK H PARENT 5 6 9 28 68 47 36 58
REMARK Flexibility Score: inf
ROOT
ATOM      1  C   UNL A   1      35.112  20.926  25.084  1.00  0.00     0.042 C 
ENDROOT
BRANCH   1   2
ATOM      2  C   UNL A   1      33.988  21.915  24.778  1.00  0.00     0.117 C 
BRANCH   2   3
ATOM      3  N   UNL A   1      34.319  22.812  23.687  1.00  0.00    -0.356 N 
ATOM      4  C   UNL A   1      33.955  24.086  23.420  1.00  0.00     0.223 C 
ATOM      5  O   UNL A   1      34.086  24.458  22.249  1.00  0.00    -0.275 OA
ATOM      6  H   UNL A   1      34.920  22.418  23.013  1.00  0.00     0.163 HD
BRANCH   4   7
ATOM      7  C   UNL A   1      33.380  25.047  24.451  1.00  0.00     0.090 C 
ATOM      8  C   UNL A   1      34.515  25.394  25.430  1.00  0.00     0.019 C 
BRANCH   7   9
ATOM      9  C   UNL A   1      32.581  26.279  23.918  1.00  0.00     0.103 C 
BRANCH   9  10
ATOM     10  C   UNL A   1      31.114  26.012  23.447  1.00  0.00     0.171 C 
ATOM     11  O   UNL A   1      30.571  24.907  23.497  1.00  0.00    -0.293 OA
BRANCH  10  12
ATOM     12  C   UNL A   1      30.218  27.129  23.064  1.00  0.00     0.018 A 
ATOM     13  C   UNL A   1      30.736  28.218  22.351  1.00  0.00     0.012 A 
ATOM     14  C   UNL A   1      28.928  27.208  23.581  1.00  0.00     0.012 A 
ATOM     15  C   UNL A   1      29.928  29.332  22.089  1.00  0.00     0.001 A 
ATOM     16  C   UNL A   1      28.103  28.290  23.270  1.00  0.00     0.001 A 
ATOM     17  C   UNL A   1      28.603  29.354  22.525  1.00  0.00     0.000 A 
ENDBRANCH  10  12
ENDBRANCH   9  10
BRANCH   9  18
ATOM     18  C   UNL A   1      32.530  27.409  24.981  1.00  0.00    -0.036 A 
ATOM     19  C   UNL A   1      31.755  27.292  26.155  1.00  0.00     0.007 A 
ATOM     20  C   UNL A   1      33.216  28.617  24.760  1.00  0.00     0.007 A 
ATOM     21  C   UNL A   1      31.727  28.311  27.109  1.00  0.00     0.039 A 
ATOM     22  C   UNL A   1      33.157  29.651  25.702  1.00  0.00     0.039 A 
ATOM     23  C   UNL A   1      32.426  29.484  26.872  1.00  0.00     0.123 A 
ATOM     24  F   UNL A   1      32.379  30.473  27.775  1.00  0.00    -0.207 F 
ENDBRANCH   9  18
ENDBRANCH   7   9
ENDBRANCH   4   7
ENDBRANCH   2   3
ENDBRANCH   1   2
BRANCH   1  25
ATOM     25  C   UNL A   1      36.464  21.558  25.404  1.00  0.00     0.118 C 
BRANCH  25  26
ATOM     26  N   UNL A   1      37.533  20.581  25.530  1.00  0.00    -0.352 N 
ATOM     27  C   UNL A   1      38.853  20.759  25.882  1.00  0.00     0.251 C 
ATOM     28  H   UNL A   1      37.274  19.651  25.334  1.00  0.00     0.163 HD
ATOM     29  O   UNL A   1      39.636  19.824  25.769  1.00  0.00    -0.269 OA
BRANCH  27  30
ATOM     30  C   UNL A   1      39.333  22.077  26.361  1.00  0.00     0.039 A 
ATOM     31  C   UNL A   1      40.390  22.111  27.275  1.00  0.00     0.014 A 
ATOM     32  C   UNL A   1      38.754  23.271  25.924  1.00  0.00     0.014 A 
ATOM     33  C   UNL A   1      40.918  23.339  27.684  1.00  0.00     0.010 A 
ATOM     34  C   UNL A   1      39.330  24.494  26.275  1.00  0.00     0.010 A 
ATOM     35  C   UNL A   1      40.425  24.542  27.150  1.00  0.00    -0.014 A 
BRANCH  35  36
ATOM     36  C   UNL A   1      41.085  25.841  27.453  1.00  0.00     0.031 A 
ATOM     37  C   UNL A   1      42.516  26.094  27.057  1.00  0.00     0.074 A 
ATOM     38  C   UNL A   1      40.413  26.770  28.165  1.00  0.00     0.049 A 
ATOM     39  N   UNL A   1      43.255  27.152  27.280  1.00  0.00    -0.248 NA
ATOM     40  C   UNL A   1      43.215  25.018  26.337  1.00  0.00     0.031 C 
ATOM     41  C   UNL A   1      39.048  26.620  28.676  1.00  0.00     0.029 A 
ATOM     42  N   UNL A   1      40.794  28.015  28.606  1.00  0.00    -0.354 N 
ATOM     43  C   UNL A   1      44.510  26.859  26.759  1.00  0.00     0.074 A 
ATOM     44  C   UNL A   1      44.440  25.515  26.226  1.00  0.00     0.031 C 
ATOM     45  C   UNL A   1      38.707  27.724  29.357  1.00  0.00     0.029 A 
ATOM     46  C   UNL A   1      39.837  28.647  29.368  1.00  0.00     0.049 A 
ATOM     47  H   UNL A   1      41.668  28.417  28.398  1.00  0.00     0.167 HD
ATOM     48  C   UNL A   1      45.613  27.643  26.711  1.00  0.00     0.034 A 
ATOM     49  C   UNL A   1      39.869  29.827  30.019  1.00  0.00     0.034 A 
ATOM     50  C   UNL A   1      45.672  28.991  27.211  1.00  0.00     0.049 A 
ATOM     51  C   UNL A   1      41.104  30.682  29.928  1.00  0.00     0.074 A 
ATOM     52  C   UNL A   1      46.717  29.895  27.115  1.00  0.00     0.029 A 
ATOM     53  N   UNL A   1      44.660  29.625  27.913  1.00  0.00    -0.354 N 
ATOM     54  N   UNL A   1      42.218  30.455  29.277  1.00  0.00    -0.248 NA
ATOM     55  C   UNL A   1      41.074  31.970  30.636  1.00  0.00     0.031 C 
ATOM     56  C   UNL A   1      46.351  31.061  27.796  1.00  0.00     0.029 A 
ATOM     57  C   UNL A   1      45.063  30.898  28.279  1.00  0.00     0.049 A 
ATOM     58  H   UNL A   1      43.784  29.227  28.121  1.00  0.00     0.167 HD
ATOM     59  C   UNL A   1      43.007  31.585  29.469  1.00  0.00     0.074 A 
ATOM     60  C   UNL A   1      42.230  32.506  30.271  1.00  0.00     0.031 C 
ATOM     61  C   UNL A   1      44.267  31.829  29.035  1.00  0.00     0.034 A 
BRANCH  48  62
ATOM     62  C   UNL A   1      46.853  27.089  26.059  1.00  0.00     0.023 A 
ATOM     63  C   UNL A   1      47.071  27.300  24.682  1.00  0.00     0.012 A 
ATOM     64  C   UNL A   1      47.852  26.461  26.828  1.00  0.00     0.148 A 
ATOM     65  C   UNL A   1      48.253  26.875  24.077  1.00  0.00     0.002 A 
ATOM     66  C   UNL A   1      49.047  26.080  26.229  1.00  0.00     0.091 A 
ATOM     67  F   UNL A   1      47.619  26.256  28.133  1.00  0.00    -0.205 F 
ATOM     68  C   UNL A   1      49.245  26.278  24.852  1.00  0.00     0.022 A 
BRANCH  66  69
ATOM     69  S   UNL A   1      50.420  25.381  27.151  1.00  0.00     0.127 S 
ATOM     70  O   UNL A   1      50.766  26.485  28.045  1.00  0.00    -0.237 OA
ATOM     71  O   UNL A   1      49.794  24.235  27.810  1.00  0.00    -0.237 OA
ATOM     72  O   UNL A   1      51.437  25.041  26.166  1.00  0.00    -0.744 OA
ENDBRANCH  66  69
ENDBRANCH  48  62
BRANCH  49  73
ATOM     73  C   UNL A   1      38.683  30.292  30.795  1.00  0.00     0.023 A 
ATOM     74  C   UNL A   1      38.582  29.982  32.166  1.00  0.00     0.012 A 
ATOM     75  C   UNL A   1      37.651  31.029  30.182  1.00  0.00     0.148 A 
ATOM     76  C   UNL A   1      37.455  30.354  32.899  1.00  0.00     0.002 A 
ATOM     77  C   UNL A   1      36.561  31.451  30.933  1.00  0.00     0.091 A 
ATOM     78  F   UNL A   1      37.756  31.303  28.875  1.00  0.00    -0.205 F 
ATOM     79  C   UNL A   1      36.449  31.097  32.286  1.00  0.00     0.022 A 
BRANCH  77  80
ATOM     80  S   UNL A   1      35.292  32.526  30.256  1.00  0.00     0.127 S 
ATOM     81  O   UNL A   1      34.364  32.638  31.379  1.00  0.00    -0.237 OA
ATOM     82  O   UNL A   1      36.051  33.742  29.959  1.00  0.00    -0.237 OA
ATOM     83  O   UNL A   1      34.785  31.838  29.077  1.00  0.00    -0.744 OA
ENDBRANCH  77  80
ENDBRANCH  49  73
BRANCH  61  84
ATOM     84  C   UNL A   1      44.882  33.160  29.383  1.00  0.00     0.023 A 
ATOM     85  C   UNL A   1      45.642  33.297  30.563  1.00  0.00     0.012 A 
ATOM     86  C   UNL A   1      44.758  34.259  28.510  1.00  0.00     0.148 A 
ATOM     87  C   UNL A   1      46.236  34.516  30.886  1.00  0.00     0.002 A 
ATOM     88  C   UNL A   1      45.396  35.455  28.813  1.00  0.00     0.091 A 
ATOM     89  F   UNL A   1      44.017  34.115  27.403  1.00  0.00    -0.205 F 
ATOM     90  C   UNL A   1      46.124  35.590  30.007  1.00  0.00     0.022 A 
BRANCH  88  91
ATOM     91  S   UNL A   1      45.389  36.863  27.697  1.00  0.00     0.127 S 
ATOM     92  O   UNL A   1      46.011  36.297  26.501  1.00  0.00    -0.237 OA
ATOM     93  O   UNL A   1      43.960  37.146  27.566  1.00  0.00    -0.237 OA
ATOM     94  O   UNL A   1      46.155  37.908  28.361  1.00  0.00    -0.744 OA
ENDBRANCH  88  91
ENDBRANCH  61  84
ENDBRANCH  35  36
ENDBRANCH  27  30
ENDBRANCH  25  26
ENDBRANCH   1  25
TORSDOF 17
ENDMDL
