MODEL 1
REMARK VINA RESULT:     -12.6      0.000      0.000
REMARK SMILES Cc1cccc(CS(=O)(=O)c2ccc(C(=O)NCCCNC(=O)c3ccc(-c4c5nc(c(-c6cccc(S(=O)(=O)[O-])c6F)c6ccc([nH]6)c(-c6cccc(S(=O)(=O)[O-])c6F)c6nc(c(-c7cccc(S(=O)(=O)[O-])c7F)c7ccc4[nH]7)C=C6)C=C5)cc3)cc2F)n1
REMARK SMILES IDX 19 1 18 2 17 3 15 4 16 5 14 7 11 8 12 9 88 10 13 11 87 12
REMARK SMILES IDX 89 13 8 14 9 15 10 16 7 17 6 18 1 19 2 20 3 21 90 22 4 23
REMARK SMILES IDX 5 24 20 25 21 26 22 27 23 29 24 30 25 31 86 32 26 33 85 34
REMARK SMILES IDX 27 35 28 36 29 37 79 38 30 39 84 40 78 41 80 42 31 43 83 44
REMARK SMILES IDX 77 45 76 46 32 48 64 49 44 50 63 51 45 52 48 53 62 54 81 55
REMARK SMILES IDX 46 56 47 57 61 59 82 60 49 61 33 62 34 63 42 64 35 65 37 66
REMARK SMILES IDX 43 67 36 68 38 69 39 70 40 71 41 72 65 73 66 74 74 75 67 76
REMARK SMILES IDX 69 77 75 78 68 79 70 80 71 81 72 82 73 83 50 84 51 85 59 86
REMARK SMILES IDX 52 87 54 88 60 89 53 90 55 91 56 92 57 93 58 94
REMARK H PARENT 17 6 21 28 80 47 48 58
REMARK Flexibility Score: inf
ROOT
ATOM      1  C   UNL A   1      31.547  32.164  26.804  1.00  0.00     0.042 C 
ENDROOT
BRANCH   1   2
ATOM      2  C   UNL A   1      31.709  30.658  26.610  1.00  0.00     0.118 C 
BRANCH   2   3
ATOM      3  N   UNL A   1      32.414  30.366  25.375  1.00  0.00    -0.352 N 
ATOM      4  C   UNL A   1      32.645  29.193  24.710  1.00  0.00     0.251 C 
ATOM      5  O   UNL A   1      33.235  29.240  23.630  1.00  0.00    -0.269 OA
ATOM      6  H   UNL A   1      32.796  31.159  24.933  1.00  0.00     0.163 HD
BRANCH   4   7
ATOM      7  C   UNL A   1      32.151  27.879  25.195  1.00  0.00     0.042 A 
ATOM      8  C   UNL A   1      31.412  25.339  26.151  1.00  0.00     0.103 A 
ATOM      9  C   UNL A   1      32.727  25.789  26.294  1.00  0.00     0.024 A 
ATOM     10  C   UNL A   1      30.478  26.159  25.527  1.00  0.00     0.142 A 
ATOM     11  C   UNL A   1      33.085  27.062  25.847  1.00  0.00     0.015 A 
ATOM     12  C   UNL A   1      30.838  27.429  25.065  1.00  0.00     0.054 A 
ATOM     13  F   UNL A   1      29.216  25.769  25.324  1.00  0.00    -0.206 F 
BRANCH   8  14
ATOM     14  S   UNL A   1      30.985  23.692  26.660  1.00  0.00     0.186 S 
ATOM     15  O   UNL A   1      29.667  23.790  27.272  1.00  0.00    -0.223 OA
ATOM     16  O   UNL A   1      32.076  23.173  27.461  1.00  0.00    -0.223 OA
BRANCH  14  17
ATOM     17  C   UNL A   1      30.949  22.679  25.191  1.00  0.00     0.198 C 
BRANCH  17  18
ATOM     18  C   UNL A   1      32.153  21.794  25.089  1.00  0.00     0.056 A 
ATOM     19  C   UNL A   1      32.737  18.175  25.388  1.00  0.00     0.067 C 
ATOM     20  C   UNL A   1      33.031  19.633  25.202  1.00  0.00     0.038 A 
ATOM     21  C   UNL A   1      34.291  20.078  24.828  1.00  0.00     0.023 A 
ATOM     22  N   UNL A   1      31.987  20.478  25.355  1.00  0.00    -0.257 NA
ATOM     23  C   UNL A   1      34.475  21.439  24.611  1.00  0.00     0.004 A 
ATOM     24  C   UNL A   1      33.397  22.312  24.742  1.00  0.00     0.025 A 
ENDBRANCH  17  18
ENDBRANCH  14  17
ENDBRANCH   8  14
ENDBRANCH   4   7
ENDBRANCH   2   3
ENDBRANCH   1   2
BRANCH   1  25
ATOM     25  C   UNL A   1      32.865  32.884  27.078  1.00  0.00     0.118 C 
BRANCH  25  26
ATOM     26  N   UNL A   1      32.655  34.194  27.681  1.00  0.00    -0.352 N 
ATOM     27  C   UNL A   1      33.200  34.734  28.818  1.00  0.00     0.251 C 
ATOM     28  H   UNL A   1      32.028  34.779  27.198  1.00  0.00     0.163 HD
ATOM     29  O   UNL A   1      32.714  35.760  29.289  1.00  0.00    -0.269 OA
BRANCH  27  30
ATOM     30  C   UNL A   1      34.357  34.092  29.478  1.00  0.00     0.039 A 
ATOM     31  C   UNL A   1      35.647  34.426  29.055  1.00  0.00     0.014 A 
ATOM     32  C   UNL A   1      34.175  33.129  30.475  1.00  0.00     0.014 A 
ATOM     33  C   UNL A   1      36.753  33.830  29.666  1.00  0.00     0.010 A 
ATOM     34  C   UNL A   1      35.280  32.591  31.131  1.00  0.00     0.010 A 
ATOM     35  C   UNL A   1      36.580  32.927  30.726  1.00  0.00    -0.014 A 
BRANCH  35  36
ATOM     36  C   UNL A   1      37.743  32.331  31.432  1.00  0.00     0.031 A 
ATOM     37  C   UNL A   1      38.502  31.188  30.815  1.00  0.00     0.074 A 
ATOM     38  C   UNL A   1      38.061  32.766  32.667  1.00  0.00     0.049 A 
ATOM     39  N   UNL A   1      39.498  30.500  31.310  1.00  0.00    -0.248 NA
ATOM     40  C   UNL A   1      38.074  30.741  29.478  1.00  0.00     0.031 C 
ATOM     41  C   UNL A   1      37.354  33.819  33.398  1.00  0.00     0.029 A 
ATOM     42  N   UNL A   1      39.044  32.362  33.536  1.00  0.00    -0.354 N 
ATOM     43  C   UNL A   1      39.791  29.521  30.367  1.00  0.00     0.074 A 
ATOM     44  C   UNL A   1      38.849  29.683  29.283  1.00  0.00     0.031 C 
ATOM     45  C   UNL A   1      37.930  33.984  34.599  1.00  0.00     0.029 A 
ATOM     46  C   UNL A   1      39.025  33.029  34.739  1.00  0.00     0.049 A 
ATOM     47  H   UNL A   1      39.701  31.661  33.319  1.00  0.00     0.167 HD
ATOM     48  C   UNL A   1      40.775  28.592  30.391  1.00  0.00     0.034 A 
ATOM     49  C   UNL A   1      39.796  32.884  35.836  1.00  0.00     0.034 A 
ATOM     50  C   UNL A   1      41.741  28.471  31.449  1.00  0.00     0.049 A 
ATOM     51  C   UNL A   1      40.908  31.872  35.819  1.00  0.00     0.074 A 
ATOM     52  C   UNL A   1      42.830  27.621  31.520  1.00  0.00     0.029 A 
ATOM     53  N   UNL A   1      41.737  29.218  32.617  1.00  0.00    -0.354 N 
ATOM     54  N   UNL A   1      41.259  31.052  34.858  1.00  0.00    -0.248 NA
ATOM     55  C   UNL A   1      41.752  31.784  37.019  1.00  0.00     0.031 C 
ATOM     56  C   UNL A   1      43.471  27.836  32.744  1.00  0.00     0.029 A 
ATOM     57  C   UNL A   1      42.800  28.841  33.420  1.00  0.00     0.049 A 
ATOM     58  H   UNL A   1      41.077  29.912  32.841  1.00  0.00     0.167 HD
ATOM     59  C   UNL A   1      42.380  30.375  35.323  1.00  0.00     0.074 A 
ATOM     60  C   UNL A   1      42.662  30.893  36.645  1.00  0.00     0.031 C 
ATOM     61  C   UNL A   1      43.101  29.402  34.713  1.00  0.00     0.034 A 
BRANCH  48  62
ATOM     62  C   UNL A   1      40.907  27.666  29.210  1.00  0.00     0.023 A 
ATOM     63  C   UNL A   1      40.116  26.501  29.150  1.00  0.00     0.012 A 
ATOM     64  C   UNL A   1      41.732  27.998  28.117  1.00  0.00     0.148 A 
ATOM     65  C   UNL A   1      40.157  25.670  28.032  1.00  0.00     0.002 A 
ATOM     66  C   UNL A   1      41.733  27.190  26.986  1.00  0.00     0.091 A 
ATOM     67  F   UNL A   1      42.490  29.100  28.200  1.00  0.00    -0.205 F 
ATOM     68  C   UNL A   1      40.954  26.021  26.945  1.00  0.00     0.022 A 
BRANCH  66  69
ATOM     69  S   UNL A   1      42.656  27.597  25.500  1.00  0.00     0.127 S 
ATOM     70  O   UNL A   1      42.324  26.470  24.628  1.00  0.00    -0.237 OA
ATOM     71  O   UNL A   1      42.055  28.871  25.105  1.00  0.00    -0.237 OA
ATOM     72  O   UNL A   1      44.054  27.679  25.903  1.00  0.00    -0.744 OA
ENDBRANCH  66  69
ENDBRANCH  48  62
BRANCH  49  73
ATOM     73  C   UNL A   1      39.583  33.781  37.007  1.00  0.00     0.023 A 
ATOM     74  C   UNL A   1      39.962  35.135  36.915  1.00  0.00     0.012 A 
ATOM     75  C   UNL A   1      38.949  33.322  38.178  1.00  0.00     0.148 A 
ATOM     76  C   UNL A   1      39.731  36.011  37.976  1.00  0.00     0.002 A 
ATOM     77  C   UNL A   1      38.670  34.213  39.208  1.00  0.00     0.091 A 
ATOM     78  F   UNL A   1      38.606  32.028  38.249  1.00  0.00    -0.205 F 
ATOM     79  C   UNL A   1      39.074  35.554  39.116  1.00  0.00     0.022 A 
BRANCH  77  80
ATOM     80  S   UNL A   1      37.703  33.750  40.650  1.00  0.00     0.127 S 
ATOM     81  O   UNL A   1      36.557  33.082  40.039  1.00  0.00    -0.237 OA
ATOM     82  O   UNL A   1      38.626  32.866  41.360  1.00  0.00    -0.237 OA
ATOM     83  O   UNL A   1      37.409  34.996  41.344  1.00  0.00    -0.744 OA
ENDBRANCH  77  80
ENDBRANCH  49  73
BRANCH  61  84
ATOM     84  C   UNL A   1      44.289  28.834  35.445  1.00  0.00     0.023 A 
ATOM     85  C   UNL A   1      45.547  29.454  35.317  1.00  0.00     0.012 A 
ATOM     86  C   UNL A   1      44.128  27.770  36.355  1.00  0.00     0.148 A 
ATOM     87  C   UNL A   1      46.632  29.010  36.071  1.00  0.00     0.002 A 
ATOM     88  C   UNL A   1      45.202  27.367  37.140  1.00  0.00     0.091 A 
ATOM     89  F   UNL A   1      42.925  27.185  36.448  1.00  0.00    -0.205 F 
ATOM     90  C   UNL A   1      46.457  27.980  36.992  1.00  0.00     0.022 A 
BRANCH  88  91
ATOM     91  S   UNL A   1      45.044  26.125  38.428  1.00  0.00     0.127 S 
ATOM     92  O   UNL A   1      46.443  25.880  38.777  1.00  0.00    -0.237 OA
ATOM     93  O   UNL A   1      44.274  26.833  39.450  1.00  0.00    -0.237 OA
ATOM     94  O   UNL A   1      44.350  24.998  37.818  1.00  0.00    -0.744 OA
ENDBRANCH  88  91
ENDBRANCH  61  84
ENDBRANCH  35  36
ENDBRANCH  27  30
ENDBRANCH  25  26
ENDBRANCH   1  25
TORSDOF 16
ENDMDL
MODEL 2
REMARK VINA RESULT:     -12.4      1.649      2.385
REMARK SMILES Cc1cccc(CS(=O)(=O)c2ccc(C(=O)NCCCNC(=O)c3ccc(-c4c5nc(c(-c6cccc(S(=O)(=O)[O-])c6F)c6ccc([nH]6)c(-c6cccc(S(=O)(=O)[O-])c6F)c6nc(c(-c7cccc(S(=O)(=O)[O-])c7F)c7ccc4[nH]7)C=C6)C=C5)cc3)cc2F)n1
REMARK SMILES IDX 19 1 18 2 17 3 15 4 16 5 14 7 11 8 12 9 88 10 13 11 87 12
REMARK SMILES IDX 89 13 8 14 9 15 10 16 7 17 6 18 1 19 2 20 3 21 90 22 4 23
REMARK SMILES IDX 5 24 20 25 21 26 22 27 23 29 24 30 25 31 86 32 26 33 85 34
REMARK SMILES IDX 27 35 28 36 29 37 79 38 30 39 84 40 78 41 80 42 31 43 83 44
REMARK SMILES IDX 77 45 76 46 32 48 64 49 44 50 63 51 45 52 48 53 62 54 81 55
REMARK SMILES IDX 46 56 47 57 61 59 82 60 49 61 33 62 34 63 42 64 35 65 37 66
REMARK SMILES IDX 43 67 36 68 38 69 39 70 40 71 41 72 65 73 66 74 74 75 67 76
REMARK SMILES IDX 69 77 75 78 68 79 70 80 71 81 72 82 73 83 50 84 51 85 59 86
REMARK SMILES IDX 52 87 54 88 60 89 53 90 55 91 56 92 57 93 58 94
REMARK H PARENT 17 6 21 28 80 47 48 58
REMARK Flexibility Score: inf
ROOT
ATOM      1  C   UNL A   1      31.613  32.159  26.904  1.00  0.00     0.042 C 
ENDROOT
BRANCH   1   2
ATOM      2  C   UNL A   1      31.838  30.650  26.841  1.00  0.00     0.118 C 
BRANCH   2   3
ATOM      3  N   UNL A   1      33.069  30.279  27.515  1.00  0.00    -0.352 N 
ATOM      4  C   UNL A   1      34.002  29.313  27.249  1.00  0.00     0.251 C 
ATOM      5  O   UNL A   1      35.002  29.254  27.965  1.00  0.00    -0.269 OA
ATOM      6  H   UNL A   1      33.272  30.824  28.310  1.00  0.00     0.163 HD
BRANCH   4   7
ATOM      7  C   UNL A   1      33.897  28.387  26.094  1.00  0.00     0.042 A 
ATOM      8  C   UNL A   1      33.632  26.791  23.792  1.00  0.00     0.103 A 
ATOM      9  C   UNL A   1      33.516  28.181  23.702  1.00  0.00     0.024 A 
ATOM     10  C   UNL A   1      33.874  26.210  25.032  1.00  0.00     0.142 A 
ATOM     11  C   UNL A   1      33.678  28.973  24.840  1.00  0.00     0.015 A 
ATOM     12  C   UNL A   1      34.023  27.000  26.176  1.00  0.00     0.054 A 
ATOM     13  F   UNL A   1      33.954  24.885  25.190  1.00  0.00    -0.206 F 
BRANCH   8  14
ATOM     14  S   UNL A   1      33.355  25.790  22.352  1.00  0.00     0.186 S 
ATOM     15  O   UNL A   1      34.133  24.576  22.552  1.00  0.00    -0.223 OA
ATOM     16  O   UNL A   1      33.635  26.599  21.182  1.00  0.00    -0.223 OA
BRANCH  14  17
ATOM     17  C   UNL A   1      31.606  25.440  22.281  1.00  0.00     0.198 C 
BRANCH  17  18
ATOM     18  C   UNL A   1      31.036  25.148  23.635  1.00  0.00     0.056 A 
ATOM     19  C   UNL A   1      31.116  22.257  25.906  1.00  0.00     0.067 C 
ATOM     20  C   UNL A   1      30.774  23.618  25.380  1.00  0.00     0.038 A 
ATOM     21  C   UNL A   1      30.110  24.553  26.159  1.00  0.00     0.023 A 
ATOM     22  N   UNL A   1      31.207  23.901  24.130  1.00  0.00    -0.257 NA
ATOM     23  C   UNL A   1      29.883  25.818  25.627  1.00  0.00     0.004 A 
ATOM     24  C   UNL A   1      30.349  26.125  24.351  1.00  0.00     0.025 A 
ENDBRANCH  17  18
ENDBRANCH  14  17
ENDBRANCH   8  14
ENDBRANCH   4   7
ENDBRANCH   2   3
ENDBRANCH   1   2
BRANCH   1  25
ATOM     25  C   UNL A   1      32.896  32.952  27.139  1.00  0.00     0.118 C 
BRANCH  25  26
ATOM     26  N   UNL A   1      32.624  34.280  27.676  1.00  0.00    -0.352 N 
ATOM     27  C   UNL A   1      33.120  34.889  28.801  1.00  0.00     0.251 C 
ATOM     28  H   UNL A   1      31.990  34.820  27.153  1.00  0.00     0.163 HD
ATOM     29  O   UNL A   1      32.587  35.917  29.213  1.00  0.00    -0.269 OA
BRANCH  27  30
ATOM     30  C   UNL A   1      34.282  34.319  29.517  1.00  0.00     0.039 A 
ATOM     31  C   UNL A   1      34.060  33.564  30.672  1.00  0.00     0.014 A 
ATOM     32  C   UNL A   1      35.587  34.564  29.081  1.00  0.00     0.014 A 
ATOM     33  C   UNL A   1      35.145  33.017  31.362  1.00  0.00     0.010 A 
ATOM     34  C   UNL A   1      36.661  33.958  29.729  1.00  0.00     0.010 A 
ATOM     35  C   UNL A   1      36.453  33.188  30.882  1.00  0.00    -0.014 A 
BRANCH  35  36
ATOM     36  C   UNL A   1      37.615  32.562  31.563  1.00  0.00     0.031 A 
ATOM     37  C   UNL A   1      38.341  31.410  30.924  1.00  0.00     0.074 A 
ATOM     38  C   UNL A   1      37.961  32.979  32.797  1.00  0.00     0.049 A 
ATOM     39  N   UNL A   1      39.331  30.697  31.396  1.00  0.00    -0.248 NA
ATOM     40  C   UNL A   1      37.882  30.984  29.590  1.00  0.00     0.031 C 
ATOM     41  C   UNL A   1      37.288  34.039  33.548  1.00  0.00     0.029 A 
ATOM     42  N   UNL A   1      38.951  32.547  33.646  1.00  0.00    -0.354 N 
ATOM     43  C   UNL A   1      39.588  29.722  30.441  1.00  0.00     0.074 A 
ATOM     44  C   UNL A   1      38.633  29.913  29.373  1.00  0.00     0.031 C 
ATOM     45  C   UNL A   1      37.886  34.182  34.741  1.00  0.00     0.029 A 
ATOM     46  C   UNL A   1      38.964  33.203  34.855  1.00  0.00     0.049 A 
ATOM     47  H   UNL A   1      39.589  31.836  33.412  1.00  0.00     0.167 HD
ATOM     48  C   UNL A   1      40.553  28.772  30.440  1.00  0.00     0.034 A 
ATOM     49  C   UNL A   1      39.749  33.033  35.937  1.00  0.00     0.034 A 
ATOM     50  C   UNL A   1      41.534  28.623  31.481  1.00  0.00     0.049 A 
ATOM     51  C   UNL A   1      40.840  31.999  35.894  1.00  0.00     0.074 A 
ATOM     52  C   UNL A   1      42.606  27.750  31.527  1.00  0.00     0.029 A 
ATOM     53  N   UNL A   1      41.564  29.358  32.655  1.00  0.00    -0.354 N 
ATOM     54  N   UNL A   1      41.159  31.181  34.920  1.00  0.00    -0.248 NA
ATOM     55  C   UNL A   1      41.701  31.883  37.079  1.00  0.00     0.031 C 
ATOM     56  C   UNL A   1      43.271  27.941  32.742  1.00  0.00     0.029 A 
ATOM     57  C   UNL A   1      42.631  28.953  33.438  1.00  0.00     0.049 A 
ATOM     58  H   UNL A   1      40.922  30.064  32.896  1.00  0.00     0.167 HD
ATOM     59  C   UNL A   1      42.274  30.477  35.360  1.00  0.00     0.074 A 
ATOM     60  C   UNL A   1      42.587  30.978  36.682  1.00  0.00     0.031 C 
ATOM     61  C   UNL A   1      42.964  29.496  34.731  1.00  0.00     0.034 A 
BRANCH  48  62
ATOM     62  C   UNL A   1      40.648  27.854  29.249  1.00  0.00     0.023 A 
ATOM     63  C   UNL A   1      39.761  26.764  29.142  1.00  0.00     0.012 A 
ATOM     64  C   UNL A   1      41.538  28.129  28.191  1.00  0.00     0.148 A 
ATOM     65  C   UNL A   1      39.771  25.948  28.012  1.00  0.00     0.002 A 
ATOM     66  C   UNL A   1      41.510  27.339  27.047  1.00  0.00     0.091 A 
ATOM     67  F   UNL A   1      42.385  29.159  28.320  1.00  0.00    -0.205 F 
ATOM     68  C   UNL A   1      40.635  26.243  26.960  1.00  0.00     0.022 A 
BRANCH  66  69
ATOM     69  S   UNL A   1      42.518  27.685  25.601  1.00  0.00     0.127 S 
ATOM     70  O   UNL A   1      43.856  27.766  26.187  1.00  0.00    -0.237 OA
ATOM     71  O   UNL A   1      42.286  26.500  24.776  1.00  0.00    -0.237 OA
ATOM     72  O   UNL A   1      42.008  28.929  25.042  1.00  0.00    -0.744 OA
ENDBRANCH  66  69
ENDBRANCH  48  62
BRANCH  49  73
ATOM     73  C   UNL A   1      39.573  33.924  37.120  1.00  0.00     0.023 A 
ATOM     74  C   UNL A   1      39.938  35.280  37.021  1.00  0.00     0.012 A 
ATOM     75  C   UNL A   1      38.987  33.454  38.312  1.00  0.00     0.148 A 
ATOM     76  C   UNL A   1      39.741  36.150  38.093  1.00  0.00     0.002 A 
ATOM     77  C   UNL A   1      38.740  34.339  39.356  1.00  0.00     0.091 A 
ATOM     78  F   UNL A   1      38.657  32.158  38.390  1.00  0.00    -0.205 F 
ATOM     79  C   UNL A   1      39.131  35.683  39.254  1.00  0.00     0.022 A 
BRANCH  77  80
ATOM     80  S   UNL A   1      37.831  33.862  40.831  1.00  0.00     0.127 S 
ATOM     81  O   UNL A   1      37.583  35.156  41.460  1.00  0.00    -0.237 OA
ATOM     82  O   UNL A   1      36.650  33.217  40.259  1.00  0.00    -0.237 OA
ATOM     83  O   UNL A   1      38.712  32.963  41.563  1.00  0.00    -0.744 OA
ENDBRANCH  77  80
ENDBRANCH  49  73
BRANCH  61  84
ATOM     84  C   UNL A   1      44.152  28.898  35.438  1.00  0.00     0.023 A 
ATOM     85  C   UNL A   1      45.424  29.481  35.278  1.00  0.00     0.012 A 
ATOM     86  C   UNL A   1      43.983  27.842  36.357  1.00  0.00     0.148 A 
ATOM     87  C   UNL A   1      46.514  29.010  36.010  1.00  0.00     0.002 A 
ATOM     88  C   UNL A   1      45.062  27.412  37.119  1.00  0.00     0.091 A 
ATOM     89  F   UNL A   1      42.765  27.292  36.480  1.00  0.00    -0.205 F 
ATOM     90  C   UNL A   1      46.330  27.989  36.940  1.00  0.00     0.022 A 
BRANCH  88  91
ATOM     91  S   UNL A   1      44.899  26.180  38.416  1.00  0.00     0.127 S 
ATOM     92  O   UNL A   1      44.330  26.970  39.507  1.00  0.00    -0.237 OA
ATOM     93  O   UNL A   1      43.977  25.217  37.814  1.00  0.00    -0.237 OA
ATOM     94  O   UNL A   1      46.242  25.666  38.654  1.00  0.00    -0.744 OA
ENDBRANCH  88  91
ENDBRANCH  61  84
ENDBRANCH  35  36
ENDBRANCH  27  30
ENDBRANCH  25  26
ENDBRANCH   1  25
TORSDOF 16
ENDMDL
MODEL 3
REMARK VINA RESULT:     -12.3      6.383     11.760
REMARK SMILES Cc1cccc(CS(=O)(=O)c2ccc(C(=O)NCCCNC(=O)c3ccc(-c4c5nc(c(-c6cccc(S(=O)(=O)[O-])c6F)c6ccc([nH]6)c(-c6cccc(S(=O)(=O)[O-])c6F)c6nc(c(-c7cccc(S(=O)(=O)[O-])c7F)c7ccc4[nH]7)C=C6)C=C5)cc3)cc2F)n1
REMARK SMILES IDX 19 1 18 2 17 3 15 4 16 5 14 7 11 8 12 9 88 10 13 11 87 12
REMARK SMILES IDX 89 13 8 14 9 15 10 16 7 17 6 18 1 19 2 20 3 21 90 22 4 23
REMARK SMILES IDX 5 24 20 25 21 26 22 27 23 29 24 30 25 31 86 32 26 33 85 34
REMARK SMILES IDX 27 35 28 36 29 37 79 38 30 39 84 40 78 41 80 42 31 43 83 44
REMARK SMILES IDX 77 45 76 46 32 48 64 49 44 50 63 51 45 52 48 53 62 54 81 55
REMARK SMILES IDX 46 56 47 57 61 59 82 60 49 61 33 62 34 63 42 64 35 65 37 66
REMARK SMILES IDX 43 67 36 68 38 69 39 70 40 71 41 72 65 73 66 74 74 75 67 76
REMARK SMILES IDX 69 77 75 78 68 79 70 80 71 81 72 82 73 83 50 84 51 85 59 86
REMARK SMILES IDX 52 87 54 88 60 89 53 90 55 91 56 92 57 93 58 94
REMARK H PARENT 17 6 21 28 80 47 48 58
REMARK Flexibility Score: inf
ROOT
ATOM      1  C   UNL A   1      37.906  19.638  25.008  1.00  0.00     0.042 C 
ENDROOT
BRANCH   1   2
ATOM      2  C   UNL A   1      36.885  20.717  24.652  1.00  0.00     0.118 C 
BRANCH   2   3
ATOM      3  N   UNL A   1      36.064  21.054  25.801  1.00  0.00    -0.352 N 
ATOM      4  C   UNL A   1      35.042  21.950  25.964  1.00  0.00     0.251 C 
ATOM      5  O   UNL A   1      34.470  21.992  27.053  1.00  0.00    -0.269 OA
ATOM      6  H   UNL A   1      36.282  20.543  26.614  1.00  0.00     0.163 HD
BRANCH   4   7
ATOM      7  C   UNL A   1      34.547  22.817  24.864  1.00  0.00     0.042 A 
ATOM      8  C   UNL A   1      33.645  24.621  22.904  1.00  0.00     0.103 A 
ATOM      9  C   UNL A   1      34.287  25.093  24.052  1.00  0.00     0.024 A 
ATOM     10  C   UNL A   1      33.456  23.253  22.746  1.00  0.00     0.142 A 
ATOM     11  C   UNL A   1      34.761  24.194  25.009  1.00  0.00     0.015 A 
ATOM     12  C   UNL A   1      33.916  22.351  23.711  1.00  0.00     0.054 A 
ATOM     13  F   UNL A   1      32.813  22.743  21.691  1.00  0.00    -0.206 F 
BRANCH   8  14
ATOM     14  S   UNL A   1      32.986  25.776  21.727  1.00  0.00     0.186 S 
ATOM     15  O   UNL A   1      33.165  25.163  20.419  1.00  0.00    -0.223 OA
ATOM     16  O   UNL A   1      33.601  27.066  21.971  1.00  0.00    -0.223 OA
BRANCH  14  17
ATOM     17  C   UNL A   1      31.257  25.993  22.115  1.00  0.00     0.198 C 
BRANCH  17  18
ATOM     18  C   UNL A   1      30.984  27.326  22.741  1.00  0.00     0.056 A 
ATOM     19  C   UNL A   1      29.153  30.344  21.710  1.00  0.00     0.067 C 
ATOM     20  C   UNL A   1      29.994  29.433  22.552  1.00  0.00     0.038 A 
ATOM     21  C   UNL A   1      30.352  29.767  23.849  1.00  0.00     0.023 A 
ATOM     22  N   UNL A   1      30.326  28.244  21.998  1.00  0.00    -0.257 NA
ATOM     23  C   UNL A   1      31.080  28.844  24.594  1.00  0.00     0.004 A 
ATOM     24  C   UNL A   1      31.403  27.608  24.039  1.00  0.00     0.025 A 
ENDBRANCH  17  18
ENDBRANCH  14  17
ENDBRANCH   8  14
ENDBRANCH   4   7
ENDBRANCH   2   3
ENDBRANCH   1   2
BRANCH   1  25
ATOM     25  C   UNL A   1      38.969  20.113  25.994  1.00  0.00     0.118 C 
BRANCH  25  26
ATOM     26  N   UNL A   1      40.113  19.211  26.038  1.00  0.00    -0.352 N 
ATOM     27  C   UNL A   1      41.454  19.497  26.093  1.00  0.00     0.251 C 
ATOM     28  H   UNL A   1      39.890  18.253  26.026  1.00  0.00     0.163 HD
ATOM     29  O   UNL A   1      42.269  18.602  25.881  1.00  0.00    -0.269 OA
BRANCH  27  30
ATOM     30  C   UNL A   1      41.921  20.866  26.403  1.00  0.00     0.039 A 
ATOM     31  C   UNL A   1      42.179  21.747  25.348  1.00  0.00     0.014 A 
ATOM     32  C   UNL A   1      42.149  21.269  27.721  1.00  0.00     0.014 A 
ATOM     33  C   UNL A   1      42.620  23.044  25.619  1.00  0.00     0.010 A 
ATOM     34  C   UNL A   1      42.518  22.584  27.992  1.00  0.00     0.010 A 
ATOM     35  C   UNL A   1      42.769  23.482  26.945  1.00  0.00    -0.014 A 
BRANCH  35  36
ATOM     36  C   UNL A   1      43.174  24.876  27.257  1.00  0.00     0.031 A 
ATOM     37  C   UNL A   1      42.209  25.818  27.921  1.00  0.00     0.074 A 
ATOM     38  C   UNL A   1      44.388  25.315  26.866  1.00  0.00     0.049 A 
ATOM     39  N   UNL A   1      42.362  27.084  28.211  1.00  0.00    -0.248 NA
ATOM     40  C   UNL A   1      40.888  25.278  28.287  1.00  0.00     0.031 C 
ATOM     41  C   UNL A   1      45.383  24.515  26.151  1.00  0.00     0.029 A 
ATOM     42  N   UNL A   1      44.980  26.547  26.992  1.00  0.00    -0.354 N 
ATOM     43  C   UNL A   1      41.153  27.500  28.756  1.00  0.00     0.074 A 
ATOM     44  C   UNL A   1      40.264  26.361  28.731  1.00  0.00     0.031 C 
ATOM     45  C   UNL A   1      46.464  25.272  25.909  1.00  0.00     0.029 A 
ATOM     46  C   UNL A   1      46.229  26.619  26.420  1.00  0.00     0.049 A 
ATOM     47  H   UNL A   1      44.551  27.307  27.447  1.00  0.00     0.167 HD
ATOM     48  C   UNL A   1      40.825  28.713  29.259  1.00  0.00     0.034 A 
ATOM     49  C   UNL A   1      47.087  27.654  26.312  1.00  0.00     0.034 A 
ATOM     50  C   UNL A   1      41.732  29.827  29.329  1.00  0.00     0.049 A 
ATOM     51  C   UNL A   1      46.713  28.979  26.917  1.00  0.00     0.074 A 
ATOM     52  C   UNL A   1      41.521  31.067  29.904  1.00  0.00     0.029 A 
ATOM     53  N   UNL A   1      43.017  29.837  28.811  1.00  0.00    -0.354 N 
ATOM     54  N   UNL A   1      45.618  29.311  27.557  1.00  0.00    -0.248 NA
ATOM     55  C   UNL A   1      47.701  30.063  26.816  1.00  0.00     0.031 C 
ATOM     56  C   UNL A   1      42.671  31.838  29.710  1.00  0.00     0.029 A 
ATOM     57  C   UNL A   1      43.608  31.067  29.043  1.00  0.00     0.049 A 
ATOM     58  H   UNL A   1      43.445  29.082  28.347  1.00  0.00     0.167 HD
ATOM     59  C   UNL A   1      45.797  30.629  27.962  1.00  0.00     0.074 A 
ATOM     60  C   UNL A   1      47.113  31.029  27.512  1.00  0.00     0.031 C 
ATOM     61  C   UNL A   1      44.941  31.436  28.635  1.00  0.00     0.034 A 
BRANCH  48  62
ATOM     62  C   UNL A   1      39.446  28.894  29.839  1.00  0.00     0.023 A 
ATOM     63  C   UNL A   1      39.195  28.496  31.168  1.00  0.00     0.012 A 
ATOM     64  C   UNL A   1      38.432  29.547  29.110  1.00  0.00     0.148 A 
ATOM     65  C   UNL A   1      37.953  28.727  31.757  1.00  0.00     0.002 A 
ATOM     66  C   UNL A   1      37.212  29.816  29.719  1.00  0.00     0.091 A 
ATOM     67  F   UNL A   1      38.684  29.902  27.842  1.00  0.00    -0.205 F 
ATOM     68  C   UNL A   1      36.966  29.398  31.037  1.00  0.00     0.022 A 
BRANCH  66  69
ATOM     69  S   UNL A   1      35.906  30.750  28.912  1.00  0.00     0.127 S 
ATOM     70  O   UNL A   1      35.150  31.251  30.059  1.00  0.00    -0.237 OA
ATOM     71  O   UNL A   1      36.662  31.771  28.188  1.00  0.00    -0.237 OA
ATOM     72  O   UNL A   1      35.195  29.801  28.066  1.00  0.00    -0.744 OA
ENDBRANCH  66  69
ENDBRANCH  48  62
BRANCH  49  73
ATOM     73  C   UNL A   1      48.415  27.442  25.670  1.00  0.00     0.023 A 
ATOM     74  C   UNL A   1      49.501  27.016  26.459  1.00  0.00     0.012 A 
ATOM     75  C   UNL A   1      48.591  27.594  24.281  1.00  0.00     0.148 A 
ATOM     76  C   UNL A   1      50.745  26.763  25.879  1.00  0.00     0.002 A 
ATOM     77  C   UNL A   1      49.817  27.284  23.701  1.00  0.00     0.091 A 
ATOM     78  F   UNL A   1      47.548  28.011  23.550  1.00  0.00    -0.205 F 
ATOM     79  C   UNL A   1      50.899  26.884  24.501  1.00  0.00     0.022 A 
BRANCH  77  80
ATOM     80  S   UNL A   1      50.068  27.272  21.922  1.00  0.00     0.127 S 
ATOM     81  O   UNL A   1      49.869  28.678  21.583  1.00  0.00    -0.237 OA
ATOM     82  O   UNL A   1      51.449  26.801  21.818  1.00  0.00    -0.237 OA
ATOM     83  O   UNL A   1      49.076  26.348  21.391  1.00  0.00    -0.744 OA
ENDBRANCH  77  80
ENDBRANCH  49  73
BRANCH  61  84
ATOM     84  C   UNL A   1      45.391  32.836  28.958  1.00  0.00     0.023 A 
ATOM     85  C   UNL A   1      46.213  33.063  30.078  1.00  0.00     0.012 A 
ATOM     86  C   UNL A   1      45.105  33.902  28.080  1.00  0.00     0.148 A 
ATOM     87  C   UNL A   1      46.730  34.334  30.330  1.00  0.00     0.002 A 
ATOM     88  C   UNL A   1      45.664  35.153  28.310  1.00  0.00     0.091 A 
ATOM     89  F   UNL A   1      44.306  33.666  27.028  1.00  0.00    -0.205 F 
ATOM     90  C   UNL A   1      46.469  35.372  29.439  1.00  0.00     0.022 A 
BRANCH  88  91
ATOM     91  S   UNL A   1      45.474  36.522  27.162  1.00  0.00     0.127 S 
ATOM     92  O   UNL A   1      44.093  36.346  26.716  1.00  0.00    -0.237 OA
ATOM     93  O   UNL A   1      45.695  37.682  28.025  1.00  0.00    -0.237 OA
ATOM     94  O   UNL A   1      46.489  36.329  26.133  1.00  0.00    -0.744 OA
ENDBRANCH  88  91
ENDBRANCH  61  84
ENDBRANCH  35  36
ENDBRANCH  27  30
ENDBRANCH  25  26
ENDBRANCH   1  25
TORSDOF 16
ENDMDL
