MODEL 1
REMARK VINA RESULT:     -12.9      0.000      0.000
REMARK SMILES COc1cccc(N2/C(=[NH+]/C(=O)CCC(=O)NCCCNC(=O)c3ccc(-c4c5nc(c(-c6cccc(S(=O)(=O)[O-])c6F)c6ccc([nH]6)c(-c6cccc(S(=O)(=O)[O-])c6F)c6nc(c(-c7cccc(S(=O)(=O)[O-])c7F)c7ccc4[nH]7)C=C6)C=C5)cc3)S[C@@H]3CS(=O)(=O)C[C@H]32)c1
REMARK SMILES IDX 18 1 17 2 15 3 16 4 14 6 13 7 11 8 8 9 9 10 94 11 10 12
REMARK SMILES IDX 87 13 88 14 93 15 89 17 90 18 12 19 91 20 92 21 7 22 3 23
REMARK SMILES IDX 4 24 95 25 5 26 6 27 2 28 1 29 19 30 20 31 21 32 22 33 23 35
REMARK SMILES IDX 24 36 25 37 86 38 26 39 85 40 27 41 28 42 29 43 79 44 30 45
REMARK SMILES IDX 84 46 78 47 80 48 31 49 83 50 77 51 76 52 32 54 64 55 44 56
REMARK SMILES IDX 63 57 45 58 48 59 62 60 81 61 46 62 47 63 61 65 82 66 49 67
REMARK SMILES IDX 33 68 34 69 42 70 35 71 37 72 43 73 36 74 38 75 39 76 40 77
REMARK SMILES IDX 41 78 65 79 66 80 74 81 67 82 69 83 75 84 68 85 70 86 71 87
REMARK SMILES IDX 72 88 73 89 50 90 51 91 59 92 52 93 54 94 60 95 53 96 55 97
REMARK SMILES IDX 56 98 57 99 58 100
REMARK H PARENT 17 5 10 16 21 34 80 53 48 64
REMARK Flexibility Score: inf
ROOT
ATOM      1  C   UNL A   1      31.033  27.025  23.597  1.00  0.00     0.117 C 
ENDROOT
BRANCH   1   2
ATOM      2  N   UNL A   1      30.267  26.301  24.617  1.00  0.00    -0.356 N 
ATOM      3  C   UNL A   1      30.606  25.580  25.725  1.00  0.00     0.220 C 
ATOM      4  O   UNL A   1      29.699  25.300  26.515  1.00  0.00    -0.275 OA
ATOM      5  H   UNL A   1      29.295  26.346  24.470  1.00  0.00     0.163 HD
BRANCH   3   6
ATOM      6  C   UNL A   1      32.018  25.122  26.015  1.00  0.00     0.112 C 
BRANCH   6   7
ATOM      7  C   UNL A   1      32.006  23.974  27.026  1.00  0.00     0.138 C 
BRANCH   7   8
ATOM      8  C   UNL A   1      32.080  22.726  26.208  1.00  0.00     0.308 C 
ATOM      9  N   UNL A   1      34.756  20.812  24.745  1.00  0.00    -0.216 N 
ATOM     10  C   UNL A   1      33.545  21.517  24.909  1.00  0.00     0.319 C 
ATOM     11  C   UNL A   1      34.309  19.376  24.792  1.00  0.00     0.212 C 
ATOM     12  N   UNL A   1      33.352  22.425  25.806  1.00  0.00    -0.204 N 
ATOM     13  S   UNL A   1      32.245  20.770  23.946  1.00  0.00    -0.029 SA
ATOM     14  C   UNL A   1      33.167  19.268  23.752  1.00  0.00     0.120 C 
ATOM     15  C   UNL A   1      35.054  18.143  24.421  1.00  0.00     0.188 C 
ATOM     16  H   UNL A   1      34.119  22.900  26.201  1.00  0.00     0.316 HD
ATOM     17  C   UNL A   1      32.458  17.952  24.027  1.00  0.00     0.156 C 
ATOM     18  S   UNL A   1      33.841  16.850  24.209  1.00  0.00     0.155 S 
ATOM     19  O   UNL A   1      31.113  21.962  26.215  1.00  0.00    -0.247 OA
ATOM     20  O   UNL A   1      34.105  16.174  22.949  1.00  0.00    -0.229 OA
ATOM     21  O   UNL A   1      33.713  16.124  25.450  1.00  0.00    -0.229 OA
BRANCH   9  22
ATOM     22  C   UNL A   1      35.938  21.538  24.994  1.00  0.00     0.132 A 
ATOM     23  C   UNL A   1      38.162  22.001  26.099  1.00  0.00     0.123 A 
ATOM     24  C   UNL A   1      38.131  23.317  25.703  1.00  0.00     0.047 A 
ATOM     25  C   UNL A   1      37.117  21.146  25.673  1.00  0.00     0.098 A 
ATOM     26  C   UNL A   1      37.039  23.760  24.962  1.00  0.00     0.008 A 
ATOM     27  C   UNL A   1      35.956  22.900  24.656  1.00  0.00     0.052 A 
BRANCH  23  28
ATOM     28  O   UNL A   1      39.310  21.578  26.720  1.00  0.00    -0.497 OA
ATOM     29  C   UNL A   1      40.454  21.353  25.897  1.00  0.00     0.278 C 
ENDBRANCH  23  28
ENDBRANCH   9  22
ENDBRANCH   7   8
ENDBRANCH   6   7
ENDBRANCH   3   6
ENDBRANCH   1   2
BRANCH   1  30
ATOM     30  C   UNL A   1      32.047  28.108  24.093  1.00  0.00     0.042 C 
BRANCH  30  31
ATOM     31  C   UNL A   1      31.436  29.219  24.991  1.00  0.00     0.118 C 
BRANCH  31  32
ATOM     32  N   UNL A   1      32.009  29.533  26.380  1.00  0.00    -0.352 N 
ATOM     33  C   UNL A   1      32.656  30.759  26.816  1.00  0.00     0.251 C 
ATOM     34  H   UNL A   1      31.928  28.821  27.055  1.00  0.00     0.163 HD
ATOM     35  O   UNL A   1      31.990  31.787  26.902  1.00  0.00    -0.269 OA
BRANCH  33  36
ATOM     36  C   UNL A   1      34.129  30.760  27.387  1.00  0.00     0.039 A 
ATOM     37  C   UNL A   1      34.895  31.919  27.644  1.00  0.00     0.014 A 
ATOM     38  C   UNL A   1      34.765  29.582  27.765  1.00  0.00     0.014 A 
ATOM     39  C   UNL A   1      36.051  31.897  28.524  1.00  0.00     0.010 A 
ATOM     40  C   UNL A   1      35.850  29.553  28.691  1.00  0.00     0.010 A 
ATOM     41  C   UNL A   1      36.479  30.717  29.163  1.00  0.00    -0.014 A 
BRANCH  41  42
ATOM     42  C   UNL A   1      37.669  30.575  30.118  1.00  0.00     0.031 A 
ATOM     43  C   UNL A   1      38.755  29.608  29.694  1.00  0.00     0.074 A 
ATOM     44  C   UNL A   1      37.802  31.102  31.369  1.00  0.00     0.049 A 
ATOM     45  N   UNL A   1      39.784  29.145  30.359  1.00  0.00    -0.248 NA
ATOM     46  C   UNL A   1      38.623  29.067  28.334  1.00  0.00     0.031 C 
ATOM     47  C   UNL A   1      36.899  32.048  32.016  1.00  0.00     0.029 A 
ATOM     48  N   UNL A   1      38.761  30.878  32.359  1.00  0.00    -0.354 N 
ATOM     49  C   UNL A   1      40.394  28.226  29.514  1.00  0.00     0.074 A 
ATOM     50  C   UNL A   1      39.592  28.169  28.311  1.00  0.00     0.031 C 
ATOM     51  C   UNL A   1      37.310  32.292  33.279  1.00  0.00     0.029 A 
ATOM     52  C   UNL A   1      38.521  31.522  33.566  1.00  0.00     0.049 A 
ATOM     53  H   UNL A   1      39.549  30.306  32.212  1.00  0.00     0.167 HD
ATOM     54  C   UNL A   1      41.526  27.503  29.682  1.00  0.00     0.034 A 
ATOM     55  C   UNL A   1      39.179  31.511  34.756  1.00  0.00     0.034 A 
ATOM     56  C   UNL A   1      42.371  27.532  30.840  1.00  0.00     0.049 A 
ATOM     57  C   UNL A   1      40.443  30.680  34.934  1.00  0.00     0.074 A 
ATOM     58  C   UNL A   1      43.560  26.855  31.048  1.00  0.00     0.029 A 
ATOM     59  N   UNL A   1      42.118  28.258  31.989  1.00  0.00    -0.354 N 
ATOM     60  N   UNL A   1      41.067  29.928  34.062  1.00  0.00    -0.248 NA
ATOM     61  C   UNL A   1      41.115  30.723  36.251  1.00  0.00     0.031 C 
ATOM     62  C   UNL A   1      44.012  27.145  32.337  1.00  0.00     0.029 A 
ATOM     63  C   UNL A   1      43.129  28.044  32.910  1.00  0.00     0.049 A 
ATOM     64  H   UNL A   1      41.336  28.840  32.131  1.00  0.00     0.167 HD
ATOM     65  C   UNL A   1      42.223  29.471  34.698  1.00  0.00     0.074 A 
ATOM     66  C   UNL A   1      42.221  30.021  36.032  1.00  0.00     0.031 C 
ATOM     67  C   UNL A   1      43.193  28.661  34.209  1.00  0.00     0.034 A 
BRANCH  54  68
ATOM     68  C   UNL A   1      41.926  26.612  28.538  1.00  0.00     0.023 A 
ATOM     69  C   UNL A   1      41.230  25.405  28.319  1.00  0.00     0.012 A 
ATOM     70  C   UNL A   1      42.994  26.966  27.693  1.00  0.00     0.148 A 
ATOM     71  C   UNL A   1      41.637  24.529  27.317  1.00  0.00     0.002 A 
ATOM     72  C   UNL A   1      43.354  26.114  26.658  1.00  0.00     0.091 A 
ATOM     73  F   UNL A   1      43.649  28.111  27.931  1.00  0.00    -0.205 F 
ATOM     74  C   UNL A   1      42.693  24.886  26.483  1.00  0.00     0.022 A 
BRANCH  72  75
ATOM     75  S   UNL A   1      44.640  26.521  25.476  1.00  0.00     0.127 S 
ATOM     76  O   UNL A   1      44.665  25.321  24.642  1.00  0.00    -0.237 OA
ATOM     77  O   UNL A   1      44.087  27.708  24.823  1.00  0.00    -0.237 OA
ATOM     78  O   UNL A   1      45.845  26.762  26.258  1.00  0.00    -0.744 OA
ENDBRANCH  72  75
ENDBRANCH  54  68
BRANCH  55  79
ATOM     79  C   UNL A   1      38.724  32.344  35.929  1.00  0.00     0.023 A 
ATOM     80  C   UNL A   1      39.106  33.704  36.005  1.00  0.00     0.012 A 
ATOM     81  C   UNL A   1      38.018  31.786  37.014  1.00  0.00     0.148 A 
ATOM     82  C   UNL A   1      38.842  34.469  37.147  1.00  0.00     0.002 A 
ATOM     83  C   UNL A   1      37.710  32.570  38.128  1.00  0.00     0.091 A 
ATOM     84  F   UNL A   1      37.680  30.492  36.949  1.00  0.00    -0.205 F 
ATOM     85  C   UNL A   1      38.140  33.904  38.205  1.00  0.00     0.022 A 
BRANCH  83  86
ATOM     86  S   UNL A   1      36.729  31.967  39.509  1.00  0.00     0.127 S 
ATOM     87  O   UNL A   1      37.025  30.537  39.490  1.00  0.00    -0.237 OA
ATOM     88  O   UNL A   1      37.315  32.701  40.630  1.00  0.00    -0.237 OA
ATOM     89  O   UNL A   1      35.353  32.327  39.199  1.00  0.00    -0.744 OA
ENDBRANCH  83  86
ENDBRANCH  55  79
BRANCH  67  90
ATOM     90  C   UNL A   1      44.417  28.368  35.045  1.00  0.00     0.023 A 
ATOM     91  C   UNL A   1      45.569  29.172  34.943  1.00  0.00     0.012 A 
ATOM     92  C   UNL A   1      44.355  27.382  36.053  1.00  0.00     0.148 A 
ATOM     93  C   UNL A   1      46.638  28.995  35.825  1.00  0.00     0.002 A 
ATOM     94  C   UNL A   1      45.400  27.247  36.960  1.00  0.00     0.091 A 
ATOM     95  F   UNL A   1      43.258  26.615  36.125  1.00  0.00    -0.205 F 
ATOM     96  C   UNL A   1      46.546  28.047  36.842  1.00  0.00     0.022 A 
BRANCH  94  97
ATOM     97  S   UNL A   1      45.321  26.132  38.369  1.00  0.00     0.127 S 
ATOM     98  O   UNL A   1      46.624  26.349  38.995  1.00  0.00    -0.237 OA
ATOM     99  O   UNL A   1      44.187  26.665  39.122  1.00  0.00    -0.237 OA
ATOM    100  O   UNL A   1      45.112  24.799  37.819  1.00  0.00    -0.744 OA
ENDBRANCH  94  97
ENDBRANCH  67  90
ENDBRANCH  41  42
ENDBRANCH  33  36
ENDBRANCH  31  32
ENDBRANCH  30  31
ENDBRANCH   1  30
TORSDOF 17
ENDMDL
MODEL 2
REMARK VINA RESULT:     -12.1      1.455      7.648
REMARK SMILES COc1cccc(N2/C(=[NH+]/C(=O)CCC(=O)NCCCNC(=O)c3ccc(-c4c5nc(c(-c6cccc(S(=O)(=O)[O-])c6F)c6ccc([nH]6)c(-c6cccc(S(=O)(=O)[O-])c6F)c6nc(c(-c7cccc(S(=O)(=O)[O-])c7F)c7ccc4[nH]7)C=C6)C=C5)cc3)S[C@@H]3CS(=O)(=O)C[C@H]32)c1
REMARK SMILES IDX 18 1 17 2 15 3 16 4 14 6 13 7 11 8 8 9 9 10 94 11 10 12
REMARK SMILES IDX 87 13 88 14 93 15 89 17 90 18 12 19 91 20 92 21 7 22 3 23
REMARK SMILES IDX 4 24 95 25 5 26 6 27 2 28 1 29 19 30 20 31 21 32 22 33 23 35
REMARK SMILES IDX 24 36 25 37 86 38 26 39 85 40 27 41 28 42 29 43 79 44 30 45
REMARK SMILES IDX 84 46 78 47 80 48 31 49 83 50 77 51 76 52 32 54 64 55 44 56
REMARK SMILES IDX 63 57 45 58 48 59 62 60 81 61 46 62 47 63 61 65 82 66 49 67
REMARK SMILES IDX 33 68 34 69 42 70 35 71 37 72 43 73 36 74 38 75 39 76 40 77
REMARK SMILES IDX 41 78 65 79 66 80 74 81 67 82 69 83 75 84 68 85 70 86 71 87
REMARK SMILES IDX 72 88 73 89 50 90 51 91 59 92 52 93 54 94 60 95 53 96 55 97
REMARK SMILES IDX 56 98 57 99 58 100
REMARK H PARENT 17 5 10 16 21 34 80 53 48 64
REMARK Flexibility Score: inf
ROOT
ATOM      1  C   UNL A   1      32.383  28.207  26.226  1.00  0.00     0.117 C 
ENDROOT
BRANCH   1   2
ATOM      2  N   UNL A   1      31.235  27.382  25.835  1.00  0.00    -0.356 N 
ATOM      3  C   UNL A   1      31.000  26.038  25.799  1.00  0.00     0.220 C 
ATOM      4  O   UNL A   1      29.830  25.674  25.647  1.00  0.00    -0.275 OA
ATOM      5  H   UNL A   1      30.465  27.916  25.533  1.00  0.00     0.163 HD
BRANCH   3   6
ATOM      6  C   UNL A   1      32.094  25.002  25.937  1.00  0.00     0.112 C 
BRANCH   6   7
ATOM      7  C   UNL A   1      31.642  23.875  26.867  1.00  0.00     0.138 C 
BRANCH   7   8
ATOM      8  C   UNL A   1      31.790  22.621  26.070  1.00  0.00     0.308 C 
ATOM      9  N   UNL A   1      34.579  20.806  24.695  1.00  0.00    -0.216 N 
ATOM     10  C   UNL A   1      33.335  21.460  24.822  1.00  0.00     0.319 C 
ATOM     11  C   UNL A   1      34.193  19.353  24.753  1.00  0.00     0.212 C 
ATOM     12  N   UNL A   1      33.082  22.370  25.701  1.00  0.00    -0.204 N 
ATOM     13  S   UNL A   1      32.092  20.644  23.840  1.00  0.00    -0.029 SA
ATOM     14  C   UNL A   1      33.082  19.181  23.690  1.00  0.00     0.120 C 
ATOM     15  C   UNL A   1      35.000  18.148  24.417  1.00  0.00     0.188 C 
ATOM     16  H   UNL A   1      33.818  22.884  26.106  1.00  0.00     0.316 HD
ATOM     17  C   UNL A   1      32.424  17.839  23.967  1.00  0.00     0.156 C 
ATOM     18  S   UNL A   1      33.848  16.801  24.196  1.00  0.00     0.155 S 
ATOM     19  O   UNL A   1      30.856  21.816  26.066  1.00  0.00    -0.247 OA
ATOM     20  O   UNL A   1      34.170  16.120  22.953  1.00  0.00    -0.229 OA
ATOM     21  O   UNL A   1      33.723  16.087  25.445  1.00  0.00    -0.229 OA
BRANCH   9  22
ATOM     22  C   UNL A   1      35.722  21.585  24.961  1.00  0.00     0.132 A 
ATOM     23  C   UNL A   1      38.041  22.036  25.856  1.00  0.00     0.123 A 
ATOM     24  C   UNL A   1      37.845  23.395  25.795  1.00  0.00     0.047 A 
ATOM     25  C   UNL A   1      37.017  21.187  25.373  1.00  0.00     0.098 A 
ATOM     26  C   UNL A   1      36.623  23.868  25.325  1.00  0.00     0.008 A 
ATOM     27  C   UNL A   1      35.579  22.982  24.959  1.00  0.00     0.052 A 
BRANCH  23  28
ATOM     28  O   UNL A   1      39.299  21.616  26.208  1.00  0.00    -0.497 OA
ATOM     29  C   UNL A   1      40.082  22.499  27.010  1.00  0.00     0.278 C 
ENDBRANCH  23  28
ENDBRANCH   9  22
ENDBRANCH   7   8
ENDBRANCH   6   7
ENDBRANCH   3   6
ENDBRANCH   1   2
BRANCH   1  30
ATOM     30  C   UNL A   1      32.447  29.665  25.662  1.00  0.00     0.042 C 
BRANCH  30  31
ATOM     31  C   UNL A   1      32.186  30.786  26.706  1.00  0.00     0.118 C 
BRANCH  31  32
ATOM     32  N   UNL A   1      33.206  31.110  27.806  1.00  0.00    -0.352 N 
ATOM     33  C   UNL A   1      34.434  31.877  27.678  1.00  0.00     0.251 C 
ATOM     34  H   UNL A   1      33.005  30.758  28.703  1.00  0.00     0.163 HD
ATOM     35  O   UNL A   1      34.364  33.080  27.443  1.00  0.00    -0.269 OA
BRANCH  33  36
ATOM     36  C   UNL A   1      35.840  31.256  28.045  1.00  0.00     0.039 A 
ATOM     37  C   UNL A   1      37.008  32.004  28.312  1.00  0.00     0.014 A 
ATOM     38  C   UNL A   1      36.009  29.886  28.216  1.00  0.00     0.014 A 
ATOM     39  C   UNL A   1      38.140  31.435  29.024  1.00  0.00     0.010 A 
ATOM     40  C   UNL A   1      37.077  29.329  28.982  1.00  0.00     0.010 A 
ATOM     41  C   UNL A   1      38.140  30.102  29.480  1.00  0.00    -0.014 A 
BRANCH  41  42
ATOM     42  C   UNL A   1      39.263  29.398  30.249  1.00  0.00     0.031 A 
ATOM     43  C   UNL A   1      39.583  29.952  31.622  1.00  0.00     0.074 A 
ATOM     44  C   UNL A   1      40.106  28.429  29.791  1.00  0.00     0.049 A 
ATOM     45  N   UNL A   1      40.579  29.689  32.431  1.00  0.00    -0.248 NA
ATOM     46  C   UNL A   1      38.653  30.974  32.123  1.00  0.00     0.031 C 
ATOM     47  C   UNL A   1      40.024  27.737  28.510  1.00  0.00     0.029 A 
ATOM     48  N   UNL A   1      41.252  27.870  30.361  1.00  0.00    -0.354 N 
ATOM     49  C   UNL A   1      40.420  30.547  33.513  1.00  0.00     0.074 A 
ATOM     50  C   UNL A   1      39.258  31.363  33.231  1.00  0.00     0.031 C 
ATOM     51  C   UNL A   1      41.070  26.893  28.370  1.00  0.00     0.029 A 
ATOM     52  C   UNL A   1      41.926  26.963  29.554  1.00  0.00     0.049 A 
ATOM     53  H   UNL A   1      41.559  28.101  31.267  1.00  0.00     0.167 HD
ATOM     54  C   UNL A   1      41.137  30.653  34.656  1.00  0.00     0.034 A 
ATOM     55  C   UNL A   1      43.081  26.265  29.728  1.00  0.00     0.034 A 
ATOM     56  C   UNL A   1      42.283  29.861  34.998  1.00  0.00     0.049 A 
ATOM     57  C   UNL A   1      43.885  26.406  31.013  1.00  0.00     0.074 A 
ATOM     58  C   UNL A   1      43.023  29.891  36.167  1.00  0.00     0.029 A 
ATOM     59  N   UNL A   1      42.866  28.913  34.179  1.00  0.00    -0.354 N 
ATOM     60  N   UNL A   1      43.625  27.128  32.075  1.00  0.00    -0.248 NA
ATOM     61  C   UNL A   1      45.125  25.610  31.141  1.00  0.00     0.031 C 
ATOM     62  C   UNL A   1      44.077  28.982  36.043  1.00  0.00     0.029 A 
ATOM     63  C   UNL A   1      43.958  28.351  34.817  1.00  0.00     0.049 A 
ATOM     64  H   UNL A   1      42.551  28.672  33.277  1.00  0.00     0.167 HD
ATOM     65  C   UNL A   1      44.620  26.823  33.006  1.00  0.00     0.074 A 
ATOM     66  C   UNL A   1      45.496  25.854  32.392  1.00  0.00     0.031 C 
ATOM     67  C   UNL A   1      44.786  27.314  34.258  1.00  0.00     0.034 A 
BRANCH  54  68
ATOM     68  C   UNL A   1      40.667  31.681  35.647  1.00  0.00     0.023 A 
ATOM     69  C   UNL A   1      41.427  32.851  35.851  1.00  0.00     0.012 A 
ATOM     70  C   UNL A   1      39.483  31.481  36.381  1.00  0.00     0.148 A 
ATOM     71  C   UNL A   1      41.053  33.775  36.822  1.00  0.00     0.002 A 
ATOM     72  C   UNL A   1      39.085  32.438  37.305  1.00  0.00     0.091 A 
ATOM     73  F   UNL A   1      38.786  30.354  36.180  1.00  0.00    -0.205 F 
ATOM     74  C   UNL A   1      39.879  33.572  37.542  1.00  0.00     0.022 A 
BRANCH  72  75
ATOM     75  S   UNL A   1      37.547  32.314  38.219  1.00  0.00     0.127 S 
ATOM     76  O   UNL A   1      37.929  32.874  39.515  1.00  0.00    -0.237 OA
ATOM     77  O   UNL A   1      36.654  33.160  37.427  1.00  0.00    -0.237 OA
ATOM     78  O   UNL A   1      37.196  30.901  38.229  1.00  0.00    -0.744 OA
ENDBRANCH  72  75
ENDBRANCH  54  68
BRANCH  55  79
ATOM     79  C   UNL A   1      43.592  25.295  28.690  1.00  0.00     0.023 A 
ATOM     80  C   UNL A   1      43.114  23.964  28.688  1.00  0.00     0.012 A 
ATOM     81  C   UNL A   1      44.617  25.639  27.785  1.00  0.00     0.148 A 
ATOM     82  C   UNL A   1      43.675  22.993  27.850  1.00  0.00     0.002 A 
ATOM     83  C   UNL A   1      45.135  24.678  26.915  1.00  0.00     0.091 A 
ATOM     84  F   UNL A   1      45.085  26.894  27.809  1.00  0.00    -0.205 F 
ATOM     85  C   UNL A   1      44.681  23.351  26.961  1.00  0.00     0.022 A 
BRANCH  83  86
ATOM     86  S   UNL A   1      46.371  25.055  25.664  1.00  0.00     0.127 S 
ATOM     87  O   UNL A   1      47.587  24.517  26.267  1.00  0.00    -0.237 OA
ATOM     88  O   UNL A   1      45.868  24.300  24.516  1.00  0.00    -0.237 OA
ATOM     89  O   UNL A   1      46.337  26.501  25.502  1.00  0.00    -0.744 OA
ENDBRANCH  83  86
ENDBRANCH  55  79
BRANCH  67  90
ATOM     90  C   UNL A   1      45.886  26.769  35.139  1.00  0.00     0.023 A 
ATOM     91  C   UNL A   1      47.137  27.410  35.208  1.00  0.00     0.012 A 
ATOM     92  C   UNL A   1      45.609  25.704  36.023  1.00  0.00     0.148 A 
ATOM     93  C   UNL A   1      48.096  26.996  36.136  1.00  0.00     0.002 A 
ATOM     94  C   UNL A   1      46.547  25.333  36.980  1.00  0.00     0.091 A 
ATOM     95  F   UNL A   1      44.418  25.095  35.933  1.00  0.00    -0.205 F 
ATOM     96  C   UNL A   1      47.795  25.972  37.033  1.00  0.00     0.022 A 
BRANCH  94  97
ATOM     97  S   UNL A   1      46.203  24.103  38.246  1.00  0.00     0.127 S 
ATOM     98  O   UNL A   1      47.458  24.088  38.996  1.00  0.00    -0.237 OA
ATOM     99  O   UNL A   1      45.073  24.698  38.957  1.00  0.00    -0.237 OA
ATOM    100  O   UNL A   1      45.892  22.868  37.537  1.00  0.00    -0.744 OA
ENDBRANCH  94  97
ENDBRANCH  67  90
ENDBRANCH  41  42
ENDBRANCH  33  36
ENDBRANCH  31  32
ENDBRANCH  30  31
ENDBRANCH   1  30
TORSDOF 17
ENDMDL
MODEL 3
REMARK VINA RESULT:     -11.4      2.555      8.447
REMARK SMILES COc1cccc(N2/C(=[NH+]/C(=O)CCC(=O)NCCCNC(=O)c3ccc(-c4c5nc(c(-c6cccc(S(=O)(=O)[O-])c6F)c6ccc([nH]6)c(-c6cccc(S(=O)(=O)[O-])c6F)c6nc(c(-c7cccc(S(=O)(=O)[O-])c7F)c7ccc4[nH]7)C=C6)C=C5)cc3)S[C@@H]3CS(=O)(=O)C[C@H]32)c1
REMARK SMILES IDX 18 1 17 2 15 3 16 4 14 6 13 7 11 8 8 9 9 10 94 11 10 12
REMARK SMILES IDX 87 13 88 14 93 15 89 17 90 18 12 19 91 20 92 21 7 22 3 23
REMARK SMILES IDX 4 24 95 25 5 26 6 27 2 28 1 29 19 30 20 31 21 32 22 33 23 35
REMARK SMILES IDX 24 36 25 37 86 38 26 39 85 40 27 41 28 42 29 43 79 44 30 45
REMARK SMILES IDX 84 46 78 47 80 48 31 49 83 50 77 51 76 52 32 54 64 55 44 56
REMARK SMILES IDX 63 57 45 58 48 59 62 60 81 61 46 62 47 63 61 65 82 66 49 67
REMARK SMILES IDX 33 68 34 69 42 70 35 71 37 72 43 73 36 74 38 75 39 76 40 77
REMARK SMILES IDX 41 78 65 79 66 80 74 81 67 82 69 83 75 84 68 85 70 86 71 87
REMARK SMILES IDX 72 88 73 89 50 90 51 91 59 92 52 93 54 94 60 95 53 96 55 97
REMARK SMILES IDX 56 98 57 99 58 100
REMARK H PARENT 17 5 10 16 21 34 80 53 48 64
REMARK Flexibility Score: inf
ROOT
ATOM      1  C   UNL A   1      42.151  21.585  26.179  1.00  0.00     0.117 C 
ENDROOT
BRANCH   1   2
ATOM      2  N   UNL A   1      41.230  20.456  26.339  1.00  0.00    -0.356 N 
ATOM      3  C   UNL A   1      39.914  20.253  26.034  1.00  0.00     0.220 C 
ATOM      4  O   UNL A   1      39.498  19.091  26.079  1.00  0.00    -0.275 OA
ATOM      5  H   UNL A   1      41.652  19.672  26.759  1.00  0.00     0.163 HD
BRANCH   3   6
ATOM      6  C   UNL A   1      38.971  21.371  25.652  1.00  0.00     0.112 C 
BRANCH   6   7
ATOM      7  C   UNL A   1      37.907  20.858  24.681  1.00  0.00     0.138 C 
BRANCH   7   8
ATOM      8  C   UNL A   1      36.885  21.944  24.603  1.00  0.00     0.308 C 
ATOM      9  N   UNL A   1      33.291  22.032  24.398  1.00  0.00    -0.216 N 
ATOM     10  C   UNL A   1      34.656  22.280  24.140  1.00  0.00     0.319 C 
ATOM     11  C   UNL A   1      32.866  23.269  25.141  1.00  0.00     0.212 C 
ATOM     12  N   UNL A   1      35.611  21.471  24.454  1.00  0.00    -0.204 N 
ATOM     13  S   UNL A   1      34.904  23.971  23.633  1.00  0.00    -0.029 SA
ATOM     14  C   UNL A   1      33.315  24.456  24.254  1.00  0.00     0.120 C 
ATOM     15  C   UNL A   1      31.497  23.751  25.466  1.00  0.00     0.188 C 
ATOM     16  H   UNL A   1      35.423  20.513  24.586  1.00  0.00     0.316 HD
ATOM     17  C   UNL A   1      33.234  25.699  25.124  1.00  0.00     0.156 C 
ATOM     18  S   UNL A   1      31.644  25.481  25.886  1.00  0.00     0.155 S 
ATOM     19  O   UNL A   1      37.209  23.080  24.955  1.00  0.00    -0.247 OA
ATOM     20  O   UNL A   1      30.634  26.220  25.145  1.00  0.00    -0.229 OA
ATOM     21  O   UNL A   1      31.779  25.603  27.317  1.00  0.00    -0.229 OA
BRANCH   9  22
ATOM     22  C   UNL A   1      32.872  20.691  24.294  1.00  0.00     0.132 A 
ATOM     23  C   UNL A   1      32.657  18.285  25.034  1.00  0.00     0.123 A 
ATOM     24  C   UNL A   1      32.291  17.886  23.771  1.00  0.00     0.047 A 
ATOM     25  C   UNL A   1      32.859  19.665  25.271  1.00  0.00     0.098 A 
ATOM     26  C   UNL A   1      32.205  18.850  22.770  1.00  0.00     0.008 A 
ATOM     27  C   UNL A   1      32.528  20.207  23.021  1.00  0.00     0.052 A 
BRANCH  23  28
ATOM     28  O   UNL A   1      32.611  17.325  26.014  1.00  0.00    -0.497 OA
ATOM     29  C   UNL A   1      32.829  15.973  25.615  1.00  0.00     0.278 C 
ENDBRANCH  23  28
ENDBRANCH   9  22
ENDBRANCH   7   8
ENDBRANCH   6   7
ENDBRANCH   3   6
ENDBRANCH   1   2
BRANCH   1  30
ATOM     30  C   UNL A   1      43.593  21.269  25.659  1.00  0.00     0.042 C 
BRANCH  30  31
ATOM     31  C   UNL A   1      44.165  22.294  24.642  1.00  0.00     0.118 C 
BRANCH  31  32
ATOM     32  N   UNL A   1      43.621  23.727  24.557  1.00  0.00    -0.352 N 
ATOM     33  C   UNL A   1      44.190  24.927  25.147  1.00  0.00     0.251 C 
ATOM     34  H   UNL A   1      42.790  23.847  24.042  1.00  0.00     0.163 HD
ATOM     35  O   UNL A   1      45.262  25.351  24.722  1.00  0.00    -0.269 OA
BRANCH  33  36
ATOM     36  C   UNL A   1      43.370  25.820  26.161  1.00  0.00     0.039 A 
ATOM     37  C   UNL A   1      42.058  25.541  26.604  1.00  0.00     0.014 A 
ATOM     38  C   UNL A   1      43.935  26.936  26.770  1.00  0.00     0.014 A 
ATOM     39  C   UNL A   1      41.511  26.140  27.810  1.00  0.00     0.010 A 
ATOM     40  C   UNL A   1      43.445  27.476  27.996  1.00  0.00     0.010 A 
ATOM     41  C   UNL A   1      42.253  27.039  28.600  1.00  0.00    -0.014 A 
BRANCH  41  42
ATOM     42  C   UNL A   1      41.790  27.721  29.891  1.00  0.00     0.031 A 
ATOM     43  C   UNL A   1      40.578  28.622  29.775  1.00  0.00     0.074 A 
ATOM     44  C   UNL A   1      42.420  27.729  31.101  1.00  0.00     0.049 A 
ATOM     45  N   UNL A   1      40.060  29.460  30.637  1.00  0.00    -0.248 NA
ATOM     46  C   UNL A   1      39.886  28.585  28.479  1.00  0.00     0.031 C 
ATOM     47  C   UNL A   1      43.602  26.960  31.474  1.00  0.00     0.029 A 
ATOM     48  N   UNL A   1      42.160  28.460  32.262  1.00  0.00    -0.354 N 
ATOM     49  C   UNL A   1      39.011  30.083  29.971  1.00  0.00     0.074 A 
ATOM     50  C   UNL A   1      39.000  29.554  28.624  1.00  0.00     0.031 C 
ATOM     51  C   UNL A   1      43.986  27.277  32.729  1.00  0.00     0.029 A 
ATOM     52  C   UNL A   1      43.082  28.285  33.285  1.00  0.00     0.049 A 
ATOM     53  H   UNL A   1      41.381  29.055  32.349  1.00  0.00     0.167 HD
ATOM     54  C   UNL A   1      38.111  30.990  30.417  1.00  0.00     0.034 A 
ATOM     55  C   UNL A   1      43.200  28.847  34.518  1.00  0.00     0.034 A 
ATOM     56  C   UNL A   1      38.060  31.534  31.742  1.00  0.00     0.049 A 
ATOM     57  C   UNL A   1      42.187  29.878  34.999  1.00  0.00     0.074 A 
ATOM     58  C   UNL A   1      37.138  32.423  32.266  1.00  0.00     0.029 A 
ATOM     59  N   UNL A   1      38.967  31.260  32.748  1.00  0.00    -0.354 N 
ATOM     60  N   UNL A   1      41.125  30.340  34.387  1.00  0.00    -0.248 NA
ATOM     61  C   UNL A   1      42.368  30.441  36.354  1.00  0.00     0.031 C 
ATOM     62  C   UNL A   1      37.506  32.715  33.582  1.00  0.00     0.029 A 
ATOM     63  C   UNL A   1      38.627  31.965  33.890  1.00  0.00     0.049 A 
ATOM     64  H   UNL A   1      39.739  30.655  32.665  1.00  0.00     0.167 HD
ATOM     65  C   UNL A   1      40.487  31.184  35.298  1.00  0.00     0.074 A 
ATOM     66  C   UNL A   1      41.276  31.180  36.507  1.00  0.00     0.031 C 
ATOM     67  C   UNL A   1      39.347  31.898  35.135  1.00  0.00     0.034 A 
BRANCH  54  68
ATOM     68  C   UNL A   1      37.071  31.440  29.427  1.00  0.00     0.023 A 
ATOM     69  C   UNL A   1      37.033  32.791  29.023  1.00  0.00     0.012 A 
ATOM     70  C   UNL A   1      36.129  30.531  28.912  1.00  0.00     0.148 A 
ATOM     71  C   UNL A   1      36.029  33.244  28.172  1.00  0.00     0.002 A 
ATOM     72  C   UNL A   1      35.168  30.979  28.017  1.00  0.00     0.091 A 
ATOM     73  F   UNL A   1      36.176  29.256  29.324  1.00  0.00    -0.205 F 
ATOM     74  C   UNL A   1      35.103  32.338  27.664  1.00  0.00     0.022 A 
BRANCH  72  75
ATOM     75  S   UNL A   1      33.986  29.878  27.239  1.00  0.00     0.127 S 
ATOM     76  O   UNL A   1      33.670  28.963  28.334  1.00  0.00    -0.237 OA
ATOM     77  O   UNL A   1      32.906  30.797  26.879  1.00  0.00    -0.237 OA
ATOM     78  O   UNL A   1      34.678  29.279  26.106  1.00  0.00    -0.744 OA
ENDBRANCH  72  75
ENDBRANCH  54  68
BRANCH  55  79
ATOM     79  C   UNL A   1      44.297  28.451  35.476  1.00  0.00     0.023 A 
ATOM     80  C   UNL A   1      45.584  29.020  35.332  1.00  0.00     0.012 A 
ATOM     81  C   UNL A   1      44.116  27.446  36.447  1.00  0.00     0.148 A 
ATOM     82  C   UNL A   1      46.668  28.566  36.093  1.00  0.00     0.002 A 
ATOM     83  C   UNL A   1      45.189  27.036  37.240  1.00  0.00     0.091 A 
ATOM     84  F   UNL A   1      42.902  26.892  36.563  1.00  0.00    -0.205 F 
ATOM     85  C   UNL A   1      46.469  27.579  37.050  1.00  0.00     0.022 A 
BRANCH  83  86
ATOM     86  S   UNL A   1      45.023  25.833  38.568  1.00  0.00     0.127 S 
ATOM     87  O   UNL A   1      44.377  24.715  37.885  1.00  0.00    -0.237 OA
ATOM     88  O   UNL A   1      46.420  25.605  38.936  1.00  0.00    -0.237 OA
ATOM     89  O   UNL A   1      44.223  26.489  39.593  1.00  0.00    -0.744 OA
ENDBRANCH  83  86
ENDBRANCH  55  79
BRANCH  67  90
ATOM     90  C   UNL A   1      38.777  32.678  36.296  1.00  0.00     0.023 A 
ATOM     91  C   UNL A   1      37.753  32.134  37.096  1.00  0.00     0.012 A 
ATOM     92  C   UNL A   1      39.382  33.891  36.687  1.00  0.00     0.148 A 
ATOM     93  C   UNL A   1      37.337  32.788  38.258  1.00  0.00     0.002 A 
ATOM     94  C   UNL A   1      39.000  34.510  37.873  1.00  0.00     0.091 A 
ATOM     95  F   UNL A   1      40.344  34.403  35.906  1.00  0.00    -0.205 F 
ATOM     96  C   UNL A   1      37.972  33.964  38.655  1.00  0.00     0.022 A 
BRANCH  94  97
ATOM     97  S   UNL A   1      39.838  35.964  38.519  1.00  0.00     0.127 S 
ATOM     98  O   UNL A   1      41.191  35.456  38.738  1.00  0.00    -0.237 OA
ATOM     99  O   UNL A   1      39.713  36.911  37.412  1.00  0.00    -0.237 OA
ATOM    100  O   UNL A   1      39.117  36.343  39.727  1.00  0.00    -0.744 OA
ENDBRANCH  94  97
ENDBRANCH  67  90
ENDBRANCH  41  42
ENDBRANCH  33  36
ENDBRANCH  31  32
ENDBRANCH  30  31
ENDBRANCH   1  30
TORSDOF 17
ENDMDL
