MODEL 1
REMARK VINA RESULT:     -12.4      0.000      0.000
REMARK SMILES O=C(NCCCNC(=O)c1ccc(Cl)cc1-c1ccc(C(F)(F)F)cc1)c1ccc(-c2c3nc(c(-c4cccc(S(=O)(=O)[O-])c4F)c4ccc([nH]4)c(-c4cccc(S(=O)(=O)[O-])c4F)c4nc(c(-c5cccc(S(=O)(=O)[O-])c5F)c5ccc2[nH]5)C=C4)C=C3)cc1
REMARK SMILES IDX 4 1 3 2 1 3 2 4 27 6 28 7 89 8 29 9 88 10 30 11 31 12 32 13
REMARK SMILES IDX 82 14 33 15 87 16 81 17 83 18 34 19 86 20 80 21 79 22 35 24
REMARK SMILES IDX 67 25 47 26 66 27 48 28 51 29 65 30 84 31 49 32 50 33 64 35
REMARK SMILES IDX 85 36 52 37 36 38 37 39 45 40 38 41 40 42 46 43 39 44 41 45
REMARK SMILES IDX 42 46 43 47 44 48 68 49 69 50 77 51 70 52 72 53 78 54 71 55
REMARK SMILES IDX 73 56 74 57 75 58 76 59 53 60 54 61 62 62 55 63 57 64 63 65
REMARK SMILES IDX 56 66 58 67 59 68 60 69 61 70 5 71 6 72 7 73 8 74 9 76 10 77
REMARK SMILES IDX 11 78 16 79 12 80 15 81 13 82 14 83 17 84 18 85 26 86 19 87
REMARK SMILES IDX 25 88 20 89 21 90 22 91 23 92 24 93
REMARK H PARENT 3 5 83 23 51 34 7 75
REMARK Flexibility Score: inf
ROOT
ATOM      1  C   UNL A   1      33.916  28.852  26.332  1.00  0.00     0.118 C 
ENDROOT
BRANCH   1   2
ATOM      2  N   UNL A   1      33.851  30.247  26.745  1.00  0.00    -0.352 N 
ATOM      3  O   UNL A   1      34.291  32.066  27.987  1.00  0.00    -0.269 OA
ATOM      4  C   UNL A   1      34.645  30.946  27.621  1.00  0.00     0.251 C 
ATOM      5  H   UNL A   1      33.125  30.770  26.331  1.00  0.00     0.163 HD
BRANCH   4   6
ATOM      6  C   UNL A   1      35.899  30.353  28.132  1.00  0.00     0.039 A 
ATOM      7  C   UNL A   1      37.085  30.460  27.401  1.00  0.00     0.014 A 
ATOM      8  C   UNL A   1      35.904  29.717  29.376  1.00  0.00     0.014 A 
ATOM      9  C   UNL A   1      38.234  29.812  27.838  1.00  0.00     0.010 A 
ATOM     10  C   UNL A   1      37.087  29.154  29.865  1.00  0.00     0.010 A 
ATOM     11  C   UNL A   1      38.258  29.184  29.092  1.00  0.00    -0.014 A 
BRANCH  11  12
ATOM     12  C   UNL A   1      39.554  28.702  29.631  1.00  0.00     0.031 A 
ATOM     13  C   UNL A   1      40.261  29.415  30.748  1.00  0.00     0.074 A 
ATOM     14  C   UNL A   1      40.104  27.609  29.063  1.00  0.00     0.049 A 
ATOM     15  N   UNL A   1      41.404  29.120  31.310  1.00  0.00    -0.248 NA
ATOM     16  C   UNL A   1      39.612  30.614  31.305  1.00  0.00     0.031 C 
ATOM     17  C   UNL A   1      39.529  26.869  27.935  1.00  0.00     0.029 A 
ATOM     18  N   UNL A   1      41.271  26.942  29.333  1.00  0.00    -0.354 N 
ATOM     19  C   UNL A   1      41.639  30.115  32.250  1.00  0.00     0.074 A 
ATOM     20  C   UNL A   1      40.511  31.020  32.195  1.00  0.00     0.031 C 
ATOM     21  C   UNL A   1      40.341  25.852  27.612  1.00  0.00     0.029 A 
ATOM     22  C   UNL A   1      41.522  25.906  28.462  1.00  0.00     0.049 A 
ATOM     23  H   UNL A   1      41.871  27.181  30.076  1.00  0.00     0.167 HD
ATOM     24  C   UNL A   1      42.699  30.253  33.081  1.00  0.00     0.034 A 
ATOM     25  C   UNL A   1      42.601  25.114  28.328  1.00  0.00     0.034 A 
ATOM     26  C   UNL A   1      43.798  29.324  33.151  1.00  0.00     0.049 A 
ATOM     27  C   UNL A   1      43.754  25.296  29.270  1.00  0.00     0.074 A 
ATOM     28  C   UNL A   1      44.858  29.318  34.041  1.00  0.00     0.029 A 
ATOM     29  N   UNL A   1      43.995  28.260  32.287  1.00  0.00    -0.354 N 
ATOM     30  N   UNL A   1      43.871  26.132  30.273  1.00  0.00    -0.248 NA
ATOM     31  C   UNL A   1      44.914  24.416  29.079  1.00  0.00     0.031 C 
ATOM     32  C   UNL A   1      45.721  28.278  33.685  1.00  0.00     0.029 A 
ATOM     33  C   UNL A   1      45.182  27.616  32.594  1.00  0.00     0.049 A 
ATOM     34  H   UNL A   1      43.384  28.001  31.560  1.00  0.00     0.167 HD
ATOM     35  C   UNL A   1      45.111  25.869  30.840  1.00  0.00     0.074 A 
ATOM     36  C   UNL A   1      45.688  24.770  30.094  1.00  0.00     0.031 C 
ATOM     37  C   UNL A   1      45.728  26.498  31.869  1.00  0.00     0.034 A 
BRANCH  24  38
ATOM     38  C   UNL A   1      42.737  31.436  34.013  1.00  0.00     0.023 A 
ATOM     39  C   UNL A   1      43.279  32.658  33.571  1.00  0.00     0.012 A 
ATOM     40  C   UNL A   1      42.112  31.369  35.274  1.00  0.00     0.148 A 
ATOM     41  C   UNL A   1      43.207  33.795  34.376  1.00  0.00     0.002 A 
ATOM     42  C   UNL A   1      42.010  32.515  36.054  1.00  0.00     0.091 A 
ATOM     43  F   UNL A   1      41.618  30.191  35.680  1.00  0.00    -0.205 F 
ATOM     44  C   UNL A   1      42.562  33.728  35.609  1.00  0.00     0.022 A 
BRANCH  42  45
ATOM     45  S   UNL A   1      41.132  32.551  37.620  1.00  0.00     0.127 S 
ATOM     46  O   UNL A   1      41.955  31.663  38.440  1.00  0.00    -0.237 OA
ATOM     47  O   UNL A   1      41.214  33.966  37.984  1.00  0.00    -0.237 OA
ATOM     48  O   UNL A   1      39.787  32.068  37.342  1.00  0.00    -0.744 OA
ENDBRANCH  42  45
ENDBRANCH  24  38
BRANCH  25  49
ATOM     49  C   UNL A   1      42.642  24.090  27.246  1.00  0.00     0.023 A 
ATOM     50  C   UNL A   1      43.292  24.380  26.033  1.00  0.00     0.012 A 
ATOM     51  C   UNL A   1      42.052  22.823  27.426  1.00  0.00     0.148 A 
ATOM     52  C   UNL A   1      43.323  23.437  25.003  1.00  0.00     0.002 A 
ATOM     53  C   UNL A   1      42.142  21.868  26.422  1.00  0.00     0.091 A 
ATOM     54  F   UNL A   1      41.420  22.571  28.581  1.00  0.00    -0.205 F 
ATOM     55  C   UNL A   1      42.760  22.179  25.202  1.00  0.00     0.022 A 
BRANCH  53  56
ATOM     56  S   UNL A   1      41.572  20.182  26.660  1.00  0.00     0.127 S 
ATOM     57  O   UNL A   1      40.130  20.369  26.790  1.00  0.00    -0.237 OA
ATOM     58  O   UNL A   1      42.002  19.535  25.419  1.00  0.00    -0.237 OA
ATOM     59  O   UNL A   1      42.265  19.705  27.850  1.00  0.00    -0.744 OA
ENDBRANCH  53  56
ENDBRANCH  25  49
BRANCH  37  60
ATOM     60  C   UNL A   1      47.097  26.011  32.258  1.00  0.00     0.023 A 
ATOM     61  C   UNL A   1      48.235  26.569  31.640  1.00  0.00     0.012 A 
ATOM     62  C   UNL A   1      47.261  25.057  33.280  1.00  0.00     0.148 A 
ATOM     63  C   UNL A   1      49.514  26.162  32.012  1.00  0.00     0.002 A 
ATOM     64  C   UNL A   1      48.540  24.694  33.681  1.00  0.00     0.091 A 
ATOM     65  F   UNL A   1      46.165  24.529  33.844  1.00  0.00    -0.205 F 
ATOM     66  C   UNL A   1      49.667  25.234  33.040  1.00  0.00     0.022 A 
BRANCH  64  67
ATOM     67  S   UNL A   1      48.842  23.578  35.056  1.00  0.00     0.127 S 
ATOM     68  O   UNL A   1      48.292  22.322  34.548  1.00  0.00    -0.237 OA
ATOM     69  O   UNL A   1      50.300  23.608  35.163  1.00  0.00    -0.237 OA
ATOM     70  O   UNL A   1      48.138  24.145  36.199  1.00  0.00    -0.744 OA
ENDBRANCH  64  67
ENDBRANCH  37  60
ENDBRANCH  11  12
ENDBRANCH   4   6
ENDBRANCH   1   2
BRANCH   1  71
ATOM     71  C   UNL A   1      32.541  28.231  26.142  1.00  0.00     0.042 C 
BRANCH  71  72
ATOM     72  C   UNL A   1      32.471  26.756  26.503  1.00  0.00     0.118 C 
BRANCH  72  73
ATOM     73  N   UNL A   1      31.136  26.334  26.906  1.00  0.00    -0.352 N 
ATOM     74  C   UNL A   1      30.310  25.369  26.384  1.00  0.00     0.251 C 
ATOM     75  H   UNL A   1      30.765  26.819  27.678  1.00  0.00     0.163 HD
ATOM     76  O   UNL A   1      29.197  25.190  26.867  1.00  0.00    -0.269 OA
BRANCH  74  77
ATOM     77  C   UNL A   1      30.781  24.524  25.263  1.00  0.00     0.047 A 
ATOM     78  C   UNL A   1      31.225  23.223  25.569  1.00  0.00     0.016 A 
ATOM     79  C   UNL A   1      30.722  24.966  23.923  1.00  0.00    -0.004 A 
ATOM     80  C   UNL A   1      31.703  22.384  24.567  1.00  0.00     0.021 A 
ATOM     81  C   UNL A   1      31.206  24.091  22.927  1.00  0.00     0.030 A 
ATOM     82  C   UNL A   1      31.700  22.826  23.249  1.00  0.00     0.041 A 
ATOM     83  Cl  UNL A   1      32.288  21.795  22.004  1.00  0.00    -0.084 Cl
BRANCH  79  84
ATOM     84  C   UNL A   1      30.158  26.263  23.507  1.00  0.00    -0.018 A 
ATOM     85  C   UNL A   1      30.989  27.227  22.909  1.00  0.00     0.009 A 
ATOM     86  C   UNL A   1      28.809  26.588  23.704  1.00  0.00     0.009 A 
ATOM     87  C   UNL A   1      30.491  28.474  22.521  1.00  0.00     0.014 A 
ATOM     88  C   UNL A   1      28.306  27.836  23.314  1.00  0.00     0.014 A 
ATOM     89  C   UNL A   1      29.141  28.791  22.718  1.00  0.00     0.056 A 
BRANCH  89  90
ATOM     90  C   UNL A   1      28.622  30.143  22.294  1.00  0.00     0.416 C 
ATOM     91  F   UNL A   1      28.879  30.408  20.981  1.00  0.00    -0.166 F 
ATOM     92  F   UNL A   1      27.271  30.253  22.433  1.00  0.00    -0.166 F 
ATOM     93  F   UNL A   1      29.154  31.183  22.993  1.00  0.00    -0.166 F 
ENDBRANCH  89  90
ENDBRANCH  79  84
ENDBRANCH  74  77
ENDBRANCH  72  73
ENDBRANCH  71  72
ENDBRANCH   1  71
TORSDOF 15
ENDMDL
MODEL 2
REMARK VINA RESULT:     -12.3      2.365      3.177
REMARK SMILES O=C(NCCCNC(=O)c1ccc(Cl)cc1-c1ccc(C(F)(F)F)cc1)c1ccc(-c2c3nc(c(-c4cccc(S(=O)(=O)[O-])c4F)c4ccc([nH]4)c(-c4cccc(S(=O)(=O)[O-])c4F)c4nc(c(-c5cccc(S(=O)(=O)[O-])c5F)c5ccc2[nH]5)C=C4)C=C3)cc1
REMARK SMILES IDX 4 1 3 2 1 3 2 4 27 6 28 7 89 8 29 9 88 10 30 11 31 12 32 13
REMARK SMILES IDX 82 14 33 15 87 16 81 17 83 18 34 19 86 20 80 21 79 22 35 24
REMARK SMILES IDX 67 25 47 26 66 27 48 28 51 29 65 30 84 31 49 32 50 33 64 35
REMARK SMILES IDX 85 36 52 37 36 38 37 39 45 40 38 41 40 42 46 43 39 44 41 45
REMARK SMILES IDX 42 46 43 47 44 48 68 49 69 50 77 51 70 52 72 53 78 54 71 55
REMARK SMILES IDX 73 56 74 57 75 58 76 59 53 60 54 61 62 62 55 63 57 64 63 65
REMARK SMILES IDX 56 66 58 67 59 68 60 69 61 70 5 71 6 72 7 73 8 74 9 76 10 77
REMARK SMILES IDX 11 78 16 79 12 80 15 81 13 82 14 83 17 84 18 85 26 86 19 87
REMARK SMILES IDX 25 88 20 89 21 90 22 91 23 92 24 93
REMARK H PARENT 3 5 83 23 51 34 7 75
REMARK Flexibility Score: inf
ROOT
ATOM      1  C   UNL A   1      33.749  28.999  24.913  1.00  0.00     0.118 C 
ENDROOT
BRANCH   1   2
ATOM      2  N   UNL A   1      33.072  30.191  25.403  1.00  0.00    -0.352 N 
ATOM      3  O   UNL A   1      32.426  31.748  26.887  1.00  0.00    -0.269 OA
ATOM      4  C   UNL A   1      33.247  30.887  26.574  1.00  0.00     0.251 C 
ATOM      5  H   UNL A   1      32.381  30.554  24.801  1.00  0.00     0.163 HD
BRANCH   4   6
ATOM      6  C   UNL A   1      34.396  30.592  27.455  1.00  0.00     0.039 A 
ATOM      7  C   UNL A   1      34.522  29.342  28.066  1.00  0.00     0.014 A 
ATOM      8  C   UNL A   1      35.386  31.562  27.645  1.00  0.00     0.014 A 
ATOM      9  C   UNL A   1      35.549  29.110  28.973  1.00  0.00     0.010 A 
ATOM     10  C   UNL A   1      36.476  31.290  28.477  1.00  0.00     0.010 A 
ATOM     11  C   UNL A   1      36.558  30.066  29.160  1.00  0.00    -0.014 A 
BRANCH  11  12
ATOM     12  C   UNL A   1      37.757  29.702  29.954  1.00  0.00     0.031 A 
ATOM     13  C   UNL A   1      38.003  30.271  31.322  1.00  0.00     0.074 A 
ATOM     14  C   UNL A   1      38.650  28.860  29.395  1.00  0.00     0.049 A 
ATOM     15  N   UNL A   1      39.012  30.057  32.126  1.00  0.00    -0.248 NA
ATOM     16  C   UNL A   1      36.997  31.201  31.861  1.00  0.00     0.031 C 
ATOM     17  C   UNL A   1      38.537  28.289  28.048  1.00  0.00     0.029 A 
ATOM     18  N   UNL A   1      39.833  28.352  29.869  1.00  0.00    -0.354 N 
ATOM     19  C   UNL A   1      38.793  30.856  33.240  1.00  0.00     0.074 A 
ATOM     20  C   UNL A   1      37.545  31.554  33.018  1.00  0.00     0.031 C 
ATOM     21  C   UNL A   1      39.602  27.512  27.807  1.00  0.00     0.029 A 
ATOM     22  C   UNL A   1      40.502  27.579  28.949  1.00  0.00     0.049 A 
ATOM     23  H   UNL A   1      40.169  28.525  30.778  1.00  0.00     0.167 HD
ATOM     24  C   UNL A   1      39.566  30.989  34.344  1.00  0.00     0.034 A 
ATOM     25  C   UNL A   1      41.726  27.023  28.995  1.00  0.00     0.034 A 
ATOM     26  C   UNL A   1      40.788  30.261  34.568  1.00  0.00     0.049 A 
ATOM     27  C   UNL A   1      42.551  27.190  30.238  1.00  0.00     0.074 A 
ATOM     28  C   UNL A   1      41.578  30.242  35.704  1.00  0.00     0.029 A 
ATOM     29  N   UNL A   1      41.413  29.450  33.635  1.00  0.00    -0.354 N 
ATOM     30  N   UNL A   1      42.239  27.803  31.353  1.00  0.00    -0.248 NA
ATOM     31  C   UNL A   1      43.883  26.573  30.239  1.00  0.00     0.031 C 
ATOM     32  C   UNL A   1      42.704  29.458  35.442  1.00  0.00     0.029 A 
ATOM     33  C   UNL A   1      42.600  28.961  34.154  1.00  0.00     0.049 A 
ATOM     34  H   UNL A   1      41.066  29.253  32.735  1.00  0.00     0.167 HD
ATOM     35  C   UNL A   1      43.332  27.635  32.193  1.00  0.00     0.074 A 
ATOM     36  C   UNL A   1      44.295  26.828  31.472  1.00  0.00     0.031 C 
ATOM     37  C   UNL A   1      43.532  28.127  33.440  1.00  0.00     0.034 A 
BRANCH  24  38
ATOM     38  C   UNL A   1      39.122  31.939  35.425  1.00  0.00     0.023 A 
ATOM     39  C   UNL A   1      38.307  31.475  36.475  1.00  0.00     0.012 A 
ATOM     40  C   UNL A   1      39.628  33.254  35.469  1.00  0.00     0.148 A 
ATOM     41  C   UNL A   1      37.993  32.309  37.548  1.00  0.00     0.002 A 
ATOM     42  C   UNL A   1      39.343  34.066  36.560  1.00  0.00     0.091 A 
ATOM     43  F   UNL A   1      40.389  33.679  34.450  1.00  0.00    -0.205 F 
ATOM     44  C   UNL A   1      38.520  33.597  37.598  1.00  0.00     0.022 A 
BRANCH  42  45
ATOM     45  S   UNL A   1      40.037  35.711  36.756  1.00  0.00     0.127 S 
ATOM     46  O   UNL A   1      39.402  36.152  37.998  1.00  0.00    -0.237 OA
ATOM     47  O   UNL A   1      41.468  35.428  36.871  1.00  0.00    -0.237 OA
ATOM     48  O   UNL A   1      39.654  36.457  35.566  1.00  0.00    -0.744 OA
ENDBRANCH  42  45
ENDBRANCH  24  38
BRANCH  25  49
ATOM     49  C   UNL A   1      42.247  26.271  27.819  1.00  0.00     0.023 A 
ATOM     50  C   UNL A   1      43.097  26.911  26.899  1.00  0.00     0.012 A 
ATOM     51  C   UNL A   1      41.913  24.916  27.621  1.00  0.00     0.148 A 
ATOM     52  C   UNL A   1      43.578  26.224  25.782  1.00  0.00     0.002 A 
ATOM     53  C   UNL A   1      42.447  24.221  26.543  1.00  0.00     0.091 A 
ATOM     54  F   UNL A   1      41.087  24.327  28.496  1.00  0.00    -0.205 F 
ATOM     55  C   UNL A   1      43.263  24.878  25.611  1.00  0.00     0.022 A 
BRANCH  53  56
ATOM     56  S   UNL A   1      42.207  22.454  26.338  1.00  0.00     0.127 S 
ATOM     57  O   UNL A   1      40.767  22.371  26.110  1.00  0.00    -0.237 OA
ATOM     58  O   UNL A   1      43.036  22.166  25.166  1.00  0.00    -0.237 OA
ATOM     59  O   UNL A   1      42.694  21.853  27.573  1.00  0.00    -0.744 OA
ENDBRANCH  53  56
ENDBRANCH  25  49
BRANCH  37  60
ATOM     60  C   UNL A   1      44.839  27.801  34.111  1.00  0.00     0.023 A 
ATOM     61  C   UNL A   1      45.906  28.718  34.035  1.00  0.00     0.012 A 
ATOM     62  C   UNL A   1      44.986  26.627  34.873  1.00  0.00     0.148 A 
ATOM     63  C   UNL A   1      47.111  28.456  34.682  1.00  0.00     0.002 A 
ATOM     64  C   UNL A   1      46.173  26.397  35.557  1.00  0.00     0.091 A 
ATOM     65  F   UNL A   1      43.962  25.762  34.920  1.00  0.00    -0.205 F 
ATOM     66  C   UNL A   1      47.241  27.303  35.453  1.00  0.00     0.022 A 
BRANCH  64  67
ATOM     67  S   UNL A   1      46.403  24.989  36.648  1.00  0.00     0.127 S 
ATOM     68  O   UNL A   1      47.758  25.217  37.148  1.00  0.00    -0.237 OA
ATOM     69  O   UNL A   1      45.345  25.189  37.637  1.00  0.00    -0.237 OA
ATOM     70  O   UNL A   1      46.241  23.802  35.818  1.00  0.00    -0.744 OA
ENDBRANCH  64  67
ENDBRANCH  37  60
ENDBRANCH  11  12
ENDBRANCH   4   6
ENDBRANCH   1   2
BRANCH   1  71
ATOM     71  C   UNL A   1      33.764  28.914  23.394  1.00  0.00     0.042 C 
BRANCH  71  72
ATOM     72  C   UNL A   1      33.890  27.499  22.853  1.00  0.00     0.118 C 
BRANCH  72  73
ATOM     73  N   UNL A   1      32.940  27.213  21.785  1.00  0.00    -0.352 N 
ATOM     74  C   UNL A   1      31.816  26.425  21.779  1.00  0.00     0.251 C 
ATOM     75  H   UNL A   1      33.136  27.658  20.929  1.00  0.00     0.163 HD
ATOM     76  O   UNL A   1      31.162  26.301  20.749  1.00  0.00    -0.269 OA
BRANCH  74  77
ATOM     77  C   UNL A   1      31.377  25.758  23.027  1.00  0.00     0.047 A 
ATOM     78  C   UNL A   1      32.019  24.557  23.383  1.00  0.00     0.016 A 
ATOM     79  C   UNL A   1      30.406  26.332  23.875  1.00  0.00    -0.004 A 
ATOM     80  C   UNL A   1      31.641  23.865  24.530  1.00  0.00     0.021 A 
ATOM     81  C   UNL A   1      30.046  25.613  25.035  1.00  0.00     0.030 A 
ATOM     82  C   UNL A   1      30.648  24.393  25.347  1.00  0.00     0.041 A 
ATOM     83  Cl  UNL A   1      30.174  23.544  26.767  1.00  0.00    -0.084 Cl
BRANCH  79  84
ATOM     84  C   UNL A   1      29.775  27.644  23.638  1.00  0.00    -0.018 A 
ATOM     85  C   UNL A   1      30.475  28.823  23.948  1.00  0.00     0.009 A 
ATOM     86  C   UNL A   1      28.476  27.765  23.125  1.00  0.00     0.009 A 
ATOM     87  C   UNL A   1      29.899  30.081  23.754  1.00  0.00     0.014 A 
ATOM     88  C   UNL A   1      27.896  29.025  22.927  1.00  0.00     0.014 A 
ATOM     89  C   UNL A   1      28.601  30.196  23.239  1.00  0.00     0.056 A 
BRANCH  89  90
ATOM     90  C   UNL A   1      27.995  31.563  23.038  1.00  0.00     0.416 C 
ATOM     91  F   UNL A   1      26.910  31.770  23.837  1.00  0.00    -0.166 F 
ATOM     92  F   UNL A   1      28.865  32.571  23.331  1.00  0.00    -0.166 F 
ATOM     93  F   UNL A   1      27.569  31.796  21.766  1.00  0.00    -0.166 F 
ENDBRANCH  89  90
ENDBRANCH  79  84
ENDBRANCH  74  77
ENDBRANCH  72  73
ENDBRANCH  71  72
ENDBRANCH   1  71
TORSDOF 15
ENDMDL
MODEL 3
REMARK VINA RESULT:     -12.3      1.296      1.545
REMARK SMILES O=C(NCCCNC(=O)c1ccc(Cl)cc1-c1ccc(C(F)(F)F)cc1)c1ccc(-c2c3nc(c(-c4cccc(S(=O)(=O)[O-])c4F)c4ccc([nH]4)c(-c4cccc(S(=O)(=O)[O-])c4F)c4nc(c(-c5cccc(S(=O)(=O)[O-])c5F)c5ccc2[nH]5)C=C4)C=C3)cc1
REMARK SMILES IDX 4 1 3 2 1 3 2 4 27 6 28 7 89 8 29 9 88 10 30 11 31 12 32 13
REMARK SMILES IDX 82 14 33 15 87 16 81 17 83 18 34 19 86 20 80 21 79 22 35 24
REMARK SMILES IDX 67 25 47 26 66 27 48 28 51 29 65 30 84 31 49 32 50 33 64 35
REMARK SMILES IDX 85 36 52 37 36 38 37 39 45 40 38 41 40 42 46 43 39 44 41 45
REMARK SMILES IDX 42 46 43 47 44 48 68 49 69 50 77 51 70 52 72 53 78 54 71 55
REMARK SMILES IDX 73 56 74 57 75 58 76 59 53 60 54 61 62 62 55 63 57 64 63 65
REMARK SMILES IDX 56 66 58 67 59 68 60 69 61 70 5 71 6 72 7 73 8 74 9 76 10 77
REMARK SMILES IDX 11 78 16 79 12 80 15 81 13 82 14 83 17 84 18 85 26 86 19 87
REMARK SMILES IDX 25 88 20 89 21 90 22 91 23 92 24 93
REMARK H PARENT 3 5 83 23 51 34 7 75
REMARK Flexibility Score: inf
ROOT
ATOM      1  C   UNL A   1      33.966  28.862  26.264  1.00  0.00     0.118 C 
ENDROOT
BRANCH   1   2
ATOM      2  N   UNL A   1      33.878  30.244  26.713  1.00  0.00    -0.352 N 
ATOM      3  O   UNL A   1      34.285  32.035  28.007  1.00  0.00    -0.269 OA
ATOM      4  C   UNL A   1      34.657  30.931  27.612  1.00  0.00     0.251 C 
ATOM      5  H   UNL A   1      33.147  30.767  26.311  1.00  0.00     0.163 HD
BRANCH   4   6
ATOM      6  C   UNL A   1      35.918  30.343  28.113  1.00  0.00     0.039 A 
ATOM      7  C   UNL A   1      37.098  30.455  27.374  1.00  0.00     0.014 A 
ATOM      8  C   UNL A   1      35.935  29.705  29.357  1.00  0.00     0.014 A 
ATOM      9  C   UNL A   1      38.252  29.811  27.802  1.00  0.00     0.010 A 
ATOM     10  C   UNL A   1      37.123  29.147  29.837  1.00  0.00     0.010 A 
ATOM     11  C   UNL A   1      38.289  29.182  29.055  1.00  0.00    -0.014 A 
BRANCH  11  12
ATOM     12  C   UNL A   1      39.590  28.706  29.585  1.00  0.00     0.031 A 
ATOM     13  C   UNL A   1      40.297  29.415  30.704  1.00  0.00     0.074 A 
ATOM     14  C   UNL A   1      40.146  27.622  29.005  1.00  0.00     0.049 A 
ATOM     15  N   UNL A   1      41.445  29.123  31.259  1.00  0.00    -0.248 NA
ATOM     16  C   UNL A   1      39.642  30.604  31.274  1.00  0.00     0.031 C 
ATOM     17  C   UNL A   1      39.571  26.886  27.873  1.00  0.00     0.029 A 
ATOM     18  N   UNL A   1      41.319  26.960  29.264  1.00  0.00    -0.354 N 
ATOM     19  C   UNL A   1      41.677  30.112  32.206  1.00  0.00     0.074 A 
ATOM     20  C   UNL A   1      40.542  31.009  32.163  1.00  0.00     0.031 C 
ATOM     21  C   UNL A   1      40.388  25.878  27.539  1.00  0.00     0.029 A 
ATOM     22  C   UNL A   1      41.573  25.934  28.384  1.00  0.00     0.049 A 
ATOM     23  H   UNL A   1      41.920  27.198  30.007  1.00  0.00     0.167 HD
ATOM     24  C   UNL A   1      42.740  30.251  33.033  1.00  0.00     0.034 A 
ATOM     25  C   UNL A   1      42.657  25.151  28.238  1.00  0.00     0.034 A 
ATOM     26  C   UNL A   1      43.846  29.330  33.090  1.00  0.00     0.049 A 
ATOM     27  C   UNL A   1      43.813  25.333  29.176  1.00  0.00     0.074 A 
ATOM     28  C   UNL A   1      44.910  29.324  33.975  1.00  0.00     0.029 A 
ATOM     29  N   UNL A   1      44.047  28.274  32.216  1.00  0.00    -0.354 N 
ATOM     30  N   UNL A   1      43.929  26.161  30.185  1.00  0.00    -0.248 NA
ATOM     31  C   UNL A   1      44.978  24.463  28.973  1.00  0.00     0.031 C 
ATOM     32  C   UNL A   1      45.779  28.293  33.606  1.00  0.00     0.029 A 
ATOM     33  C   UNL A   1      45.240  27.637  32.513  1.00  0.00     0.049 A 
ATOM     34  H   UNL A   1      43.434  28.017  31.491  1.00  0.00     0.167 HD
ATOM     35  C   UNL A   1      45.173  25.903  30.745  1.00  0.00     0.074 A 
ATOM     36  C   UNL A   1      45.755  24.814  29.987  1.00  0.00     0.031 C 
ATOM     37  C   UNL A   1      45.790  26.529  31.776  1.00  0.00     0.034 A 
BRANCH  24  38
ATOM     38  C   UNL A   1      42.774  31.427  33.974  1.00  0.00     0.023 A 
ATOM     39  C   UNL A   1      43.295  32.659  33.537  1.00  0.00     0.012 A 
ATOM     40  C   UNL A   1      42.164  31.341  35.242  1.00  0.00     0.148 A 
ATOM     41  C   UNL A   1      43.218  33.789  34.352  1.00  0.00     0.002 A 
ATOM     42  C   UNL A   1      42.057  32.479  36.032  1.00  0.00     0.091 A 
ATOM     43  F   UNL A   1      41.690  30.153  35.643  1.00  0.00    -0.205 F 
ATOM     44  C   UNL A   1      42.588  33.703  35.591  1.00  0.00     0.022 A 
BRANCH  42  45
ATOM     45  S   UNL A   1      41.196  32.491  37.609  1.00  0.00     0.127 S 
ATOM     46  O   UNL A   1      42.041  31.608  38.412  1.00  0.00    -0.237 OA
ATOM     47  O   UNL A   1      41.264  33.904  37.983  1.00  0.00    -0.237 OA
ATOM     48  O   UNL A   1      39.855  31.992  37.342  1.00  0.00    -0.744 OA
ENDBRANCH  42  45
ENDBRANCH  24  38
BRANCH  25  49
ATOM     49  C   UNL A   1      42.701  24.136  27.148  1.00  0.00     0.023 A 
ATOM     50  C   UNL A   1      43.395  24.417  25.957  1.00  0.00     0.012 A 
ATOM     51  C   UNL A   1      42.069  22.885  27.297  1.00  0.00     0.148 A 
ATOM     52  C   UNL A   1      43.429  23.483  24.919  1.00  0.00     0.002 A 
ATOM     53  C   UNL A   1      42.161  21.937  26.287  1.00  0.00     0.091 A 
ATOM     54  F   UNL A   1      41.396  22.641  28.430  1.00  0.00    -0.205 F 
ATOM     55  C   UNL A   1      42.823  22.241  25.089  1.00  0.00     0.022 A 
BRANCH  53  56
ATOM     56  S   UNL A   1      41.536  20.266  26.491  1.00  0.00     0.127 S 
ATOM     57  O   UNL A   1      40.098  20.463  26.330  1.00  0.00    -0.237 OA
ATOM     58  O   UNL A   1      42.190  19.557  25.390  1.00  0.00    -0.237 OA
ATOM     59  O   UNL A   1      41.980  19.847  27.814  1.00  0.00    -0.744 OA
ENDBRANCH  53  56
ENDBRANCH  25  49
BRANCH  37  60
ATOM     60  C   UNL A   1      47.165  26.048  32.155  1.00  0.00     0.023 A 
ATOM     61  C   UNL A   1      47.319  25.180  33.254  1.00  0.00     0.012 A 
ATOM     62  C   UNL A   1      48.290  26.396  31.383  1.00  0.00     0.148 A 
ATOM     63  C   UNL A   1      48.577  24.690  33.598  1.00  0.00     0.002 A 
ATOM     64  C   UNL A   1      49.532  25.864  31.701  1.00  0.00     0.091 A 
ATOM     65  F   UNL A   1      48.121  27.235  30.350  1.00  0.00    -0.205 F 
ATOM     66  C   UNL A   1      49.681  25.022  32.815  1.00  0.00     0.022 A 
BRANCH  64  67
ATOM     67  S   UNL A   1      50.994  26.157  30.700  1.00  0.00     0.127 S 
ATOM     68  O   UNL A   1      52.021  25.440  31.455  1.00  0.00    -0.237 OA
ATOM     69  O   UNL A   1      50.627  25.537  29.428  1.00  0.00    -0.237 OA
ATOM     70  O   UNL A   1      51.164  27.603  30.644  1.00  0.00    -0.744 OA
ENDBRANCH  64  67
ENDBRANCH  37  60
ENDBRANCH  11  12
ENDBRANCH   4   6
ENDBRANCH   1   2
BRANCH   1  71
ATOM     71  C   UNL A   1      32.601  28.222  26.061  1.00  0.00     0.042 C 
BRANCH  71  72
ATOM     72  C   UNL A   1      32.527  26.767  26.493  1.00  0.00     0.118 C 
BRANCH  72  73
ATOM     73  N   UNL A   1      31.185  26.361  26.891  1.00  0.00    -0.352 N 
ATOM     74  C   UNL A   1      30.355  25.397  26.374  1.00  0.00     0.251 C 
ATOM     75  H   UNL A   1      30.813  26.858  27.655  1.00  0.00     0.163 HD
ATOM     76  O   UNL A   1      29.237  25.232  26.851  1.00  0.00    -0.269 OA
BRANCH  74  77
ATOM     77  C   UNL A   1      30.828  24.534  25.266  1.00  0.00     0.047 A 
ATOM     78  C   UNL A   1      31.246  23.229  25.589  1.00  0.00     0.016 A 
ATOM     79  C   UNL A   1      30.793  24.966  23.922  1.00  0.00    -0.004 A 
ATOM     80  C   UNL A   1      31.723  22.374  24.600  1.00  0.00     0.021 A 
ATOM     81  C   UNL A   1      31.276  24.075  22.940  1.00  0.00     0.030 A 
ATOM     82  C   UNL A   1      31.745  22.805  23.280  1.00  0.00     0.041 A 
ATOM     83  Cl  UNL A   1      32.333  21.754  22.051  1.00  0.00    -0.084 Cl
BRANCH  79  84
ATOM     84  C   UNL A   1      30.257  26.268  23.487  1.00  0.00    -0.018 A 
ATOM     85  C   UNL A   1      31.098  27.192  22.845  1.00  0.00     0.009 A 
ATOM     86  C   UNL A   1      28.923  26.637  23.711  1.00  0.00     0.009 A 
ATOM     87  C   UNL A   1      30.627  28.443  22.438  1.00  0.00     0.014 A 
ATOM     88  C   UNL A   1      28.445  27.890  23.302  1.00  0.00     0.014 A 
ATOM     89  C   UNL A   1      29.292  28.805  22.661  1.00  0.00     0.056 A 
BRANCH  89  90
ATOM     90  C   UNL A   1      28.801  30.161  22.216  1.00  0.00     0.416 C 
ATOM     91  F   UNL A   1      27.445  30.199  22.075  1.00  0.00    -0.166 F 
ATOM     92  F   UNL A   1      29.106  31.147  23.107  1.00  0.00    -0.166 F 
ATOM     93  F   UNL A   1      29.310  30.568  21.021  1.00  0.00    -0.166 F 
ENDBRANCH  89  90
ENDBRANCH  79  84
ENDBRANCH  74  77
ENDBRANCH  72  73
ENDBRANCH  71  72
ENDBRANCH   1  71
TORSDOF 15
ENDMDL
