MODEL 1
REMARK VINA RESULT:     -12.4      0.000      0.000
REMARK SMILES O=C(CCc1cccnc1)Nc1cccc(F)c1C(=O)NCCCNC(=O)c1ccc(-c2c3nc(c(-c4cccc(S(=O)(=O)[O-])c4F)c4ccc([nH]4)c(-c4cccc(S(=O)(=O)[O-])c4F)c4nc(c(-c5cccc(S(=O)(=O)[O-])c5F)c5ccc2[nH]5)C=C4)C=C3)cc1
REMARK SMILES IDX 22 1 21 2 19 3 20 4 18 6 12 7 13 8 14 9 16 10 15 11 17 12
REMARK SMILES IDX 11 13 1 14 2 15 3 17 4 18 5 19 6 20 10 21 7 22 9 23 8 24
REMARK SMILES IDX 23 25 24 26 25 27 26 28 27 30 28 31 29 32 90 33 30 34 89 35
REMARK SMILES IDX 31 36 32 37 33 38 83 39 34 40 88 41 82 42 84 43 35 44 87 45
REMARK SMILES IDX 81 46 80 47 36 49 68 50 48 51 67 52 49 53 52 54 66 55 85 56
REMARK SMILES IDX 50 57 51 58 65 60 86 61 53 62 37 63 38 64 46 65 39 66 41 67
REMARK SMILES IDX 47 68 40 69 42 70 43 71 44 72 45 73 69 74 70 75 78 76 71 77
REMARK SMILES IDX 73 78 79 79 72 80 74 81 75 82 76 83 77 84 54 85 55 86 63 87
REMARK SMILES IDX 56 88 58 89 64 90 57 91 59 92 60 93 61 94 62 95
REMARK H PARENT 21 5 11 16 25 29 84 48 52 59
REMARK Flexibility Score: inf
ROOT
ATOM      1  C   UNL A   1      35.972  23.345  25.957  1.00  0.00     0.118 C 
ENDROOT
BRANCH   1   2
ATOM      2  N   UNL A   1      34.572  23.450  26.321  1.00  0.00    -0.352 N 
ATOM      3  C   UNL A   1      33.536  24.268  25.968  1.00  0.00     0.256 C 
ATOM      4  O   UNL A   1      32.447  23.923  26.436  1.00  0.00    -0.269 OA
ATOM      5  H   UNL A   1      34.304  22.769  26.978  1.00  0.00     0.163 HD
BRANCH   3   6
ATOM      6  C   UNL A   1      33.561  25.452  25.059  1.00  0.00     0.099 A 
ATOM      7  C   UNL A   1      33.473  25.245  23.645  1.00  0.00     0.056 A 
ATOM      8  C   UNL A   1      33.537  26.351  22.780  1.00  0.00     0.027 A 
ATOM      9  C   UNL A   1      33.672  27.646  23.273  1.00  0.00     0.005 A 
ATOM     10  C   UNL A   1      33.625  26.770  25.518  1.00  0.00     0.138 A 
ATOM     11  C   UNL A   1      33.707  27.854  24.642  1.00  0.00     0.040 A 
ATOM     12  F   UNL A   1      33.536  27.078  26.815  1.00  0.00    -0.206 F 
BRANCH   7  13
ATOM     13  N   UNL A   1      33.222  23.941  23.117  1.00  0.00    -0.325 N 
ATOM     14  O   UNL A   1      30.930  23.730  23.338  1.00  0.00    -0.275 OA
ATOM     15  C   UNL A   1      32.037  23.243  23.102  1.00  0.00     0.224 C 
ATOM     16  H   UNL A   1      33.995  23.485  22.712  1.00  0.00     0.169 HD
BRANCH  15  17
ATOM     17  C   UNL A   1      32.141  21.738  22.871  1.00  0.00     0.105 C 
BRANCH  17  18
ATOM     18  C   UNL A   1      32.407  20.839  24.079  1.00  0.00     0.047 C 
BRANCH  18  19
ATOM     19  C   UNL A   1      32.933  19.451  23.817  1.00  0.00    -0.029 A 
ATOM     20  C   UNL A   1      34.028  18.977  24.550  1.00  0.00     0.007 A 
ATOM     21  C   UNL A   1      32.399  18.587  22.863  1.00  0.00     0.114 A 
ATOM     22  C   UNL A   1      34.476  17.671  24.369  1.00  0.00     0.020 A 
ATOM     23  N   UNL A   1      32.820  17.320  22.656  1.00  0.00    -0.264 NA
ATOM     24  C   UNL A   1      33.833  16.882  23.433  1.00  0.00     0.111 A 
ENDBRANCH  18  19
ENDBRANCH  17  18
ENDBRANCH  15  17
ENDBRANCH   7  13
ENDBRANCH   3   6
ENDBRANCH   1   2
BRANCH   1  25
ATOM     25  C   UNL A   1      36.336  21.923  25.524  1.00  0.00     0.042 C 
BRANCH  25  26
ATOM     26  C   UNL A   1      37.768  21.772  25.001  1.00  0.00     0.118 C 
BRANCH  26  27
ATOM     27  N   UNL A   1      38.557  20.851  25.809  1.00  0.00    -0.352 N 
ATOM     28  C   UNL A   1      39.697  21.052  26.545  1.00  0.00     0.251 C 
ATOM     29  H   UNL A   1      38.213  19.928  25.833  1.00  0.00     0.163 HD
ATOM     30  O   UNL A   1      40.328  20.072  26.936  1.00  0.00    -0.269 OA
BRANCH  28  31
ATOM     31  C   UNL A   1      40.173  22.413  26.883  1.00  0.00     0.039 A 
ATOM     32  C   UNL A   1      41.099  22.560  27.923  1.00  0.00     0.014 A 
ATOM     33  C   UNL A   1      39.656  23.547  26.253  1.00  0.00     0.014 A 
ATOM     34  C   UNL A   1      41.534  23.834  28.297  1.00  0.00     0.010 A 
ATOM     35  C   UNL A   1      40.143  24.814  26.580  1.00  0.00     0.010 A 
ATOM     36  C   UNL A   1      41.079  24.972  27.612  1.00  0.00    -0.014 A 
BRANCH  36  37
ATOM     37  C   UNL A   1      41.584  26.327  27.958  1.00  0.00     0.031 A 
ATOM     38  C   UNL A   1      42.999  26.727  27.633  1.00  0.00     0.074 A 
ATOM     39  C   UNL A   1      40.780  27.180  28.623  1.00  0.00     0.049 A 
ATOM     40  N   UNL A   1      43.610  27.857  27.877  1.00  0.00    -0.248 NA
ATOM     41  C   UNL A   1      43.845  25.722  26.969  1.00  0.00     0.031 C 
ATOM     42  C   UNL A   1      39.414  26.881  29.058  1.00  0.00     0.029 A 
ATOM     43  N   UNL A   1      40.994  28.462  29.063  1.00  0.00    -0.354 N 
ATOM     44  C   UNL A   1      44.914  27.692  27.425  1.00  0.00     0.074 A 
ATOM     45  C   UNL A   1      45.018  26.339  26.924  1.00  0.00     0.031 C 
ATOM     46  C   UNL A   1      38.906  27.954  29.683  1.00  0.00     0.029 A 
ATOM     47  C   UNL A   1      39.915  29.009  29.720  1.00  0.00     0.049 A 
ATOM     48  H   UNL A   1      41.840  28.946  28.923  1.00  0.00     0.167 HD
ATOM     49  C   UNL A   1      45.923  28.595  27.399  1.00  0.00     0.034 A 
ATOM     50  C   UNL A   1      39.752  30.222  30.284  1.00  0.00     0.034 A 
ATOM     51  C   UNL A   1      45.797  29.954  27.853  1.00  0.00     0.049 A 
ATOM     52  C   UNL A   1      40.873  31.223  30.202  1.00  0.00     0.074 A 
ATOM     53  C   UNL A   1      46.735  30.968  27.792  1.00  0.00     0.029 A 
ATOM     54  N   UNL A   1      44.665  30.490  28.446  1.00  0.00    -0.354 N 
ATOM     55  N   UNL A   1      42.051  31.092  29.642  1.00  0.00    -0.248 NA
ATOM     56  C   UNL A   1      40.634  32.546  30.796  1.00  0.00     0.031 C 
ATOM     57  C   UNL A   1      46.177  32.114  28.365  1.00  0.00     0.029 A 
ATOM     58  C   UNL A   1      44.882  31.820  28.761  1.00  0.00     0.049 A 
ATOM     59  H   UNL A   1      43.829  29.997  28.619  1.00  0.00     0.167 HD
ATOM     60  C   UNL A   1      42.681  32.322  29.786  1.00  0.00     0.074 A 
ATOM     61  C   UNL A   1      41.749  33.191  30.475  1.00  0.00     0.031 C 
ATOM     62  C   UNL A   1      43.925  32.691  29.394  1.00  0.00     0.034 A 
BRANCH  49  63
ATOM     63  C   UNL A   1      47.237  28.174  26.792  1.00  0.00     0.023 A 
ATOM     64  C   UNL A   1      48.306  27.823  27.642  1.00  0.00     0.012 A 
ATOM     65  C   UNL A   1      47.388  28.032  25.399  1.00  0.00     0.148 A 
ATOM     66  C   UNL A   1      49.512  27.363  27.116  1.00  0.00     0.002 A 
ATOM     67  C   UNL A   1      48.578  27.530  24.884  1.00  0.00     0.091 A 
ATOM     68  F   UNL A   1      46.367  28.386  24.606  1.00  0.00    -0.205 F 
ATOM     69  C   UNL A   1      49.643  27.205  25.740  1.00  0.00     0.022 A 
BRANCH  67  70
ATOM     70  S   UNL A   1      48.821  27.211  23.132  1.00  0.00     0.127 S 
ATOM     71  O   UNL A   1      50.280  27.194  23.035  1.00  0.00    -0.237 OA
ATOM     72  O   UNL A   1      48.185  25.903  22.967  1.00  0.00    -0.237 OA
ATOM     73  O   UNL A   1      48.161  28.301  22.429  1.00  0.00    -0.744 OA
ENDBRANCH  67  70
ENDBRANCH  49  63
BRANCH  50  74
ATOM     74  C   UNL A   1      38.434  30.579  30.882  1.00  0.00     0.023 A 
ATOM     75  C   UNL A   1      38.201  30.306  32.243  1.00  0.00     0.012 A 
ATOM     76  C   UNL A   1      37.449  31.262  30.140  1.00  0.00     0.148 A 
ATOM     77  C   UNL A   1      37.008  30.692  32.854  1.00  0.00     0.002 A 
ATOM     78  C   UNL A   1      36.286  31.694  30.768  1.00  0.00     0.091 A 
ATOM     79  F   UNL A   1      37.686  31.505  28.844  1.00  0.00    -0.205 F 
ATOM     80  C   UNL A   1      36.057  31.398  32.121  1.00  0.00     0.022 A 
BRANCH  78  81
ATOM     81  S   UNL A   1      35.073  32.733  29.945  1.00  0.00     0.127 S 
ATOM     82  O   UNL A   1      34.222  33.142  31.061  1.00  0.00    -0.237 OA
ATOM     83  O   UNL A   1      35.914  33.796  29.391  1.00  0.00    -0.237 OA
ATOM     84  O   UNL A   1      34.440  31.886  28.946  1.00  0.00    -0.744 OA
ENDBRANCH  78  81
ENDBRANCH  50  74
BRANCH  62  85
ATOM     85  C   UNL A   1      44.369  34.104  29.667  1.00  0.00     0.023 A 
ATOM     86  C   UNL A   1      44.992  34.412  30.891  1.00  0.00     0.012 A 
ATOM     87  C   UNL A   1      44.304  35.082  28.654  1.00  0.00     0.148 A 
ATOM     88  C   UNL A   1      45.536  35.678  31.108  1.00  0.00     0.002 A 
ATOM     89  C   UNL A   1      44.891  36.324  28.859  1.00  0.00     0.091 A 
ATOM     90  F   UNL A   1      43.695  34.768  27.501  1.00  0.00    -0.205 F 
ATOM     91  C   UNL A   1      45.500  36.626  30.088  1.00  0.00     0.022 A 
BRANCH  89  92
ATOM     92  S   UNL A   1      44.988  37.574  27.571  1.00  0.00     0.127 S 
ATOM     93  O   UNL A   1      45.779  36.887  26.550  1.00  0.00    -0.237 OA
ATOM     94  O   UNL A   1      43.581  37.769  27.223  1.00  0.00    -0.237 OA
ATOM     95  O   UNL A   1      45.631  38.731  28.178  1.00  0.00    -0.744 OA
ENDBRANCH  89  92
ENDBRANCH  62  85
ENDBRANCH  36  37
ENDBRANCH  28  31
ENDBRANCH  26  27
ENDBRANCH  25  26
ENDBRANCH   1  25
TORSDOF 17
ENDMDL
MODEL 2
REMARK VINA RESULT:     -12.2      5.216     10.302
REMARK SMILES O=C(CCc1cccnc1)Nc1cccc(F)c1C(=O)NCCCNC(=O)c1ccc(-c2c3nc(c(-c4cccc(S(=O)(=O)[O-])c4F)c4ccc([nH]4)c(-c4cccc(S(=O)(=O)[O-])c4F)c4nc(c(-c5cccc(S(=O)(=O)[O-])c5F)c5ccc2[nH]5)C=C4)C=C3)cc1
REMARK SMILES IDX 22 1 21 2 19 3 20 4 18 6 12 7 13 8 14 9 16 10 15 11 17 12
REMARK SMILES IDX 11 13 1 14 2 15 3 17 4 18 5 19 6 20 10 21 7 22 9 23 8 24
REMARK SMILES IDX 23 25 24 26 25 27 26 28 27 30 28 31 29 32 90 33 30 34 89 35
REMARK SMILES IDX 31 36 32 37 33 38 83 39 34 40 88 41 82 42 84 43 35 44 87 45
REMARK SMILES IDX 81 46 80 47 36 49 68 50 48 51 67 52 49 53 52 54 66 55 85 56
REMARK SMILES IDX 50 57 51 58 65 60 86 61 53 62 37 63 38 64 46 65 39 66 41 67
REMARK SMILES IDX 47 68 40 69 42 70 43 71 44 72 45 73 69 74 70 75 78 76 71 77
REMARK SMILES IDX 73 78 79 79 72 80 74 81 75 82 76 83 77 84 54 85 55 86 63 87
REMARK SMILES IDX 56 88 58 89 64 90 57 91 59 92 60 93 61 94 62 95
REMARK H PARENT 21 5 11 16 25 29 84 48 52 59
REMARK Flexibility Score: inf
ROOT
ATOM      1  C   UNL A   1      32.362  26.712  26.269  1.00  0.00     0.118 C 
ENDROOT
BRANCH   1   2
ATOM      2  N   UNL A   1      31.357  25.777  26.741  1.00  0.00    -0.352 N 
ATOM      3  C   UNL A   1      31.041  24.475  26.475  1.00  0.00     0.256 C 
ATOM      4  O   UNL A   1      30.164  24.015  27.212  1.00  0.00    -0.269 OA
ATOM      5  H   UNL A   1      30.762  26.177  27.415  1.00  0.00     0.163 HD
BRANCH   3   6
ATOM      6  C   UNL A   1      31.663  23.559  25.473  1.00  0.00     0.099 A 
ATOM      7  C   UNL A   1      31.351  23.731  24.087  1.00  0.00     0.056 A 
ATOM      8  C   UNL A   1      31.901  22.847  23.141  1.00  0.00     0.027 A 
ATOM      9  C   UNL A   1      32.753  21.816  23.526  1.00  0.00     0.005 A 
ATOM     10  C   UNL A   1      32.577  22.558  25.813  1.00  0.00     0.138 A 
ATOM     11  C   UNL A   1      33.097  21.679  24.862  1.00  0.00     0.040 A 
ATOM     12  F   UNL A   1      33.065  22.429  27.051  1.00  0.00    -0.206 F 
BRANCH   7  13
ATOM     13  N   UNL A   1      30.570  24.845  23.651  1.00  0.00    -0.325 N 
ATOM     14  O   UNL A   1      32.102  26.112  22.468  1.00  0.00    -0.275 OA
ATOM     15  C   UNL A   1      30.997  25.979  22.997  1.00  0.00     0.224 C 
ATOM     16  H   UNL A   1      29.606  24.796  23.843  1.00  0.00     0.169 HD
BRANCH  15  17
ATOM     17  C   UNL A   1      30.050  27.175  23.030  1.00  0.00     0.105 C 
BRANCH  17  18
ATOM     18  C   UNL A   1      30.545  28.502  22.454  1.00  0.00     0.047 C 
BRANCH  18  19
ATOM     19  C   UNL A   1      29.618  29.688  22.532  1.00  0.00    -0.029 A 
ATOM     20  C   UNL A   1      29.528  30.417  23.724  1.00  0.00     0.007 A 
ATOM     21  C   UNL A   1      28.815  30.115  21.477  1.00  0.00     0.114 A 
ATOM     22  C   UNL A   1      28.732  31.558  23.787  1.00  0.00     0.020 A 
ATOM     23  N   UNL A   1      28.023  31.210  21.512  1.00  0.00    -0.264 NA
ATOM     24  C   UNL A   1      28.020  31.921  22.658  1.00  0.00     0.111 A 
ENDBRANCH  18  19
ENDBRANCH  17  18
ENDBRANCH  15  17
ENDBRANCH   7  13
ENDBRANCH   3   6
ENDBRANCH   1   2
BRANCH   1  25
ATOM     25  C   UNL A   1      31.783  28.116  26.088  1.00  0.00     0.042 C 
BRANCH  25  26
ATOM     26  C   UNL A   1      32.754  29.120  25.459  1.00  0.00     0.118 C 
BRANCH  26  27
ATOM     27  N   UNL A   1      32.461  30.493  25.850  1.00  0.00    -0.352 N 
ATOM     28  C   UNL A   1      32.978  31.271  26.855  1.00  0.00     0.251 C 
ATOM     29  H   UNL A   1      31.776  30.938  25.300  1.00  0.00     0.163 HD
ATOM     30  O   UNL A   1      32.395  32.312  27.155  1.00  0.00    -0.269 OA
BRANCH  28  31
ATOM     31  C   UNL A   1      34.218  30.893  27.569  1.00  0.00     0.039 A 
ATOM     32  C   UNL A   1      35.217  31.859  27.737  1.00  0.00     0.014 A 
ATOM     33  C   UNL A   1      34.446  29.583  27.997  1.00  0.00     0.014 A 
ATOM     34  C   UNL A   1      36.418  31.523  28.368  1.00  0.00     0.010 A 
ATOM     35  C   UNL A   1      35.617  29.265  28.688  1.00  0.00     0.010 A 
ATOM     36  C   UNL A   1      36.619  30.228  28.872  1.00  0.00    -0.014 A 
BRANCH  36  37
ATOM     37  C   UNL A   1      37.865  29.876  29.602  1.00  0.00     0.031 A 
ATOM     38  C   UNL A   1      38.137  30.434  30.974  1.00  0.00     0.074 A 
ATOM     39  C   UNL A   1      38.784  29.096  28.999  1.00  0.00     0.049 A 
ATOM     40  N   UNL A   1      39.177  30.248  31.745  1.00  0.00    -0.248 NA
ATOM     41  C   UNL A   1      37.123  31.336  31.545  1.00  0.00     0.031 C 
ATOM     42  C   UNL A   1      38.668  28.556  27.643  1.00  0.00     0.029 A 
ATOM     43  N   UNL A   1      40.001  28.635  29.436  1.00  0.00    -0.354 N 
ATOM     44  C   UNL A   1      38.958  31.027  32.876  1.00  0.00     0.074 A 
ATOM     45  C   UNL A   1      37.703  31.717  32.676  1.00  0.00     0.031 C 
ATOM     46  C   UNL A   1      39.756  27.820  27.368  1.00  0.00     0.029 A 
ATOM     47  C   UNL A   1      40.662  27.858  28.512  1.00  0.00     0.049 A 
ATOM     48  H   UNL A   1      40.367  28.841  30.327  1.00  0.00     0.167 HD
ATOM     49  C   UNL A   1      39.716  31.131  33.993  1.00  0.00     0.034 A 
ATOM     50  C   UNL A   1      41.858  27.241  28.577  1.00  0.00     0.034 A 
ATOM     51  C   UNL A   1      40.937  30.402  34.206  1.00  0.00     0.049 A 
ATOM     52  C   UNL A   1      42.661  27.336  29.847  1.00  0.00     0.074 A 
ATOM     53  C   UNL A   1      41.734  30.376  35.337  1.00  0.00     0.029 A 
ATOM     54  N   UNL A   1      41.537  29.569  33.275  1.00  0.00    -0.354 N 
ATOM     55  N   UNL A   1      42.366  27.964  30.959  1.00  0.00    -0.248 NA
ATOM     56  C   UNL A   1      43.940  26.613  29.886  1.00  0.00     0.031 C 
ATOM     57  C   UNL A   1      42.825  29.542  35.083  1.00  0.00     0.029 A 
ATOM     58  C   UNL A   1      42.696  29.028  33.803  1.00  0.00     0.049 A 
ATOM     59  H   UNL A   1      41.189  29.389  32.370  1.00  0.00     0.167 HD
ATOM     60  C   UNL A   1      43.404  27.687  31.841  1.00  0.00     0.074 A 
ATOM     61  C   UNL A   1      44.330  26.822  31.138  1.00  0.00     0.031 C 
ATOM     62  C   UNL A   1      43.578  28.122  33.113  1.00  0.00     0.034 A 
BRANCH  49  63
ATOM     63  C   UNL A   1      39.216  32.008  35.112  1.00  0.00     0.023 A 
ATOM     64  C   UNL A   1      38.282  31.487  36.031  1.00  0.00     0.012 A 
ATOM     65  C   UNL A   1      39.733  33.304  35.314  1.00  0.00     0.148 A 
ATOM     66  C   UNL A   1      37.851  32.247  37.117  1.00  0.00     0.002 A 
ATOM     67  C   UNL A   1      39.332  34.039  36.424  1.00  0.00     0.091 A 
ATOM     68  F   UNL A   1      40.607  33.789  34.421  1.00  0.00    -0.205 F 
ATOM     69  C   UNL A   1      38.385  33.516  37.319  1.00  0.00     0.022 A 
BRANCH  67  70
ATOM     70  S   UNL A   1      40.019  35.651  36.823  1.00  0.00     0.127 S 
ATOM     71  O   UNL A   1      39.618  36.438  35.657  1.00  0.00    -0.237 OA
ATOM     72  O   UNL A   1      39.313  35.989  38.059  1.00  0.00    -0.237 OA
ATOM     73  O   UNL A   1      41.453  35.449  36.977  1.00  0.00    -0.744 OA
ENDBRANCH  67  70
ENDBRANCH  49  63
BRANCH  50  74
ATOM     74  C   UNL A   1      42.309  26.396  27.435  1.00  0.00     0.023 A 
ATOM     75  C   UNL A   1      43.218  26.931  26.503  1.00  0.00     0.012 A 
ATOM     76  C   UNL A   1      41.915  25.048  27.315  1.00  0.00     0.148 A 
ATOM     77  C   UNL A   1      43.717  26.146  25.463  1.00  0.00     0.002 A 
ATOM     78  C   UNL A   1      42.460  24.255  26.310  1.00  0.00     0.091 A 
ATOM     79  F   UNL A   1      41.042  24.560  28.206  1.00  0.00    -0.205 F 
ATOM     80  C   UNL A   1      43.349  24.806  25.375  1.00  0.00     0.022 A 
BRANCH  78  81
ATOM     81  S   UNL A   1      42.158  22.487  26.205  1.00  0.00     0.127 S 
ATOM     82  O   UNL A   1      42.877  22.133  24.982  1.00  0.00    -0.237 OA
ATOM     83  O   UNL A   1      42.773  22.004  27.443  1.00  0.00    -0.237 OA
ATOM     84  O   UNL A   1      40.713  22.335  26.153  1.00  0.00    -0.744 OA
ENDBRANCH  78  81
ENDBRANCH  50  74
BRANCH  62  85
ATOM     85  C   UNL A   1      44.801  27.663  33.862  1.00  0.00     0.023 A 
ATOM     86  C   UNL A   1      45.955  28.469  33.869  1.00  0.00     0.012 A 
ATOM     87  C   UNL A   1      44.751  26.514  34.677  1.00  0.00     0.148 A 
ATOM     88  C   UNL A   1      47.046  28.132  34.669  1.00  0.00     0.002 A 
ATOM     89  C   UNL A   1      45.823  26.211  35.507  1.00  0.00     0.091 A 
ATOM     90  F   UNL A   1      43.645  25.754  34.643  1.00  0.00    -0.205 F 
ATOM     91  C   UNL A   1      46.974  27.015  35.499  1.00  0.00     0.022 A 
BRANCH  89  92
ATOM     92  S   UNL A   1      45.783  24.855  36.686  1.00  0.00     0.127 S 
ATOM     93  O   UNL A   1      45.741  23.692  35.799  1.00  0.00    -0.237 OA
ATOM     94  O   UNL A   1      47.046  25.031  37.402  1.00  0.00    -0.237 OA
ATOM     95  O   UNL A   1      44.590  25.060  37.497  1.00  0.00    -0.744 OA
ENDBRANCH  89  92
ENDBRANCH  62  85
ENDBRANCH  36  37
ENDBRANCH  28  31
ENDBRANCH  26  27
ENDBRANCH  25  26
ENDBRANCH   1  25
TORSDOF 17
ENDMDL
MODEL 3
REMARK VINA RESULT:     -12.2      5.238     10.305
REMARK SMILES O=C(CCc1cccnc1)Nc1cccc(F)c1C(=O)NCCCNC(=O)c1ccc(-c2c3nc(c(-c4cccc(S(=O)(=O)[O-])c4F)c4ccc([nH]4)c(-c4cccc(S(=O)(=O)[O-])c4F)c4nc(c(-c5cccc(S(=O)(=O)[O-])c5F)c5ccc2[nH]5)C=C4)C=C3)cc1
REMARK SMILES IDX 22 1 21 2 19 3 20 4 18 6 12 7 13 8 14 9 16 10 15 11 17 12
REMARK SMILES IDX 11 13 1 14 2 15 3 17 4 18 5 19 6 20 10 21 7 22 9 23 8 24
REMARK SMILES IDX 23 25 24 26 25 27 26 28 27 30 28 31 29 32 90 33 30 34 89 35
REMARK SMILES IDX 31 36 32 37 33 38 83 39 34 40 88 41 82 42 84 43 35 44 87 45
REMARK SMILES IDX 81 46 80 47 36 49 68 50 48 51 67 52 49 53 52 54 66 55 85 56
REMARK SMILES IDX 50 57 51 58 65 60 86 61 53 62 37 63 38 64 46 65 39 66 41 67
REMARK SMILES IDX 47 68 40 69 42 70 43 71 44 72 45 73 69 74 70 75 78 76 71 77
REMARK SMILES IDX 73 78 79 79 72 80 74 81 75 82 76 83 77 84 54 85 55 86 63 87
REMARK SMILES IDX 56 88 58 89 64 90 57 91 59 92 60 93 61 94 62 95
REMARK H PARENT 21 5 11 16 25 29 84 48 52 59
REMARK Flexibility Score: inf
ROOT
ATOM      1  C   UNL A   1      32.748  26.969  26.433  1.00  0.00     0.118 C 
ENDROOT
BRANCH   1   2
ATOM      2  N   UNL A   1      31.662  26.020  26.592  1.00  0.00    -0.352 N 
ATOM      3  C   UNL A   1      31.471  24.703  26.284  1.00  0.00     0.256 C 
ATOM      4  O   UNL A   1      30.412  24.239  26.718  1.00  0.00    -0.269 OA
ATOM      5  H   UNL A   1      30.876  26.421  27.027  1.00  0.00     0.163 HD
BRANCH   3   6
ATOM      6  C   UNL A   1      32.396  23.778  25.564  1.00  0.00     0.099 A 
ATOM      7  C   UNL A   1      32.423  23.796  24.133  1.00  0.00     0.056 A 
ATOM      8  C   UNL A   1      33.261  22.900  23.447  1.00  0.00     0.027 A 
ATOM      9  C   UNL A   1      34.076  22.004  24.134  1.00  0.00     0.005 A 
ATOM     10  C   UNL A   1      33.279  22.915  26.219  1.00  0.00     0.138 A 
ATOM     11  C   UNL A   1      34.090  22.020  25.519  1.00  0.00     0.040 A 
ATOM     12  F   UNL A   1      33.455  22.945  27.543  1.00  0.00    -0.206 F 
BRANCH   7  13
ATOM     13  N   UNL A   1      31.682  24.778  23.405  1.00  0.00    -0.325 N 
ATOM     14  O   UNL A   1      33.344  26.129  22.531  1.00  0.00    -0.275 OA
ATOM     15  C   UNL A   1      32.156  25.904  22.773  1.00  0.00     0.224 C 
ATOM     16  H   UNL A   1      30.711  24.630  23.350  1.00  0.00     0.169 HD
BRANCH  15  17
ATOM     17  C   UNL A   1      31.125  26.981  22.446  1.00  0.00     0.105 C 
BRANCH  17  18
ATOM     18  C   UNL A   1      29.920  27.130  23.376  1.00  0.00     0.047 C 
BRANCH  18  19
ATOM     19  C   UNL A   1      29.152  28.426  23.323  1.00  0.00    -0.029 A 
ATOM     20  C   UNL A   1      29.827  29.637  23.521  1.00  0.00     0.007 A 
ATOM     21  C   UNL A   1      27.780  28.506  23.096  1.00  0.00     0.114 A 
ATOM     22  C   UNL A   1      29.144  30.845  23.401  1.00  0.00     0.020 A 
ATOM     23  N   UNL A   1      27.087  29.661  22.988  1.00  0.00    -0.264 NA
ATOM     24  C   UNL A   1      27.791  30.805  23.117  1.00  0.00     0.111 A 
ENDBRANCH  18  19
ENDBRANCH  17  18
ENDBRANCH  15  17
ENDBRANCH   7  13
ENDBRANCH   3   6
ENDBRANCH   1   2
BRANCH   1  25
ATOM     25  C   UNL A   1      32.226  28.389  26.205  1.00  0.00     0.042 C 
BRANCH  25  26
ATOM     26  C   UNL A   1      33.285  29.374  25.700  1.00  0.00     0.118 C 
BRANCH  26  27
ATOM     27  N   UNL A   1      33.020  30.740  26.133  1.00  0.00    -0.352 N 
ATOM     28  C   UNL A   1      33.580  31.488  27.138  1.00  0.00     0.251 C 
ATOM     29  H   UNL A   1      32.323  31.206  25.617  1.00  0.00     0.163 HD
ATOM     30  O   UNL A   1      33.020  32.527  27.482  1.00  0.00    -0.269 OA
BRANCH  28  31
ATOM     31  C   UNL A   1      34.839  31.079  27.800  1.00  0.00     0.039 A 
ATOM     32  C   UNL A   1      34.895  29.825  28.419  1.00  0.00     0.014 A 
ATOM     33  C   UNL A   1      35.931  31.945  27.895  1.00  0.00     0.014 A 
ATOM     34  C   UNL A   1      36.054  29.427  29.091  1.00  0.00     0.010 A 
ATOM     35  C   UNL A   1      37.112  31.520  28.507  1.00  0.00     0.010 A 
ATOM     36  C   UNL A   1      37.183  30.261  29.120  1.00  0.00    -0.014 A 
BRANCH  36  37
ATOM     37  C   UNL A   1      38.443  29.822  29.775  1.00  0.00     0.031 A 
ATOM     38  C   UNL A   1      38.831  30.352  31.129  1.00  0.00     0.074 A 
ATOM     39  C   UNL A   1      39.271  28.985  29.118  1.00  0.00     0.049 A 
ATOM     40  N   UNL A   1      39.899  30.092  31.839  1.00  0.00    -0.248 NA
ATOM     41  C   UNL A   1      37.916  31.317  31.761  1.00  0.00     0.031 C 
ATOM     42  C   UNL A   1      39.039  28.462  27.770  1.00  0.00     0.029 A 
ATOM     43  N   UNL A   1      40.476  28.441  29.481  1.00  0.00    -0.354 N 
ATOM     44  C   UNL A   1      39.800  30.877  32.982  1.00  0.00     0.074 A 
ATOM     45  C   UNL A   1      38.585  31.651  32.857  1.00  0.00     0.031 C 
ATOM     46  C   UNL A   1      40.057  27.657  27.430  1.00  0.00     0.029 A 
ATOM     47  C   UNL A   1      41.028  27.627  28.519  1.00  0.00     0.049 A 
ATOM     48  H   UNL A   1      40.907  28.617  30.350  1.00  0.00     0.167 HD
ATOM     49  C   UNL A   1      40.628  30.923  34.053  1.00  0.00     0.034 A 
ATOM     50  C   UNL A   1      42.182  26.930  28.513  1.00  0.00     0.034 A 
ATOM     51  C   UNL A   1      41.807  30.113  34.192  1.00  0.00     0.049 A 
ATOM     52  C   UNL A   1      43.062  26.963  29.733  1.00  0.00     0.074 A 
ATOM     53  C   UNL A   1      42.664  30.027  35.274  1.00  0.00     0.029 A 
ATOM     54  N   UNL A   1      42.293  29.246  33.226  1.00  0.00    -0.354 N 
ATOM     55  N   UNL A   1      42.876  27.603  30.862  1.00  0.00    -0.248 NA
ATOM     56  C   UNL A   1      44.290  26.156  29.697  1.00  0.00     0.031 C 
ATOM     57  C   UNL A   1      43.680  29.122  34.955  1.00  0.00     0.029 A 
ATOM     58  C   UNL A   1      43.442  28.626  33.684  1.00  0.00     0.049 A 
ATOM     59  H   UNL A   1      41.882  29.096  32.343  1.00  0.00     0.167 HD
ATOM     60  C   UNL A   1      43.942  27.251  31.681  1.00  0.00     0.074 A 
ATOM     61  C   UNL A   1      44.766  26.330  30.923  1.00  0.00     0.031 C 
ATOM     62  C   UNL A   1      44.219  27.666  32.942  1.00  0.00     0.034 A 
BRANCH  49  63
ATOM     63  C   UNL A   1      40.253  31.826  35.201  1.00  0.00     0.023 A 
ATOM     64  C   UNL A   1      40.821  33.114  35.276  1.00  0.00     0.012 A 
ATOM     65  C   UNL A   1      39.277  31.446  36.143  1.00  0.00     0.148 A 
ATOM     66  C   UNL A   1      40.445  34.000  36.284  1.00  0.00     0.002 A 
ATOM     67  C   UNL A   1      38.875  32.351  37.119  1.00  0.00     0.091 A 
ATOM     68  F   UNL A   1      38.761  30.212  36.065  1.00  0.00    -0.205 F 
ATOM     69  C   UNL A   1      39.464  33.623  37.197  1.00  0.00     0.022 A 
BRANCH  67  70
ATOM     70  S   UNL A   1      37.560  31.994  38.292  1.00  0.00     0.127 S 
ATOM     71  O   UNL A   1      38.224  32.258  39.568  1.00  0.00    -0.237 OA
ATOM     72  O   UNL A   1      36.542  32.978  37.921  1.00  0.00    -0.237 OA
ATOM     73  O   UNL A   1      37.179  30.609  38.060  1.00  0.00    -0.744 OA
ENDBRANCH  67  70
ENDBRANCH  49  63
BRANCH  50  74
ATOM     74  C   UNL A   1      42.507  26.063  27.345  1.00  0.00     0.023 A 
ATOM     75  C   UNL A   1      43.322  26.575  26.317  1.00  0.00     0.012 A 
ATOM     76  C   UNL A   1      42.092  24.717  27.287  1.00  0.00     0.148 A 
ATOM     77  C   UNL A   1      43.706  25.770  25.244  1.00  0.00     0.002 A 
ATOM     78  C   UNL A   1      42.526  23.904  26.245  1.00  0.00     0.091 A 
ATOM     79  F   UNL A   1      41.310  24.252  28.270  1.00  0.00    -0.205 F 
ATOM     80  C   UNL A   1      43.320  24.432  25.215  1.00  0.00     0.022 A 
BRANCH  78  81
ATOM     81  S   UNL A   1      42.200  22.138  26.199  1.00  0.00     0.127 S 
ATOM     82  O   UNL A   1      42.984  21.719  25.039  1.00  0.00    -0.237 OA
ATOM     83  O   UNL A   1      42.732  21.702  27.492  1.00  0.00    -0.237 OA
ATOM     84  O   UNL A   1      40.758  22.005  26.067  1.00  0.00    -0.744 OA
ENDBRANCH  78  81
ENDBRANCH  50  74
BRANCH  62  85
ATOM     85  C   UNL A   1      45.450  27.121  33.617  1.00  0.00     0.023 A 
ATOM     86  C   UNL A   1      46.645  27.865  33.590  1.00  0.00     0.012 A 
ATOM     87  C   UNL A   1      45.377  25.953  34.401  1.00  0.00     0.148 A 
ATOM     88  C   UNL A   1      47.753  27.448  34.326  1.00  0.00     0.002 A 
ATOM     89  C   UNL A   1      46.469  25.570  35.169  1.00  0.00     0.091 A 
ATOM     90  F   UNL A   1      44.231  25.254  34.401  1.00  0.00    -0.205 F 
ATOM     91  C   UNL A   1      47.661  26.312  35.127  1.00  0.00     0.022 A 
BRANCH  89  92
ATOM     92  S   UNL A   1      46.412  24.183  36.311  1.00  0.00     0.127 S 
ATOM     93  O   UNL A   1      46.529  23.043  35.401  1.00  0.00    -0.237 OA
ATOM     94  O   UNL A   1      47.590  24.421  37.145  1.00  0.00    -0.237 OA
ATOM     95  O   UNL A   1      45.140  24.288  37.012  1.00  0.00    -0.744 OA
ENDBRANCH  89  92
ENDBRANCH  62  85
ENDBRANCH  36  37
ENDBRANCH  28  31
ENDBRANCH  26  27
ENDBRANCH  25  26
ENDBRANCH   1  25
TORSDOF 17
ENDMDL
