MODEL 1
REMARK VINA RESULT:     -11.6      0.000      0.000
REMARK SMILES CC(C)[C@H](NC(=O)OCc1ccccc1)C(=O)NCC(=O)NCCCNC(=O)c1ccc(-c2c3nc(c(-c4cccc(S(=O)(=O)[O-])c4F)c4ccc([nH]4)c(-c4cccc(S(=O)(=O)[O-])c4F)c4nc(c(-c5cccc(S(=O)(=O)[O-])c5F)c5ccc2[nH]5)C=C4)C=C3)cc1
REMARK SMILES IDX 20 1 21 2 22 3 19 5 18 6 16 7 17 8 4 10 2 11 1 12 3 13 5 14
REMARK SMILES IDX 6 15 7 17 8 18 9 19 10 20 11 21 15 22 12 23 14 24 13 25
REMARK SMILES IDX 23 26 24 27 25 28 26 29 27 30 28 32 29 33 30 34 91 35 31 36
REMARK SMILES IDX 90 37 32 38 33 39 34 40 84 41 35 42 89 43 83 44 85 45 36 46
REMARK SMILES IDX 88 47 82 48 81 49 37 51 69 52 49 53 68 54 50 55 53 56 67 57
REMARK SMILES IDX 86 58 51 59 52 60 66 62 87 63 54 64 38 65 39 66 47 67 40 68
REMARK SMILES IDX 42 69 48 70 41 71 43 72 44 73 45 74 46 75 70 76 71 77 79 78
REMARK SMILES IDX 72 79 74 80 80 81 73 82 75 83 76 84 77 85 78 86 55 87 56 88
REMARK SMILES IDX 64 89 57 90 59 91 65 92 58 93 60 94 61 95 62 96 63 97
REMARK H PARENT 22 4 18 9 5 16 26 31 85 50 53 61
REMARK Flexibility Score: inf
ROOT
ATOM      1  C   UNL A   1      32.819  19.710  25.381  1.00  0.00     0.239 C 
ATOM      2  O   UNL A   1      32.340  18.630  25.733  1.00  0.00    -0.273 OA
ATOM      3  N   UNL A   1      34.141  19.766  25.027  1.00  0.00    -0.355 N 
ATOM      4  H   UNL A   1      34.617  18.905  25.034  1.00  0.00     0.163 HD
ENDROOT
BRANCH   1   5
ATOM      5  C   UNL A   1      31.951  20.970  25.301  1.00  0.00     0.216 C 
BRANCH   5   6
ATOM      6  N   UNL A   1      32.019  21.847  26.445  1.00  0.00    -0.345 N 
ATOM      7  C   UNL A   1      31.765  23.180  26.525  1.00  0.00     0.243 C 
ATOM      8  O   UNL A   1      31.394  23.603  27.626  1.00  0.00    -0.273 OA
ATOM      9  H   UNL A   1      32.289  21.417  27.290  1.00  0.00     0.164 HD
BRANCH   7  10
ATOM     10  C   UNL A   1      31.854  24.161  25.320  1.00  0.00     0.177 C 
BRANCH  10  11
ATOM     11  C   UNL A   1      30.524  24.605  24.658  1.00  0.00     0.015 C 
ATOM     12  C   UNL A   1      30.060  26.049  24.872  1.00  0.00     0.010 C 
ATOM     13  C   UNL A   1      30.510  24.280  23.164  1.00  0.00     0.010 C 
ENDBRANCH  10  11
BRANCH  10  14
ATOM     14  N   UNL A   1      32.882  23.789  24.352  1.00  0.00    -0.309 N 
ATOM     15  C   UNL A   1      33.972  24.560  24.054  1.00  0.00     0.408 C 
ATOM     16  H   UNL A   1      32.785  22.927  23.884  1.00  0.00     0.167 HD
ATOM     17  O   UNL A   1      34.772  24.204  23.194  1.00  0.00    -0.225 OA
BRANCH  15  18
ATOM     18  O   UNL A   1      34.057  25.662  24.823  1.00  0.00    -0.445 OA
BRANCH  18  19
ATOM     19  C   UNL A   1      33.873  26.941  24.194  1.00  0.00     0.270 C 
BRANCH  19  20
ATOM     20  C   UNL A   1      33.165  27.862  25.153  1.00  0.00    -0.011 A 
ATOM     21  C   UNL A   1      32.639  29.064  24.698  1.00  0.00     0.007 A 
ATOM     22  C   UNL A   1      33.029  27.554  26.516  1.00  0.00     0.007 A 
ATOM     23  C   UNL A   1      32.076  29.954  25.611  1.00  0.00     0.000 A 
ATOM     24  C   UNL A   1      32.486  28.472  27.422  1.00  0.00     0.000 A 
ATOM     25  C   UNL A   1      32.028  29.693  26.969  1.00  0.00     0.000 A 
ENDBRANCH  19  20
ENDBRANCH  18  19
ENDBRANCH  15  18
ENDBRANCH  10  14
ENDBRANCH   7  10
ENDBRANCH   5   6
ENDBRANCH   1   5
BRANCH   3  26
ATOM     26  C   UNL A   1      34.942  20.923  24.642  1.00  0.00     0.117 C 
BRANCH  26  27
ATOM     27  C   UNL A   1      36.275  21.004  25.396  1.00  0.00     0.042 C 
BRANCH  27  28
ATOM     28  C   UNL A   1      37.572  21.008  24.562  1.00  0.00     0.118 C 
BRANCH  28  29
ATOM     29  N   UNL A   1      38.705  20.329  25.208  1.00  0.00    -0.352 N 
ATOM     30  C   UNL A   1      39.642  20.646  26.175  1.00  0.00     0.251 C 
ATOM     31  H   UNL A   1      38.828  19.416  24.863  1.00  0.00     0.163 HD
ATOM     32  O   UNL A   1      40.399  19.735  26.524  1.00  0.00    -0.269 OA
BRANCH  30  33
ATOM     33  C   UNL A   1      39.889  22.004  26.757  1.00  0.00     0.039 A 
ATOM     34  C   UNL A   1      40.957  22.131  27.670  1.00  0.00     0.014 A 
ATOM     35  C   UNL A   1      39.176  23.156  26.451  1.00  0.00     0.014 A 
ATOM     36  C   UNL A   1      41.402  23.392  28.134  1.00  0.00     0.010 A 
ATOM     37  C   UNL A   1      39.670  24.425  26.869  1.00  0.00     0.010 A 
ATOM     38  C   UNL A   1      40.819  24.583  27.682  1.00  0.00    -0.014 A 
BRANCH  38  39
ATOM     39  C   UNL A   1      41.398  25.949  28.043  1.00  0.00     0.031 A 
ATOM     40  C   UNL A   1      42.820  26.319  27.644  1.00  0.00     0.074 A 
ATOM     41  C   UNL A   1      40.727  26.868  28.791  1.00  0.00     0.049 A 
ATOM     42  N   UNL A   1      43.503  27.413  27.897  1.00  0.00    -0.248 NA
ATOM     43  C   UNL A   1      43.595  25.308  26.910  1.00  0.00     0.031 C 
ATOM     44  C   UNL A   1      39.403  26.692  29.392  1.00  0.00     0.029 A 
ATOM     45  N   UNL A   1      41.086  28.145  29.204  1.00  0.00    -0.354 N 
ATOM     46  C   UNL A   1      44.788  27.188  27.412  1.00  0.00     0.074 A 
ATOM     47  C   UNL A   1      44.812  25.827  26.929  1.00  0.00     0.031 C 
ATOM     48  C   UNL A   1      39.059  27.806  30.067  1.00  0.00     0.029 A 
ATOM     49  C   UNL A   1      40.138  28.789  29.978  1.00  0.00     0.049 A 
ATOM     50  H   UNL A   1      41.948  28.558  28.964  1.00  0.00     0.167 HD
ATOM     51  C   UNL A   1      45.847  28.030  27.303  1.00  0.00     0.034 A 
ATOM     52  C   UNL A   1      40.117  30.018  30.549  1.00  0.00     0.034 A 
ATOM     53  C   UNL A   1      45.845  29.413  27.689  1.00  0.00     0.049 A 
ATOM     54  C   UNL A   1      41.281  30.972  30.361  1.00  0.00     0.074 A 
ATOM     55  C   UNL A   1      46.835  30.362  27.488  1.00  0.00     0.029 A 
ATOM     56  N   UNL A   1      44.816  30.049  28.359  1.00  0.00    -0.354 N 
ATOM     57  N   UNL A   1      42.401  30.792  29.707  1.00  0.00    -0.248 NA
ATOM     58  C   UNL A   1      41.157  32.318  30.954  1.00  0.00     0.031 C 
ATOM     59  C   UNL A   1      46.418  31.563  28.069  1.00  0.00     0.029 A 
ATOM     60  C   UNL A   1      45.151  31.373  28.590  1.00  0.00     0.049 A 
ATOM     61  H   UNL A   1      43.971  29.623  28.631  1.00  0.00     0.167 HD
ATOM     62  C   UNL A   1      43.085  32.006  29.770  1.00  0.00     0.074 A 
ATOM     63  C   UNL A   1      42.250  32.924  30.510  1.00  0.00     0.031 C 
ATOM     64  C   UNL A   1      44.303  32.321  29.263  1.00  0.00     0.034 A 
BRANCH  51  65
ATOM     65  C   UNL A   1      47.098  27.486  26.654  1.00  0.00     0.023 A 
ATOM     66  C   UNL A   1      47.359  27.776  25.298  1.00  0.00     0.012 A 
ATOM     67  C   UNL A   1      48.032  26.729  27.388  1.00  0.00     0.148 A 
ATOM     68  C   UNL A   1      48.489  27.265  24.664  1.00  0.00     0.002 A 
ATOM     69  C   UNL A   1      49.187  26.273  26.764  1.00  0.00     0.091 A 
ATOM     70  F   UNL A   1      47.769  26.461  28.675  1.00  0.00    -0.205 F 
ATOM     71  C   UNL A   1      49.406  26.521  25.399  1.00  0.00     0.022 A 
BRANCH  69  72
ATOM     72  S   UNL A   1      50.481  25.387  27.639  1.00  0.00     0.127 S 
ATOM     73  O   UNL A   1      50.865  26.362  28.660  1.00  0.00    -0.237 OA
ATOM     74  O   UNL A   1      49.761  24.221  28.149  1.00  0.00    -0.237 OA
ATOM     75  O   UNL A   1      51.506  25.087  26.649  1.00  0.00    -0.744 OA
ENDBRANCH  69  72
ENDBRANCH  51  65
BRANCH  52  76
ATOM     76  C   UNL A   1      38.913  30.497  31.312  1.00  0.00     0.023 A 
ATOM     77  C   UNL A   1      38.818  30.223  32.695  1.00  0.00     0.012 A 
ATOM     78  C   UNL A   1      37.846  31.166  30.681  1.00  0.00     0.148 A 
ATOM     79  C   UNL A   1      37.672  30.563  33.420  1.00  0.00     0.002 A 
ATOM     80  C   UNL A   1      36.730  31.551  31.422  1.00  0.00     0.091 A 
ATOM     81  F   UNL A   1      37.936  31.400  29.364  1.00  0.00    -0.205 F 
ATOM     82  C   UNL A   1      36.633  31.234  32.784  1.00  0.00     0.022 A 
BRANCH  80  83
ATOM     83  S   UNL A   1      35.380  32.512  30.726  1.00  0.00     0.127 S 
ATOM     84  O   UNL A   1      35.093  31.780  29.494  1.00  0.00    -0.237 OA
ATOM     85  O   UNL A   1      34.358  32.385  31.767  1.00  0.00    -0.237 OA
ATOM     86  O   UNL A   1      35.902  33.859  30.549  1.00  0.00    -0.744 OA
ENDBRANCH  80  83
ENDBRANCH  52  76
BRANCH  64  87
ATOM     87  C   UNL A   1      44.813  33.735  29.413  1.00  0.00     0.023 A 
ATOM     88  C   UNL A   1      45.430  34.147  30.610  1.00  0.00     0.012 A 
ATOM     89  C   UNL A   1      44.775  34.625  28.319  1.00  0.00     0.148 A 
ATOM     90  C   UNL A   1      45.973  35.429  30.726  1.00  0.00     0.002 A 
ATOM     91  C   UNL A   1      45.362  35.881  28.424  1.00  0.00     0.091 A 
ATOM     92  F   UNL A   1      44.173  34.224  27.190  1.00  0.00    -0.205 F 
ATOM     93  C   UNL A   1      45.951  36.290  29.631  1.00  0.00     0.022 A 
BRANCH  91  94
ATOM     94  S   UNL A   1      45.473  37.017  27.035  1.00  0.00     0.127 S 
ATOM     95  O   UNL A   1      44.067  37.344  26.804  1.00  0.00    -0.237 OA
ATOM     96  O   UNL A   1      46.269  38.111  27.592  1.00  0.00    -0.237 OA
ATOM     97  O   UNL A   1      46.125  36.280  25.961  1.00  0.00    -0.744 OA
ENDBRANCH  91  94
ENDBRANCH  64  87
ENDBRANCH  38  39
ENDBRANCH  30  33
ENDBRANCH  28  29
ENDBRANCH  27  28
ENDBRANCH  26  27
ENDBRANCH   3  26
TORSDOF 20
ENDMDL
MODEL 2
REMARK VINA RESULT:     -11.5      1.639      2.204
REMARK SMILES CC(C)[C@H](NC(=O)OCc1ccccc1)C(=O)NCC(=O)NCCCNC(=O)c1ccc(-c2c3nc(c(-c4cccc(S(=O)(=O)[O-])c4F)c4ccc([nH]4)c(-c4cccc(S(=O)(=O)[O-])c4F)c4nc(c(-c5cccc(S(=O)(=O)[O-])c5F)c5ccc2[nH]5)C=C4)C=C3)cc1
REMARK SMILES IDX 20 1 21 2 22 3 19 5 18 6 16 7 17 8 4 10 2 11 1 12 3 13 5 14
REMARK SMILES IDX 6 15 7 17 8 18 9 19 10 20 11 21 15 22 12 23 14 24 13 25
REMARK SMILES IDX 23 26 24 27 25 28 26 29 27 30 28 32 29 33 30 34 91 35 31 36
REMARK SMILES IDX 90 37 32 38 33 39 34 40 84 41 35 42 89 43 83 44 85 45 36 46
REMARK SMILES IDX 88 47 82 48 81 49 37 51 69 52 49 53 68 54 50 55 53 56 67 57
REMARK SMILES IDX 86 58 51 59 52 60 66 62 87 63 54 64 38 65 39 66 47 67 40 68
REMARK SMILES IDX 42 69 48 70 41 71 43 72 44 73 45 74 46 75 70 76 71 77 79 78
REMARK SMILES IDX 72 79 74 80 80 81 73 82 75 83 76 84 77 85 78 86 55 87 56 88
REMARK SMILES IDX 64 89 57 90 59 91 65 92 58 93 60 94 61 95 62 96 63 97
REMARK H PARENT 22 4 18 9 5 16 26 31 85 50 53 61
REMARK Flexibility Score: inf
ROOT
ATOM      1  C   UNL A   1      32.287  22.879  26.727  1.00  0.00     0.239 C 
ATOM      2  O   UNL A   1      31.633  23.308  27.681  1.00  0.00    -0.273 OA
ATOM      3  N   UNL A   1      32.991  21.714  26.875  1.00  0.00    -0.355 N 
ATOM      4  H   UNL A   1      32.883  21.262  27.743  1.00  0.00     0.163 HD
ENDROOT
BRANCH   1   5
ATOM      5  C   UNL A   1      32.291  23.611  25.381  1.00  0.00     0.216 C 
BRANCH   5   6
ATOM      6  N   UNL A   1      31.035  23.614  24.670  1.00  0.00    -0.345 N 
ATOM      7  C   UNL A   1      30.585  24.477  23.720  1.00  0.00     0.243 C 
ATOM      8  O   UNL A   1      29.761  24.027  22.916  1.00  0.00    -0.273 OA
ATOM      9  H   UNL A   1      30.414  22.887  24.907  1.00  0.00     0.164 HD
BRANCH   7  10
ATOM     10  C   UNL A   1      31.087  25.942  23.562  1.00  0.00     0.177 C 
BRANCH  10  11
ATOM     11  C   UNL A   1      30.082  27.081  23.871  1.00  0.00     0.015 C 
ATOM     12  C   UNL A   1      30.130  28.340  23.000  1.00  0.00     0.010 C 
ATOM     13  C   UNL A   1      28.647  26.555  23.929  1.00  0.00     0.010 C 
ENDBRANCH  10  11
BRANCH  10  14
ATOM     14  N   UNL A   1      31.843  26.160  22.332  1.00  0.00    -0.309 N 
ATOM     15  C   UNL A   1      33.134  26.609  22.293  1.00  0.00     0.408 C 
ATOM     16  H   UNL A   1      31.395  25.970  21.475  1.00  0.00     0.167 HD
ATOM     17  O   UNL A   1      33.692  26.814  21.219  1.00  0.00    -0.225 OA
BRANCH  15  18
ATOM     18  O   UNL A   1      33.679  26.735  23.518  1.00  0.00    -0.445 OA
BRANCH  18  19
ATOM     19  C   UNL A   1      34.057  28.051  23.956  1.00  0.00     0.270 C 
BRANCH  19  20
ATOM     20  C   UNL A   1      33.293  28.387  25.212  1.00  0.00    -0.011 A 
ATOM     21  C   UNL A   1      33.051  27.402  26.159  1.00  0.00     0.007 A 
ATOM     22  C   UNL A   1      32.796  29.678  25.456  1.00  0.00     0.007 A 
ATOM     23  C   UNL A   1      32.258  27.698  27.267  1.00  0.00     0.000 A 
ATOM     24  C   UNL A   1      31.979  29.949  26.559  1.00  0.00     0.000 A 
ATOM     25  C   UNL A   1      31.687  28.944  27.460  1.00  0.00     0.000 A 
ENDBRANCH  19  20
ENDBRANCH  18  19
ENDBRANCH  15  18
ENDBRANCH  10  14
ENDBRANCH   7  10
ENDBRANCH   5   6
ENDBRANCH   1   5
BRANCH   3  26
ATOM     26  C   UNL A   1      33.877  21.048  25.927  1.00  0.00     0.117 C 
BRANCH  26  27
ATOM     27  C   UNL A   1      35.353  21.411  26.134  1.00  0.00     0.042 C 
BRANCH  27  28
ATOM     28  C   UNL A   1      36.273  21.407  24.895  1.00  0.00     0.118 C 
BRANCH  28  29
ATOM     29  N   UNL A   1      37.574  20.758  25.114  1.00  0.00    -0.352 N 
ATOM     30  C   UNL A   1      38.741  21.059  25.793  1.00  0.00     0.251 C 
ATOM     31  H   UNL A   1      37.628  19.886  24.660  1.00  0.00     0.163 HD
ATOM     32  O   UNL A   1      39.605  20.179  25.816  1.00  0.00    -0.269 OA
BRANCH  30  33
ATOM     33  C   UNL A   1      39.091  22.380  26.408  1.00  0.00     0.039 A 
ATOM     34  C   UNL A   1      40.218  22.420  27.255  1.00  0.00     0.014 A 
ATOM     35  C   UNL A   1      38.418  23.576  26.191  1.00  0.00     0.014 A 
ATOM     36  C   UNL A   1      40.754  23.638  27.736  1.00  0.00     0.010 A 
ATOM     37  C   UNL A   1      39.000  24.802  26.624  1.00  0.00     0.010 A 
ATOM     38  C   UNL A   1      40.204  24.872  27.367  1.00  0.00    -0.014 A 
BRANCH  38  39
ATOM     39  C   UNL A   1      40.871  26.194  27.741  1.00  0.00     0.031 A 
ATOM     40  C   UNL A   1      42.295  26.497  27.295  1.00  0.00     0.074 A 
ATOM     41  C   UNL A   1      40.282  27.126  28.540  1.00  0.00     0.049 A 
ATOM     42  N   UNL A   1      43.047  27.545  27.549  1.00  0.00    -0.248 NA
ATOM     43  C   UNL A   1      42.983  25.467  26.504  1.00  0.00     0.031 C 
ATOM     44  C   UNL A   1      38.974  27.006  29.189  1.00  0.00     0.029 A 
ATOM     45  N   UNL A   1      40.728  28.369  28.972  1.00  0.00    -0.354 N 
ATOM     46  C   UNL A   1      44.298  27.264  27.007  1.00  0.00     0.074 A 
ATOM     47  C   UNL A   1      44.227  25.918  26.487  1.00  0.00     0.031 C 
ATOM     48  C   UNL A   1      38.720  28.117  29.906  1.00  0.00     0.029 A 
ATOM     49  C   UNL A   1      39.847  29.041  29.800  1.00  0.00     0.049 A 
ATOM     50  H   UNL A   1      41.601  28.741  28.709  1.00  0.00     0.167 HD
ATOM     51  C   UNL A   1      45.397  28.049  26.878  1.00  0.00     0.034 A 
ATOM     52  C   UNL A   1      39.917  30.253  30.405  1.00  0.00     0.034 A 
ATOM     53  C   UNL A   1      45.487  29.419  27.301  1.00  0.00     0.049 A 
ATOM     54  C   UNL A   1      41.124  31.146  30.195  1.00  0.00     0.074 A 
ATOM     55  C   UNL A   1      46.520  30.318  27.086  1.00  0.00     0.029 A 
ATOM     56  N   UNL A   1      44.522  30.090  28.028  1.00  0.00    -0.354 N 
ATOM     57  N   UNL A   1      42.206  30.925  29.492  1.00  0.00    -0.248 NA
ATOM     58  C   UNL A   1      41.098  32.480  30.828  1.00  0.00     0.031 C 
ATOM     59  C   UNL A   1      46.194  31.523  27.715  1.00  0.00     0.029 A 
ATOM     60  C   UNL A   1      44.939  31.387  28.281  1.00  0.00     0.049 A 
ATOM     61  H   UNL A   1      43.665  29.704  28.323  1.00  0.00     0.167 HD
ATOM     62  C   UNL A   1      42.958  32.098  29.560  1.00  0.00     0.074 A 
ATOM     63  C   UNL A   1      42.205  33.038  30.357  1.00  0.00     0.031 C 
ATOM     64  C   UNL A   1      44.171  32.360  29.013  1.00  0.00     0.034 A 
BRANCH  51  65
ATOM     65  C   UNL A   1      46.590  27.457  26.165  1.00  0.00     0.023 A 
ATOM     66  C   UNL A   1      46.689  27.576  24.762  1.00  0.00     0.012 A 
ATOM     67  C   UNL A   1      47.627  26.824  26.878  1.00  0.00     0.148 A 
ATOM     68  C   UNL A   1      47.762  27.015  24.074  1.00  0.00     0.002 A 
ATOM     69  C   UNL A   1      48.724  26.320  26.189  1.00  0.00     0.091 A 
ATOM     70  F   UNL A   1      47.517  26.719  28.210  1.00  0.00    -0.205 F 
ATOM     71  C   UNL A   1      48.783  26.395  24.787  1.00  0.00     0.022 A 
BRANCH  69  72
ATOM     72  S   UNL A   1      50.139  25.587  27.016  1.00  0.00     0.127 S 
ATOM     73  O   UNL A   1      51.068  25.404  25.901  1.00  0.00    -0.237 OA
ATOM     74  O   UNL A   1      50.519  26.637  27.960  1.00  0.00    -0.237 OA
ATOM     75  O   UNL A   1      49.656  24.358  27.631  1.00  0.00    -0.744 OA
ENDBRANCH  69  72
ENDBRANCH  51  65
BRANCH  52  76
ATOM     76  C   UNL A   1      38.772  30.774  31.227  1.00  0.00     0.023 A 
ATOM     77  C   UNL A   1      38.779  30.574  32.626  1.00  0.00     0.012 A 
ATOM     78  C   UNL A   1      37.661  31.412  30.642  1.00  0.00     0.148 A 
ATOM     79  C   UNL A   1      37.689  30.954  33.415  1.00  0.00     0.002 A 
ATOM     80  C   UNL A   1      36.602  31.839  31.442  1.00  0.00     0.091 A 
ATOM     81  F   UNL A   1      37.654  31.577  29.313  1.00  0.00    -0.205 F 
ATOM     82  C   UNL A   1      36.606  31.594  32.823  1.00  0.00     0.022 A 
BRANCH  80  83
ATOM     83  S   UNL A   1      35.203  32.766  30.798  1.00  0.00     0.127 S 
ATOM     84  O   UNL A   1      34.290  32.765  31.939  1.00  0.00    -0.237 OA
ATOM     85  O   UNL A   1      35.816  34.062  30.503  1.00  0.00    -0.237 OA
ATOM     86  O   UNL A   1      34.746  32.031  29.628  1.00  0.00    -0.744 OA
ENDBRANCH  80  83
ENDBRANCH  52  76
BRANCH  64  87
ATOM     87  C   UNL A   1      44.765  33.739  29.180  1.00  0.00     0.023 A 
ATOM     88  C   UNL A   1      44.436  34.771  28.279  1.00  0.00     0.012 A 
ATOM     89  C   UNL A   1      45.570  34.037  30.300  1.00  0.00     0.148 A 
ATOM     90  C   UNL A   1      44.921  36.067  28.473  1.00  0.00     0.002 A 
ATOM     91  C   UNL A   1      46.007  35.339  30.515  1.00  0.00     0.091 A 
ATOM     92  F   UNL A   1      45.886  33.042  31.141  1.00  0.00    -0.205 F 
ATOM     93  C   UNL A   1      45.694  36.353  29.597  1.00  0.00     0.022 A 
BRANCH  91  94
ATOM     94  S   UNL A   1      46.919  35.823  31.987  1.00  0.00     0.127 S 
ATOM     95  O   UNL A   1      48.289  35.468  31.619  1.00  0.00    -0.237 OA
ATOM     96  O   UNL A   1      46.659  37.261  32.054  1.00  0.00    -0.237 OA
ATOM     97  O   UNL A   1      46.352  35.054  33.086  1.00  0.00    -0.744 OA
ENDBRANCH  91  94
ENDBRANCH  64  87
ENDBRANCH  38  39
ENDBRANCH  30  33
ENDBRANCH  28  29
ENDBRANCH  27  28
ENDBRANCH  26  27
ENDBRANCH   3  26
TORSDOF 20
ENDMDL
MODEL 3
REMARK VINA RESULT:     -11.4      1.947      2.524
REMARK SMILES CC(C)[C@H](NC(=O)OCc1ccccc1)C(=O)NCC(=O)NCCCNC(=O)c1ccc(-c2c3nc(c(-c4cccc(S(=O)(=O)[O-])c4F)c4ccc([nH]4)c(-c4cccc(S(=O)(=O)[O-])c4F)c4nc(c(-c5cccc(S(=O)(=O)[O-])c5F)c5ccc2[nH]5)C=C4)C=C3)cc1
REMARK SMILES IDX 20 1 21 2 22 3 19 5 18 6 16 7 17 8 4 10 2 11 1 12 3 13 5 14
REMARK SMILES IDX 6 15 7 17 8 18 9 19 10 20 11 21 15 22 12 23 14 24 13 25
REMARK SMILES IDX 23 26 24 27 25 28 26 29 27 30 28 32 29 33 30 34 91 35 31 36
REMARK SMILES IDX 90 37 32 38 33 39 34 40 84 41 35 42 89 43 83 44 85 45 36 46
REMARK SMILES IDX 88 47 82 48 81 49 37 51 69 52 49 53 68 54 50 55 53 56 67 57
REMARK SMILES IDX 86 58 51 59 52 60 66 62 87 63 54 64 38 65 39 66 47 67 40 68
REMARK SMILES IDX 42 69 48 70 41 71 43 72 44 73 45 74 46 75 70 76 71 77 79 78
REMARK SMILES IDX 72 79 74 80 80 81 73 82 75 83 76 84 77 85 78 86 55 87 56 88
REMARK SMILES IDX 64 89 57 90 59 91 65 92 58 93 60 94 61 95 62 96 63 97
REMARK H PARENT 22 4 18 9 5 16 26 31 85 50 53 61
REMARK Flexibility Score: inf
ROOT
ATOM      1  C   UNL A   1      33.055  22.295  27.328  1.00  0.00     0.239 C 
ATOM      2  O   UNL A   1      32.602  22.331  28.474  1.00  0.00    -0.273 OA
ATOM      3  N   UNL A   1      34.017  21.369  27.023  1.00  0.00    -0.355 N 
ATOM      4  H   UNL A   1      34.252  20.748  27.750  1.00  0.00     0.163 HD
ENDROOT
BRANCH   1   5
ATOM      5  C   UNL A   1      32.532  23.242  26.242  1.00  0.00     0.216 C 
BRANCH   5   6
ATOM      6  N   UNL A   1      31.481  24.142  26.655  1.00  0.00    -0.345 N 
ATOM      7  C   UNL A   1      31.011  25.258  26.036  1.00  0.00     0.243 C 
ATOM      8  O   UNL A   1      29.837  25.563  26.272  1.00  0.00    -0.273 OA
ATOM      9  H   UNL A   1      31.042  23.915  27.507  1.00  0.00     0.164 HD
BRANCH   7  10
ATOM     10  C   UNL A   1      31.835  26.111  25.028  1.00  0.00     0.177 C 
BRANCH  10  11
ATOM     11  C   UNL A   1      32.333  25.410  23.737  1.00  0.00     0.015 C 
ATOM     12  C   UNL A   1      31.407  25.406  22.517  1.00  0.00     0.010 C 
ATOM     13  C   UNL A   1      33.716  25.917  23.327  1.00  0.00     0.010 C 
ENDBRANCH  10  11
BRANCH  10  14
ATOM     14  N   UNL A   1      32.860  26.929  25.670  1.00  0.00    -0.309 N 
ATOM     15  C   UNL A   1      32.783  28.287  25.810  1.00  0.00     0.408 C 
ATOM     16  H   UNL A   1      33.658  26.473  26.026  1.00  0.00     0.167 HD
ATOM     17  O   UNL A   1      33.706  28.915  26.321  1.00  0.00    -0.225 OA
BRANCH  15  18
ATOM     18  O   UNL A   1      31.608  28.789  25.384  1.00  0.00    -0.445 OA
BRANCH  18  19
ATOM     19  C   UNL A   1      31.495  29.156  23.999  1.00  0.00     0.270 C 
BRANCH  19  20
ATOM     20  C   UNL A   1      30.053  29.469  23.691  1.00  0.00    -0.011 A 
ATOM     21  C   UNL A   1      29.230  28.487  23.156  1.00  0.00     0.007 A 
ATOM     22  C   UNL A   1      29.504  30.742  23.916  1.00  0.00     0.007 A 
ATOM     23  C   UNL A   1      27.928  28.815  22.781  1.00  0.00     0.000 A 
ATOM     24  C   UNL A   1      28.205  31.061  23.508  1.00  0.00     0.000 A 
ATOM     25  C   UNL A   1      27.417  30.094  22.912  1.00  0.00     0.000 A 
ENDBRANCH  19  20
ENDBRANCH  18  19
ENDBRANCH  15  18
ENDBRANCH  10  14
ENDBRANCH   7  10
ENDBRANCH   5   6
ENDBRANCH   1   5
BRANCH   3  26
ATOM     26  C   UNL A   1      34.743  21.175  25.773  1.00  0.00     0.117 C 
BRANCH  26  27
ATOM     27  C   UNL A   1      36.057  21.964  25.716  1.00  0.00     0.042 C 
BRANCH  27  28
ATOM     28  C   UNL A   1      37.082  21.573  24.631  1.00  0.00     0.118 C 
BRANCH  28  29
ATOM     29  N   UNL A   1      38.289  20.914  25.153  1.00  0.00    -0.352 N 
ATOM     30  C   UNL A   1      39.299  21.236  26.041  1.00  0.00     0.251 C 
ATOM     31  H   UNL A   1      38.407  20.014  24.773  1.00  0.00     0.163 HD
ATOM     32  O   UNL A   1      40.112  20.342  26.295  1.00  0.00    -0.269 OA
BRANCH  30  33
ATOM     33  C   UNL A   1      39.557  22.586  26.638  1.00  0.00     0.039 A 
ATOM     34  C   UNL A   1      40.565  22.676  27.621  1.00  0.00     0.014 A 
ATOM     35  C   UNL A   1      38.910  23.763  26.283  1.00  0.00     0.014 A 
ATOM     36  C   UNL A   1      41.025  23.921  28.113  1.00  0.00     0.010 A 
ATOM     37  C   UNL A   1      39.422  25.014  26.732  1.00  0.00     0.010 A 
ATOM     38  C   UNL A   1      40.519  25.131  27.621  1.00  0.00    -0.014 A 
BRANCH  38  39
ATOM     39  C   UNL A   1      41.123  26.476  28.019  1.00  0.00     0.031 A 
ATOM     40  C   UNL A   1      42.558  26.823  27.646  1.00  0.00     0.074 A 
ATOM     41  C   UNL A   1      40.463  27.393  28.779  1.00  0.00     0.049 A 
ATOM     42  N   UNL A   1      43.262  27.896  27.931  1.00  0.00    -0.248 NA
ATOM     43  C   UNL A   1      43.320  25.811  26.900  1.00  0.00     0.031 C 
ATOM     44  C   UNL A   1      39.128  27.234  29.360  1.00  0.00     0.029 A 
ATOM     45  N   UNL A   1      40.845  28.652  29.224  1.00  0.00    -0.354 N 
ATOM     46  C   UNL A   1      44.548  27.652  27.458  1.00  0.00     0.074 A 
ATOM     47  C   UNL A   1      44.548  26.302  26.945  1.00  0.00     0.031 C 
ATOM     48  C   UNL A   1      38.800  28.341  30.054  1.00  0.00     0.029 A 
ATOM     49  C   UNL A   1      39.902  29.301  30.000  1.00  0.00     0.049 A 
ATOM     50  H   UNL A   1      41.719  29.052  29.004  1.00  0.00     0.167 HD
ATOM     51  C   UNL A   1      45.626  28.472  27.381  1.00  0.00     0.034 A 
ATOM     52  C   UNL A   1      39.900  30.518  30.598  1.00  0.00     0.034 A 
ATOM     53  C   UNL A   1      45.650  29.847  27.797  1.00  0.00     0.049 A 
ATOM     54  C   UNL A   1      41.087  31.449  30.445  1.00  0.00     0.074 A 
ATOM     55  C   UNL A   1      46.663  30.777  27.629  1.00  0.00     0.029 A 
ATOM     56  N   UNL A   1      44.627  30.490  28.467  1.00  0.00    -0.354 N 
ATOM     57  N   UNL A   1      42.212  31.258  29.802  1.00  0.00    -0.248 NA
ATOM     58  C   UNL A   1      40.985  32.784  31.066  1.00  0.00     0.031 C 
ATOM     59  C   UNL A   1      46.266  31.974  28.231  1.00  0.00     0.029 A 
ATOM     60  C   UNL A   1      44.988  31.802  28.731  1.00  0.00     0.049 A 
ATOM     61  H   UNL A   1      43.769  30.078  28.720  1.00  0.00     0.167 HD
ATOM     62  C   UNL A   1      42.921  32.455  29.899  1.00  0.00     0.074 A 
ATOM     63  C   UNL A   1      42.098  33.375  30.649  1.00  0.00     0.031 C 
ATOM     64  C   UNL A   1      44.152  32.753  29.415  1.00  0.00     0.034 A 
BRANCH  51  65
ATOM     65  C   UNL A   1      46.874  27.915  26.735  1.00  0.00     0.023 A 
ATOM     66  C   UNL A   1      47.835  27.259  27.534  1.00  0.00     0.012 A 
ATOM     67  C   UNL A   1      47.077  28.001  25.344  1.00  0.00     0.148 A 
ATOM     68  C   UNL A   1      49.008  26.761  26.973  1.00  0.00     0.002 A 
ATOM     69  C   UNL A   1      48.222  27.449  24.784  1.00  0.00     0.091 A 
ATOM     70  F   UNL A   1      46.156  28.628  24.600  1.00  0.00    -0.205 F 
ATOM     71  C   UNL A   1      49.198  26.848  25.598  1.00  0.00     0.022 A 
BRANCH  69  72
ATOM     72  S   UNL A   1      48.523  27.420  23.013  1.00  0.00     0.127 S 
ATOM     73  O   UNL A   1      49.880  27.960  22.938  1.00  0.00    -0.237 OA
ATOM     74  O   UNL A   1      48.416  25.994  22.709  1.00  0.00    -0.237 OA
ATOM     75  O   UNL A   1      47.488  28.251  22.414  1.00  0.00    -0.744 OA
ENDBRANCH  69  72
ENDBRANCH  51  65
BRANCH  52  76
ATOM     76  C   UNL A   1      38.698  31.007  31.356  1.00  0.00     0.023 A 
ATOM     77  C   UNL A   1      38.631  30.801  32.753  1.00  0.00     0.012 A 
ATOM     78  C   UNL A   1      37.605  31.617  30.710  1.00  0.00     0.148 A 
ATOM     79  C   UNL A   1      37.489  31.151  33.479  1.00  0.00     0.002 A 
ATOM     80  C   UNL A   1      36.492  32.014  31.450  1.00  0.00     0.091 A 
ATOM     81  F   UNL A   1      37.669  31.787  29.383  1.00  0.00    -0.205 F 
ATOM     82  C   UNL A   1      36.424  31.764  32.829  1.00  0.00     0.022 A 
BRANCH  80  83
ATOM     83  S   UNL A   1      35.108  32.906  30.729  1.00  0.00     0.127 S 
ATOM     84  O   UNL A   1      34.702  32.011  29.648  1.00  0.00    -0.237 OA
ATOM     85  O   UNL A   1      34.176  32.969  31.857  1.00  0.00    -0.237 OA
ATOM     86  O   UNL A   1      35.641  34.194  30.312  1.00  0.00    -0.744 OA
ENDBRANCH  80  83
ENDBRANCH  52  76
BRANCH  64  87
ATOM     87  C   UNL A   1      44.692  34.152  29.602  1.00  0.00     0.023 A 
ATOM     88  C   UNL A   1      45.425  34.485  30.758  1.00  0.00     0.012 A 
ATOM     89  C   UNL A   1      44.560  35.109  28.574  1.00  0.00     0.148 A 
ATOM     90  C   UNL A   1      45.992  35.753  30.900  1.00  0.00     0.002 A 
ATOM     91  C   UNL A   1      45.170  36.353  28.700  1.00  0.00     0.091 A 
ATOM     92  F   UNL A   1      43.847  34.783  27.486  1.00  0.00    -0.205 F 
ATOM     93  C   UNL A   1      45.876  36.681  29.867  1.00  0.00     0.022 A 
BRANCH  91  94
ATOM     94  S   UNL A   1      45.161  37.573  27.379  1.00  0.00     0.127 S 
ATOM     95  O   UNL A   1      45.995  36.925  26.368  1.00  0.00    -0.237 OA
ATOM     96  O   UNL A   1      43.740  37.649  27.038  1.00  0.00    -0.237 OA
ATOM     97  O   UNL A   1      45.712  38.793  27.952  1.00  0.00    -0.744 OA
ENDBRANCH  91  94
ENDBRANCH  64  87
ENDBRANCH  38  39
ENDBRANCH  30  33
ENDBRANCH  28  29
ENDBRANCH  27  28
ENDBRANCH  26  27
ENDBRANCH   3  26
TORSDOF 20
ENDMDL
