MODEL 1
REMARK VINA RESULT:     -11.8      0.000      0.000
REMARK SMILES COC(=O)C[C@H](c1ccc(C(=O)NCCCNC(=O)c2ccc(-c3c4nc(c(-c5cccc(S(=O)(=O)[O-])c5F)c5ccc([nH]5)c(-c5cccc(S(=O)(=O)[O-])c5F)c5nc(c(-c6cccc(S(=O)(=O)[O-])c6F)c6ccc3[nH]6)C=C5)C=C4)cc2)cc1)c1c(O)n[nH]c1C
REMARK SMILES IDX 14 1 13 2 11 3 12 4 10 6 7 7 8 8 84 9 9 10 83 11 6 12 5 13
REMARK SMILES IDX 3 14 4 15 2 16 1 17 85 18 86 19 90 20 88 21 89 22 91 23
REMARK SMILES IDX 87 25 15 27 16 28 17 29 18 30 19 32 20 33 21 34 82 35 22 36
REMARK SMILES IDX 81 37 23 38 24 39 25 40 75 41 26 42 80 43 74 44 76 45 27 46
REMARK SMILES IDX 79 47 73 48 72 49 28 51 60 52 40 53 59 54 41 55 44 56 58 57
REMARK SMILES IDX 77 58 42 59 43 60 57 62 78 63 45 64 29 65 30 66 38 67 31 68
REMARK SMILES IDX 33 69 39 70 32 71 34 72 35 73 36 74 37 75 61 76 62 77 70 78
REMARK SMILES IDX 63 79 65 80 71 81 64 82 66 83 67 84 68 85 69 86 46 87 47 88
REMARK SMILES IDX 55 89 48 90 50 91 56 92 49 93 51 94 52 95 53 96 54 97
REMARK H PARENT 13 5 89 24 87 26 17 31 76 50 44 61
REMARK Flexibility Score: inf
ROOT
ATOM      1  C   UNL A   1      31.845  30.929  26.886  1.00  0.00     0.118 C 
ENDROOT
BRANCH   1   2
ATOM      2  N   UNL A   1      33.091  30.592  27.549  1.00  0.00    -0.352 N 
ATOM      3  C   UNL A   1      33.843  29.449  27.501  1.00  0.00     0.251 C 
ATOM      4  O   UNL A   1      34.937  29.427  28.062  1.00  0.00    -0.269 OA
ATOM      5  H   UNL A   1      33.456  31.302  28.126  1.00  0.00     0.163 HD
BRANCH   3   6
ATOM      6  C   UNL A   1      33.401  28.265  26.731  1.00  0.00     0.039 A 
ATOM      7  C   UNL A   1      32.699  26.012  25.193  1.00  0.00    -0.040 A 
ATOM      8  C   UNL A   1      33.917  26.679  24.978  1.00  0.00     0.005 A 
ATOM      9  C   UNL A   1      31.849  26.486  26.208  1.00  0.00     0.005 A 
ATOM     10  C   UNL A   1      34.267  27.790  25.743  1.00  0.00     0.014 A 
ATOM     11  C   UNL A   1      32.205  27.591  26.982  1.00  0.00     0.014 A 
BRANCH   7  12
ATOM     12  C   UNL A   1      32.267  24.806  24.369  1.00  0.00     0.068 C 
BRANCH  12  13
ATOM     13  C   UNL A   1      30.949  24.133  24.766  1.00  0.00     0.136 C 
BRANCH  13  14
ATOM     14  C   UNL A   1      31.157  22.865  25.558  1.00  0.00     0.306 C 
ATOM     15  O   UNL A   1      30.267  22.048  25.759  1.00  0.00    -0.252 OA
BRANCH  14  16
ATOM     16  O   UNL A   1      32.436  22.749  26.005  1.00  0.00    -0.469 OA
ATOM     17  C   UNL A   1      32.549  22.687  27.428  1.00  0.00     0.282 C 
ENDBRANCH  14  16
ENDBRANCH  13  14
ENDBRANCH  12  13
BRANCH  12  18
ATOM     18  C   UNL A   1      32.271  25.254  22.928  1.00  0.00     0.044 A 
ATOM     19  C   UNL A   1      33.080  24.713  21.915  1.00  0.00     0.234 A 
ATOM     20  C   UNL A   1      31.548  26.227  22.240  1.00  0.00     0.040 A 
ATOM     21  N   UNL A   1      32.932  25.254  20.718  1.00  0.00    -0.137 NA
ATOM     22  N   UNL A   1      32.017  26.208  20.948  1.00  0.00    -0.279 N 
ATOM     23  C   UNL A   1      30.508  27.203  22.645  1.00  0.00     0.066 C 
ATOM     24  H   UNL A   1      31.710  26.838  20.255  1.00  0.00     0.190 HD
BRANCH  19  25
ATOM     25  O   UNL A   1      33.973  23.731  21.979  1.00  0.00    -0.492 OA
ATOM     26  H   UNL A   1      34.855  23.916  22.231  1.00  0.00     0.295 HD
ENDBRANCH  19  25
ENDBRANCH  12  18
ENDBRANCH   7  12
ENDBRANCH   3   6
ENDBRANCH   1   2
BRANCH   1  27
ATOM     27  C   UNL A   1      31.625  32.439  26.844  1.00  0.00     0.042 C 
BRANCH  27  28
ATOM     28  C   UNL A   1      32.886  33.244  27.146  1.00  0.00     0.118 C 
BRANCH  28  29
ATOM     29  N   UNL A   1      32.583  34.521  27.775  1.00  0.00    -0.352 N 
ATOM     30  C   UNL A   1      33.053  35.055  28.948  1.00  0.00     0.251 C 
ATOM     31  H   UNL A   1      31.944  35.087  27.285  1.00  0.00     0.163 HD
ATOM     32  O   UNL A   1      32.505  36.046  29.422  1.00  0.00    -0.269 OA
BRANCH  30  33
ATOM     33  C   UNL A   1      34.209  34.443  29.642  1.00  0.00     0.039 A 
ATOM     34  C   UNL A   1      34.005  33.849  30.891  1.00  0.00     0.014 A 
ATOM     35  C   UNL A   1      35.491  34.490  29.090  1.00  0.00     0.014 A 
ATOM     36  C   UNL A   1      35.081  33.265  31.565  1.00  0.00     0.010 A 
ATOM     37  C   UNL A   1      36.546  33.842  29.727  1.00  0.00     0.010 A 
ATOM     38  C   UNL A   1      36.356  33.239  30.978  1.00  0.00    -0.014 A 
BRANCH  38  39
ATOM     39  C   UNL A   1      37.499  32.579  31.658  1.00  0.00     0.031 A 
ATOM     40  C   UNL A   1      38.226  31.439  30.999  1.00  0.00     0.074 A 
ATOM     41  C   UNL A   1      37.833  32.960  32.906  1.00  0.00     0.049 A 
ATOM     42  N   UNL A   1      39.240  30.742  31.442  1.00  0.00    -0.248 NA
ATOM     43  C   UNL A   1      37.731  31.005  29.682  1.00  0.00     0.031 C 
ATOM     44  C   UNL A   1      37.150  33.997  33.683  1.00  0.00     0.029 A 
ATOM     45  N   UNL A   1      38.820  32.511  33.746  1.00  0.00    -0.354 N 
ATOM     46  C   UNL A   1      39.482  29.768  30.480  1.00  0.00     0.074 A 
ATOM     47  C   UNL A   1      38.483  29.939  29.448  1.00  0.00     0.031 C 
ATOM     48  C   UNL A   1      37.751  34.118  34.877  1.00  0.00     0.029 A 
ATOM     49  C   UNL A   1      38.845  33.155  34.960  1.00  0.00     0.049 A 
ATOM     50  H   UNL A   1      39.450  31.794  33.502  1.00  0.00     0.167 HD
ATOM     51  C   UNL A   1      40.464  28.836  30.442  1.00  0.00     0.034 A 
ATOM     52  C   UNL A   1      39.664  32.995  36.018  1.00  0.00     0.034 A 
ATOM     53  C   UNL A   1      41.481  28.699  31.451  1.00  0.00     0.049 A 
ATOM     54  C   UNL A   1      40.775  31.985  35.934  1.00  0.00     0.074 A 
ATOM     55  C   UNL A   1      42.580  27.860  31.459  1.00  0.00     0.029 A 
ATOM     56  N   UNL A   1      41.516  29.414  32.638  1.00  0.00    -0.354 N 
ATOM     57  N   UNL A   1      41.095  31.191  34.940  1.00  0.00    -0.248 NA
ATOM     58  C   UNL A   1      41.658  31.875  37.103  1.00  0.00     0.031 C 
ATOM     59  C   UNL A   1      43.267  28.051  32.665  1.00  0.00     0.029 A 
ATOM     60  C   UNL A   1      42.608  29.026  33.397  1.00  0.00     0.049 A 
ATOM     61  H   UNL A   1      40.860  30.099  32.904  1.00  0.00     0.167 HD
ATOM     62  C   UNL A   1      42.235  30.509  35.350  1.00  0.00     0.074 A 
ATOM     63  C   UNL A   1      42.561  31.003  36.675  1.00  0.00     0.031 C 
ATOM     64  C   UNL A   1      42.941  29.553  34.696  1.00  0.00     0.034 A 
BRANCH  51  65
ATOM     65  C   UNL A   1      40.509  27.926  29.239  1.00  0.00     0.023 A 
ATOM     66  C   UNL A   1      39.623  26.831  29.161  1.00  0.00     0.012 A 
ATOM     67  C   UNL A   1      41.408  28.161  28.180  1.00  0.00     0.148 A 
ATOM     68  C   UNL A   1      39.665  25.957  28.075  1.00  0.00     0.002 A 
ATOM     69  C   UNL A   1      41.412  27.311  27.079  1.00  0.00     0.091 A 
ATOM     70  F   UNL A   1      42.261  29.191  28.277  1.00  0.00    -0.205 F 
ATOM     71  C   UNL A   1      40.552  26.201  27.032  1.00  0.00     0.022 A 
BRANCH  69  72
ATOM     72  S   UNL A   1      42.466  27.593  25.652  1.00  0.00     0.127 S 
ATOM     73  O   UNL A   1      43.786  27.681  26.271  1.00  0.00    -0.237 OA
ATOM     74  O   UNL A   1      42.246  26.383  24.857  1.00  0.00    -0.237 OA
ATOM     75  O   UNL A   1      41.973  28.816  25.033  1.00  0.00    -0.744 OA
ENDBRANCH  69  72
ENDBRANCH  51  65
BRANCH  52  76
ATOM     76  C   UNL A   1      39.520  33.890  37.199  1.00  0.00     0.023 A 
ATOM     77  C   UNL A   1      39.957  35.226  37.100  1.00  0.00     0.012 A 
ATOM     78  C   UNL A   1      38.906  33.454  38.388  1.00  0.00     0.148 A 
ATOM     79  C   UNL A   1      39.802  36.106  38.171  1.00  0.00     0.002 A 
ATOM     80  C   UNL A   1      38.709  34.350  39.433  1.00  0.00     0.091 A 
ATOM     81  F   UNL A   1      38.503  32.178  38.463  1.00  0.00    -0.205 F 
ATOM     82  C   UNL A   1      39.169  35.673  39.332  1.00  0.00     0.022 A 
BRANCH  80  83
ATOM     83  S   UNL A   1      37.788  33.923  40.915  1.00  0.00     0.127 S 
ATOM     84  O   UNL A   1      36.576  33.331  40.354  1.00  0.00    -0.237 OA
ATOM     85  O   UNL A   1      38.692  32.976  41.567  1.00  0.00    -0.237 OA
ATOM     86  O   UNL A   1      37.601  35.173  41.640  1.00  0.00    -0.744 OA
ENDBRANCH  80  83
ENDBRANCH  52  76
BRANCH  64  87
ATOM     87  C   UNL A   1      44.149  28.985  35.395  1.00  0.00     0.023 A 
ATOM     88  C   UNL A   1      45.420  29.550  35.165  1.00  0.00     0.012 A 
ATOM     89  C   UNL A   1      44.020  27.930  36.320  1.00  0.00     0.148 A 
ATOM     90  C   UNL A   1      46.546  29.052  35.818  1.00  0.00     0.002 A 
ATOM     91  C   UNL A   1      45.141  27.471  37.003  1.00  0.00     0.091 A 
ATOM     92  F   UNL A   1      42.808  27.389  36.511  1.00  0.00    -0.205 F 
ATOM     93  C   UNL A   1      46.406  28.022  36.744  1.00  0.00     0.022 A 
BRANCH  91  94
ATOM     94  S   UNL A   1      45.035  26.215  38.282  1.00  0.00     0.127 S 
ATOM     95  O   UNL A   1      46.440  25.858  38.468  1.00  0.00    -0.237 OA
ATOM     96  O   UNL A   1      44.441  26.952  39.398  1.00  0.00    -0.237 OA
ATOM     97  O   UNL A   1      44.186  25.163  37.738  1.00  0.00    -0.744 OA
ENDBRANCH  91  94
ENDBRANCH  64  87
ENDBRANCH  38  39
ENDBRANCH  30  33
ENDBRANCH  28  29
ENDBRANCH  27  28
ENDBRANCH   1  27
TORSDOF 19
ENDMDL
MODEL 2
REMARK VINA RESULT:     -11.7      1.464      2.048
REMARK SMILES COC(=O)C[C@H](c1ccc(C(=O)NCCCNC(=O)c2ccc(-c3c4nc(c(-c5cccc(S(=O)(=O)[O-])c5F)c5ccc([nH]5)c(-c5cccc(S(=O)(=O)[O-])c5F)c5nc(c(-c6cccc(S(=O)(=O)[O-])c6F)c6ccc3[nH]6)C=C5)C=C4)cc2)cc1)c1c(O)n[nH]c1C
REMARK SMILES IDX 14 1 13 2 11 3 12 4 10 6 7 7 8 8 84 9 9 10 83 11 6 12 5 13
REMARK SMILES IDX 3 14 4 15 2 16 1 17 85 18 86 19 90 20 88 21 89 22 91 23
REMARK SMILES IDX 87 25 15 27 16 28 17 29 18 30 19 32 20 33 21 34 82 35 22 36
REMARK SMILES IDX 81 37 23 38 24 39 25 40 75 41 26 42 80 43 74 44 76 45 27 46
REMARK SMILES IDX 79 47 73 48 72 49 28 51 60 52 40 53 59 54 41 55 44 56 58 57
REMARK SMILES IDX 77 58 42 59 43 60 57 62 78 63 45 64 29 65 30 66 38 67 31 68
REMARK SMILES IDX 33 69 39 70 32 71 34 72 35 73 36 74 37 75 61 76 62 77 70 78
REMARK SMILES IDX 63 79 65 80 71 81 64 82 66 83 67 84 68 85 69 86 46 87 47 88
REMARK SMILES IDX 55 89 48 90 50 91 56 92 49 93 51 94 52 95 53 96 54 97
REMARK H PARENT 13 5 89 24 87 26 17 31 76 50 44 61
REMARK Flexibility Score: inf
ROOT
ATOM      1  C   UNL A   1      31.744  30.523  26.340  1.00  0.00     0.118 C 
ENDROOT
BRANCH   1   2
ATOM      2  N   UNL A   1      31.249  30.314  24.992  1.00  0.00    -0.352 N 
ATOM      3  C   UNL A   1      31.291  29.204  24.192  1.00  0.00     0.251 C 
ATOM      4  O   UNL A   1      30.701  29.219  23.113  1.00  0.00    -0.269 OA
ATOM      5  H   UNL A   1      30.812  31.097  24.587  1.00  0.00     0.163 HD
BRANCH   3   6
ATOM      6  C   UNL A   1      31.971  27.963  24.627  1.00  0.00     0.039 A 
ATOM      7  C   UNL A   1      33.125  25.530  25.454  1.00  0.00    -0.040 A 
ATOM      8  C   UNL A   1      31.731  25.661  25.332  1.00  0.00     0.005 A 
ATOM      9  C   UNL A   1      33.929  26.638  25.134  1.00  0.00     0.005 A 
ATOM     10  C   UNL A   1      31.160  26.863  24.916  1.00  0.00     0.014 A 
ATOM     11  C   UNL A   1      33.358  27.838  24.706  1.00  0.00     0.014 A 
BRANCH   7  12
ATOM     12  C   UNL A   1      33.791  24.243  25.922  1.00  0.00     0.068 C 
BRANCH  12  13
ATOM     13  C   UNL A   1      32.868  23.064  26.248  1.00  0.00     0.136 C 
BRANCH  13  14
ATOM     14  C   UNL A   1      33.604  21.898  26.860  1.00  0.00     0.306 C 
ATOM     15  O   UNL A   1      34.378  22.015  27.803  1.00  0.00    -0.252 OA
BRANCH  14  16
ATOM     16  O   UNL A   1      33.297  20.725  26.246  1.00  0.00    -0.469 OA
ATOM     17  C   UNL A   1      34.163  20.396  25.158  1.00  0.00     0.282 C 
ENDBRANCH  14  16
ENDBRANCH  13  14
ENDBRANCH  12  13
BRANCH  12  18
ATOM     18  C   UNL A   1      34.820  23.895  24.876  1.00  0.00     0.044 A 
ATOM     19  C   UNL A   1      34.539  23.593  23.533  1.00  0.00     0.234 A 
ATOM     20  C   UNL A   1      36.209  23.786  24.917  1.00  0.00     0.040 A 
ATOM     21  N   UNL A   1      35.589  23.308  22.782  1.00  0.00    -0.137 NA
ATOM     22  N   UNL A   1      36.599  23.393  23.660  1.00  0.00    -0.279 N 
ATOM     23  C   UNL A   1      37.215  23.958  25.995  1.00  0.00     0.066 C 
ATOM     24  H   UNL A   1      37.535  23.191  23.425  1.00  0.00     0.190 HD
BRANCH  19  25
ATOM     25  O   UNL A   1      33.371  23.554  22.902  1.00  0.00    -0.492 OA
ATOM     26  H   UNL A   1      33.085  24.291  22.400  1.00  0.00     0.295 HD
ENDBRANCH  19  25
ENDBRANCH  12  18
ENDBRANCH   7  12
ENDBRANCH   3   6
ENDBRANCH   1   2
BRANCH   1  27
ATOM     27  C   UNL A   1      31.556  31.972  26.784  1.00  0.00     0.042 C 
BRANCH  27  28
ATOM     28  C   UNL A   1      32.864  32.671  27.143  1.00  0.00     0.118 C 
BRANCH  28  29
ATOM     29  N   UNL A   1      32.646  34.026  27.628  1.00  0.00    -0.352 N 
ATOM     30  C   UNL A   1      33.181  34.665  28.717  1.00  0.00     0.251 C 
ATOM     31  H   UNL A   1      32.019  34.565  27.093  1.00  0.00     0.163 HD
ATOM     32  O   UNL A   1      32.698  35.731  29.087  1.00  0.00    -0.269 OA
BRANCH  30  33
ATOM     33  C   UNL A   1      34.328  34.077  29.445  1.00  0.00     0.039 A 
ATOM     34  C   UNL A   1      34.073  33.211  30.512  1.00  0.00     0.014 A 
ATOM     35  C   UNL A   1      35.643  34.407  29.110  1.00  0.00     0.014 A 
ATOM     36  C   UNL A   1      35.140  32.644  31.215  1.00  0.00     0.010 A 
ATOM     37  C   UNL A   1      36.704  33.782  29.760  1.00  0.00     0.010 A 
ATOM     38  C   UNL A   1      36.464  32.909  30.830  1.00  0.00    -0.014 A 
BRANCH  38  39
ATOM     39  C   UNL A   1      37.607  32.275  31.534  1.00  0.00     0.031 A 
ATOM     40  C   UNL A   1      38.370  31.148  30.893  1.00  0.00     0.074 A 
ATOM     41  C   UNL A   1      37.910  32.667  32.786  1.00  0.00     0.049 A 
ATOM     42  N   UNL A   1      39.390  30.475  31.356  1.00  0.00    -0.248 NA
ATOM     43  C   UNL A   1      37.908  30.700  29.569  1.00  0.00     0.031 C 
ATOM     44  C   UNL A   1      37.191  33.692  33.547  1.00  0.00     0.029 A 
ATOM     45  N   UNL A   1      38.890  32.242  33.647  1.00  0.00    -0.354 N 
ATOM     46  C   UNL A   1      39.670  29.503  30.404  1.00  0.00     0.074 A 
ATOM     47  C   UNL A   1      38.687  29.650  29.353  1.00  0.00     0.031 C 
ATOM     48  C   UNL A   1      37.768  33.831  34.751  1.00  0.00     0.029 A 
ATOM     49  C   UNL A   1      38.879  32.890  34.858  1.00  0.00     0.049 A 
ATOM     50  H   UNL A   1      39.540  31.538  33.417  1.00  0.00     0.167 HD
ATOM     51  C   UNL A   1      40.672  28.591  30.386  1.00  0.00     0.034 A 
ATOM     52  C   UNL A   1      39.682  32.751  35.931  1.00  0.00     0.034 A 
ATOM     53  C   UNL A   1      41.672  28.479  31.415  1.00  0.00     0.049 A 
ATOM     54  C   UNL A   1      40.815  31.764  35.872  1.00  0.00     0.074 A 
ATOM     55  C   UNL A   1      42.788  27.663  31.447  1.00  0.00     0.029 A 
ATOM     56  N   UNL A   1      41.670  29.198  32.600  1.00  0.00    -0.354 N 
ATOM     57  N   UNL A   1      41.170  30.974  34.887  1.00  0.00    -0.248 NA
ATOM     58  C   UNL A   1      41.678  31.677  37.057  1.00  0.00     0.031 C 
ATOM     59  C   UNL A   1      43.449  27.873  32.664  1.00  0.00     0.029 A 
ATOM     60  C   UNL A   1      42.756  28.836  33.380  1.00  0.00     0.049 A 
ATOM     61  H   UNL A   1      40.996  29.870  32.851  1.00  0.00     0.167 HD
ATOM     62  C   UNL A   1      42.316  30.317  35.321  1.00  0.00     0.074 A 
ATOM     63  C   UNL A   1      42.607  30.822  36.649  1.00  0.00     0.031 C 
ATOM     64  C   UNL A   1      43.054  29.374  34.683  1.00  0.00     0.034 A 
BRANCH  51  65
ATOM     65  C   UNL A   1      40.758  27.679  29.188  1.00  0.00     0.023 A 
ATOM     66  C   UNL A   1      39.965  26.512  29.143  1.00  0.00     0.012 A 
ATOM     67  C   UNL A   1      41.602  27.979  28.102  1.00  0.00     0.148 A 
ATOM     68  C   UNL A   1      40.049  25.636  28.061  1.00  0.00     0.002 A 
ATOM     69  C   UNL A   1      41.646  27.123  27.006  1.00  0.00     0.091 A 
ATOM     70  F   UNL A   1      42.368  29.078  28.167  1.00  0.00    -0.205 F 
ATOM     71  C   UNL A   1      40.881  25.945  26.991  1.00  0.00     0.022 A 
BRANCH  69  72
ATOM     72  S   UNL A   1      42.630  27.481  25.546  1.00  0.00     0.127 S 
ATOM     73  O   UNL A   1      42.389  26.295  24.727  1.00  0.00    -0.237 OA
ATOM     74  O   UNL A   1      42.006  28.706  25.042  1.00  0.00    -0.237 OA
ATOM     75  O   UNL A   1      43.994  27.656  26.024  1.00  0.00    -0.744 OA
ENDBRANCH  69  72
ENDBRANCH  51  65
BRANCH  52  76
ATOM     76  C   UNL A   1      39.498  33.647  37.107  1.00  0.00     0.023 A 
ATOM     77  C   UNL A   1      39.939  34.982  37.022  1.00  0.00     0.012 A 
ATOM     78  C   UNL A   1      38.842  33.212  38.274  1.00  0.00     0.148 A 
ATOM     79  C   UNL A   1      39.747  35.863  38.086  1.00  0.00     0.002 A 
ATOM     80  C   UNL A   1      38.609  34.109  39.311  1.00  0.00     0.091 A 
ATOM     81  F   UNL A   1      38.436  31.936  38.335  1.00  0.00    -0.205 F 
ATOM     82  C   UNL A   1      39.074  35.431  39.225  1.00  0.00     0.022 A 
BRANCH  80  83
ATOM     83  S   UNL A   1      37.637  33.683  40.760  1.00  0.00     0.127 S 
ATOM     84  O   UNL A   1      38.465  32.654  41.384  1.00  0.00    -0.237 OA
ATOM     85  O   UNL A   1      37.592  34.957  41.476  1.00  0.00    -0.237 OA
ATOM     86  O   UNL A   1      36.348  33.231  40.253  1.00  0.00    -0.744 OA
ENDBRANCH  80  83
ENDBRANCH  52  76
BRANCH  64  87
ATOM     87  C   UNL A   1      44.261  28.833  35.406  1.00  0.00     0.023 A 
ATOM     88  C   UNL A   1      45.529  29.400  35.170  1.00  0.00     0.012 A 
ATOM     89  C   UNL A   1      44.131  27.805  36.360  1.00  0.00     0.148 A 
ATOM     90  C   UNL A   1      46.654  28.928  35.844  1.00  0.00     0.002 A 
ATOM     91  C   UNL A   1      45.249  27.372  37.064  1.00  0.00     0.091 A 
ATOM     92  F   UNL A   1      42.921  27.261  36.557  1.00  0.00    -0.205 F 
ATOM     93  C   UNL A   1      46.513  27.923  36.798  1.00  0.00     0.022 A 
BRANCH  91  94
ATOM     94  S   UNL A   1      45.142  26.152  38.377  1.00  0.00     0.127 S 
ATOM     95  O   UNL A   1      46.535  26.056  38.811  1.00  0.00    -0.237 OA
ATOM     96  O   UNL A   1      44.248  26.801  39.337  1.00  0.00    -0.237 OA
ATOM     97  O   UNL A   1      44.592  24.951  37.761  1.00  0.00    -0.744 OA
ENDBRANCH  91  94
ENDBRANCH  64  87
ENDBRANCH  38  39
ENDBRANCH  30  33
ENDBRANCH  28  29
ENDBRANCH  27  28
ENDBRANCH   1  27
TORSDOF 19
ENDMDL
MODEL 3
REMARK VINA RESULT:     -11.6      0.544      7.743
REMARK SMILES COC(=O)C[C@H](c1ccc(C(=O)NCCCNC(=O)c2ccc(-c3c4nc(c(-c5cccc(S(=O)(=O)[O-])c5F)c5ccc([nH]5)c(-c5cccc(S(=O)(=O)[O-])c5F)c5nc(c(-c6cccc(S(=O)(=O)[O-])c6F)c6ccc3[nH]6)C=C5)C=C4)cc2)cc1)c1c(O)n[nH]c1C
REMARK SMILES IDX 14 1 13 2 11 3 12 4 10 6 7 7 8 8 84 9 9 10 83 11 6 12 5 13
REMARK SMILES IDX 3 14 4 15 2 16 1 17 85 18 86 19 90 20 88 21 89 22 91 23
REMARK SMILES IDX 87 25 15 27 16 28 17 29 18 30 19 32 20 33 21 34 82 35 22 36
REMARK SMILES IDX 81 37 23 38 24 39 25 40 75 41 26 42 80 43 74 44 76 45 27 46
REMARK SMILES IDX 79 47 73 48 72 49 28 51 60 52 40 53 59 54 41 55 44 56 58 57
REMARK SMILES IDX 77 58 42 59 43 60 57 62 78 63 45 64 29 65 30 66 38 67 31 68
REMARK SMILES IDX 33 69 39 70 32 71 34 72 35 73 36 74 37 75 61 76 62 77 70 78
REMARK SMILES IDX 63 79 65 80 71 81 64 82 66 83 67 84 68 85 69 86 46 87 47 88
REMARK SMILES IDX 55 89 48 90 50 91 56 92 49 93 51 94 52 95 53 96 54 97
REMARK H PARENT 13 5 89 24 87 26 17 31 76 50 44 61
REMARK Flexibility Score: inf
ROOT
ATOM      1  C   UNL A   1      32.000  31.067  26.874  1.00  0.00     0.118 C 
ENDROOT
BRANCH   1   2
ATOM      2  N   UNL A   1      33.217  30.726  27.586  1.00  0.00    -0.352 N 
ATOM      3  C   UNL A   1      33.975  29.586  27.557  1.00  0.00     0.251 C 
ATOM      4  O   UNL A   1      35.044  29.560  28.165  1.00  0.00    -0.269 OA
ATOM      5  H   UNL A   1      33.553  31.428  28.188  1.00  0.00     0.163 HD
BRANCH   3   6
ATOM      6  C   UNL A   1      33.573  28.411  26.752  1.00  0.00     0.039 A 
ATOM      7  C   UNL A   1      32.679  26.165  25.306  1.00  0.00    -0.040 A 
ATOM      8  C   UNL A   1      31.966  26.633  26.422  1.00  0.00     0.005 A 
ATOM      9  C   UNL A   1      33.838  26.858  24.917  1.00  0.00     0.005 A 
ATOM     10  C   UNL A   1      32.405  27.748  27.134  1.00  0.00     0.014 A 
ATOM     11  C   UNL A   1      34.272  27.982  25.623  1.00  0.00     0.014 A 
BRANCH   7  12
ATOM     12  C   UNL A   1      32.247  24.940  24.510  1.00  0.00     0.068 C 
BRANCH  12  13
ATOM     13  C   UNL A   1      30.928  24.277  24.921  1.00  0.00     0.136 C 
BRANCH  13  14
ATOM     14  C   UNL A   1      31.066  23.415  26.151  1.00  0.00     0.306 C 
ATOM     15  O   UNL A   1      30.383  23.568  27.156  1.00  0.00    -0.252 OA
BRANCH  14  16
ATOM     16  O   UNL A   1      32.023  22.461  25.999  1.00  0.00    -0.469 OA
ATOM     17  C   UNL A   1      31.765  21.546  24.931  1.00  0.00     0.282 C 
ENDBRANCH  14  16
ENDBRANCH  13  14
ENDBRANCH  12  13
BRANCH  12  18
ATOM     18  C   UNL A   1      32.255  25.354  23.060  1.00  0.00     0.044 A 
ATOM     19  C   UNL A   1      33.086  24.808  22.067  1.00  0.00     0.234 A 
ATOM     20  C   UNL A   1      31.517  26.293  22.341  1.00  0.00     0.040 A 
ATOM     21  N   UNL A   1      32.938  25.317  20.856  1.00  0.00    -0.137 NA
ATOM     22  N   UNL A   1      31.999  26.255  21.055  1.00  0.00    -0.279 N 
ATOM     23  C   UNL A   1      30.450  27.254  22.714  1.00  0.00     0.066 C 
ATOM     24  H   UNL A   1      31.684  26.860  20.344  1.00  0.00     0.190 HD
BRANCH  19  25
ATOM     25  O   UNL A   1      34.001  23.849  22.163  1.00  0.00    -0.492 OA
ATOM     26  H   UNL A   1      34.363  23.467  21.389  1.00  0.00     0.295 HD
ENDBRANCH  19  25
ENDBRANCH  12  18
ENDBRANCH   7  12
ENDBRANCH   3   6
ENDBRANCH   1   2
BRANCH   1  27
ATOM     27  C   UNL A   1      31.746  32.572  26.892  1.00  0.00     0.042 C 
BRANCH  27  28
ATOM     28  C   UNL A   1      32.976  33.390  27.270  1.00  0.00     0.118 C 
BRANCH  28  29
ATOM     29  N   UNL A   1      32.627  34.596  28.007  1.00  0.00    -0.352 N 
ATOM     30  C   UNL A   1      33.085  35.047  29.219  1.00  0.00     0.251 C 
ATOM     31  H   UNL A   1      31.962  35.175  27.570  1.00  0.00     0.163 HD
ATOM     32  O   UNL A   1      32.501  35.970  29.778  1.00  0.00    -0.269 OA
BRANCH  30  33
ATOM     33  C   UNL A   1      34.270  34.426  29.853  1.00  0.00     0.039 A 
ATOM     34  C   UNL A   1      34.094  33.681  31.022  1.00  0.00     0.014 A 
ATOM     35  C   UNL A   1      35.551  34.610  29.326  1.00  0.00     0.014 A 
ATOM     36  C   UNL A   1      35.198  33.086  31.638  1.00  0.00     0.010 A 
ATOM     37  C   UNL A   1      36.638  33.954  29.897  1.00  0.00     0.010 A 
ATOM     38  C   UNL A   1      36.476  33.200  31.068  1.00  0.00    -0.014 A 
BRANCH  38  39
ATOM     39  C   UNL A   1      37.651  32.532  31.682  1.00  0.00     0.031 A 
ATOM     40  C   UNL A   1      38.186  32.996  33.009  1.00  0.00     0.074 A 
ATOM     41  C   UNL A   1      38.282  31.553  31.006  1.00  0.00     0.049 A 
ATOM     42  N   UNL A   1      39.200  32.536  33.695  1.00  0.00    -0.248 NA
ATOM     43  C   UNL A   1      37.512  34.145  33.635  1.00  0.00     0.031 C 
ATOM     44  C   UNL A   1      37.908  31.072  29.673  1.00  0.00     0.029 A 
ATOM     45  N   UNL A   1      39.378  30.798  31.336  1.00  0.00    -0.354 N 
ATOM     46  C   UNL A   1      39.310  33.358  34.810  1.00  0.00     0.074 A 
ATOM     47  C   UNL A   1      38.282  34.369  34.690  1.00  0.00     0.031 C 
ATOM     48  C   UNL A   1      38.747  30.089  29.311  1.00  0.00     0.029 A 
ATOM     49  C   UNL A   1      39.730  29.887  30.370  1.00  0.00     0.049 A 
ATOM     50  H   UNL A   1      39.866  30.900  32.186  1.00  0.00     0.167 HD
ATOM     51  C   UNL A   1      40.166  33.263  35.857  1.00  0.00     0.034 A 
ATOM     52  C   UNL A   1      40.728  28.981  30.345  1.00  0.00     0.034 A 
ATOM     53  C   UNL A   1      41.158  32.230  35.991  1.00  0.00     0.049 A 
ATOM     54  C   UNL A   1      41.637  28.864  31.537  1.00  0.00     0.074 A 
ATOM     55  C   UNL A   1      42.004  31.980  37.055  1.00  0.00     0.029 A 
ATOM     56  N   UNL A   1      41.444  31.280  35.022  1.00  0.00    -0.354 N 
ATOM     57  N   UNL A   1      41.614  29.537  32.662  1.00  0.00    -0.248 NA
ATOM     58  C   UNL A   1      42.687  27.838  31.470  1.00  0.00     0.031 C 
ATOM     59  C   UNL A   1      42.820  30.892  36.720  1.00  0.00     0.029 A 
ATOM     60  C   UNL A   1      42.465  30.450  35.455  1.00  0.00     0.049 A 
ATOM     61  H   UNL A   1      40.989  31.205  34.153  1.00  0.00     0.167 HD
ATOM     62  C   UNL A   1      42.624  28.997  33.450  1.00  0.00     0.074 A 
ATOM     63  C   UNL A   1      43.223  27.925  32.680  1.00  0.00     0.031 C 
ATOM     64  C   UNL A   1      43.026  29.363  34.693  1.00  0.00     0.034 A 
BRANCH  51  65
ATOM     65  C   UNL A   1      40.025  34.282  36.961  1.00  0.00     0.023 A 
ATOM     66  C   UNL A   1      40.458  35.607  36.745  1.00  0.00     0.012 A 
ATOM     67  C   UNL A   1      39.451  33.939  38.200  1.00  0.00     0.148 A 
ATOM     68  C   UNL A   1      40.369  36.560  37.759  1.00  0.00     0.002 A 
ATOM     69  C   UNL A   1      39.323  34.908  39.191  1.00  0.00     0.091 A 
ATOM     70  F   UNL A   1      39.065  32.671  38.401  1.00  0.00    -0.205 F 
ATOM     71  C   UNL A   1      39.794  36.213  38.977  1.00  0.00     0.022 A 
BRANCH  69  72
ATOM     72  S   UNL A   1      38.524  34.571  40.764  1.00  0.00     0.127 S 
ATOM     73  O   UNL A   1      38.205  35.919  41.230  1.00  0.00    -0.237 OA
ATOM     74  O   UNL A   1      37.362  33.777  40.360  1.00  0.00    -0.237 OA
ATOM     75  O   UNL A   1      39.504  33.842  41.556  1.00  0.00    -0.744 OA
ENDBRANCH  69  72
ENDBRANCH  51  65
BRANCH  52  76
ATOM     76  C   UNL A   1      40.843  28.047  29.190  1.00  0.00     0.023 A 
ATOM     77  C   UNL A   1      40.035  26.894  29.164  1.00  0.00     0.012 A 
ATOM     78  C   UNL A   1      41.691  28.319  28.101  1.00  0.00     0.148 A 
ATOM     79  C   UNL A   1      40.084  26.016  28.080  1.00  0.00     0.002 A 
ATOM     80  C   UNL A   1      41.697  27.467  27.001  1.00  0.00     0.091 A 
ATOM     81  F   UNL A   1      42.455  29.419  28.150  1.00  0.00    -0.205 F 
ATOM     82  C   UNL A   1      40.905  26.308  26.995  1.00  0.00     0.022 A 
BRANCH  80  83
ATOM     83  S   UNL A   1      42.621  27.827  25.503  1.00  0.00     0.127 S 
ATOM     84  O   UNL A   1      42.375  26.628  24.705  1.00  0.00    -0.237 OA
ATOM     85  O   UNL A   1      41.953  29.035  25.022  1.00  0.00    -0.237 OA
ATOM     86  O   UNL A   1      44.001  28.028  25.926  1.00  0.00    -0.744 OA
ENDBRANCH  80  83
ENDBRANCH  52  76
BRANCH  64  87
ATOM     87  C   UNL A   1      44.162  28.588  35.309  1.00  0.00     0.023 A 
ATOM     88  C   UNL A   1      45.493  28.923  34.987  1.00  0.00     0.012 A 
ATOM     89  C   UNL A   1      43.915  27.567  36.248  1.00  0.00     0.148 A 
ATOM     90  C   UNL A   1      46.558  28.232  35.562  1.00  0.00     0.002 A 
ATOM     91  C   UNL A   1      44.983  26.915  36.854  1.00  0.00     0.091 A 
ATOM     92  F   UNL A   1      42.643  27.245  36.526  1.00  0.00    -0.205 F 
ATOM     93  C   UNL A   1      46.304  27.236  36.503  1.00  0.00     0.022 A 
BRANCH  91  94
ATOM     94  S   UNL A   1      44.749  25.688  38.145  1.00  0.00     0.127 S 
ATOM     95  O   UNL A   1      43.996  26.446  39.143  1.00  0.00    -0.237 OA
ATOM     96  O   UNL A   1      43.978  24.652  37.457  1.00  0.00    -0.237 OA
ATOM     97  O   UNL A   1      46.086  25.274  38.548  1.00  0.00    -0.744 OA
ENDBRANCH  91  94
ENDBRANCH  64  87
ENDBRANCH  38  39
ENDBRANCH  30  33
ENDBRANCH  28  29
ENDBRANCH  27  28
ENDBRANCH   1  27
TORSDOF 19
ENDMDL
