MODEL 1
REMARK VINA RESULT:     -10.1      0.000      0.000
REMARK SMILES C[C@H](C(=O)NCCCNC(=O)c1ccc(-c2c3nc(c(-c4cccc(S(=O)(=O)[O-])c4F)c4ccc([nH]4)c(-c4cccc(S(=O)(=O)[O-])c4F)c4nc(c(-c5cccc(S(=O)(=O)[O-])c5F)c5ccc2[nH]5)C=C4)C=C3)cc1)[C@@H](C)[N@@H+](C)CCC[NH+](C)C
REMARK SMILES IDX 3 1 4 2 5 3 2 5 1 6 75 7 76 8 77 9 78 10 79 12 80 13 81 14
REMARK SMILES IDX 82 15 83 16 84 17 6 19 7 20 8 21 9 22 10 23 11 25 12 26
REMARK SMILES IDX 13 27 74 28 14 29 73 30 15 31 16 32 17 33 67 34 18 35 72 36
REMARK SMILES IDX 66 37 68 38 19 39 71 40 65 41 64 42 20 44 52 45 32 46 51 47
REMARK SMILES IDX 33 48 36 49 50 50 69 51 34 52 35 53 49 55 70 56 37 57 21 58
REMARK SMILES IDX 22 59 30 60 23 61 25 62 31 63 24 64 26 65 27 66 28 67 29 68
REMARK SMILES IDX 53 69 54 70 62 71 55 72 57 73 63 74 56 75 58 76 59 77 60 78
REMARK SMILES IDX 61 79 38 80 39 81 47 82 40 83 42 84 48 85 41 86 43 87 44 88
REMARK SMILES IDX 45 89 46 90
REMARK H PARENT 5 4 77 11 82 18 9 24 68 43 36 54
REMARK Flexibility Score: inf
ROOT
ATOM      1  C   UNL A   1      31.509  24.386  26.457  1.00  0.00     0.228 C 
ATOM      2  O   UNL A   1      30.860  23.697  27.251  1.00  0.00    -0.275 OA
ATOM      3  N   UNL A   1      31.726  25.670  26.819  1.00  0.00    -0.356 N 
ATOM      4  H   UNL A   1      31.532  25.870  27.763  1.00  0.00     0.163 HD
ENDROOT
BRANCH   1   5
ATOM      5  C   UNL A   1      32.090  23.766  25.193  1.00  0.00     0.133 C 
ATOM      6  C   UNL A   1      31.943  24.631  23.940  1.00  0.00     0.024 C 
BRANCH   5   7
ATOM      7  C   UNL A   1      33.521  23.171  25.346  1.00  0.00     0.192 C 
ATOM      8  C   UNL A   1      34.520  24.044  26.126  1.00  0.00     0.076 C 
BRANCH   7   9
ATOM      9  N   UNL A   1      33.525  21.740  25.724  1.00  0.00    -0.334 N 
ATOM     10  C   UNL A   1      33.719  21.485  27.145  1.00  0.00     0.332 C 
ATOM     11  H   UNL A   1      34.386  21.497  25.234  1.00  0.00     0.348 HD
BRANCH   9  12
ATOM     12  C   UNL A   1      32.651  20.766  25.053  1.00  0.00     0.268 C 
BRANCH  12  13
ATOM     13  C   UNL A   1      33.165  19.375  24.630  1.00  0.00     0.123 C 
BRANCH  13  14
ATOM     14  C   UNL A   1      32.528  18.122  25.249  1.00  0.00     0.267 C 
BRANCH  14  15
ATOM     15  N   UNL A   1      32.566  16.823  24.554  1.00  0.00    -0.340 N 
ATOM     16  C   UNL A   1      33.527  16.905  23.440  1.00  0.00     0.332 C 
ATOM     17  C   UNL A   1      32.897  15.668  25.378  1.00  0.00     0.332 C 
ATOM     18  H   UNL A   1      31.609  16.660  24.240  1.00  0.00     0.347 HD
ENDBRANCH  14  15
ENDBRANCH  13  14
ENDBRANCH  12  13
ENDBRANCH   9  12
ENDBRANCH   7   9
ENDBRANCH   5   7
ENDBRANCH   1   5
BRANCH   3  19
ATOM     19  C   UNL A   1      32.196  26.798  26.046  1.00  0.00     0.117 C 
BRANCH  19  20
ATOM     20  C   UNL A   1      33.192  27.633  26.843  1.00  0.00     0.042 C 
BRANCH  20  21
ATOM     21  C   UNL A   1      34.028  28.578  25.984  1.00  0.00     0.118 C 
BRANCH  21  22
ATOM     22  N   UNL A   1      33.800  29.975  26.321  1.00  0.00    -0.352 N 
ATOM     23  C   UNL A   1      34.430  30.757  27.258  1.00  0.00     0.251 C 
ATOM     24  H   UNL A   1      33.092  30.424  25.805  1.00  0.00     0.163 HD
ATOM     25  O   UNL A   1      33.944  31.840  27.573  1.00  0.00    -0.269 OA
BRANCH  23  26
ATOM     26  C   UNL A   1      35.681  30.288  27.895  1.00  0.00     0.039 A 
ATOM     27  C   UNL A   1      35.617  29.705  29.162  1.00  0.00     0.014 A 
ATOM     28  C   UNL A   1      36.912  30.435  27.251  1.00  0.00     0.014 A 
ATOM     29  C   UNL A   1      36.783  29.213  29.756  1.00  0.00     0.010 A 
ATOM     30  C   UNL A   1      38.058  29.872  27.809  1.00  0.00     0.010 A 
ATOM     31  C   UNL A   1      38.008  29.263  29.071  1.00  0.00    -0.014 A 
BRANCH  31  32
ATOM     32  C   UNL A   1      39.242  28.673  29.651  1.00  0.00     0.031 A 
ATOM     33  C   UNL A   1      39.870  29.276  30.881  1.00  0.00     0.074 A 
ATOM     34  C   UNL A   1      39.846  27.645  29.020  1.00  0.00     0.049 A 
ATOM     35  N   UNL A   1      40.970  28.930  31.496  1.00  0.00    -0.248 NA
ATOM     36  C   UNL A   1      39.189  30.434  31.482  1.00  0.00     0.031 C 
ATOM     37  C   UNL A   1      39.385  27.028  27.775  1.00  0.00     0.029 A 
ATOM     38  N   UNL A   1      40.995  26.958  29.323  1.00  0.00    -0.354 N 
ATOM     39  C   UNL A   1      41.134  29.846  32.529  1.00  0.00     0.074 A 
ATOM     40  C   UNL A   1      40.035  30.781  32.441  1.00  0.00     0.031 C 
ATOM     41  C   UNL A   1      40.239  26.053  27.422  1.00  0.00     0.029 A 
ATOM     42  C   UNL A   1      41.323  25.994  28.397  1.00  0.00     0.049 A 
ATOM     43  H   UNL A   1      41.534  27.137  30.127  1.00  0.00     0.167 HD
ATOM     44  C   UNL A   1      42.095  29.887  33.482  1.00  0.00     0.034 A 
ATOM     45  C   UNL A   1      42.381  25.161  28.336  1.00  0.00     0.034 A 
ATOM     46  C   UNL A   1      43.156  28.923  33.600  1.00  0.00     0.049 A 
ATOM     47  C   UNL A   1      43.406  25.199  29.438  1.00  0.00     0.074 A 
ATOM     48  C   UNL A   1      44.117  28.821  34.590  1.00  0.00     0.029 A 
ATOM     49  N   UNL A   1      43.401  27.902  32.697  1.00  0.00    -0.354 N 
ATOM     50  N   UNL A   1      43.444  25.961  30.504  1.00  0.00    -0.248 NA
ATOM     51  C   UNL A   1      44.512  24.235  29.350  1.00  0.00     0.031 C 
ATOM     52  C   UNL A   1      44.957  27.749  34.273  1.00  0.00     0.029 A 
ATOM     53  C   UNL A   1      44.504  27.169  33.100  1.00  0.00     0.049 A 
ATOM     54  H   UNL A   1      42.868  27.723  31.888  1.00  0.00     0.167 HD
ATOM     55  C   UNL A   1      44.555  25.547  31.229  1.00  0.00     0.074 A 
ATOM     56  C   UNL A   1      45.148  24.449  30.494  1.00  0.00     0.031 C 
ATOM     57  C   UNL A   1      45.050  26.042  32.390  1.00  0.00     0.034 A 
BRANCH  44  58
ATOM     58  C   UNL A   1      42.014  30.976  34.520  1.00  0.00     0.023 A 
ATOM     59  C   UNL A   1      41.333  30.731  35.730  1.00  0.00     0.012 A 
ATOM     60  C   UNL A   1      42.679  32.204  34.338  1.00  0.00     0.148 A 
ATOM     61  C   UNL A   1      41.292  31.699  36.731  1.00  0.00     0.002 A 
ATOM     62  C   UNL A   1      42.671  33.148  35.358  1.00  0.00     0.091 A 
ATOM     63  F   UNL A   1      43.305  32.425  33.173  1.00  0.00    -0.205 F 
ATOM     64  C   UNL A   1      41.971  32.901  36.551  1.00  0.00     0.022 A 
BRANCH  62  65
ATOM     65  S   UNL A   1      43.579  34.695  35.258  1.00  0.00     0.127 S 
ATOM     66  O   UNL A   1      42.906  35.360  34.144  1.00  0.00    -0.237 OA
ATOM     67  O   UNL A   1      43.318  35.290  36.569  1.00  0.00    -0.237 OA
ATOM     68  O   UNL A   1      44.969  34.332  35.020  1.00  0.00    -0.744 OA
ENDBRANCH  62  65
ENDBRANCH  44  58
BRANCH  45  69
ATOM     69  C   UNL A   1      42.493  24.174  27.225  1.00  0.00     0.023 A 
ATOM     70  C   UNL A   1      43.219  24.517  26.067  1.00  0.00     0.012 A 
ATOM     71  C   UNL A   1      41.902  22.899  27.311  1.00  0.00     0.148 A 
ATOM     72  C   UNL A   1      43.322  23.623  25.000  1.00  0.00     0.002 A 
ATOM     73  C   UNL A   1      42.057  21.992  26.268  1.00  0.00     0.091 A 
ATOM     74  F   UNL A   1      41.202  22.595  28.413  1.00  0.00    -0.205 F 
ATOM     75  C   UNL A   1      42.750  22.358  25.105  1.00  0.00     0.022 A 
BRANCH  73  76
ATOM     76  S   UNL A   1      41.470  20.297  26.380  1.00  0.00     0.127 S 
ATOM     77  O   UNL A   1      41.866  19.932  27.737  1.00  0.00    -0.237 OA
ATOM     78  O   UNL A   1      40.030  20.459  26.179  1.00  0.00    -0.237 OA
ATOM     79  O   UNL A   1      42.146  19.583  25.304  1.00  0.00    -0.744 OA
ENDBRANCH  73  76
ENDBRANCH  45  69
BRANCH  57  80
ATOM     80  C   UNL A   1      46.276  25.383  32.965  1.00  0.00     0.023 A 
ATOM     81  C   UNL A   1      47.550  25.919  32.693  1.00  0.00     0.012 A 
ATOM     82  C   UNL A   1      46.160  24.280  33.833  1.00  0.00     0.148 A 
ATOM     83  C   UNL A   1      48.693  25.347  33.250  1.00  0.00     0.002 A 
ATOM     84  C   UNL A   1      47.298  23.745  34.423  1.00  0.00     0.091 A 
ATOM     85  F   UNL A   1      44.940  23.773  34.065  1.00  0.00    -0.205 F 
ATOM     86  C   UNL A   1      48.567  24.270  34.124  1.00  0.00     0.022 A 
BRANCH  84  87
ATOM     87  S   UNL A   1      47.222  22.421  35.634  1.00  0.00     0.127 S 
ATOM     88  O   UNL A   1      46.337  22.993  36.647  1.00  0.00    -0.237 OA
ATOM     89  O   UNL A   1      46.636  21.325  34.861  1.00  0.00    -0.237 OA
ATOM     90  O   UNL A   1      48.596  22.189  36.061  1.00  0.00    -0.744 OA
ENDBRANCH  84  87
ENDBRANCH  57  80
ENDBRANCH  31  32
ENDBRANCH  23  26
ENDBRANCH  21  22
ENDBRANCH  20  21
ENDBRANCH  19  20
ENDBRANCH   3  19
TORSDOF 19
ENDMDL
MODEL 2
REMARK VINA RESULT:     -10.1      3.879      8.896
REMARK SMILES C[C@H](C(=O)NCCCNC(=O)c1ccc(-c2c3nc(c(-c4cccc(S(=O)(=O)[O-])c4F)c4ccc([nH]4)c(-c4cccc(S(=O)(=O)[O-])c4F)c4nc(c(-c5cccc(S(=O)(=O)[O-])c5F)c5ccc2[nH]5)C=C4)C=C3)cc1)[C@@H](C)[N@@H+](C)CCC[NH+](C)C
REMARK SMILES IDX 3 1 4 2 5 3 2 5 1 6 75 7 76 8 77 9 78 10 79 12 80 13 81 14
REMARK SMILES IDX 82 15 83 16 84 17 6 19 7 20 8 21 9 22 10 23 11 25 12 26
REMARK SMILES IDX 13 27 74 28 14 29 73 30 15 31 16 32 17 33 67 34 18 35 72 36
REMARK SMILES IDX 66 37 68 38 19 39 71 40 65 41 64 42 20 44 52 45 32 46 51 47
REMARK SMILES IDX 33 48 36 49 50 50 69 51 34 52 35 53 49 55 70 56 37 57 21 58
REMARK SMILES IDX 22 59 30 60 23 61 25 62 31 63 24 64 26 65 27 66 28 67 29 68
REMARK SMILES IDX 53 69 54 70 62 71 55 72 57 73 63 74 56 75 58 76 59 77 60 78
REMARK SMILES IDX 61 79 38 80 39 81 47 82 40 83 42 84 48 85 41 86 43 87 44 88
REMARK SMILES IDX 45 89 46 90
REMARK H PARENT 5 4 77 11 82 18 9 24 68 43 36 54
REMARK Flexibility Score: inf
ROOT
ATOM      1  C   UNL A   1      30.813  29.330  23.764  1.00  0.00     0.228 C 
ATOM      2  O   UNL A   1      30.218  29.622  22.721  1.00  0.00    -0.275 OA
ATOM      3  N   UNL A   1      30.983  30.330  24.656  1.00  0.00    -0.356 N 
ATOM      4  H   UNL A   1      30.438  31.131  24.485  1.00  0.00     0.163 HD
ENDROOT
BRANCH   1   5
ATOM      5  C   UNL A   1      31.240  27.891  24.031  1.00  0.00     0.133 C 
ATOM      6  C   UNL A   1      30.105  26.870  23.941  1.00  0.00     0.024 C 
BRANCH   5   7
ATOM      7  C   UNL A   1      32.521  27.432  23.276  1.00  0.00     0.192 C 
ATOM      8  C   UNL A   1      33.489  28.558  22.869  1.00  0.00     0.076 C 
BRANCH   7   9
ATOM      9  N   UNL A   1      33.171  26.250  23.885  1.00  0.00    -0.334 N 
ATOM     10  C   UNL A   1      33.375  26.342  25.325  1.00  0.00     0.332 C 
ATOM     11  H   UNL A   1      34.074  26.369  23.425  1.00  0.00     0.348 HD
BRANCH   9  12
ATOM     12  C   UNL A   1      32.896  24.889  23.402  1.00  0.00     0.268 C 
BRANCH  12  13
ATOM     13  C   UNL A   1      34.007  23.823  23.312  1.00  0.00     0.123 C 
BRANCH  13  14
ATOM     14  C   UNL A   1      33.927  22.582  24.214  1.00  0.00     0.267 C 
BRANCH  14  15
ATOM     15  N   UNL A   1      32.716  22.281  24.996  1.00  0.00    -0.340 N 
ATOM     16  C   UNL A   1      32.392  20.852  24.844  1.00  0.00     0.332 C 
ATOM     17  C   UNL A   1      32.776  22.602  26.415  1.00  0.00     0.332 C 
ATOM     18  H   UNL A   1      31.993  22.893  24.615  1.00  0.00     0.347 HD
ENDBRANCH  14  15
ENDBRANCH  13  14
ENDBRANCH  12  13
ENDBRANCH   9  12
ENDBRANCH   7   9
ENDBRANCH   5   7
ENDBRANCH   1   5
BRANCH   3  19
ATOM     19  C   UNL A   1      31.836  30.416  25.821  1.00  0.00     0.117 C 
BRANCH  19  20
ATOM     20  C   UNL A   1      31.541  31.677  26.625  1.00  0.00     0.042 C 
BRANCH  20  21
ATOM     21  C   UNL A   1      32.783  32.320  27.236  1.00  0.00     0.118 C 
BRANCH  21  22
ATOM     22  N   UNL A   1      32.593  33.739  27.503  1.00  0.00    -0.352 N 
ATOM     23  C   UNL A   1      33.154  34.521  28.483  1.00  0.00     0.251 C 
ATOM     24  H   UNL A   1      31.974  34.203  26.895  1.00  0.00     0.163 HD
ATOM     25  O   UNL A   1      32.694  35.637  28.707  1.00  0.00    -0.269 OA
BRANCH  23  26
ATOM     26  C   UNL A   1      34.297  34.013  29.274  1.00  0.00     0.039 A 
ATOM     27  C   UNL A   1      34.060  33.069  30.275  1.00  0.00     0.014 A 
ATOM     28  C   UNL A   1      35.594  34.476  29.038  1.00  0.00     0.014 A 
ATOM     29  C   UNL A   1      35.136  32.544  30.998  1.00  0.00     0.010 A 
ATOM     30  C   UNL A   1      36.670  33.893  29.702  1.00  0.00     0.010 A 
ATOM     31  C   UNL A   1      36.452  32.927  30.695  1.00  0.00    -0.014 A 
BRANCH  31  32
ATOM     32  C   UNL A   1      37.614  32.320  31.397  1.00  0.00     0.031 A 
ATOM     33  C   UNL A   1      38.379  31.188  30.763  1.00  0.00     0.074 A 
ATOM     34  C   UNL A   1      37.926  32.732  32.642  1.00  0.00     0.049 A 
ATOM     35  N   UNL A   1      39.383  30.503  31.245  1.00  0.00    -0.248 NA
ATOM     36  C   UNL A   1      37.944  30.750  29.427  1.00  0.00     0.031 C 
ATOM     37  C   UNL A   1      37.209  33.760  33.399  1.00  0.00     0.029 A 
ATOM     38  N   UNL A   1      38.910  32.314  33.504  1.00  0.00    -0.354 N 
ATOM     39  C   UNL A   1      39.675  29.532  30.293  1.00  0.00     0.074 A 
ATOM     40  C   UNL A   1      38.723  29.698  29.217  1.00  0.00     0.031 C 
ATOM     41  C   UNL A   1      37.776  33.896  34.609  1.00  0.00     0.029 A 
ATOM     42  C   UNL A   1      38.878  32.945  34.727  1.00  0.00     0.049 A 
ATOM     43  H   UNL A   1      39.575  31.627  33.271  1.00  0.00     0.167 HD
ATOM     44  C   UNL A   1      40.663  28.606  30.300  1.00  0.00     0.034 A 
ATOM     45  C   UNL A   1      39.645  32.775  35.822  1.00  0.00     0.034 A 
ATOM     46  C   UNL A   1      41.641  28.479  31.347  1.00  0.00     0.049 A 
ATOM     47  C   UNL A   1      40.767  31.772  35.779  1.00  0.00     0.074 A 
ATOM     48  C   UNL A   1      42.741  27.641  31.397  1.00  0.00     0.029 A 
ATOM     49  N   UNL A   1      41.635  29.203  32.528  1.00  0.00    -0.354 N 
ATOM     50  N   UNL A   1      41.134  30.985  34.797  1.00  0.00    -0.248 NA
ATOM     51  C   UNL A   1      41.605  31.661  36.982  1.00  0.00     0.031 C 
ATOM     52  C   UNL A   1      43.388  27.844  32.619  1.00  0.00     0.029 A 
ATOM     53  C   UNL A   1      42.706  28.825  33.319  1.00  0.00     0.049 A 
ATOM     54  H   UNL A   1      40.967  29.886  32.769  1.00  0.00     0.167 HD
ATOM     55  C   UNL A   1      42.263  30.313  35.249  1.00  0.00     0.074 A 
ATOM     56  C   UNL A   1      42.535  30.804  36.584  1.00  0.00     0.031 C 
ATOM     57  C   UNL A   1      42.999  29.362  34.622  1.00  0.00     0.034 A 
BRANCH  44  58
ATOM     58  C   UNL A   1      40.782  27.691  29.110  1.00  0.00     0.023 A 
ATOM     59  C   UNL A   1      39.947  26.560  29.019  1.00  0.00     0.012 A 
ATOM     60  C   UNL A   1      41.654  27.995  28.045  1.00  0.00     0.148 A 
ATOM     61  C   UNL A   1      39.995  25.729  27.901  1.00  0.00     0.002 A 
ATOM     62  C   UNL A   1      41.664  27.187  26.914  1.00  0.00     0.091 A 
ATOM     63  F   UNL A   1      42.453  29.066  28.159  1.00  0.00    -0.205 F 
ATOM     64  C   UNL A   1      40.843  26.049  26.844  1.00  0.00     0.022 A 
BRANCH  62  65
ATOM     65  S   UNL A   1      42.662  27.555  25.465  1.00  0.00     0.127 S 
ATOM     66  O   UNL A   1      42.391  26.394  24.619  1.00  0.00    -0.237 OA
ATOM     67  O   UNL A   1      42.067  28.805  24.993  1.00  0.00    -0.237 OA
ATOM     68  O   UNL A   1      44.033  27.673  25.940  1.00  0.00    -0.744 OA
ENDBRANCH  62  65
ENDBRANCH  44  58
BRANCH  45  69
ATOM     69  C   UNL A   1      39.421  33.616  37.031  1.00  0.00     0.023 A 
ATOM     70  C   UNL A   1      39.914  34.935  37.056  1.00  0.00     0.012 A 
ATOM     71  C   UNL A   1      38.712  33.128  38.146  1.00  0.00     0.148 A 
ATOM     72  C   UNL A   1      39.740  35.740  38.183  1.00  0.00     0.002 A 
ATOM     73  C   UNL A   1      38.493  33.954  39.243  1.00  0.00     0.091 A 
ATOM     74  F   UNL A   1      38.262  31.866  38.112  1.00  0.00    -0.205 F 
ATOM     75  C   UNL A   1      39.022  35.253  39.272  1.00  0.00     0.022 A 
BRANCH  73  76
ATOM     76  S   UNL A   1      37.461  33.453  40.626  1.00  0.00     0.127 S 
ATOM     77  O   UNL A   1      36.372  32.755  39.950  1.00  0.00    -0.237 OA
ATOM     78  O   UNL A   1      38.367  32.593  41.388  1.00  0.00    -0.237 OA
ATOM     79  O   UNL A   1      37.101  34.690  41.308  1.00  0.00    -0.744 OA
ENDBRANCH  73  76
ENDBRANCH  45  69
BRANCH  57  80
ATOM     80  C   UNL A   1      44.193  28.808  35.353  1.00  0.00     0.023 A 
ATOM     81  C   UNL A   1      45.466  29.377  35.146  1.00  0.00     0.012 A 
ATOM     82  C   UNL A   1      44.042  27.775  36.299  1.00  0.00     0.148 A 
ATOM     83  C   UNL A   1      46.575  28.903  35.846  1.00  0.00     0.002 A 
ATOM     84  C   UNL A   1      45.143  27.341  37.027  1.00  0.00     0.091 A 
ATOM     85  F   UNL A   1      42.826  27.235  36.468  1.00  0.00    -0.205 F 
ATOM     86  C   UNL A   1      46.412  27.896  36.794  1.00  0.00     0.022 A 
BRANCH  84  87
ATOM     87  S   UNL A   1      45.009  26.117  38.335  1.00  0.00     0.127 S 
ATOM     88  O   UNL A   1      44.675  24.910  37.581  1.00  0.00    -0.237 OA
ATOM     89  O   UNL A   1      46.356  26.125  38.908  1.00  0.00    -0.237 OA
ATOM     90  O   UNL A   1      43.969  26.603  39.232  1.00  0.00    -0.744 OA
ENDBRANCH  84  87
ENDBRANCH  57  80
ENDBRANCH  31  32
ENDBRANCH  23  26
ENDBRANCH  21  22
ENDBRANCH  20  21
ENDBRANCH  19  20
ENDBRANCH   3  19
TORSDOF 19
ENDMDL
MODEL 3
REMARK VINA RESULT:      -9.6      5.324      9.068
REMARK SMILES C[C@H](C(=O)NCCCNC(=O)c1ccc(-c2c3nc(c(-c4cccc(S(=O)(=O)[O-])c4F)c4ccc([nH]4)c(-c4cccc(S(=O)(=O)[O-])c4F)c4nc(c(-c5cccc(S(=O)(=O)[O-])c5F)c5ccc2[nH]5)C=C4)C=C3)cc1)[C@@H](C)[N@@H+](C)CCC[NH+](C)C
REMARK SMILES IDX 3 1 4 2 5 3 2 5 1 6 75 7 76 8 77 9 78 10 79 12 80 13 81 14
REMARK SMILES IDX 82 15 83 16 84 17 6 19 7 20 8 21 9 22 10 23 11 25 12 26
REMARK SMILES IDX 13 27 74 28 14 29 73 30 15 31 16 32 17 33 67 34 18 35 72 36
REMARK SMILES IDX 66 37 68 38 19 39 71 40 65 41 64 42 20 44 52 45 32 46 51 47
REMARK SMILES IDX 33 48 36 49 50 50 69 51 34 52 35 53 49 55 70 56 37 57 21 58
REMARK SMILES IDX 22 59 30 60 23 61 25 62 31 63 24 64 26 65 27 66 28 67 29 68
REMARK SMILES IDX 53 69 54 70 62 71 55 72 57 73 63 74 56 75 58 76 59 77 60 78
REMARK SMILES IDX 61 79 38 80 39 81 47 82 40 83 42 84 48 85 41 86 43 87 44 88
REMARK SMILES IDX 45 89 46 90
REMARK H PARENT 5 4 77 11 82 18 9 24 68 43 36 54
REMARK Flexibility Score: inf
ROOT
ATOM      1  C   UNL A   1      35.791  22.730  23.911  1.00  0.00     0.228 C 
ATOM      2  O   UNL A   1      35.526  23.287  22.840  1.00  0.00    -0.275 OA
ATOM      3  N   UNL A   1      36.745  21.774  23.868  1.00  0.00    -0.356 N 
ATOM      4  H   UNL A   1      37.279  21.763  23.041  1.00  0.00     0.163 HD
ENDROOT
BRANCH   1   5
ATOM      5  C   UNL A   1      35.121  23.183  25.202  1.00  0.00     0.133 C 
ATOM      6  C   UNL A   1      35.014  24.701  25.359  1.00  0.00     0.024 C 
BRANCH   5   7
ATOM      7  C   UNL A   1      33.793  22.449  25.549  1.00  0.00     0.192 C 
ATOM      8  C   UNL A   1      33.293  22.632  26.993  1.00  0.00     0.076 C 
BRANCH   7   9
ATOM      9  N   UNL A   1      32.749  22.599  24.511  1.00  0.00    -0.334 N 
ATOM     10  C   UNL A   1      32.446  21.381  23.771  1.00  0.00     0.332 C 
ATOM     11  H   UNL A   1      33.284  23.219  23.903  1.00  0.00     0.348 HD
BRANCH   9  12
ATOM     12  C   UNL A   1      31.594  23.487  24.707  1.00  0.00     0.268 C 
BRANCH  12  13
ATOM     13  C   UNL A   1      30.806  24.065  23.513  1.00  0.00     0.123 C 
BRANCH  13  14
ATOM     14  C   UNL A   1      31.410  25.228  22.711  1.00  0.00     0.267 C 
BRANCH  14  15
ATOM     15  N   UNL A   1      31.310  26.618  23.188  1.00  0.00    -0.340 N 
ATOM     16  C   UNL A   1      29.904  26.909  23.519  1.00  0.00     0.332 C 
ATOM     17  C   UNL A   1      32.144  26.963  24.331  1.00  0.00     0.332 C 
ATOM     18  H   UNL A   1      31.662  27.190  22.420  1.00  0.00     0.347 HD
ENDBRANCH  14  15
ENDBRANCH  13  14
ENDBRANCH  12  13
ENDBRANCH   9  12
ENDBRANCH   7   9
ENDBRANCH   5   7
ENDBRANCH   1   5
BRANCH   3  19
ATOM     19  C   UNL A   1      37.110  20.766  24.837  1.00  0.00     0.117 C 
BRANCH  19  20
ATOM     20  C   UNL A   1      38.623  20.682  25.000  1.00  0.00     0.042 C 
BRANCH  20  21
ATOM     21  C   UNL A   1      39.066  20.124  26.349  1.00  0.00     0.118 C 
BRANCH  21  22
ATOM     22  N   UNL A   1      40.184  19.199  26.223  1.00  0.00    -0.352 N 
ATOM     23  C   UNL A   1      41.527  19.467  26.121  1.00  0.00     0.251 C 
ATOM     24  H   UNL A   1      39.942  18.245  26.207  1.00  0.00     0.163 HD
ATOM     25  O   UNL A   1      42.300  18.578  25.778  1.00  0.00    -0.269 OA
BRANCH  23  26
ATOM     26  C   UNL A   1      42.035  20.827  26.410  1.00  0.00     0.039 A 
ATOM     27  C   UNL A   1      42.266  21.702  25.347  1.00  0.00     0.014 A 
ATOM     28  C   UNL A   1      42.295  21.232  27.722  1.00  0.00     0.014 A 
ATOM     29  C   UNL A   1      42.700  23.006  25.607  1.00  0.00     0.010 A 
ATOM     30  C   UNL A   1      42.648  22.553  27.983  1.00  0.00     0.010 A 
ATOM     31  C   UNL A   1      42.863  23.452  26.929  1.00  0.00    -0.014 A 
BRANCH  31  32
ATOM     32  C   UNL A   1      43.245  24.857  27.228  1.00  0.00     0.031 A 
ATOM     33  C   UNL A   1      42.245  25.804  27.840  1.00  0.00     0.074 A 
ATOM     34  C   UNL A   1      44.465  25.304  26.869  1.00  0.00     0.049 A 
ATOM     35  N   UNL A   1      42.381  27.073  28.122  1.00  0.00    -0.248 NA
ATOM     36  C   UNL A   1      40.912  25.263  28.150  1.00  0.00     0.031 C 
ATOM     37  C   UNL A   1      45.493  24.510  26.192  1.00  0.00     0.029 A 
ATOM     38  N   UNL A   1      45.039  26.545  26.996  1.00  0.00    -0.354 N 
ATOM     39  C   UNL A   1      41.147  27.491  28.605  1.00  0.00     0.074 A 
ATOM     40  C   UNL A   1      40.264  26.347  28.552  1.00  0.00     0.031 C 
ATOM     41  C   UNL A   1      46.569  25.280  25.966  1.00  0.00     0.029 A 
ATOM     42  C   UNL A   1      46.301  26.629  26.454  1.00  0.00     0.049 A 
ATOM     43  H   UNL A   1      44.590  27.304  27.434  1.00  0.00     0.167 HD
ATOM     44  C   UNL A   1      40.788  28.708  29.079  1.00  0.00     0.034 A 
ATOM     45  C   UNL A   1      47.145  27.675  26.355  1.00  0.00     0.034 A 
ATOM     46  C   UNL A   1      41.683  29.829  29.182  1.00  0.00     0.049 A 
ATOM     47  C   UNL A   1      46.736  29.002  26.936  1.00  0.00     0.074 A 
ATOM     48  C   UNL A   1      41.443  31.071  29.741  1.00  0.00     0.029 A 
ATOM     49  N   UNL A   1      42.986  29.848  28.710  1.00  0.00    -0.354 N 
ATOM     50  N   UNL A   1      45.623  29.326  27.549  1.00  0.00    -0.248 NA
ATOM     51  C   UNL A   1      47.713  30.096  26.847  1.00  0.00     0.031 C 
ATOM     52  C   UNL A   1      42.595  31.849  29.589  1.00  0.00     0.029 A 
ATOM     53  C   UNL A   1      43.560  31.082  28.957  1.00  0.00     0.049 A 
ATOM     54  H   UNL A   1      43.437  29.093  28.266  1.00  0.00     0.167 HD
ATOM     55  C   UNL A   1      45.780  30.648  27.948  1.00  0.00     0.074 A 
ATOM     56  C   UNL A   1      47.105  31.057  27.530  1.00  0.00     0.031 C 
ATOM     57  C   UNL A   1      44.900  31.458  28.588  1.00  0.00     0.034 A 
BRANCH  44  58
ATOM     58  C   UNL A   1      39.380  28.882  29.585  1.00  0.00     0.023 A 
ATOM     59  C   UNL A   1      39.071  28.523  30.913  1.00  0.00     0.012 A 
ATOM     60  C   UNL A   1      38.388  29.478  28.781  1.00  0.00     0.148 A 
ATOM     61  C   UNL A   1      37.791  28.727  31.425  1.00  0.00     0.002 A 
ATOM     62  C   UNL A   1      37.127  29.719  29.313  1.00  0.00     0.091 A 
ATOM     63  F   UNL A   1      38.697  29.796  27.516  1.00  0.00    -0.205 F 
ATOM     64  C   UNL A   1      36.823  29.336  30.631  1.00  0.00     0.022 A 
BRANCH  62  65
ATOM     65  S   UNL A   1      35.833  30.569  28.400  1.00  0.00     0.127 S 
ATOM     66  O   UNL A   1      35.288  29.486  27.584  1.00  0.00    -0.237 OA
ATOM     67  O   UNL A   1      34.950  31.028  29.473  1.00  0.00    -0.237 OA
ATOM     68  O   UNL A   1      36.496  31.633  27.659  1.00  0.00    -0.744 OA
ENDBRANCH  62  65
ENDBRANCH  44  58
BRANCH  45  69
ATOM     69  C   UNL A   1      48.489  27.496  25.737  1.00  0.00     0.023 A 
ATOM     70  C   UNL A   1      49.594  27.197  26.558  1.00  0.00     0.012 A 
ATOM     71  C   UNL A   1      48.679  27.605  24.345  1.00  0.00     0.148 A 
ATOM     72  C   UNL A   1      50.869  27.046  26.011  1.00  0.00     0.002 A 
ATOM     73  C   UNL A   1      49.941  27.397  23.800  1.00  0.00     0.091 A 
ATOM     74  F   UNL A   1      47.620  27.905  23.580  1.00  0.00    -0.205 F 
ATOM     75  C   UNL A   1      51.041  27.137  24.632  1.00  0.00     0.022 A 
BRANCH  73  76
ATOM     76  S   UNL A   1      50.223  27.360  22.026  1.00  0.00     0.127 S 
ATOM     77  O   UNL A   1      49.969  28.748  21.653  1.00  0.00    -0.237 OA
ATOM     78  O   UNL A   1      51.624  26.945  21.947  1.00  0.00    -0.237 OA
ATOM     79  O   UNL A   1      49.280  26.377  21.506  1.00  0.00    -0.744 OA
ENDBRANCH  73  76
ENDBRANCH  45  69
BRANCH  57  80
ATOM     80  C   UNL A   1      45.346  32.859  28.910  1.00  0.00     0.023 A 
ATOM     81  C   UNL A   1      46.022  33.117  30.119  1.00  0.00     0.012 A 
ATOM     82  C   UNL A   1      45.162  33.905  27.983  1.00  0.00     0.148 A 
ATOM     83  C   UNL A   1      46.478  34.401  30.415  1.00  0.00     0.002 A 
ATOM     84  C   UNL A   1      45.662  35.169  28.263  1.00  0.00     0.091 A 
ATOM     85  F   UNL A   1      44.500  33.642  26.846  1.00  0.00    -0.205 F 
ATOM     86  C   UNL A   1      46.310  35.423  29.483  1.00  0.00     0.022 A 
BRANCH  84  87
ATOM     87  S   UNL A   1      45.576  36.520  27.083  1.00  0.00     0.127 S 
ATOM     88  O   UNL A   1      46.298  35.965  25.939  1.00  0.00    -0.237 OA
ATOM     89  O   UNL A   1      44.134  36.667  26.880  1.00  0.00    -0.237 OA
ATOM     90  O   UNL A   1      46.212  37.659  27.731  1.00  0.00    -0.744 OA
ENDBRANCH  84  87
ENDBRANCH  57  80
ENDBRANCH  31  32
ENDBRANCH  23  26
ENDBRANCH  21  22
ENDBRANCH  20  21
ENDBRANCH  19  20
ENDBRANCH   3  19
TORSDOF 19
ENDMDL
