MODEL 1
REMARK VINA RESULT:     -12.3      0.000      0.000
REMARK SMILES O=C(NCCCNC(=O)c1cnccc1C(=O)Nc1ccc(Cl)c(Cl)c1)c1ccc(-c2c3nc(c(-c4cccc(S(=O)(=O)[O-])c4F)c4ccc([nH]4)c(-c4cccc(S(=O)(=O)[O-])c4F)c4nc(c(-c5cccc(S(=O)(=O)[O-])c5F)c5ccc2[nH]5)C=C4)C=C3)cc1
REMARK SMILES IDX 4 1 3 2 1 3 2 4 27 6 28 7 89 8 29 9 88 10 30 11 31 12 32 13
REMARK SMILES IDX 82 14 33 15 87 16 81 17 83 18 34 19 86 20 80 21 79 22 35 24
REMARK SMILES IDX 67 25 47 26 66 27 48 28 51 29 65 30 84 31 49 32 50 33 64 35
REMARK SMILES IDX 85 36 52 37 36 38 37 39 45 40 38 41 40 42 46 43 39 44 41 45
REMARK SMILES IDX 42 46 43 47 44 48 68 49 69 50 77 51 70 52 72 53 78 54 71 55
REMARK SMILES IDX 73 56 74 57 75 58 76 59 53 60 54 61 62 62 55 63 57 64 63 65
REMARK SMILES IDX 56 66 58 67 59 68 60 69 61 70 5 71 6 72 7 73 8 74 9 76 10 77
REMARK SMILES IDX 11 78 15 79 12 80 14 81 13 82 16 83 17 84 18 85 19 87 20 88
REMARK SMILES IDX 26 89 21 90 24 91 22 92 25 93 23 94
REMARK H PARENT 3 5 83 23 51 34 7 75 18 86
REMARK Flexibility Score: inf
ROOT
ATOM      1  C   UNL A   1      33.265  31.965  27.402  1.00  0.00     0.118 C 
ENDROOT
BRANCH   1   2
ATOM      2  N   UNL A   1      32.724  33.297  27.637  1.00  0.00    -0.352 N 
ATOM      3  O   UNL A   1      32.603  35.332  28.610  1.00  0.00    -0.269 OA
ATOM      4  C   UNL A   1      33.197  34.264  28.494  1.00  0.00     0.251 C 
ATOM      5  H   UNL A   1      31.921  33.534  27.119  1.00  0.00     0.163 HD
BRANCH   4   6
ATOM      6  C   UNL A   1      34.390  33.959  29.309  1.00  0.00     0.039 A 
ATOM      7  C   UNL A   1      35.657  34.380  28.894  1.00  0.00     0.014 A 
ATOM      8  C   UNL A   1      34.240  33.133  30.424  1.00  0.00     0.014 A 
ATOM      9  C   UNL A   1      36.788  33.844  29.502  1.00  0.00     0.010 A 
ATOM     10  C   UNL A   1      35.377  32.651  31.073  1.00  0.00     0.010 A 
ATOM     11  C   UNL A   1      36.658  32.959  30.585  1.00  0.00    -0.014 A 
BRANCH  11  12
ATOM     12  C   UNL A   1      37.857  32.363  31.223  1.00  0.00     0.031 A 
ATOM     13  C   UNL A   1      38.572  31.205  30.582  1.00  0.00     0.074 A 
ATOM     14  C   UNL A   1      38.265  32.834  32.415  1.00  0.00     0.049 A 
ATOM     15  N   UNL A   1      39.564  30.490  31.045  1.00  0.00    -0.248 NA
ATOM     16  C   UNL A   1      38.105  30.788  29.249  1.00  0.00     0.031 C 
ATOM     17  C   UNL A   1      37.630  33.931  33.144  1.00  0.00     0.029 A 
ATOM     18  N   UNL A   1      39.282  32.425  33.239  1.00  0.00    -0.354 N 
ATOM     19  C   UNL A   1      39.807  29.509  30.091  1.00  0.00     0.074 A 
ATOM     20  C   UNL A   1      38.861  29.723  29.017  1.00  0.00     0.031 C 
ATOM     21  C   UNL A   1      38.256  34.095  34.319  1.00  0.00     0.029 A 
ATOM     22  C   UNL A   1      39.302  33.087  34.443  1.00  0.00     0.049 A 
ATOM     23  H   UNL A   1      39.932  31.727  32.992  1.00  0.00     0.167 HD
ATOM     24  C   UNL A   1      40.744  28.530  30.104  1.00  0.00     0.034 A 
ATOM     25  C   UNL A   1      40.054  32.884  35.542  1.00  0.00     0.034 A 
ATOM     26  C   UNL A   1      41.713  28.356  31.153  1.00  0.00     0.049 A 
ATOM     27  C   UNL A   1      41.102  31.811  35.524  1.00  0.00     0.074 A 
ATOM     28  C   UNL A   1      42.753  27.445  31.221  1.00  0.00     0.029 A 
ATOM     29  N   UNL A   1      41.760  29.104  32.320  1.00  0.00    -0.354 N 
ATOM     30  N   UNL A   1      41.401  30.973  34.560  1.00  0.00    -0.248 NA
ATOM     31  C   UNL A   1      41.935  31.670  36.725  1.00  0.00     0.031 C 
ATOM     32  C   UNL A   1      43.422  27.636  32.435  1.00  0.00     0.029 A 
ATOM     33  C   UNL A   1      42.805  28.673  33.118  1.00  0.00     0.049 A 
ATOM     34  H   UNL A   1      41.140  29.834  32.547  1.00  0.00     0.167 HD
ATOM     35  C   UNL A   1      42.474  30.224  35.027  1.00  0.00     0.074 A 
ATOM     36  C   UNL A   1      42.782  30.717  36.354  1.00  0.00     0.031 C 
ATOM     37  C   UNL A   1      43.135  29.210  34.413  1.00  0.00     0.034 A 
BRANCH  24  38
ATOM     38  C   UNL A   1      40.797  27.593  28.926  1.00  0.00     0.023 A 
ATOM     39  C   UNL A   1      39.860  26.545  28.831  1.00  0.00     0.012 A 
ATOM     40  C   UNL A   1      41.729  27.781  27.887  1.00  0.00     0.148 A 
ATOM     41  C   UNL A   1      39.868  25.682  27.735  1.00  0.00     0.002 A 
ATOM     42  C   UNL A   1      41.709  26.937  26.780  1.00  0.00     0.091 A 
ATOM     43  F   UNL A   1      42.634  28.765  28.003  1.00  0.00    -0.205 F 
ATOM     44  C   UNL A   1      40.784  25.883  26.706  1.00  0.00     0.022 A 
BRANCH  42  45
ATOM     45  S   UNL A   1      42.816  27.180  25.386  1.00  0.00     0.127 S 
ATOM     46  O   UNL A   1      42.670  25.915  24.668  1.00  0.00    -0.237 OA
ATOM     47  O   UNL A   1      42.225  28.335  24.707  1.00  0.00    -0.237 OA
ATOM     48  O   UNL A   1      44.125  27.436  25.971  1.00  0.00    -0.744 OA
ENDBRANCH  42  45
ENDBRANCH  24  38
BRANCH  25  49
ATOM     49  C   UNL A   1      39.843  33.763  36.725  1.00  0.00     0.023 A 
ATOM     50  C   UNL A   1      40.143  35.134  36.628  1.00  0.00     0.012 A 
ATOM     51  C   UNL A   1      39.238  33.268  37.897  1.00  0.00     0.148 A 
ATOM     52  C   UNL A   1      39.845  35.999  37.680  1.00  0.00     0.002 A 
ATOM     53  C   UNL A   1      38.893  34.144  38.918  1.00  0.00     0.091 A 
ATOM     54  F   UNL A   1      38.973  31.956  37.970  1.00  0.00    -0.205 F 
ATOM     55  C   UNL A   1      39.207  35.508  38.817  1.00  0.00     0.022 A 
BRANCH  53  56
ATOM     56  S   UNL A   1      37.931  33.627  40.346  1.00  0.00     0.127 S 
ATOM     57  O   UNL A   1      37.791  34.881  41.080  1.00  0.00    -0.237 OA
ATOM     58  O   UNL A   1      36.703  33.137  39.722  1.00  0.00    -0.237 OA
ATOM     59  O   UNL A   1      38.723  32.595  41.001  1.00  0.00    -0.744 OA
ENDBRANCH  53  56
ENDBRANCH  25  49
BRANCH  37  60
ATOM     60  C   UNL A   1      44.278  28.572  35.154  1.00  0.00     0.023 A 
ATOM     61  C   UNL A   1      45.586  29.054  34.959  1.00  0.00     0.012 A 
ATOM     62  C   UNL A   1      44.042  27.571  36.116  1.00  0.00     0.148 A 
ATOM     63  C   UNL A   1      46.647  28.538  35.699  1.00  0.00     0.002 A 
ATOM     64  C   UNL A   1      45.098  27.088  36.879  1.00  0.00     0.091 A 
ATOM     65  F   UNL A   1      42.790  27.115  36.271  1.00  0.00    -0.205 F 
ATOM     66  C   UNL A   1      46.403  27.566  36.667  1.00  0.00     0.022 A 
BRANCH  64  67
ATOM     67  S   UNL A   1      44.864  25.901  38.206  1.00  0.00     0.127 S 
ATOM     68  O   UNL A   1      43.885  26.584  39.049  1.00  0.00    -0.237 OA
ATOM     69  O   UNL A   1      44.346  24.733  37.492  1.00  0.00    -0.237 OA
ATOM     70  O   UNL A   1      46.178  25.706  38.805  1.00  0.00    -0.744 OA
ENDBRANCH  64  67
ENDBRANCH  37  60
ENDBRANCH  11  12
ENDBRANCH   4   6
ENDBRANCH   1   2
BRANCH   1  71
ATOM     71  C   UNL A   1      32.259  30.988  26.803  1.00  0.00     0.042 C 
BRANCH  71  72
ATOM     72  C   UNL A   1      32.569  29.527  27.084  1.00  0.00     0.118 C 
BRANCH  72  73
ATOM     73  N   UNL A   1      33.582  29.002  26.189  1.00  0.00    -0.352 N 
ATOM     74  C   UNL A   1      33.436  28.324  25.015  1.00  0.00     0.253 C 
ATOM     75  H   UNL A   1      34.512  29.159  26.470  1.00  0.00     0.163 HD
ATOM     76  O   UNL A   1      34.425  27.838  24.469  1.00  0.00    -0.269 OA
BRANCH  74  77
ATOM     77  C   UNL A   1      32.118  28.082  24.421  1.00  0.00     0.070 A 
ATOM     78  C   UNL A   1      31.834  28.912  23.338  1.00  0.00     0.125 A 
ATOM     79  C   UNL A   1      31.150  27.153  24.808  1.00  0.00     0.056 A 
ATOM     80  N   UNL A   1      30.713  28.835  22.581  1.00  0.00    -0.264 NA
ATOM     81  C   UNL A   1      29.992  27.048  24.012  1.00  0.00     0.035 A 
ATOM     82  C   UNL A   1      29.826  27.886  22.923  1.00  0.00     0.112 A 
BRANCH  79  83
ATOM     83  C   UNL A   1      31.231  26.143  25.896  1.00  0.00     0.256 C 
ATOM     84  O   UNL A   1      30.457  26.288  26.848  1.00  0.00    -0.269 OA
ATOM     85  N   UNL A   1      32.010  25.014  25.901  1.00  0.00    -0.322 N 
ATOM     86  H   UNL A   1      31.752  24.367  26.596  1.00  0.00     0.170 HD
BRANCH  85  87
ATOM     87  C   UNL A   1      33.093  24.590  25.129  1.00  0.00     0.043 A 
ATOM     88  C   UNL A   1      32.977  24.163  23.810  1.00  0.00     0.028 A 
ATOM     89  C   UNL A   1      34.345  24.590  25.755  1.00  0.00     0.048 A 
ATOM     90  C   UNL A   1      34.099  23.649  23.148  1.00  0.00     0.024 A 
ATOM     91  C   UNL A   1      35.456  24.041  25.110  1.00  0.00     0.061 A 
ATOM     92  C   UNL A   1      35.331  23.561  23.804  1.00  0.00     0.059 A 
ATOM     93  Cl  UNL A   1      36.930  23.944  26.005  1.00  0.00    -0.083 Cl
ATOM     94  Cl  UNL A   1      36.651  22.842  22.953  1.00  0.00    -0.083 Cl
ENDBRANCH  85  87
ENDBRANCH  79  83
ENDBRANCH  74  77
ENDBRANCH  72  73
ENDBRANCH  71  72
ENDBRANCH   1  71
TORSDOF 15
ENDMDL
MODEL 2
REMARK VINA RESULT:     -12.2      0.538      7.762
REMARK SMILES O=C(NCCCNC(=O)c1cnccc1C(=O)Nc1ccc(Cl)c(Cl)c1)c1ccc(-c2c3nc(c(-c4cccc(S(=O)(=O)[O-])c4F)c4ccc([nH]4)c(-c4cccc(S(=O)(=O)[O-])c4F)c4nc(c(-c5cccc(S(=O)(=O)[O-])c5F)c5ccc2[nH]5)C=C4)C=C3)cc1
REMARK SMILES IDX 4 1 3 2 1 3 2 4 27 6 28 7 89 8 29 9 88 10 30 11 31 12 32 13
REMARK SMILES IDX 82 14 33 15 87 16 81 17 83 18 34 19 86 20 80 21 79 22 35 24
REMARK SMILES IDX 67 25 47 26 66 27 48 28 51 29 65 30 84 31 49 32 50 33 64 35
REMARK SMILES IDX 85 36 52 37 36 38 37 39 45 40 38 41 40 42 46 43 39 44 41 45
REMARK SMILES IDX 42 46 43 47 44 48 68 49 69 50 77 51 70 52 72 53 78 54 71 55
REMARK SMILES IDX 73 56 74 57 75 58 76 59 53 60 54 61 62 62 55 63 57 64 63 65
REMARK SMILES IDX 56 66 58 67 59 68 60 69 61 70 5 71 6 72 7 73 8 74 9 76 10 77
REMARK SMILES IDX 11 78 15 79 12 80 14 81 13 82 16 83 17 84 18 85 19 87 20 88
REMARK SMILES IDX 26 89 21 90 24 91 22 92 25 93 23 94
REMARK H PARENT 3 5 83 23 51 34 7 75 18 86
REMARK Flexibility Score: inf
ROOT
ATOM      1  C   UNL A   1      33.101  32.465  27.519  1.00  0.00     0.118 C 
ENDROOT
BRANCH   1   2
ATOM      2  N   UNL A   1      32.643  33.820  27.791  1.00  0.00    -0.352 N 
ATOM      3  O   UNL A   1      32.625  35.820  28.841  1.00  0.00    -0.269 OA
ATOM      4  C   UNL A   1      33.151  34.720  28.700  1.00  0.00     0.251 C 
ATOM      5  H   UNL A   1      31.876  34.131  27.259  1.00  0.00     0.163 HD
BRANCH   4   6
ATOM      6  C   UNL A   1      34.292  34.303  29.540  1.00  0.00     0.039 A 
ATOM      7  C   UNL A   1      35.599  34.401  29.054  1.00  0.00     0.014 A 
ATOM      8  C   UNL A   1      34.028  33.691  30.766  1.00  0.00     0.014 A 
ATOM      9  C   UNL A   1      36.627  33.743  29.723  1.00  0.00     0.010 A 
ATOM     10  C   UNL A   1      35.073  33.090  31.467  1.00  0.00     0.010 A 
ATOM     11  C   UNL A   1      36.370  33.066  30.926  1.00  0.00    -0.014 A 
BRANCH  11  12
ATOM     12  C   UNL A   1      37.454  32.340  31.632  1.00  0.00     0.031 A 
ATOM     13  C   UNL A   1      37.949  32.813  32.972  1.00  0.00     0.074 A 
ATOM     14  C   UNL A   1      38.032  31.284  31.031  1.00  0.00     0.049 A 
ATOM     15  N   UNL A   1      38.955  32.372  33.681  1.00  0.00    -0.248 NA
ATOM     16  C   UNL A   1      37.226  33.936  33.592  1.00  0.00     0.031 C 
ATOM     17  C   UNL A   1      37.655  30.756  29.720  1.00  0.00     0.029 A 
ATOM     18  N   UNL A   1      39.080  30.493  31.425  1.00  0.00    -0.354 N 
ATOM     19  C   UNL A   1      39.020  33.191  34.802  1.00  0.00     0.074 A 
ATOM     20  C   UNL A   1      37.948  34.155  34.683  1.00  0.00     0.031 C 
ATOM     21  C   UNL A   1      38.474  29.743  29.406  1.00  0.00     0.029 A 
ATOM     22  C   UNL A   1      39.459  29.581  30.469  1.00  0.00     0.049 A 
ATOM     23  H   UNL A   1      39.516  30.570  32.305  1.00  0.00     0.167 HD
ATOM     24  C   UNL A   1      39.887  33.133  35.843  1.00  0.00     0.034 A 
ATOM     25  C   UNL A   1      40.505  28.733  30.433  1.00  0.00     0.034 A 
ATOM     26  C   UNL A   1      40.919  32.141  35.978  1.00  0.00     0.049 A 
ATOM     27  C   UNL A   1      41.437  28.670  31.607  1.00  0.00     0.074 A 
ATOM     28  C   UNL A   1      41.796  31.949  37.030  1.00  0.00     0.029 A 
ATOM     29  N   UNL A   1      41.218  31.175  35.027  1.00  0.00    -0.354 N 
ATOM     30  N   UNL A   1      41.406  29.368  32.717  1.00  0.00    -0.248 NA
ATOM     31  C   UNL A   1      42.526  27.686  31.543  1.00  0.00     0.031 C 
ATOM     32  C   UNL A   1      42.633  30.873  36.712  1.00  0.00     0.029 A 
ATOM     33  C   UNL A   1      42.270  30.389  35.465  1.00  0.00     0.049 A 
ATOM     34  H   UNL A   1      40.752  31.066  34.167  1.00  0.00     0.167 HD
ATOM     35  C   UNL A   1      42.454  28.891  33.495  1.00  0.00     0.074 A 
ATOM     36  C   UNL A   1      43.091  27.834  32.736  1.00  0.00     0.031 C 
ATOM     37  C   UNL A   1      42.857  29.303  34.723  1.00  0.00     0.034 A 
BRANCH  24  38
ATOM     38  C   UNL A   1      39.730  34.148  36.944  1.00  0.00     0.023 A 
ATOM     39  C   UNL A   1      40.059  35.496  36.697  1.00  0.00     0.012 A 
ATOM     40  C   UNL A   1      39.205  33.786  38.199  1.00  0.00     0.148 A 
ATOM     41  C   UNL A   1      39.895  36.462  37.689  1.00  0.00     0.002 A 
ATOM     42  C   UNL A   1      39.011  34.761  39.174  1.00  0.00     0.091 A 
ATOM     43  F   UNL A   1      38.922  32.496  38.431  1.00  0.00    -0.205 F 
ATOM     44  C   UNL A   1      39.362  36.097  38.923  1.00  0.00     0.022 A 
BRANCH  42  45
ATOM     45  S   UNL A   1      38.266  34.374  40.762  1.00  0.00     0.127 S 
ATOM     46  O   UNL A   1      37.939  35.707  41.269  1.00  0.00    -0.237 OA
ATOM     47  O   UNL A   1      37.105  33.567  40.382  1.00  0.00    -0.237 OA
ATOM     48  O   UNL A   1      39.286  33.642  41.501  1.00  0.00    -0.744 OA
ENDBRANCH  42  45
ENDBRANCH  24  38
BRANCH  25  49
ATOM     49  C   UNL A   1      40.675  27.859  29.241  1.00  0.00     0.023 A 
ATOM     50  C   UNL A   1      39.867  26.716  29.102  1.00  0.00     0.012 A 
ATOM     51  C   UNL A   1      41.546  28.222  28.193  1.00  0.00     0.148 A 
ATOM     52  C   UNL A   1      39.924  25.946  27.940  1.00  0.00     0.002 A 
ATOM     53  C   UNL A   1      41.557  27.483  27.017  1.00  0.00     0.091 A 
ATOM     54  F   UNL A   1      42.315  29.309  28.354  1.00  0.00    -0.205 F 
ATOM     55  C   UNL A   1      40.755  26.338  26.893  1.00  0.00     0.022 A 
BRANCH  53  56
ATOM     56  S   UNL A   1      42.478  28.002  25.564  1.00  0.00     0.127 S 
ATOM     57  O   UNL A   1      42.336  26.839  24.691  1.00  0.00    -0.237 OA
ATOM     58  O   UNL A   1      41.731  29.186  25.139  1.00  0.00    -0.237 OA
ATOM     59  O   UNL A   1      43.828  28.281  26.032  1.00  0.00    -0.744 OA
ENDBRANCH  53  56
ENDBRANCH  25  49
BRANCH  37  60
ATOM     60  C   UNL A   1      44.031  28.598  35.345  1.00  0.00     0.023 A 
ATOM     61  C   UNL A   1      45.338  29.016  35.032  1.00  0.00     0.012 A 
ATOM     62  C   UNL A   1      43.835  27.596  36.316  1.00  0.00     0.148 A 
ATOM     63  C   UNL A   1      46.436  28.437  35.664  1.00  0.00     0.002 A 
ATOM     64  C   UNL A   1      44.932  27.050  36.971  1.00  0.00     0.091 A 
ATOM     65  F   UNL A   1      42.581  27.201  36.584  1.00  0.00    -0.205 F 
ATOM     66  C   UNL A   1      46.234  27.464  36.642  1.00  0.00     0.022 A 
BRANCH  64  67
ATOM     67  S   UNL A   1      44.762  25.857  38.303  1.00  0.00     0.127 S 
ATOM     68  O   UNL A   1      44.193  24.707  37.603  1.00  0.00    -0.237 OA
ATOM     69  O   UNL A   1      46.147  25.680  38.743  1.00  0.00    -0.237 OA
ATOM     70  O   UNL A   1      43.892  26.481  39.291  1.00  0.00    -0.744 OA
ENDBRANCH  64  67
ENDBRANCH  37  60
ENDBRANCH  11  12
ENDBRANCH   4   6
ENDBRANCH   1   2
BRANCH   1  71
ATOM     71  C   UNL A   1      32.153  31.658  26.639  1.00  0.00     0.042 C 
BRANCH  71  72
ATOM     72  C   UNL A   1      32.309  30.152  26.774  1.00  0.00     0.118 C 
BRANCH  72  73
ATOM     73  N   UNL A   1      33.382  29.639  25.944  1.00  0.00    -0.352 N 
ATOM     74  C   UNL A   1      33.324  28.789  24.879  1.00  0.00     0.253 C 
ATOM     75  H   UNL A   1      34.284  29.949  26.184  1.00  0.00     0.163 HD
ATOM     76  O   UNL A   1      34.367  28.358  24.391  1.00  0.00    -0.269 OA
BRANCH  74  77
ATOM     77  C   UNL A   1      32.048  28.300  24.349  1.00  0.00     0.070 A 
ATOM     78  C   UNL A   1      31.642  28.953  23.185  1.00  0.00     0.125 A 
ATOM     79  C   UNL A   1      31.221  27.298  24.861  1.00  0.00     0.056 A 
ATOM     80  N   UNL A   1      30.537  28.635  22.469  1.00  0.00    -0.264 NA
ATOM     81  C   UNL A   1      30.083  26.943  24.110  1.00  0.00     0.035 A 
ATOM     82  C   UNL A   1      29.793  27.619  22.937  1.00  0.00     0.112 A 
BRANCH  79  83
ATOM     83  C   UNL A   1      31.451  26.441  26.054  1.00  0.00     0.256 C 
ATOM     84  O   UNL A   1      30.780  26.697  27.059  1.00  0.00    -0.269 OA
ATOM     85  N   UNL A   1      32.261  25.336  26.118  1.00  0.00    -0.322 N 
ATOM     86  H   UNL A   1      32.100  24.782  26.915  1.00  0.00     0.170 HD
BRANCH  85  87
ATOM     87  C   UNL A   1      33.267  24.833  25.292  1.00  0.00     0.043 A 
ATOM     88  C   UNL A   1      33.043  24.376  23.997  1.00  0.00     0.028 A 
ATOM     89  C   UNL A   1      34.557  24.783  25.835  1.00  0.00     0.048 A 
ATOM     90  C   UNL A   1      34.090  23.784  23.281  1.00  0.00     0.024 A 
ATOM     91  C   UNL A   1      35.592  24.157  25.138  1.00  0.00     0.061 A 
ATOM     92  C   UNL A   1      35.357  23.648  23.859  1.00  0.00     0.059 A 
ATOM     93  Cl  UNL A   1      37.115  24.006  25.939  1.00  0.00    -0.083 Cl
ATOM     94  Cl  UNL A   1      36.578  22.835  22.948  1.00  0.00    -0.083 Cl
ENDBRANCH  85  87
ENDBRANCH  79  83
ENDBRANCH  74  77
ENDBRANCH  72  73
ENDBRANCH  71  72
ENDBRANCH   1  71
TORSDOF 15
ENDMDL
MODEL 3
REMARK VINA RESULT:     -12.2      5.881     10.851
REMARK SMILES O=C(NCCCNC(=O)c1cnccc1C(=O)Nc1ccc(Cl)c(Cl)c1)c1ccc(-c2c3nc(c(-c4cccc(S(=O)(=O)[O-])c4F)c4ccc([nH]4)c(-c4cccc(S(=O)(=O)[O-])c4F)c4nc(c(-c5cccc(S(=O)(=O)[O-])c5F)c5ccc2[nH]5)C=C4)C=C3)cc1
REMARK SMILES IDX 4 1 3 2 1 3 2 4 27 6 28 7 89 8 29 9 88 10 30 11 31 12 32 13
REMARK SMILES IDX 82 14 33 15 87 16 81 17 83 18 34 19 86 20 80 21 79 22 35 24
REMARK SMILES IDX 67 25 47 26 66 27 48 28 51 29 65 30 84 31 49 32 50 33 64 35
REMARK SMILES IDX 85 36 52 37 36 38 37 39 45 40 38 41 40 42 46 43 39 44 41 45
REMARK SMILES IDX 42 46 43 47 44 48 68 49 69 50 77 51 70 52 72 53 78 54 71 55
REMARK SMILES IDX 73 56 74 57 75 58 76 59 53 60 54 61 62 62 55 63 57 64 63 65
REMARK SMILES IDX 56 66 58 67 59 68 60 69 61 70 5 71 6 72 7 73 8 74 9 76 10 77
REMARK SMILES IDX 11 78 15 79 12 80 14 81 13 82 16 83 17 84 18 85 19 87 20 88
REMARK SMILES IDX 26 89 21 90 24 91 22 92 25 93 23 94
REMARK H PARENT 3 5 83 23 51 34 7 75 18 86
REMARK Flexibility Score: inf
ROOT
ATOM      1  C   UNL A   1      37.457  21.460  25.480  1.00  0.00     0.118 C 
ENDROOT
BRANCH   1   2
ATOM      2  N   UNL A   1      38.507  20.465  25.647  1.00  0.00    -0.352 N 
ATOM      3  O   UNL A   1      40.531  19.688  26.283  1.00  0.00    -0.269 OA
ATOM      4  C   UNL A   1      39.732  20.619  26.257  1.00  0.00     0.251 C 
ATOM      5  H   UNL A   1      38.319  19.572  25.277  1.00  0.00     0.163 HD
BRANCH   4   6
ATOM      6  C   UNL A   1      40.077  21.942  26.815  1.00  0.00     0.039 A 
ATOM      7  C   UNL A   1      39.561  23.107  26.241  1.00  0.00     0.014 A 
ATOM      8  C   UNL A   1      41.028  22.006  27.834  1.00  0.00     0.014 A 
ATOM      9  C   UNL A   1      40.115  24.338  26.579  1.00  0.00     0.010 A 
ATOM     10  C   UNL A   1      41.533  23.248  28.218  1.00  0.00     0.010 A 
ATOM     11  C   UNL A   1      41.120  24.418  27.558  1.00  0.00    -0.014 A 
BRANCH  11  12
ATOM     12  C   UNL A   1      41.734  25.722  27.906  1.00  0.00     0.031 A 
ATOM     13  C   UNL A   1      40.937  26.781  28.619  1.00  0.00     0.074 A 
ATOM     14  C   UNL A   1      43.000  25.971  27.524  1.00  0.00     0.049 A 
ATOM     15  N   UNL A   1      41.272  28.012  28.905  1.00  0.00    -0.248 NA
ATOM     16  C   UNL A   1      39.581  26.412  29.059  1.00  0.00     0.031 C 
ATOM     17  C   UNL A   1      43.856  25.031  26.800  1.00  0.00     0.029 A 
ATOM     18  N   UNL A   1      43.770  27.097  27.655  1.00  0.00    -0.354 N 
ATOM     19  C   UNL A   1      40.158  28.581  29.510  1.00  0.00     0.074 A 
ATOM     20  C   UNL A   1      39.135  27.559  29.555  1.00  0.00     0.031 C 
ATOM     21  C   UNL A   1      45.026  25.626  26.530  1.00  0.00     0.029 A 
ATOM     22  C   UNL A   1      44.984  27.000  27.018  1.00  0.00     0.049 A 
ATOM     23  H   UNL A   1      43.482  27.896  28.154  1.00  0.00     0.167 HD
ATOM     24  C   UNL A   1      40.009  29.837  29.996  1.00  0.00     0.034 A 
ATOM     25  C   UNL A   1      45.944  27.923  26.816  1.00  0.00     0.034 A 
ATOM     26  C   UNL A   1      41.047  30.832  29.992  1.00  0.00     0.049 A 
ATOM     27  C   UNL A   1      45.767  29.300  27.386  1.00  0.00     0.074 A 
ATOM     28  C   UNL A   1      41.021  32.106  30.531  1.00  0.00     0.029 A 
ATOM     29  N   UNL A   1      42.298  30.668  29.415  1.00  0.00    -0.354 N 
ATOM     30  N   UNL A   1      44.755  29.782  28.066  1.00  0.00    -0.248 NA
ATOM     31  C   UNL A   1      46.869  30.250  27.189  1.00  0.00     0.031 C 
ATOM     32  C   UNL A   1      42.253  32.716  30.271  1.00  0.00     0.029 A 
ATOM     33  C   UNL A   1      43.051  31.818  29.579  1.00  0.00     0.049 A 
ATOM     34  H   UNL A   1      42.606  29.853  28.956  1.00  0.00     0.167 HD
ATOM     35  C   UNL A   1      45.108  31.082  28.403  1.00  0.00     0.074 A 
ATOM     36  C   UNL A   1      46.434  31.308  27.863  1.00  0.00     0.031 C 
ATOM     37  C   UNL A   1      44.391  32.009  29.086  1.00  0.00     0.034 A 
BRANCH  24  38
ATOM     38  C   UNL A   1      38.684  30.197  30.615  1.00  0.00     0.023 A 
ATOM     39  C   UNL A   1      38.436  29.868  31.963  1.00  0.00     0.012 A 
ATOM     40  C   UNL A   1      37.710  30.909  29.889  1.00  0.00     0.148 A 
ATOM     41  C   UNL A   1      37.229  30.217  32.570  1.00  0.00     0.002 A 
ATOM     42  C   UNL A   1      36.522  31.284  30.511  1.00  0.00     0.091 A 
ATOM     43  F   UNL A   1      37.947  31.192  28.600  1.00  0.00    -0.205 F 
ATOM     44  C   UNL A   1      36.277  30.932  31.848  1.00  0.00     0.022 A 
BRANCH  42  45
ATOM     45  S   UNL A   1      35.280  32.266  29.662  1.00  0.00     0.127 S 
ATOM     46  O   UNL A   1      34.341  32.557  30.745  1.00  0.00    -0.237 OA
ATOM     47  O   UNL A   1      36.050  33.423  29.199  1.00  0.00    -0.237 OA
ATOM     48  O   UNL A   1      34.779  31.415  28.592  1.00  0.00    -0.744 OA
ENDBRANCH  42  45
ENDBRANCH  24  38
BRANCH  25  49
ATOM     49  C   UNL A   1      47.168  27.529  26.067  1.00  0.00     0.023 A 
ATOM     50  C   UNL A   1      48.132  26.720  26.695  1.00  0.00     0.012 A 
ATOM     51  C   UNL A   1      47.319  27.852  24.703  1.00  0.00     0.148 A 
ATOM     52  C   UNL A   1      49.228  26.240  25.980  1.00  0.00     0.002 A 
ATOM     53  C   UNL A   1      48.383  27.325  23.983  1.00  0.00     0.091 A 
ATOM     54  F   UNL A   1      46.393  28.634  24.129  1.00  0.00    -0.205 F 
ATOM     55  C   UNL A   1      49.346  26.529  24.622  1.00  0.00     0.022 A 
BRANCH  53  56
ATOM     56  S   UNL A   1      48.527  27.516  22.201  1.00  0.00     0.127 S 
ATOM     57  O   UNL A   1      47.244  28.125  21.863  1.00  0.00    -0.237 OA
ATOM     58  O   UNL A   1      49.682  28.406  22.085  1.00  0.00    -0.237 OA
ATOM     59  O   UNL A   1      48.750  26.175  21.678  1.00  0.00    -0.744 OA
ENDBRANCH  53  56
ENDBRANCH  25  49
BRANCH  37  60
ATOM     60  C   UNL A   1      45.026  33.352  29.318  1.00  0.00     0.023 A 
ATOM     61  C   UNL A   1      45.833  33.551  30.455  1.00  0.00     0.012 A 
ATOM     62  C   UNL A   1      44.909  34.379  28.361  1.00  0.00     0.148 A 
ATOM     63  C   UNL A   1      46.502  34.758  30.644  1.00  0.00     0.002 A 
ATOM     64  C   UNL A   1      45.610  35.565  28.535  1.00  0.00     0.091 A 
ATOM     65  F   UNL A   1      44.120  34.172  27.296  1.00  0.00    -0.205 F 
ATOM     66  C   UNL A   1      46.402  35.760  29.680  1.00  0.00     0.022 A 
BRANCH  64  67
ATOM     67  S   UNL A   1      45.609  36.874  27.305  1.00  0.00     0.127 S 
ATOM     68  O   UNL A   1      44.179  37.111  27.122  1.00  0.00    -0.237 OA
ATOM     69  O   UNL A   1      46.323  37.950  27.994  1.00  0.00    -0.237 OA
ATOM     70  O   UNL A   1      46.308  36.334  26.146  1.00  0.00    -0.744 OA
ENDBRANCH  64  67
ENDBRANCH  37  60
ENDBRANCH  11  12
ENDBRANCH   4   6
ENDBRANCH   1   2
BRANCH   1  71
ATOM     71  C   UNL A   1      37.181  21.827  24.025  1.00  0.00     0.042 C 
BRANCH  71  72
ATOM     72  C   UNL A   1      36.690  23.251  23.826  1.00  0.00     0.118 C 
BRANCH  72  73
ATOM     73  N   UNL A   1      35.984  23.752  24.989  1.00  0.00    -0.352 N 
ATOM     74  C   UNL A   1      34.710  23.499  25.407  1.00  0.00     0.253 C 
ATOM     75  H   UNL A   1      36.498  24.366  25.561  1.00  0.00     0.163 HD
ATOM     76  O   UNL A   1      34.245  24.134  26.350  1.00  0.00    -0.269 OA
BRANCH  74  77
ATOM     77  C   UNL A   1      33.843  22.546  24.708  1.00  0.00     0.070 A 
ATOM     78  C   UNL A   1      33.655  21.351  25.402  1.00  0.00     0.125 A 
ATOM     79  C   UNL A   1      33.213  22.691  23.470  1.00  0.00     0.056 A 
ATOM     80  N   UNL A   1      32.843  20.345  24.998  1.00  0.00    -0.264 NA
ATOM     81  C   UNL A   1      32.347  21.661  23.054  1.00  0.00     0.035 A 
ATOM     82  C   UNL A   1      32.188  20.534  23.841  1.00  0.00     0.112 A 
BRANCH  79  83
ATOM     83  C   UNL A   1      33.229  23.872  22.567  1.00  0.00     0.256 C 
ATOM     84  O   UNL A   1      33.610  23.680  21.407  1.00  0.00    -0.269 OA
ATOM     85  N   UNL A   1      32.771  25.130  22.865  1.00  0.00    -0.322 N 
ATOM     86  H   UNL A   1      32.658  25.700  22.070  1.00  0.00     0.170 HD
BRANCH  85  87
ATOM     87  C   UNL A   1      32.432  25.772  24.057  1.00  0.00     0.043 A 
ATOM     88  C   UNL A   1      31.267  25.508  24.770  1.00  0.00     0.028 A 
ATOM     89  C   UNL A   1      33.329  26.743  24.521  1.00  0.00     0.048 A 
ATOM     90  C   UNL A   1      30.954  26.280  25.895  1.00  0.00     0.024 A 
ATOM     91  C   UNL A   1      32.999  27.540  25.620  1.00  0.00     0.061 A 
ATOM     92  C   UNL A   1      31.804  27.313  26.305  1.00  0.00     0.059 A 
ATOM     93  Cl  UNL A   1      34.091  28.811  26.039  1.00  0.00    -0.083 Cl
ATOM     94  Cl  UNL A   1      31.315  28.275  27.653  1.00  0.00    -0.083 Cl
ENDBRANCH  85  87
ENDBRANCH  79  83
ENDBRANCH  74  77
ENDBRANCH  72  73
ENDBRANCH  71  72
ENDBRANCH   1  71
TORSDOF 15
ENDMDL
