MODEL 1
REMARK VINA RESULT:     -12.8      0.000      0.000
REMARK SMILES O=C(NCCCNC(=O)[C@@H]1CCCC[C@H]1C(=O)Nc1ccc(NC(=O)c2ccco2)cc1)c1ccc(-c2c3nc(c(-c4cccc(S(=O)(=O)[O-])c4F)c4ccc([nH]4)c(-c4cccc(S(=O)(=O)[O-])c4F)c4nc(c(-c5cccc(S(=O)(=O)[O-])c5F)c5ccc2[nH]5)C=C4)C=C3)cc1
REMARK SMILES IDX 5 1 4 2 3 3 1 4 2 5 33 7 34 8 95 9 35 10 94 11 36 12 37 13
REMARK SMILES IDX 38 14 88 15 39 16 93 17 87 18 89 19 40 20 92 21 86 22 85 23
REMARK SMILES IDX 41 25 73 26 53 27 72 28 54 29 57 30 71 31 90 32 55 33 56 34
REMARK SMILES IDX 70 36 91 37 58 38 42 39 43 40 51 41 44 42 46 43 52 44 45 45
REMARK SMILES IDX 47 46 48 47 49 48 50 49 74 50 75 51 83 52 76 53 78 54 84 55
REMARK SMILES IDX 77 56 79 57 80 58 81 59 82 60 59 61 60 62 68 63 61 64 63 65
REMARK SMILES IDX 69 66 62 67 64 68 65 69 66 70 67 71 6 72 7 73 8 74 9 76
REMARK SMILES IDX 10 77 11 78 15 79 12 80 14 81 13 82 16 83 17 84 18 85 19 87
REMARK SMILES IDX 20 88 32 89 21 90 31 91 22 92 23 93 24 94 25 96 26 97 27 98
REMARK SMILES IDX 30 99 28 100 29 101
REMARK H PARENT 3 6 89 24 57 35 7 75 18 86 23 95
REMARK Flexibility Score: inf
ROOT
ATOM      1  C   UNL A   1      37.862  19.266  25.063  1.00  0.00     0.042 C 
ENDROOT
BRANCH   1   2
ATOM      2  C   UNL A   1      38.889  20.059  25.850  1.00  0.00     0.118 C 
BRANCH   2   3
ATOM      3  N   UNL A   1      40.099  19.291  26.122  1.00  0.00    -0.352 N 
ATOM      4  O   UNL A   1      42.274  18.885  26.480  1.00  0.00    -0.269 OA
ATOM      5  C   UNL A   1      41.363  19.712  26.452  1.00  0.00     0.251 C 
ATOM      6  H   UNL A   1      39.992  18.315  26.056  1.00  0.00     0.163 HD
BRANCH   5   7
ATOM      7  C   UNL A   1      41.637  21.136  26.752  1.00  0.00     0.039 A 
ATOM      8  C   UNL A   1      42.194  21.524  27.972  1.00  0.00     0.014 A 
ATOM      9  C   UNL A   1      41.380  22.098  25.769  1.00  0.00     0.014 A 
ATOM     10  C   UNL A   1      42.370  22.871  28.261  1.00  0.00     0.010 A 
ATOM     11  C   UNL A   1      41.649  23.446  26.024  1.00  0.00     0.010 A 
ATOM     12  C   UNL A   1      42.133  23.843  27.278  1.00  0.00    -0.014 A 
BRANCH  12  13
ATOM     13  C   UNL A   1      42.540  25.244  27.547  1.00  0.00     0.031 A 
ATOM     14  C   UNL A   1      41.603  26.228  28.184  1.00  0.00     0.074 A 
ATOM     15  C   UNL A   1      43.786  25.615  27.191  1.00  0.00     0.049 A 
ATOM     16  N   UNL A   1      41.832  27.472  28.517  1.00  0.00    -0.248 NA
ATOM     17  C   UNL A   1      40.237  25.770  28.483  1.00  0.00     0.031 C 
ATOM     18  C   UNL A   1      44.756  24.752  26.508  1.00  0.00     0.029 A 
ATOM     19  N   UNL A   1      44.452  26.802  27.344  1.00  0.00    -0.354 N 
ATOM     20  C   UNL A   1      40.634  27.959  29.024  1.00  0.00     0.074 A 
ATOM     21  C   UNL A   1      39.678  26.875  28.960  1.00  0.00     0.031 C 
ATOM     22  C   UNL A   1      45.895  25.431  26.318  1.00  0.00     0.029 A 
ATOM     23  C   UNL A   1      45.723  26.788  26.818  1.00  0.00     0.049 A 
ATOM     24  H   UNL A   1      44.059  27.589  27.788  1.00  0.00     0.167 HD
ATOM     25  C   UNL A   1      40.368  29.196  29.508  1.00  0.00     0.034 A 
ATOM     26  C   UNL A   1      46.643  27.766  26.726  1.00  0.00     0.034 A 
ATOM     27  C   UNL A   1      41.341  30.252  29.605  1.00  0.00     0.049 A 
ATOM     28  C   UNL A   1      46.322  29.113  27.302  1.00  0.00     0.074 A 
ATOM     29  C   UNL A   1      41.195  31.503  30.178  1.00  0.00     0.029 A 
ATOM     30  N   UNL A   1      42.632  30.190  29.105  1.00  0.00    -0.354 N 
ATOM     31  N   UNL A   1      45.242  29.499  27.936  1.00  0.00    -0.248 NA
ATOM     32  C   UNL A   1      47.351  30.153  27.172  1.00  0.00     0.031 C 
ATOM     33  C   UNL A   1      42.391  32.207  30.002  1.00  0.00     0.029 A 
ATOM     34  C   UNL A   1      43.286  31.389  29.333  1.00  0.00     0.049 A 
ATOM     35  H   UNL A   1      43.026  29.409  28.654  1.00  0.00     0.167 HD
ATOM     36  C   UNL A   1      45.463  30.824  28.289  1.00  0.00     0.074 A 
ATOM     37  C   UNL A   1      46.798  31.160  27.835  1.00  0.00     0.031 C 
ATOM     38  C   UNL A   1      44.628  31.693  28.908  1.00  0.00     0.034 A 
BRANCH  25  39
ATOM     39  C   UNL A   1      38.980  29.480  30.015  1.00  0.00     0.023 A 
ATOM     40  C   UNL A   1      38.650  29.162  31.347  1.00  0.00     0.012 A 
ATOM     41  C   UNL A   1      38.046  30.169  29.215  1.00  0.00     0.148 A 
ATOM     42  C   UNL A   1      37.408  29.514  31.874  1.00  0.00     0.002 A 
ATOM     43  C   UNL A   1      36.822  30.546  29.756  1.00  0.00     0.091 A 
ATOM     44  F   UNL A   1      38.376  30.446  27.945  1.00  0.00    -0.205 F 
ATOM     45  C   UNL A   1      36.500  30.215  31.084  1.00  0.00     0.022 A 
BRANCH  43  46
ATOM     46  S   UNL A   1      35.612  31.513  28.846  1.00  0.00     0.127 S 
ATOM     47  O   UNL A   1      35.082  30.519  27.915  1.00  0.00    -0.237 OA
ATOM     48  O   UNL A   1      34.683  31.915  29.902  1.00  0.00    -0.237 OA
ATOM     49  O   UNL A   1      36.350  32.609  28.234  1.00  0.00    -0.744 OA
ENDBRANCH  43  46
ENDBRANCH  25  39
BRANCH  26  50
ATOM     50  C   UNL A   1      47.959  27.488  26.086  1.00  0.00     0.023 A 
ATOM     51  C   UNL A   1      49.031  27.026  26.872  1.00  0.00     0.012 A 
ATOM     52  C   UNL A   1      48.138  27.634  24.698  1.00  0.00     0.148 A 
ATOM     53  C   UNL A   1      50.266  26.740  26.288  1.00  0.00     0.002 A 
ATOM     54  C   UNL A   1      49.352  27.288  24.114  1.00  0.00     0.091 A 
ATOM     55  F   UNL A   1      47.114  28.096  23.965  1.00  0.00    -0.205 F 
ATOM     56  C   UNL A   1      50.423  26.857  24.909  1.00  0.00     0.022 A 
BRANCH  54  57
ATOM     57  S   UNL A   1      49.559  27.269  22.330  1.00  0.00     0.127 S 
ATOM     58  O   UNL A   1      50.982  26.972  22.195  1.00  0.00    -0.237 OA
ATOM     59  O   UNL A   1      48.663  26.187  21.921  1.00  0.00    -0.237 OA
ATOM     60  O   UNL A   1      49.130  28.590  21.889  1.00  0.00    -0.744 OA
ENDBRANCH  54  57
ENDBRANCH  26  50
BRANCH  38  61
ATOM     61  C   UNL A   1      45.133  33.093  29.124  1.00  0.00     0.023 A 
ATOM     62  C   UNL A   1      45.817  33.402  30.317  1.00  0.00     0.012 A 
ATOM     63  C   UNL A   1      44.984  34.080  28.132  1.00  0.00     0.148 A 
ATOM     64  C   UNL A   1      46.320  34.684  30.532  1.00  0.00     0.002 A 
ATOM     65  C   UNL A   1      45.527  35.343  28.336  1.00  0.00     0.091 A 
ATOM     66  F   UNL A   1      44.310  33.770  27.015  1.00  0.00    -0.205 F 
ATOM     67  C   UNL A   1      46.185  35.650  29.538  1.00  0.00     0.022 A 
BRANCH  65  68
ATOM     68  S   UNL A   1      45.475  36.621  27.074  1.00  0.00     0.127 S 
ATOM     69  O   UNL A   1      44.036  36.818  26.908  1.00  0.00    -0.237 OA
ATOM     70  O   UNL A   1      46.172  37.731  27.725  1.00  0.00    -0.237 OA
ATOM     71  O   UNL A   1      46.170  36.069  25.919  1.00  0.00    -0.744 OA
ENDBRANCH  65  68
ENDBRANCH  38  61
ENDBRANCH  12  13
ENDBRANCH   5   7
ENDBRANCH   2   3
ENDBRANCH   1   2
BRANCH   1  72
ATOM     72  C   UNL A   1      36.672  20.100  24.625  1.00  0.00     0.117 C 
BRANCH  72  73
ATOM     73  N   UNL A   1      35.378  19.627  25.073  1.00  0.00    -0.356 N 
ATOM     74  C   UNL A   1      34.163  20.260  25.030  1.00  0.00     0.223 C 
ATOM     75  H   UNL A   1      35.369  18.724  25.464  1.00  0.00     0.163 HD
ATOM     76  O   UNL A   1      33.150  19.598  25.254  1.00  0.00    -0.275 OA
BRANCH  74  77
ATOM     77  C   UNL A   1      34.114  21.772  24.781  1.00  0.00     0.091 C 
ATOM     78  C   UNL A   1      35.228  22.141  23.775  1.00  0.00     0.014 C 
ATOM     79  C   UNL A   1      34.227  22.617  26.073  1.00  0.00     0.091 C 
ATOM     80  C   UNL A   1      35.366  23.644  23.563  1.00  0.00     0.001 C 
ATOM     81  C   UNL A   1      34.639  24.094  25.909  1.00  0.00     0.014 C 
ATOM     82  C   UNL A   1      35.721  24.327  24.872  1.00  0.00     0.001 C 
BRANCH  79  83
ATOM     83  C   UNL A   1      33.046  22.560  27.043  1.00  0.00     0.228 C 
ATOM     84  O   UNL A   1      33.128  21.808  28.026  1.00  0.00    -0.274 OA
ATOM     85  N   UNL A   1      31.904  23.302  26.966  1.00  0.00    -0.326 N 
ATOM     86  H   UNL A   1      31.374  23.235  27.793  1.00  0.00     0.169 HD
BRANCH  85  87
ATOM     87  C   UNL A   1      31.278  24.138  26.021  1.00  0.00     0.041 A 
ATOM     88  C   UNL A   1      30.822  25.377  26.478  1.00  0.00     0.028 A 
ATOM     89  C   UNL A   1      31.040  23.833  24.688  1.00  0.00     0.028 A 
ATOM     90  C   UNL A   1      30.266  26.314  25.593  1.00  0.00     0.028 A 
ATOM     91  C   UNL A   1      30.459  24.749  23.808  1.00  0.00     0.028 A 
ATOM     92  C   UNL A   1      30.152  26.032  24.233  1.00  0.00     0.041 A 
BRANCH  92  93
ATOM     93  N   UNL A   1      29.776  26.942  23.232  1.00  0.00    -0.319 N 
ATOM     94  C   UNL A   1      30.433  28.017  22.672  1.00  0.00     0.291 C 
ATOM     95  H   UNL A   1      28.878  26.782  22.862  1.00  0.00     0.170 HD
ATOM     96  O   UNL A   1      29.834  28.665  21.811  1.00  0.00    -0.265 OA
BRANCH  94  97
ATOM     97  C   UNL A   1      31.800  28.284  23.039  1.00  0.00     0.191 A 
ATOM     98  C   UNL A   1      33.005  27.809  22.551  1.00  0.00     0.056 A 
ATOM     99  O   UNL A   1      32.031  29.118  24.096  1.00  0.00    -0.459 OA
ATOM    100  C   UNL A   1      34.015  28.339  23.392  1.00  0.00     0.043 A 
ATOM    101  C   UNL A   1      33.370  29.132  24.311  1.00  0.00     0.196 A 
ENDBRANCH  94  97
ENDBRANCH  92  93
ENDBRANCH  85  87
ENDBRANCH  79  83
ENDBRANCH  74  77
ENDBRANCH  72  73
ENDBRANCH   1  72
TORSDOF 17
ENDMDL
MODEL 2
REMARK VINA RESULT:     -12.7      6.009     11.366
REMARK SMILES O=C(NCCCNC(=O)[C@@H]1CCCC[C@H]1C(=O)Nc1ccc(NC(=O)c2ccco2)cc1)c1ccc(-c2c3nc(c(-c4cccc(S(=O)(=O)[O-])c4F)c4ccc([nH]4)c(-c4cccc(S(=O)(=O)[O-])c4F)c4nc(c(-c5cccc(S(=O)(=O)[O-])c5F)c5ccc2[nH]5)C=C4)C=C3)cc1
REMARK SMILES IDX 5 1 4 2 3 3 1 4 2 5 33 7 34 8 95 9 35 10 94 11 36 12 37 13
REMARK SMILES IDX 38 14 88 15 39 16 93 17 87 18 89 19 40 20 92 21 86 22 85 23
REMARK SMILES IDX 41 25 73 26 53 27 72 28 54 29 57 30 71 31 90 32 55 33 56 34
REMARK SMILES IDX 70 36 91 37 58 38 42 39 43 40 51 41 44 42 46 43 52 44 45 45
REMARK SMILES IDX 47 46 48 47 49 48 50 49 74 50 75 51 83 52 76 53 78 54 84 55
REMARK SMILES IDX 77 56 79 57 80 58 81 59 82 60 59 61 60 62 68 63 61 64 63 65
REMARK SMILES IDX 69 66 62 67 64 68 65 69 66 70 67 71 6 72 7 73 8 74 9 76
REMARK SMILES IDX 10 77 11 78 15 79 12 80 14 81 13 82 16 83 17 84 18 85 19 87
REMARK SMILES IDX 20 88 32 89 21 90 31 91 22 92 23 93 24 94 25 96 26 97 27 98
REMARK SMILES IDX 30 99 28 100 29 101
REMARK H PARENT 3 6 89 24 57 35 7 75 18 86 23 95
REMARK Flexibility Score: inf
ROOT
ATOM      1  C   UNL A   1      31.491  32.195  26.746  1.00  0.00     0.042 C 
ENDROOT
BRANCH   1   2
ATOM      2  C   UNL A   1      32.760  32.856  27.254  1.00  0.00     0.118 C 
BRANCH   2   3
ATOM      3  N   UNL A   1      32.527  34.209  27.746  1.00  0.00    -0.352 N 
ATOM      4  O   UNL A   1      32.635  35.975  29.122  1.00  0.00    -0.269 OA
ATOM      5  C   UNL A   1      33.106  34.888  28.789  1.00  0.00     0.251 C 
ATOM      6  H   UNL A   1      31.843  34.716  27.251  1.00  0.00     0.163 HD
BRANCH   5   7
ATOM      7  C   UNL A   1      34.264  34.320  29.517  1.00  0.00     0.039 A 
ATOM      8  C   UNL A   1      34.089  33.567  30.679  1.00  0.00     0.014 A 
ATOM      9  C   UNL A   1      35.549  34.501  28.994  1.00  0.00     0.014 A 
ATOM     10  C   UNL A   1      35.194  33.111  31.387  1.00  0.00     0.010 A 
ATOM     11  C   UNL A   1      36.655  33.957  29.654  1.00  0.00     0.010 A 
ATOM     12  C   UNL A   1      36.485  33.270  30.864  1.00  0.00    -0.014 A 
BRANCH  12  13
ATOM     13  C   UNL A   1      37.615  32.580  31.532  1.00  0.00     0.031 A 
ATOM     14  C   UNL A   1      38.340  31.439  30.879  1.00  0.00     0.074 A 
ATOM     15  C   UNL A   1      37.973  33.005  32.761  1.00  0.00     0.049 A 
ATOM     16  N   UNL A   1      39.370  30.768  31.323  1.00  0.00    -0.248 NA
ATOM     17  C   UNL A   1      37.850  30.986  29.567  1.00  0.00     0.031 C 
ATOM     18  C   UNL A   1      37.293  34.066  33.512  1.00  0.00     0.029 A 
ATOM     19  N   UNL A   1      38.981  32.604  33.596  1.00  0.00    -0.354 N 
ATOM     20  C   UNL A   1      39.628  29.788  30.372  1.00  0.00     0.074 A 
ATOM     21  C   UNL A   1      38.648  29.954  29.320  1.00  0.00     0.031 C 
ATOM     22  C   UNL A   1      37.915  34.243  34.686  1.00  0.00     0.029 A 
ATOM     23  C   UNL A   1      39.002  33.279  34.794  1.00  0.00     0.049 A 
ATOM     24  H   UNL A   1      39.630  31.900  33.361  1.00  0.00     0.167 HD
ATOM     25  C   UNL A   1      40.603  28.849  30.377  1.00  0.00     0.034 A 
ATOM     26  C   UNL A   1      39.792  33.127  35.873  1.00  0.00     0.034 A 
ATOM     27  C   UNL A   1      41.598  28.723  31.409  1.00  0.00     0.049 A 
ATOM     28  C   UNL A   1      40.880  32.096  35.827  1.00  0.00     0.074 A 
ATOM     29  C   UNL A   1      42.689  27.872  31.451  1.00  0.00     0.029 A 
ATOM     30  N   UNL A   1      41.617  29.453  32.587  1.00  0.00    -0.354 N 
ATOM     31  N   UNL A   1      41.216  31.299  34.842  1.00  0.00    -0.248 NA
ATOM     32  C   UNL A   1      41.713  31.957  37.028  1.00  0.00     0.031 C 
ATOM     33  C   UNL A   1      43.353  28.070  32.665  1.00  0.00     0.029 A 
ATOM     34  C   UNL A   1      42.685  29.055  33.373  1.00  0.00     0.049 A 
ATOM     35  H   UNL A   1      40.967  30.151  32.829  1.00  0.00     0.167 HD
ATOM     36  C   UNL A   1      42.305  30.569  35.300  1.00  0.00     0.074 A 
ATOM     37  C   UNL A   1      42.598  31.050  36.636  1.00  0.00     0.031 C 
ATOM     38  C   UNL A   1      42.985  29.572  34.684  1.00  0.00     0.034 A 
BRANCH  25  39
ATOM     39  C   UNL A   1      40.684  27.897  29.214  1.00  0.00     0.023 A 
ATOM     40  C   UNL A   1      39.785  26.815  29.140  1.00  0.00     0.012 A 
ATOM     41  C   UNL A   1      41.564  28.142  28.141  1.00  0.00     0.148 A 
ATOM     42  C   UNL A   1      39.767  25.983  28.021  1.00  0.00     0.002 A 
ATOM     43  C   UNL A   1      41.518  27.329  27.014  1.00  0.00     0.091 A 
ATOM     44  F   UNL A   1      42.422  29.167  28.240  1.00  0.00    -0.205 F 
ATOM     45  C   UNL A   1      40.623  26.247  26.955  1.00  0.00     0.022 A 
BRANCH  43  46
ATOM     46  S   UNL A   1      42.528  27.625  25.558  1.00  0.00     0.127 S 
ATOM     47  O   UNL A   1      41.975  28.886  25.068  1.00  0.00    -0.237 OA
ATOM     48  O   UNL A   1      43.870  27.730  26.131  1.00  0.00    -0.237 OA
ATOM     49  O   UNL A   1      42.326  26.476  24.686  1.00  0.00    -0.744 OA
ENDBRANCH  43  46
ENDBRANCH  25  39
BRANCH  26  50
ATOM     50  C   UNL A   1      39.591  33.993  37.067  1.00  0.00     0.023 A 
ATOM     51  C   UNL A   1      39.977  35.345  37.019  1.00  0.00     0.012 A 
ATOM     52  C   UNL A   1      38.977  33.495  38.232  1.00  0.00     0.148 A 
ATOM     53  C   UNL A   1      39.779  36.179  38.121  1.00  0.00     0.002 A 
ATOM     54  C   UNL A   1      38.726  34.346  39.303  1.00  0.00     0.091 A 
ATOM     55  F   UNL A   1      38.635  32.199  38.271  1.00  0.00    -0.205 F 
ATOM     56  C   UNL A   1      39.142  35.684  39.256  1.00  0.00     0.022 A 
BRANCH  54  57
ATOM     57  S   UNL A   1      37.771  33.804  40.724  1.00  0.00     0.127 S 
ATOM     58  O   UNL A   1      36.619  33.172  40.089  1.00  0.00    -0.237 OA
ATOM     59  O   UNL A   1      38.692  32.881  41.388  1.00  0.00    -0.237 OA
ATOM     60  O   UNL A   1      37.505  35.020  41.482  1.00  0.00    -0.744 OA
ENDBRANCH  54  57
ENDBRANCH  26  50
BRANCH  38  61
ATOM     61  C   UNL A   1      44.107  28.930  35.452  1.00  0.00     0.023 A 
ATOM     62  C   UNL A   1      45.412  29.447  35.324  1.00  0.00     0.012 A 
ATOM     63  C   UNL A   1      43.865  27.864  36.338  1.00  0.00     0.148 A 
ATOM     64  C   UNL A   1      46.467  28.890  36.045  1.00  0.00     0.002 A 
ATOM     65  C   UNL A   1      44.914  27.343  37.085  1.00  0.00     0.091 A 
ATOM     66  F   UNL A   1      42.621  27.374  36.426  1.00  0.00    -0.205 F 
ATOM     67  C   UNL A   1      46.216  27.847  36.933  1.00  0.00     0.022 A 
BRANCH  65  68
ATOM     68  S   UNL A   1      44.666  26.058  38.316  1.00  0.00     0.127 S 
ATOM     69  O   UNL A   1      44.087  24.983  37.511  1.00  0.00    -0.237 OA
ATOM     70  O   UNL A   1      46.030  25.804  38.782  1.00  0.00    -0.237 OA
ATOM     71  O   UNL A   1      43.783  26.634  39.321  1.00  0.00    -0.744 OA
ENDBRANCH  65  68
ENDBRANCH  38  61
ENDBRANCH  12  13
ENDBRANCH   5   7
ENDBRANCH   2   3
ENDBRANCH   1   2
BRANCH   1  72
ATOM     72  C   UNL A   1      31.739  30.844  26.102  1.00  0.00     0.117 C 
BRANCH  72  73
ATOM     73  N   UNL A   1      31.018  30.597  24.870  1.00  0.00    -0.356 N 
ATOM     74  C   UNL A   1      30.692  29.403  24.282  1.00  0.00     0.223 C 
ATOM     75  H   UNL A   1      30.720  31.400  24.385  1.00  0.00     0.163 HD
ATOM     76  O   UNL A   1      29.882  29.408  23.355  1.00  0.00    -0.275 OA
BRANCH  74  77
ATOM     77  C   UNL A   1      31.398  28.122  24.745  1.00  0.00     0.091 C 
ATOM     78  C   UNL A   1      31.354  28.068  26.289  1.00  0.00     0.014 C 
ATOM     79  C   UNL A   1      32.849  27.991  24.223  1.00  0.00     0.091 C 
ATOM     80  C   UNL A   1      32.154  26.907  26.867  1.00  0.00     0.001 C 
ATOM     81  C   UNL A   1      33.775  27.012  24.971  1.00  0.00     0.014 C 
ATOM     82  C   UNL A   1      33.617  27.034  26.480  1.00  0.00     0.001 C 
BRANCH  79  83
ATOM     83  C   UNL A   1      33.027  27.757  22.722  1.00  0.00     0.228 C 
ATOM     84  O   UNL A   1      33.270  28.736  21.999  1.00  0.00    -0.274 OA
ATOM     85  N   UNL A   1      32.992  26.551  22.085  1.00  0.00    -0.326 N 
ATOM     86  H   UNL A   1      33.316  26.624  21.158  1.00  0.00     0.169 HD
BRANCH  85  87
ATOM     87  C   UNL A   1      32.618  25.230  22.397  1.00  0.00     0.041 A 
ATOM     88  C   UNL A   1      33.520  24.220  22.053  1.00  0.00     0.028 A 
ATOM     89  C   UNL A   1      31.423  24.834  22.981  1.00  0.00     0.028 A 
ATOM     90  C   UNL A   1      33.275  22.883  22.402  1.00  0.00     0.028 A 
ATOM     91  C   UNL A   1      31.160  23.500  23.305  1.00  0.00     0.028 A 
ATOM     92  C   UNL A   1      32.124  22.526  23.101  1.00  0.00     0.041 A 
BRANCH  92  93
ATOM     93  N   UNL A   1      31.853  21.263  23.651  1.00  0.00    -0.319 N 
ATOM     94  C   UNL A   1      32.479  20.538  24.644  1.00  0.00     0.291 C 
ATOM     95  H   UNL A   1      31.073  20.812  23.255  1.00  0.00     0.170 HD
ATOM     96  O   UNL A   1      32.025  19.422  24.905  1.00  0.00    -0.265 OA
BRANCH  94  97
ATOM     97  C   UNL A   1      33.558  21.135  25.386  1.00  0.00     0.191 A 
ATOM     98  C   UNL A   1      33.593  22.155  26.322  1.00  0.00     0.056 A 
ATOM     99  O   UNL A   1      34.829  20.699  25.137  1.00  0.00    -0.459 OA
ATOM    100  C   UNL A   1      34.961  22.385  26.613  1.00  0.00     0.043 A 
ATOM    101  C   UNL A   1      35.669  21.470  25.870  1.00  0.00     0.196 A 
ENDBRANCH  94  97
ENDBRANCH  92  93
ENDBRANCH  85  87
ENDBRANCH  79  83
ENDBRANCH  74  77
ENDBRANCH  72  73
ENDBRANCH   1  72
TORSDOF 17
ENDMDL
MODEL 3
REMARK VINA RESULT:     -12.5      5.083      7.986
REMARK SMILES O=C(NCCCNC(=O)[C@@H]1CCCC[C@H]1C(=O)Nc1ccc(NC(=O)c2ccco2)cc1)c1ccc(-c2c3nc(c(-c4cccc(S(=O)(=O)[O-])c4F)c4ccc([nH]4)c(-c4cccc(S(=O)(=O)[O-])c4F)c4nc(c(-c5cccc(S(=O)(=O)[O-])c5F)c5ccc2[nH]5)C=C4)C=C3)cc1
REMARK SMILES IDX 5 1 4 2 3 3 1 4 2 5 33 7 34 8 95 9 35 10 94 11 36 12 37 13
REMARK SMILES IDX 38 14 88 15 39 16 93 17 87 18 89 19 40 20 92 21 86 22 85 23
REMARK SMILES IDX 41 25 73 26 53 27 72 28 54 29 57 30 71 31 90 32 55 33 56 34
REMARK SMILES IDX 70 36 91 37 58 38 42 39 43 40 51 41 44 42 46 43 52 44 45 45
REMARK SMILES IDX 47 46 48 47 49 48 50 49 74 50 75 51 83 52 76 53 78 54 84 55
REMARK SMILES IDX 77 56 79 57 80 58 81 59 82 60 59 61 60 62 68 63 61 64 63 65
REMARK SMILES IDX 69 66 62 67 64 68 65 69 66 70 67 71 6 72 7 73 8 74 9 76
REMARK SMILES IDX 10 77 11 78 15 79 12 80 14 81 13 82 16 83 17 84 18 85 19 87
REMARK SMILES IDX 20 88 32 89 21 90 31 91 22 92 23 93 24 94 25 96 26 97 27 98
REMARK SMILES IDX 30 99 28 100 29 101
REMARK H PARENT 3 6 89 24 57 35 7 75 18 86 23 95
REMARK Flexibility Score: inf
ROOT
ATOM      1  C   UNL A   1      33.287  27.205  26.581  1.00  0.00     0.042 C 
ENDROOT
BRANCH   1   2
ATOM      2  C   UNL A   1      34.155  28.296  25.981  1.00  0.00     0.118 C 
BRANCH   2   3
ATOM      3  N   UNL A   1      33.790  29.626  26.456  1.00  0.00    -0.352 N 
ATOM      4  O   UNL A   1      33.821  31.463  27.740  1.00  0.00    -0.269 OA
ATOM      5  C   UNL A   1      34.400  30.440  27.378  1.00  0.00     0.251 C 
ATOM      6  H   UNL A   1      32.974  29.999  26.051  1.00  0.00     0.163 HD
BRANCH   5   7
ATOM      7  C   UNL A   1      35.723  30.089  27.944  1.00  0.00     0.039 A 
ATOM      8  C   UNL A   1      35.835  29.467  29.188  1.00  0.00     0.014 A 
ATOM      9  C   UNL A   1      36.874  30.342  27.188  1.00  0.00     0.014 A 
ATOM     10  C   UNL A   1      37.088  29.219  29.733  1.00  0.00     0.010 A 
ATOM     11  C   UNL A   1      38.131  30.001  27.695  1.00  0.00     0.010 A 
ATOM     12  C   UNL A   1      38.247  29.450  28.978  1.00  0.00    -0.014 A 
BRANCH  12  13
ATOM     13  C   UNL A   1      39.548  28.969  29.503  1.00  0.00     0.031 A 
ATOM     14  C   UNL A   1      40.238  29.652  30.647  1.00  0.00     0.074 A 
ATOM     15  C   UNL A   1      40.105  27.892  28.911  1.00  0.00     0.049 A 
ATOM     16  N   UNL A   1      41.357  29.322  31.238  1.00  0.00    -0.248 NA
ATOM     17  C   UNL A   1      39.604  30.861  31.197  1.00  0.00     0.031 C 
ATOM     18  C   UNL A   1      39.547  27.191  27.751  1.00  0.00     0.029 A 
ATOM     19  N   UNL A   1      41.255  27.203  29.192  1.00  0.00    -0.354 N 
ATOM     20  C   UNL A   1      41.585  30.298  32.199  1.00  0.00     0.074 A 
ATOM     21  C   UNL A   1      40.486  31.235  32.118  1.00  0.00     0.031 C 
ATOM     22  C   UNL A   1      40.343  26.162  27.431  1.00  0.00     0.029 A 
ATOM     23  C   UNL A   1      41.492  26.159  28.328  1.00  0.00     0.049 A 
ATOM     24  H   UNL A   1      41.854  27.432  29.940  1.00  0.00     0.167 HD
ATOM     25  C   UNL A   1      42.614  30.391  33.075  1.00  0.00     0.034 A 
ATOM     26  C   UNL A   1      42.529  25.306  28.248  1.00  0.00     0.034 A 
ATOM     27  C   UNL A   1      43.679  29.428  33.174  1.00  0.00     0.049 A 
ATOM     28  C   UNL A   1      43.634  25.421  29.256  1.00  0.00     0.074 A 
ATOM     29  C   UNL A   1      44.708  29.379  34.099  1.00  0.00     0.029 A 
ATOM     30  N   UNL A   1      43.865  28.358  32.314  1.00  0.00    -0.354 N 
ATOM     31  N   UNL A   1      43.741  26.248  30.268  1.00  0.00    -0.248 NA
ATOM     32  C   UNL A   1      44.751  24.477  29.127  1.00  0.00     0.031 C 
ATOM     33  C   UNL A   1      45.530  28.292  33.782  1.00  0.00     0.029 A 
ATOM     34  C   UNL A   1      45.004  27.656  32.669  1.00  0.00     0.049 A 
ATOM     35  H   UNL A   1      43.274  28.130  31.561  1.00  0.00     0.167 HD
ATOM     36  C   UNL A   1      44.930  25.917  30.903  1.00  0.00     0.074 A 
ATOM     37  C   UNL A   1      45.487  24.787  30.186  1.00  0.00     0.031 C 
ATOM     38  C   UNL A   1      45.523  26.511  31.967  1.00  0.00     0.034 A 
BRANCH  25  39
ATOM     39  C   UNL A   1      42.632  31.549  34.035  1.00  0.00     0.023 A 
ATOM     40  C   UNL A   1      43.137  32.794  33.611  1.00  0.00     0.012 A 
ATOM     41  C   UNL A   1      42.044  31.438  35.311  1.00  0.00     0.148 A 
ATOM     42  C   UNL A   1      43.065  33.910  34.445  1.00  0.00     0.002 A 
ATOM     43  C   UNL A   1      41.946  32.562  36.124  1.00  0.00     0.091 A 
ATOM     44  F   UNL A   1      41.586  30.240  35.701  1.00  0.00    -0.205 F 
ATOM     45  C   UNL A   1      42.460  33.797  35.694  1.00  0.00     0.022 A 
BRANCH  43  46
ATOM     46  S   UNL A   1      41.122  32.540  37.721  1.00  0.00     0.127 S 
ATOM     47  O   UNL A   1      39.820  31.976  37.372  1.00  0.00    -0.237 OA
ATOM     48  O   UNL A   1      41.983  31.648  38.498  1.00  0.00    -0.237 OA
ATOM     49  O   UNL A   1      41.100  33.921  38.182  1.00  0.00    -0.744 OA
ENDBRANCH  43  46
ENDBRANCH  25  39
BRANCH  26  50
ATOM     50  C   UNL A   1      42.548  24.257  27.191  1.00  0.00     0.023 A 
ATOM     51  C   UNL A   1      43.254  24.486  25.996  1.00  0.00     0.012 A 
ATOM     52  C   UNL A   1      41.908  23.018  27.384  1.00  0.00     0.148 A 
ATOM     53  C   UNL A   1      43.301  23.509  25.001  1.00  0.00     0.002 A 
ATOM     54  C   UNL A   1      42.011  22.026  26.415  1.00  0.00     0.091 A 
ATOM     55  F   UNL A   1      41.220  22.823  28.518  1.00  0.00    -0.205 F 
ATOM     56  C   UNL A   1      42.692  22.274  25.216  1.00  0.00     0.022 A 
BRANCH  54  57
ATOM     57  S   UNL A   1      41.382  20.368  26.705  1.00  0.00     0.127 S 
ATOM     58  O   UNL A   1      39.951  20.609  26.850  1.00  0.00    -0.237 OA
ATOM     59  O   UNL A   1      41.768  19.668  25.479  1.00  0.00    -0.237 OA
ATOM     60  O   UNL A   1      42.084  19.904  27.895  1.00  0.00    -0.744 OA
ENDBRANCH  54  57
ENDBRANCH  26  50
BRANCH  38  61
ATOM     61  C   UNL A   1      46.847  25.954  32.414  1.00  0.00     0.023 A 
ATOM     62  C   UNL A   1      48.033  26.464  31.852  1.00  0.00     0.012 A 
ATOM     63  C   UNL A   1      46.919  24.976  33.424  1.00  0.00     0.148 A 
ATOM     64  C   UNL A   1      49.275  25.987  32.268  1.00  0.00     0.002 A 
ATOM     65  C   UNL A   1      48.163  24.537  33.863  1.00  0.00     0.091 A 
ATOM     66  F   UNL A   1      45.777  24.489  33.928  1.00  0.00    -0.205 F 
ATOM     67  C   UNL A   1      49.340  25.032  33.280  1.00  0.00     0.022 A 
BRANCH  65  68
ATOM     68  S   UNL A   1      48.342  23.375  35.221  1.00  0.00     0.127 S 
ATOM     69  O   UNL A   1      47.671  24.083  36.310  1.00  0.00    -0.237 OA
ATOM     70  O   UNL A   1      47.623  22.201  34.725  1.00  0.00    -0.237 OA
ATOM     71  O   UNL A   1      49.775  23.177  35.390  1.00  0.00    -0.744 OA
ENDBRANCH  65  68
ENDBRANCH  38  61
ENDBRANCH  12  13
ENDBRANCH   5   7
ENDBRANCH   2   3
ENDBRANCH   1   2
BRANCH   1  72
ATOM     72  C   UNL A   1      33.585  25.828  26.019  1.00  0.00     0.117 C 
BRANCH  72  73
ATOM     73  N   UNL A   1      32.481  24.889  26.046  1.00  0.00    -0.356 N 
ATOM     74  C   UNL A   1      32.477  23.550  25.758  1.00  0.00     0.223 C 
ATOM     75  H   UNL A   1      31.611  25.267  26.306  1.00  0.00     0.163 HD
ATOM     76  O   UNL A   1      31.484  22.888  26.060  1.00  0.00    -0.275 OA
BRANCH  74  77
ATOM     77  C   UNL A   1      33.670  22.940  25.011  1.00  0.00     0.091 C 
ATOM     78  C   UNL A   1      34.862  22.836  25.989  1.00  0.00     0.014 C 
ATOM     79  C   UNL A   1      34.063  23.719  23.732  1.00  0.00     0.091 C 
ATOM     80  C   UNL A   1      36.149  22.376  25.313  1.00  0.00     0.001 C 
ATOM     81  C   UNL A   1      35.480  23.477  23.174  1.00  0.00     0.014 C 
ATOM     82  C   UNL A   1      36.557  23.366  24.236  1.00  0.00     0.001 C 
BRANCH  79  83
ATOM     83  C   UNL A   1      33.080  23.673  22.562  1.00  0.00     0.228 C 
ATOM     84  O   UNL A   1      33.119  22.697  21.798  1.00  0.00    -0.274 OA
ATOM     85  N   UNL A   1      32.109  24.593  22.290  1.00  0.00    -0.326 N 
ATOM     86  H   UNL A   1      31.482  24.263  21.606  1.00  0.00     0.169 HD
BRANCH  85  87
ATOM     87  C   UNL A   1      31.762  25.886  22.725  1.00  0.00     0.041 A 
ATOM     88  C   UNL A   1      30.608  26.003  23.503  1.00  0.00     0.028 A 
ATOM     89  C   UNL A   1      32.438  27.060  22.423  1.00  0.00     0.028 A 
ATOM     90  C   UNL A   1      30.230  27.236  24.056  1.00  0.00     0.028 A 
ATOM     91  C   UNL A   1      32.050  28.297  22.945  1.00  0.00     0.028 A 
ATOM     92  C   UNL A   1      30.997  28.380  23.842  1.00  0.00     0.041 A 
BRANCH  92  93
ATOM     93  N   UNL A   1      30.819  29.621  24.474  1.00  0.00    -0.319 N 
ATOM     94  C   UNL A   1      30.061  30.724  24.141  1.00  0.00     0.291 C 
ATOM     95  H   UNL A   1      31.331  29.721  25.309  1.00  0.00     0.170 HD
ATOM     96  O   UNL A   1      30.122  31.703  24.888  1.00  0.00    -0.265 OA
BRANCH  94  97
ATOM     97  C   UNL A   1      29.174  30.659  23.009  1.00  0.00     0.191 A 
ATOM     98  C   UNL A   1      28.229  29.726  22.616  1.00  0.00     0.056 A 
ATOM     99  O   UNL A   1      29.256  31.650  22.071  1.00  0.00    -0.459 OA
ATOM    100  C   UNL A   1      27.756  30.144  21.348  1.00  0.00     0.043 A 
ATOM    101  C   UNL A   1      28.408  31.321  21.065  1.00  0.00     0.196 A 
ENDBRANCH  94  97
ENDBRANCH  92  93
ENDBRANCH  85  87
ENDBRANCH  79  83
ENDBRANCH  74  77
ENDBRANCH  72  73
ENDBRANCH   1  72
TORSDOF 17
ENDMDL
