MODEL 1
REMARK VINA RESULT:     -12.5      0.000      0.000
REMARK SMILES COc1ccc(-c2cc(=O)oc3cc(OCC(=O)N[C@@H](C)C(=O)NCCCNC(=O)c4ccc(-c5c6nc(c(-c7cccc(S(=O)(=O)[O-])c7F)c7ccc([nH]7)c(-c7cccc(S(=O)(=O)[O-])c7F)c7nc(c(-c8cccc(S(=O)(=O)[O-])c8F)c8ccc5[nH]8)C=C7)C=C6)cc4)ccc23)cc1
REMARK SMILES IDX 22 1 23 2 24 3 20 5 21 6 19 7 17 8 18 9 16 11 15 12 14 13
REMARK SMILES IDX 7 14 8 15 96 16 9 17 12 18 95 19 10 20 11 21 13 22 94 23
REMARK SMILES IDX 6 24 3 25 4 26 98 27 5 28 97 29 2 30 1 31 25 32 26 33 27 34
REMARK SMILES IDX 28 35 29 36 30 38 31 39 32 40 93 41 33 42 92 43 34 44 35 45
REMARK SMILES IDX 36 46 86 47 37 48 91 49 85 50 87 51 38 52 90 53 84 54 83 55
REMARK SMILES IDX 39 57 71 58 51 59 70 60 52 61 55 62 69 63 88 64 53 65 54 66
REMARK SMILES IDX 68 68 89 69 56 70 40 71 41 72 49 73 42 74 44 75 50 76 43 77
REMARK SMILES IDX 45 78 46 79 47 80 48 81 72 82 73 83 81 84 74 85 76 86 82 87
REMARK SMILES IDX 75 88 77 89 78 90 79 91 80 92 57 93 58 94 66 95 59 96 61 97
REMARK SMILES IDX 67 98 60 99 62 100 63 101 64 102 65 103
REMARK H PARENT 24 4 19 10 28 37 87 56 55 67
REMARK Flexibility Score: inf
ROOT
ATOM      1  C   UNL A   1      30.503  26.945  23.804  1.00  0.00     0.242 C 
ATOM      2  O   UNL A   1      29.504  26.262  23.568  1.00  0.00    -0.273 OA
ATOM      3  N   UNL A   1      31.069  26.855  25.045  1.00  0.00    -0.354 N 
ATOM      4  H   UNL A   1      30.538  26.351  25.703  1.00  0.00     0.163 HD
ENDROOT
BRANCH   1   5
ATOM      5  C   UNL A   1      31.165  27.784  22.702  1.00  0.00     0.168 C 
ATOM      6  C   UNL A   1      30.310  29.024  22.430  1.00  0.00     0.041 C 
BRANCH   5   7
ATOM      7  N   UNL A   1      31.404  26.936  21.529  1.00  0.00    -0.342 N 
ATOM      8  C   UNL A   1      32.435  26.075  21.282  1.00  0.00     0.258 C 
ATOM      9  O   UNL A   1      32.367  25.332  20.303  1.00  0.00    -0.271 OA
ATOM     10  H   UNL A   1      30.724  26.994  20.820  1.00  0.00     0.164 HD
BRANCH   8  11
ATOM     11  C   UNL A   1      33.625  26.045  22.217  1.00  0.00     0.329 C 
BRANCH  11  12
ATOM     12  O   UNL A   1      34.083  24.703  22.200  1.00  0.00    -0.484 OA
BRANCH  12  13
ATOM     13  C   UNL A   1      34.655  24.207  23.331  1.00  0.00     0.123 A 
ATOM     14  C   UNL A   1      34.423  21.196  25.916  1.00  0.00    -0.000 A 
ATOM     15  C   UNL A   1      33.649  21.252  27.010  1.00  0.00     0.103 A 
ATOM     16  C   UNL A   1      34.985  22.473  25.416  1.00  0.00     0.026 A 
ATOM     17  C   UNL A   1      33.296  22.562  27.601  1.00  0.00     0.336 A 
ATOM     18  C   UNL A   1      34.126  23.549  25.571  1.00  0.00     0.142 A 
ATOM     19  C   UNL A   1      35.911  22.449  24.366  1.00  0.00     0.016 A 
ATOM     20  O   UNL A   1      32.846  22.644  28.734  1.00  0.00    -0.246 OA
ATOM     21  O   UNL A   1      33.320  23.642  26.715  1.00  0.00    -0.423 OA
ATOM     22  C   UNL A   1      33.925  24.411  24.508  1.00  0.00     0.094 A 
ATOM     23  C   UNL A   1      35.725  23.314  23.293  1.00  0.00     0.047 A 
BRANCH  14  24
ATOM     24  C   UNL A   1      34.178  20.096  24.950  1.00  0.00    -0.017 A 
ATOM     25  C   UNL A   1      33.683  17.612  23.804  1.00  0.00     0.118 A 
ATOM     26  C   UNL A   1      32.718  18.620  23.733  1.00  0.00     0.047 A 
ATOM     27  C   UNL A   1      34.946  17.868  24.320  1.00  0.00     0.047 A 
ATOM     28  C   UNL A   1      32.957  19.868  24.320  1.00  0.00     0.012 A 
ATOM     29  C   UNL A   1      35.192  19.111  24.883  1.00  0.00     0.012 A 
BRANCH  25  30
ATOM     30  O   UNL A   1      33.367  16.350  23.381  1.00  0.00    -0.497 OA
ATOM     31  C   UNL A   1      33.067  15.531  24.519  1.00  0.00     0.278 C 
ENDBRANCH  25  30
ENDBRANCH  14  24
ENDBRANCH  12  13
ENDBRANCH  11  12
ENDBRANCH   8  11
ENDBRANCH   5   7
ENDBRANCH   1   5
BRANCH   3  32
ATOM     32  C   UNL A   1      32.328  27.381  25.556  1.00  0.00     0.117 C 
BRANCH  32  33
ATOM     33  C   UNL A   1      32.146  28.191  26.832  1.00  0.00     0.042 C 
BRANCH  33  34
ATOM     34  C   UNL A   1      33.452  28.682  27.436  1.00  0.00     0.118 C 
BRANCH  34  35
ATOM     35  N   UNL A   1      33.506  30.133  27.546  1.00  0.00    -0.352 N 
ATOM     36  C   UNL A   1      34.478  30.931  28.094  1.00  0.00     0.251 C 
ATOM     37  H   UNL A   1      32.730  30.611  27.173  1.00  0.00     0.163 HD
ATOM     38  O   UNL A   1      34.257  32.128  28.260  1.00  0.00    -0.269 OA
BRANCH  36  39
ATOM     39  C   UNL A   1      35.777  30.349  28.492  1.00  0.00     0.039 A 
ATOM     40  C   UNL A   1      36.879  30.508  27.647  1.00  0.00     0.014 A 
ATOM     41  C   UNL A   1      35.907  29.640  29.689  1.00  0.00     0.014 A 
ATOM     42  C   UNL A   1      38.122  29.999  28.031  1.00  0.00     0.010 A 
ATOM     43  C   UNL A   1      37.160  29.217  30.111  1.00  0.00     0.010 A 
ATOM     44  C   UNL A   1      38.277  29.372  29.276  1.00  0.00    -0.014 A 
BRANCH  44  45
ATOM     45  C   UNL A   1      39.589  28.844  29.723  1.00  0.00     0.031 A 
ATOM     46  C   UNL A   1      40.334  29.534  30.836  1.00  0.00     0.074 A 
ATOM     47  C   UNL A   1      40.154  27.811  29.068  1.00  0.00     0.049 A 
ATOM     48  N   UNL A   1      41.522  29.275  31.316  1.00  0.00    -0.248 NA
ATOM     49  C   UNL A   1      39.672  30.689  31.467  1.00  0.00     0.031 C 
ATOM     50  C   UNL A   1      39.573  27.119  27.915  1.00  0.00     0.029 A 
ATOM     51  N   UNL A   1      41.357  27.181  29.260  1.00  0.00    -0.354 N 
ATOM     52  C   UNL A   1      41.769  30.261  32.265  1.00  0.00     0.074 A 
ATOM     53  C   UNL A   1      40.623  31.143  32.269  1.00  0.00     0.031 C 
ATOM     54  C   UNL A   1      40.417  26.156  27.509  1.00  0.00     0.029 A 
ATOM     55  C   UNL A   1      41.605  26.174  28.356  1.00  0.00     0.049 A 
ATOM     56  H   UNL A   1      41.985  27.426  29.979  1.00  0.00     0.167 HD
ATOM     57  C   UNL A   1      42.837  30.400  33.084  1.00  0.00     0.034 A 
ATOM     58  C   UNL A   1      42.668  25.356  28.230  1.00  0.00     0.034 A 
ATOM     59  C   UNL A   1      43.936  29.476  33.133  1.00  0.00     0.049 A 
ATOM     60  C   UNL A   1      43.798  25.474  29.217  1.00  0.00     0.074 A 
ATOM     61  C   UNL A   1      45.014  29.464  34.000  1.00  0.00     0.029 A 
ATOM     62  N   UNL A   1      44.092  28.392  32.284  1.00  0.00    -0.354 N 
ATOM     63  N   UNL A   1      43.936  26.310  30.218  1.00  0.00    -0.248 NA
ATOM     64  C   UNL A   1      44.900  24.510  29.084  1.00  0.00     0.031 C 
ATOM     65  C   UNL A   1      45.823  28.370  33.674  1.00  0.00     0.029 A 
ATOM     66  C   UNL A   1      45.245  27.700  32.607  1.00  0.00     0.049 A 
ATOM     67  H   UNL A   1      43.473  28.149  31.557  1.00  0.00     0.167 HD
ATOM     68  C   UNL A   1      45.118  25.950  30.855  1.00  0.00     0.074 A 
ATOM     69  C   UNL A   1      45.647  24.808  30.138  1.00  0.00     0.031 C 
ATOM     70  C   UNL A   1      45.721  26.524  31.926  1.00  0.00     0.034 A 
BRANCH  57  71
ATOM     71  C   UNL A   1      42.829  31.555  34.051  1.00  0.00     0.023 A 
ATOM     72  C   UNL A   1      43.406  32.782  33.666  1.00  0.00     0.012 A 
ATOM     73  C   UNL A   1      42.214  31.446  35.314  1.00  0.00     0.148 A 
ATOM     74  C   UNL A   1      43.403  33.873  34.534  1.00  0.00     0.002 A 
ATOM     75  C   UNL A   1      42.178  32.550  36.157  1.00  0.00     0.091 A 
ATOM     76  F   UNL A   1      41.694  30.264  35.674  1.00  0.00    -0.205 F 
ATOM     77  C   UNL A   1      42.780  33.760  35.774  1.00  0.00     0.022 A 
BRANCH  75  78
ATOM     78  S   UNL A   1      41.334  32.525  37.743  1.00  0.00     0.127 S 
ATOM     79  O   UNL A   1      42.157  31.584  38.501  1.00  0.00    -0.237 OA
ATOM     80  O   UNL A   1      41.445  33.919  38.178  1.00  0.00    -0.237 OA
ATOM     81  O   UNL A   1      39.974  32.088  37.462  1.00  0.00    -0.744 OA
ENDBRANCH  75  78
ENDBRANCH  57  71
BRANCH  58  82
ATOM     82  C   UNL A   1      42.663  24.287  27.193  1.00  0.00     0.023 A 
ATOM     83  C   UNL A   1      43.334  24.511  25.976  1.00  0.00     0.012 A 
ATOM     84  C   UNL A   1      42.037  23.045  27.414  1.00  0.00     0.148 A 
ATOM     85  C   UNL A   1      43.359  23.530  24.985  1.00  0.00     0.002 A 
ATOM     86  C   UNL A   1      42.108  22.053  26.442  1.00  0.00     0.091 A 
ATOM     87  F   UNL A   1      41.391  22.855  28.573  1.00  0.00    -0.205 F 
ATOM     88  C   UNL A   1      42.756  22.298  25.220  1.00  0.00     0.022 A 
BRANCH  86  89
ATOM     89  S   UNL A   1      41.468  20.396  26.716  1.00  0.00     0.127 S 
ATOM     90  O   UNL A   1      42.237  19.968  27.881  1.00  0.00    -0.237 OA
ATOM     91  O   UNL A   1      40.051  20.653  26.973  1.00  0.00    -0.237 OA
ATOM     92  O   UNL A   1      41.728  19.673  25.478  1.00  0.00    -0.744 OA
ENDBRANCH  86  89
ENDBRANCH  58  82
BRANCH  70  93
ATOM     93  C   UNL A   1      47.003  25.911  32.416  1.00  0.00     0.023 A 
ATOM     94  C   UNL A   1      48.233  26.378  31.914  1.00  0.00     0.012 A 
ATOM     95  C   UNL A   1      46.994  24.936  33.432  1.00  0.00     0.148 A 
ATOM     96  C   UNL A   1      49.435  25.864  32.397  1.00  0.00     0.002 A 
ATOM     97  C   UNL A   1      48.197  24.459  33.939  1.00  0.00     0.091 A 
ATOM     98  F   UNL A   1      45.812  24.488  33.882  1.00  0.00    -0.205 F 
ATOM     99  C   UNL A   1      49.418  24.916  33.418  1.00  0.00     0.022 A 
BRANCH  97 100
ATOM    100  S   UNL A   1      48.260  23.307  35.316  1.00  0.00     0.127 S 
ATOM    101  O   UNL A   1      47.660  22.110  34.733  1.00  0.00    -0.237 OA
ATOM    102  O   UNL A   1      49.697  23.204  35.577  1.00  0.00    -0.237 OA
ATOM    103  O   UNL A   1      47.501  23.936  36.390  1.00  0.00    -0.744 OA
ENDBRANCH  97 100
ENDBRANCH  70  93
ENDBRANCH  44  45
ENDBRANCH  36  39
ENDBRANCH  34  35
ENDBRANCH  33  34
ENDBRANCH  32  33
ENDBRANCH   3  32
TORSDOF 19
ENDMDL
MODEL 2
REMARK VINA RESULT:     -12.3      1.931      2.529
REMARK SMILES COc1ccc(-c2cc(=O)oc3cc(OCC(=O)N[C@@H](C)C(=O)NCCCNC(=O)c4ccc(-c5c6nc(c(-c7cccc(S(=O)(=O)[O-])c7F)c7ccc([nH]7)c(-c7cccc(S(=O)(=O)[O-])c7F)c7nc(c(-c8cccc(S(=O)(=O)[O-])c8F)c8ccc5[nH]8)C=C7)C=C6)cc4)ccc23)cc1
REMARK SMILES IDX 22 1 23 2 24 3 20 5 21 6 19 7 17 8 18 9 16 11 15 12 14 13
REMARK SMILES IDX 7 14 8 15 96 16 9 17 12 18 95 19 10 20 11 21 13 22 94 23
REMARK SMILES IDX 6 24 3 25 4 26 98 27 5 28 97 29 2 30 1 31 25 32 26 33 27 34
REMARK SMILES IDX 28 35 29 36 30 38 31 39 32 40 93 41 33 42 92 43 34 44 35 45
REMARK SMILES IDX 36 46 86 47 37 48 91 49 85 50 87 51 38 52 90 53 84 54 83 55
REMARK SMILES IDX 39 57 71 58 51 59 70 60 52 61 55 62 69 63 88 64 53 65 54 66
REMARK SMILES IDX 68 68 89 69 56 70 40 71 41 72 49 73 42 74 44 75 50 76 43 77
REMARK SMILES IDX 45 78 46 79 47 80 48 81 72 82 73 83 81 84 74 85 76 86 82 87
REMARK SMILES IDX 75 88 77 89 78 90 79 91 80 92 57 93 58 94 66 95 59 96 61 97
REMARK SMILES IDX 67 98 60 99 62 100 63 101 64 102 65 103
REMARK H PARENT 24 4 19 10 28 37 87 56 55 67
REMARK Flexibility Score: inf
ROOT
ATOM      1  C   UNL A   1      31.200  28.023  22.954  1.00  0.00     0.242 C 
ATOM      2  O   UNL A   1      30.481  28.331  22.001  1.00  0.00    -0.273 OA
ATOM      3  N   UNL A   1      30.615  27.869  24.180  1.00  0.00    -0.354 N 
ATOM      4  H   UNL A   1      29.676  28.161  24.227  1.00  0.00     0.163 HD
ENDROOT
BRANCH   1   5
ATOM      5  C   UNL A   1      32.688  27.704  22.752  1.00  0.00     0.168 C 
ATOM      6  C   UNL A   1      33.515  28.958  23.042  1.00  0.00     0.041 C 
BRANCH   5   7
ATOM      7  N   UNL A   1      32.882  27.139  21.412  1.00  0.00    -0.342 N 
ATOM      8  C   UNL A   1      32.882  25.832  21.019  1.00  0.00     0.258 C 
ATOM      9  O   UNL A   1      32.902  25.574  19.815  1.00  0.00    -0.271 OA
ATOM     10  H   UNL A   1      33.032  27.795  20.695  1.00  0.00     0.164 HD
BRANCH   8  11
ATOM     11  C   UNL A   1      32.844  24.736  22.063  1.00  0.00     0.329 C 
BRANCH  11  12
ATOM     12  O   UNL A   1      34.117  24.113  21.999  1.00  0.00    -0.484 OA
BRANCH  12  13
ATOM     13  C   UNL A   1      34.688  23.706  23.165  1.00  0.00     0.123 A 
ATOM     14  C   UNL A   1      34.418  20.935  26.003  1.00  0.00    -0.000 A 
ATOM     15  C   UNL A   1      33.653  21.100  27.092  1.00  0.00     0.103 A 
ATOM     16  C   UNL A   1      35.001  22.152  25.390  1.00  0.00     0.026 A 
ATOM     17  C   UNL A   1      33.331  22.463  27.570  1.00  0.00     0.336 A 
ATOM     18  C   UNL A   1      34.164  23.255  25.457  1.00  0.00     0.142 A 
ATOM     19  C   UNL A   1      35.918  22.018  24.341  1.00  0.00     0.016 A 
ATOM     20  O   UNL A   1      32.892  22.652  28.694  1.00  0.00    -0.246 OA
ATOM     21  O   UNL A   1      33.369  23.462  26.594  1.00  0.00    -0.423 OA
ATOM     22  C   UNL A   1      33.972  24.025  24.325  1.00  0.00     0.094 A 
ATOM     23  C   UNL A   1      35.740  22.791  23.198  1.00  0.00     0.047 A 
BRANCH  14  24
ATOM     24  C   UNL A   1      34.143  19.760  25.137  1.00  0.00    -0.017 A 
ATOM     25  C   UNL A   1      33.748  17.176  24.193  1.00  0.00     0.118 A 
ATOM     26  C   UNL A   1      32.678  18.074  24.241  1.00  0.00     0.047 A 
ATOM     27  C   UNL A   1      35.040  17.590  24.481  1.00  0.00     0.047 A 
ATOM     28  C   UNL A   1      32.870  19.373  24.729  1.00  0.00     0.012 A 
ATOM     29  C   UNL A   1      35.236  18.881  24.944  1.00  0.00     0.012 A 
BRANCH  25  30
ATOM     30  O   UNL A   1      33.508  15.865  23.881  1.00  0.00    -0.497 OA
ATOM     31  C   UNL A   1      32.899  15.215  25.004  1.00  0.00     0.278 C 
ENDBRANCH  25  30
ENDBRANCH  14  24
ENDBRANCH  12  13
ENDBRANCH  11  12
ENDBRANCH   8  11
ENDBRANCH   5   7
ENDBRANCH   1   5
BRANCH   3  32
ATOM     32  C   UNL A   1      31.150  27.343  25.429  1.00  0.00     0.117 C 
BRANCH  32  33
ATOM     33  C   UNL A   1      31.400  28.434  26.461  1.00  0.00     0.042 C 
BRANCH  33  34
ATOM     34  C   UNL A   1      32.699  29.194  26.247  1.00  0.00     0.118 C 
BRANCH  34  35
ATOM     35  N   UNL A   1      32.535  30.634  26.390  1.00  0.00    -0.352 N 
ATOM     36  C   UNL A   1      33.251  31.522  27.151  1.00  0.00     0.251 C 
ATOM     37  H   UNL A   1      31.801  31.026  25.864  1.00  0.00     0.163 HD
ATOM     38  O   UNL A   1      32.843  32.673  27.285  1.00  0.00    -0.269 OA
BRANCH  36  39
ATOM     39  C   UNL A   1      34.500  31.091  27.815  1.00  0.00     0.039 A 
ATOM     40  C   UNL A   1      35.396  32.061  28.272  1.00  0.00     0.014 A 
ATOM     41  C   UNL A   1      34.792  29.734  27.977  1.00  0.00     0.014 A 
ATOM     42  C   UNL A   1      36.558  31.668  28.938  1.00  0.00     0.010 A 
ATOM     43  C   UNL A   1      35.901  29.348  28.719  1.00  0.00     0.010 A 
ATOM     44  C   UNL A   1      36.807  30.310  29.188  1.00  0.00    -0.014 A 
BRANCH  44  45
ATOM     45  C   UNL A   1      38.020  29.863  29.915  1.00  0.00     0.031 A 
ATOM     46  C   UNL A   1      38.297  30.382  31.302  1.00  0.00     0.074 A 
ATOM     47  C   UNL A   1      38.919  29.071  29.296  1.00  0.00     0.049 A 
ATOM     48  N   UNL A   1      39.335  30.174  32.068  1.00  0.00    -0.248 NA
ATOM     49  C   UNL A   1      37.291  31.285  31.889  1.00  0.00     0.031 C 
ATOM     50  C   UNL A   1      38.808  28.578  27.921  1.00  0.00     0.029 A 
ATOM     51  N   UNL A   1      40.116  28.566  29.735  1.00  0.00    -0.354 N 
ATOM     52  C   UNL A   1      39.132  30.955  33.200  1.00  0.00     0.074 A 
ATOM     53  C   UNL A   1      37.890  31.668  33.007  1.00  0.00     0.031 C 
ATOM     54  C   UNL A   1      39.890  27.835  27.633  1.00  0.00     0.029 A 
ATOM     55  C   UNL A   1      40.778  27.815  28.791  1.00  0.00     0.049 A 
ATOM     56  H   UNL A   1      40.469  28.726  30.640  1.00  0.00     0.167 HD
ATOM     57  C   UNL A   1      39.893  31.044  34.316  1.00  0.00     0.034 A 
ATOM     58  C   UNL A   1      41.964  27.180  28.856  1.00  0.00     0.034 A 
ATOM     59  C   UNL A   1      41.084  30.272  34.538  1.00  0.00     0.049 A 
ATOM     60  C   UNL A   1      42.742  27.220  30.144  1.00  0.00     0.074 A 
ATOM     61  C   UNL A   1      41.868  30.205  35.675  1.00  0.00     0.029 A 
ATOM     62  N   UNL A   1      41.658  29.423  33.604  1.00  0.00    -0.354 N 
ATOM     63  N   UNL A   1      42.449  27.831  31.266  1.00  0.00    -0.248 NA
ATOM     64  C   UNL A   1      43.993  26.449  30.189  1.00  0.00     0.031 C 
ATOM     65  C   UNL A   1      42.918  29.315  35.428  1.00  0.00     0.029 A 
ATOM     66  C   UNL A   1      42.784  28.824  34.140  1.00  0.00     0.049 A 
ATOM     67  H   UNL A   1      41.315  29.269  32.694  1.00  0.00     0.167 HD
ATOM     68  C   UNL A   1      43.456  27.490  32.161  1.00  0.00     0.074 A 
ATOM     69  C   UNL A   1      44.357  26.602  31.455  1.00  0.00     0.031 C 
ATOM     70  C   UNL A   1      43.631  27.889  33.445  1.00  0.00     0.034 A 
BRANCH  57  71
ATOM     71  C   UNL A   1      39.414  31.954  35.416  1.00  0.00     0.023 A 
ATOM     72  C   UNL A   1      38.526  31.451  36.390  1.00  0.00     0.012 A 
ATOM     73  C   UNL A   1      39.873  33.281  35.519  1.00  0.00     0.148 A 
ATOM     74  C   UNL A   1      38.076  32.265  37.428  1.00  0.00     0.002 A 
ATOM     75  C   UNL A   1      39.452  34.074  36.580  1.00  0.00     0.091 A 
ATOM     76  F   UNL A   1      40.696  33.750  34.570  1.00  0.00    -0.205 F 
ATOM     77  C   UNL A   1      38.546  33.571  37.529  1.00  0.00     0.022 A 
BRANCH  75  78
ATOM     78  S   UNL A   1      40.060  35.745  36.837  1.00  0.00     0.127 S 
ATOM     79  O   UNL A   1      41.499  35.520  36.960  1.00  0.00    -0.237 OA
ATOM     80  O   UNL A   1      39.651  36.418  35.603  1.00  0.00    -0.237 OA
ATOM     81  O   UNL A   1      39.394  36.229  38.038  1.00  0.00    -0.744 OA
ENDBRANCH  75  78
ENDBRANCH  57  71
BRANCH  58  82
ATOM     82  C   UNL A   1      42.434  26.366  27.700  1.00  0.00     0.023 A 
ATOM     83  C   UNL A   1      43.342  26.936  26.787  1.00  0.00     0.012 A 
ATOM     84  C   UNL A   1      42.024  25.031  27.520  1.00  0.00     0.148 A 
ATOM     85  C   UNL A   1      43.812  26.202  25.698  1.00  0.00     0.002 A 
ATOM     86  C   UNL A   1      42.535  24.289  26.460  1.00  0.00     0.091 A 
ATOM     87  F   UNL A   1      41.149  24.510  28.391  1.00  0.00    -0.205 F 
ATOM     88  C   UNL A   1      43.417  24.876  25.539  1.00  0.00     0.022 A 
BRANCH  86  89
ATOM     89  S   UNL A   1      42.178  22.539  26.257  1.00  0.00     0.127 S 
ATOM     90  O   UNL A   1      42.786  21.969  27.456  1.00  0.00    -0.237 OA
ATOM     91  O   UNL A   1      40.715  22.524  26.240  1.00  0.00    -0.237 OA
ATOM     92  O   UNL A   1      42.792  22.165  24.989  1.00  0.00    -0.744 OA
ENDBRANCH  86  89
ENDBRANCH  58  82
BRANCH  70  93
ATOM     93  C   UNL A   1      44.819  27.346  34.190  1.00  0.00     0.023 A 
ATOM     94  C   UNL A   1      46.015  28.088  34.224  1.00  0.00     0.012 A 
ATOM     95  C   UNL A   1      44.724  26.147  34.923  1.00  0.00     0.148 A 
ATOM     96  C   UNL A   1      47.110  27.630  34.956  1.00  0.00     0.002 A 
ATOM     97  C   UNL A   1      45.805  25.720  35.685  1.00  0.00     0.091 A 
ATOM     98  F   UNL A   1      43.584  25.444  34.859  1.00  0.00    -0.205 F 
ATOM     99  C   UNL A   1      47.001  26.455  35.696  1.00  0.00     0.022 A 
BRANCH  97 100
ATOM    100  S   UNL A   1      45.712  24.268  36.738  1.00  0.00     0.127 S 
ATOM    101  O   UNL A   1      44.394  24.424  37.348  1.00  0.00    -0.237 OA
ATOM    102  O   UNL A   1      45.812  23.171  35.774  1.00  0.00    -0.237 OA
ATOM    103  O   UNL A   1      46.846  24.369  37.648  1.00  0.00    -0.744 OA
ENDBRANCH  97 100
ENDBRANCH  70  93
ENDBRANCH  44  45
ENDBRANCH  36  39
ENDBRANCH  34  35
ENDBRANCH  33  34
ENDBRANCH  32  33
ENDBRANCH   3  32
TORSDOF 19
ENDMDL
MODEL 3
REMARK VINA RESULT:     -12.3      1.691      2.842
REMARK SMILES COc1ccc(-c2cc(=O)oc3cc(OCC(=O)N[C@@H](C)C(=O)NCCCNC(=O)c4ccc(-c5c6nc(c(-c7cccc(S(=O)(=O)[O-])c7F)c7ccc([nH]7)c(-c7cccc(S(=O)(=O)[O-])c7F)c7nc(c(-c8cccc(S(=O)(=O)[O-])c8F)c8ccc5[nH]8)C=C7)C=C6)cc4)ccc23)cc1
REMARK SMILES IDX 22 1 23 2 24 3 20 5 21 6 19 7 17 8 18 9 16 11 15 12 14 13
REMARK SMILES IDX 7 14 8 15 96 16 9 17 12 18 95 19 10 20 11 21 13 22 94 23
REMARK SMILES IDX 6 24 3 25 4 26 98 27 5 28 97 29 2 30 1 31 25 32 26 33 27 34
REMARK SMILES IDX 28 35 29 36 30 38 31 39 32 40 93 41 33 42 92 43 34 44 35 45
REMARK SMILES IDX 36 46 86 47 37 48 91 49 85 50 87 51 38 52 90 53 84 54 83 55
REMARK SMILES IDX 39 57 71 58 51 59 70 60 52 61 55 62 69 63 88 64 53 65 54 66
REMARK SMILES IDX 68 68 89 69 56 70 40 71 41 72 49 73 42 74 44 75 50 76 43 77
REMARK SMILES IDX 45 78 46 79 47 80 48 81 72 82 73 83 81 84 74 85 76 86 82 87
REMARK SMILES IDX 75 88 77 89 78 90 79 91 80 92 57 93 58 94 66 95 59 96 61 97
REMARK SMILES IDX 67 98 60 99 62 100 63 101 64 102 65 103
REMARK H PARENT 24 4 19 10 28 37 87 56 55 67
REMARK Flexibility Score: inf
ROOT
ATOM      1  C   UNL A   1      31.759  28.123  23.738  1.00  0.00     0.242 C 
ATOM      2  O   UNL A   1      31.032  28.612  22.871  1.00  0.00    -0.273 OA
ATOM      3  N   UNL A   1      31.237  27.932  24.987  1.00  0.00    -0.354 N 
ATOM      4  H   UNL A   1      30.352  28.340  25.128  1.00  0.00     0.163 HD
ENDROOT
BRANCH   1   5
ATOM      5  C   UNL A   1      33.173  27.631  23.399  1.00  0.00     0.168 C 
ATOM      6  C   UNL A   1      34.172  28.765  23.640  1.00  0.00     0.041 C 
BRANCH   5   7
ATOM      7  N   UNL A   1      33.181  27.088  22.036  1.00  0.00    -0.342 N 
ATOM      8  C   UNL A   1      33.094  25.789  21.625  1.00  0.00     0.258 C 
ATOM      9  O   UNL A   1      32.955  25.554  20.424  1.00  0.00    -0.271 OA
ATOM     10  H   UNL A   1      33.257  27.754  21.316  1.00  0.00     0.164 HD
BRANCH   8  11
ATOM     11  C   UNL A   1      33.158  24.674  22.647  1.00  0.00     0.329 C 
BRANCH  11  12
ATOM     12  O   UNL A   1      32.041  23.846  22.370  1.00  0.00    -0.484 OA
BRANCH  12  13
ATOM     13  C   UNL A   1      31.843  22.754  23.158  1.00  0.00     0.123 A 
ATOM     14  C   UNL A   1      33.763  19.745  24.907  1.00  0.00    -0.000 A 
ATOM     15  C   UNL A   1      33.952  18.566  24.295  1.00  0.00     0.103 A 
ATOM     16  C   UNL A   1      32.546  20.510  24.548  1.00  0.00     0.026 A 
ATOM     17  C   UNL A   1      33.024  18.129  23.228  1.00  0.00     0.336 A 
ATOM     18  C   UNL A   1      32.194  20.387  23.213  1.00  0.00     0.142 A 
ATOM     19  C   UNL A   1      32.234  21.673  25.261  1.00  0.00     0.016 A 
ATOM     20  O   UNL A   1      32.989  16.966  22.856  1.00  0.00    -0.246 OA
ATOM     21  O   UNL A   1      32.362  19.160  22.556  1.00  0.00    -0.423 OA
ATOM     22  C   UNL A   1      31.872  21.523  22.493  1.00  0.00     0.094 A 
ATOM     23  C   UNL A   1      31.903  22.822  24.550  1.00  0.00     0.047 A 
BRANCH  14  24
ATOM     24  C   UNL A   1      34.966  20.487  25.363  1.00  0.00    -0.017 A 
ATOM     25  C   UNL A   1      37.264  22.048  25.450  1.00  0.00     0.118 A 
ATOM     26  C   UNL A   1      36.087  22.501  26.053  1.00  0.00     0.047 A 
ATOM     27  C   UNL A   1      37.348  20.767  24.922  1.00  0.00     0.047 A 
ATOM     28  C   UNL A   1      34.924  21.724  26.000  1.00  0.00     0.012 A 
ATOM     29  C   UNL A   1      36.202  19.988  24.887  1.00  0.00     0.012 A 
BRANCH  25  30
ATOM     30  O   UNL A   1      38.338  22.891  25.358  1.00  0.00    -0.497 OA
ATOM     31  C   UNL A   1      38.219  23.919  26.350  1.00  0.00     0.278 C 
ENDBRANCH  25  30
ENDBRANCH  14  24
ENDBRANCH  12  13
ENDBRANCH  11  12
ENDBRANCH   8  11
ENDBRANCH   5   7
ENDBRANCH   1   5
BRANCH   3  32
ATOM     32  C   UNL A   1      31.772  27.226  26.143  1.00  0.00     0.117 C 
BRANCH  32  33
ATOM     33  C   UNL A   1      32.084  28.159  27.304  1.00  0.00     0.042 C 
BRANCH  33  34
ATOM     34  C   UNL A   1      33.496  28.721  27.275  1.00  0.00     0.118 C 
BRANCH  34  35
ATOM     35  N   UNL A   1      33.527  30.166  27.452  1.00  0.00    -0.352 N 
ATOM     36  C   UNL A   1      34.475  30.951  28.058  1.00  0.00     0.251 C 
ATOM     37  H   UNL A   1      32.753  30.650  27.083  1.00  0.00     0.163 HD
ATOM     38  O   UNL A   1      34.233  32.136  28.273  1.00  0.00    -0.269 OA
BRANCH  36  39
ATOM     39  C   UNL A   1      35.773  30.368  28.459  1.00  0.00     0.039 A 
ATOM     40  C   UNL A   1      36.872  30.509  27.607  1.00  0.00     0.014 A 
ATOM     41  C   UNL A   1      35.904  29.678  29.667  1.00  0.00     0.014 A 
ATOM     42  C   UNL A   1      38.114  30.000  27.994  1.00  0.00     0.010 A 
ATOM     43  C   UNL A   1      37.157  29.255  30.090  1.00  0.00     0.010 A 
ATOM     44  C   UNL A   1      38.271  29.391  29.249  1.00  0.00    -0.014 A 
BRANCH  44  45
ATOM     45  C   UNL A   1      39.583  28.864  29.698  1.00  0.00     0.031 A 
ATOM     46  C   UNL A   1      40.328  29.558  30.808  1.00  0.00     0.074 A 
ATOM     47  C   UNL A   1      40.147  27.827  29.047  1.00  0.00     0.049 A 
ATOM     48  N   UNL A   1      41.515  29.300  31.290  1.00  0.00    -0.248 NA
ATOM     49  C   UNL A   1      39.667  30.716  31.434  1.00  0.00     0.031 C 
ATOM     50  C   UNL A   1      39.565  27.131  27.897  1.00  0.00     0.029 A 
ATOM     51  N   UNL A   1      41.348  27.197  29.243  1.00  0.00    -0.354 N 
ATOM     52  C   UNL A   1      41.764  30.289  32.234  1.00  0.00     0.074 A 
ATOM     53  C   UNL A   1      40.618  31.172  32.234  1.00  0.00     0.031 C 
ATOM     54  C   UNL A   1      40.408  26.165  27.496  1.00  0.00     0.029 A 
ATOM     55  C   UNL A   1      41.595  26.186  28.344  1.00  0.00     0.049 A 
ATOM     56  H   UNL A   1      41.977  27.444  29.961  1.00  0.00     0.167 HD
ATOM     57  C   UNL A   1      42.831  30.431  33.053  1.00  0.00     0.034 A 
ATOM     58  C   UNL A   1      42.658  25.366  28.221  1.00  0.00     0.034 A 
ATOM     59  C   UNL A   1      43.929  29.506  33.107  1.00  0.00     0.049 A 
ATOM     60  C   UNL A   1      43.788  25.487  29.208  1.00  0.00     0.074 A 
ATOM     61  C   UNL A   1      45.006  29.496  33.974  1.00  0.00     0.029 A 
ATOM     62  N   UNL A   1      44.084  28.418  32.262  1.00  0.00    -0.354 N 
ATOM     63  N   UNL A   1      43.926  26.327  30.205  1.00  0.00    -0.248 NA
ATOM     64  C   UNL A   1      44.889  24.521  29.079  1.00  0.00     0.031 C 
ATOM     65  C   UNL A   1      45.814  28.401  33.652  1.00  0.00     0.029 A 
ATOM     66  C   UNL A   1      45.236  27.726  32.589  1.00  0.00     0.049 A 
ATOM     67  H   UNL A   1      43.465  28.173  31.536  1.00  0.00     0.167 HD
ATOM     68  C   UNL A   1      45.108  25.969  30.844  1.00  0.00     0.074 A 
ATOM     69  C   UNL A   1      45.636  24.823  30.133  1.00  0.00     0.031 C 
ATOM     70  C   UNL A   1      45.711  26.546  31.912  1.00  0.00     0.034 A 
BRANCH  57  71
ATOM     71  C   UNL A   1      42.824  31.590  34.015  1.00  0.00     0.023 A 
ATOM     72  C   UNL A   1      43.325  32.839  33.595  1.00  0.00     0.012 A 
ATOM     73  C   UNL A   1      42.284  31.462  35.309  1.00  0.00     0.148 A 
ATOM     74  C   UNL A   1      43.319  33.934  34.457  1.00  0.00     0.002 A 
ATOM     75  C   UNL A   1      42.244  32.568  36.150  1.00  0.00     0.091 A 
ATOM     76  F   UNL A   1      41.837  30.260  35.701  1.00  0.00    -0.205 F 
ATOM     77  C   UNL A   1      42.770  33.801  35.730  1.00  0.00     0.022 A 
BRANCH  75  78
ATOM     78  S   UNL A   1      41.490  32.515  37.779  1.00  0.00     0.127 S 
ATOM     79  O   UNL A   1      40.123  32.109  37.460  1.00  0.00    -0.237 OA
ATOM     80  O   UNL A   1      42.286  31.492  38.459  1.00  0.00    -0.237 OA
ATOM     81  O   UNL A   1      41.637  33.856  38.328  1.00  0.00    -0.744 OA
ENDBRANCH  75  78
ENDBRANCH  57  71
BRANCH  58  82
ATOM     82  C   UNL A   1      42.652  24.292  27.189  1.00  0.00     0.023 A 
ATOM     83  C   UNL A   1      43.295  24.523  25.958  1.00  0.00     0.012 A 
ATOM     84  C   UNL A   1      42.053  23.040  27.427  1.00  0.00     0.148 A 
ATOM     85  C   UNL A   1      43.318  23.538  24.971  1.00  0.00     0.002 A 
ATOM     86  C   UNL A   1      42.123  22.045  26.458  1.00  0.00     0.091 A 
ATOM     87  F   UNL A   1      41.433  22.843  28.599  1.00  0.00    -0.205 F 
ATOM     88  C   UNL A   1      42.742  22.297  25.223  1.00  0.00     0.022 A 
BRANCH  86  89
ATOM     89  S   UNL A   1      41.519  20.378  26.751  1.00  0.00     0.127 S 
ATOM     90  O   UNL A   1      40.112  20.620  27.060  1.00  0.00    -0.237 OA
ATOM     91  O   UNL A   1      41.764  19.732  25.461  1.00  0.00    -0.237 OA
ATOM     92  O   UNL A   1      42.333  19.859  27.842  1.00  0.00    -0.744 OA
ENDBRANCH  86  89
ENDBRANCH  58  82
BRANCH  70  93
ATOM     93  C   UNL A   1      46.993  25.934  32.406  1.00  0.00     0.023 A 
ATOM     94  C   UNL A   1      46.967  25.069  33.517  1.00  0.00     0.012 A 
ATOM     95  C   UNL A   1      48.205  26.150  31.722  1.00  0.00     0.148 A 
ATOM     96  C   UNL A   1      48.135  24.447  33.955  1.00  0.00     0.002 A 
ATOM     97  C   UNL A   1      49.356  25.493  32.139  1.00  0.00     0.091 A 
ATOM     98  F   UNL A   1      48.213  26.996  30.681  1.00  0.00    -0.205 F 
ATOM     99  C   UNL A   1      49.325  24.648  33.260  1.00  0.00     0.022 A 
BRANCH  97 100
ATOM    100  S   UNL A   1      50.906  25.626  31.241  1.00  0.00     0.127 S 
ATOM    101  O   UNL A   1      51.754  24.682  31.966  1.00  0.00    -0.237 OA
ATOM    102  O   UNL A   1      50.529  25.197  29.894  1.00  0.00    -0.237 OA
ATOM    103  O   UNL A   1      51.296  27.027  31.335  1.00  0.00    -0.744 OA
ENDBRANCH  97 100
ENDBRANCH  70  93
ENDBRANCH  44  45
ENDBRANCH  36  39
ENDBRANCH  34  35
ENDBRANCH  33  34
ENDBRANCH  32  33
ENDBRANCH   3  32
TORSDOF 19
ENDMDL
