MODEL 1
REMARK VINA RESULT:     -12.3      0.000      0.000
REMARK SMILES Cc1cccc(C(=O)NCCCNC(=O)c2ccc(-c3c4nc(c(-c5cccc(S(=O)(=O)[O-])c5F)c5ccc([nH]5)c(-c5cccc(S(=O)(=O)[O-])c5F)c5nc(c(-c6cccc(S(=O)(=O)[O-])c6F)c6ccc3[nH]6)C=C5)C=C4)cc2)c1OC[C@@H]1C[C@H]2CC[C@@H]1C2
REMARK SMILES IDX 11 1 10 2 9 3 7 4 8 5 6 7 1 8 2 9 3 10 79 11 4 12 5 13 80 14
REMARK SMILES IDX 81 15 82 16 83 17 87 18 84 19 86 20 88 21 85 22 12 23 13 24
REMARK SMILES IDX 14 25 15 27 16 28 17 29 78 30 18 31 77 32 19 33 20 34 21 35
REMARK SMILES IDX 71 36 22 37 76 38 70 39 72 40 23 41 75 42 69 43 68 44 24 46
REMARK SMILES IDX 56 47 36 48 55 49 37 50 40 51 54 52 73 53 38 54 39 55 53 57
REMARK SMILES IDX 74 58 41 59 25 60 26 61 34 62 27 63 29 64 35 65 28 66 30 67
REMARK SMILES IDX 31 68 32 69 33 70 57 71 58 72 66 73 59 74 61 75 67 76 60 77
REMARK SMILES IDX 62 78 63 79 64 80 65 81 42 82 43 83 51 84 44 85 46 86 52 87
REMARK SMILES IDX 45 88 47 89 48 90 49 91 50 92
REMARK H PARENT 9 6 13 26 72 45 40 56
REMARK Flexibility Score: inf
ROOT
ATOM      1  C   UNL A   1      32.702  31.266  26.873  1.00  0.00     0.042 C 
ENDROOT
BRANCH   1   2
ATOM      2  C   UNL A   1      31.779  30.339  26.099  1.00  0.00     0.118 C 
BRANCH   2   3
ATOM      3  N   UNL A   1      31.628  29.109  26.834  1.00  0.00    -0.352 N 
ATOM      4  C   UNL A   1      31.351  27.831  26.441  1.00  0.00     0.255 C 
ATOM      5  O   UNL A   1      31.076  27.057  27.369  1.00  0.00    -0.269 OA
ATOM      6  H   UNL A   1      31.750  29.209  27.807  1.00  0.00     0.163 HD
BRANCH   4   7
ATOM      7  C   UNL A   1      31.398  27.254  25.048  1.00  0.00     0.082 A 
ATOM      8  C   UNL A   1      33.531  25.968  22.123  1.00  0.00     0.048 C 
ATOM      9  C   UNL A   1      32.367  26.377  22.986  1.00  0.00    -0.008 A 
ATOM     10  C   UNL A   1      31.263  26.874  22.264  1.00  0.00     0.007 A 
ATOM     11  C   UNL A   1      32.385  26.459  24.401  1.00  0.00     0.134 A 
ATOM     12  C   UNL A   1      30.238  27.545  22.901  1.00  0.00     0.001 A 
ATOM     13  C   UNL A   1      30.328  27.760  24.268  1.00  0.00     0.018 A 
BRANCH  11  14
ATOM     14  O   UNL A   1      33.392  25.913  25.137  1.00  0.00    -0.492 OA
BRANCH  14  15
ATOM     15  C   UNL A   1      33.249  24.669  25.856  1.00  0.00     0.233 C 
BRANCH  15  16
ATOM     16  C   UNL A   1      34.426  23.681  25.796  1.00  0.00     0.030 C 
ATOM     17  C   UNL A   1      35.591  24.179  24.887  1.00  0.00     0.011 C 
ATOM     18  C   UNL A   1      34.015  22.379  25.059  1.00  0.00    -0.004 C 
ATOM     19  C   UNL A   1      35.728  23.070  23.828  1.00  0.00    -0.010 C 
ATOM     20  C   UNL A   1      35.078  21.307  25.329  1.00  0.00     0.004 C 
ATOM     21  C   UNL A   1      34.268  22.710  23.586  1.00  0.00     0.007 C 
ATOM     22  C   UNL A   1      36.268  21.792  24.492  1.00  0.00     0.004 C 
ENDBRANCH  15  16
ENDBRANCH  14  15
ENDBRANCH  11  14
ENDBRANCH   4   7
ENDBRANCH   2   3
ENDBRANCH   1   2
BRANCH   1  23
ATOM     23  C   UNL A   1      33.955  30.614  27.407  1.00  0.00     0.118 C 
BRANCH  23  24
ATOM     24  N   UNL A   1      34.859  31.628  27.953  1.00  0.00    -0.352 N 
ATOM     25  C   UNL A   1      36.061  31.483  28.614  1.00  0.00     0.251 C 
ATOM     26  H   UNL A   1      34.562  32.558  27.831  1.00  0.00     0.163 HD
ATOM     27  O   UNL A   1      36.601  32.464  29.120  1.00  0.00    -0.269 OA
BRANCH  25  28
ATOM     28  C   UNL A   1      36.744  30.176  28.539  1.00  0.00     0.039 A 
ATOM     29  C   UNL A   1      37.006  29.557  29.764  1.00  0.00     0.014 A 
ATOM     30  C   UNL A   1      37.469  29.849  27.399  1.00  0.00     0.014 A 
ATOM     31  C   UNL A   1      38.199  28.867  29.924  1.00  0.00     0.010 A 
ATOM     32  C   UNL A   1      38.706  29.277  27.583  1.00  0.00     0.010 A 
ATOM     33  C   UNL A   1      39.098  28.870  28.866  1.00  0.00    -0.014 A 
BRANCH  33  34
ATOM     34  C   UNL A   1      40.490  28.477  28.971  1.00  0.00     0.031 A 
ATOM     35  C   UNL A   1      40.828  27.052  28.815  1.00  0.00     0.074 A 
ATOM     36  C   UNL A   1      41.441  29.440  28.980  1.00  0.00     0.049 A 
ATOM     37  N   UNL A   1      41.989  26.545  29.035  1.00  0.00    -0.248 NA
ATOM     38  C   UNL A   1      39.827  26.067  28.425  1.00  0.00     0.031 C 
ATOM     39  C   UNL A   1      42.854  29.285  28.653  1.00  0.00     0.029 A 
ATOM     40  N   UNL A   1      41.359  30.741  29.491  1.00  0.00    -0.354 N 
ATOM     41  C   UNL A   1      41.975  25.259  28.536  1.00  0.00     0.074 A 
ATOM     42  C   UNL A   1      40.586  24.979  28.281  1.00  0.00     0.031 C 
ATOM     43  C   UNL A   1      43.540  30.293  29.216  1.00  0.00     0.029 A 
ATOM     44  C   UNL A   1      42.609  30.978  30.096  1.00  0.00     0.049 A 
ATOM     45  H   UNL A   1      40.593  31.358  29.439  1.00  0.00     0.167 HD
ATOM     46  C   UNL A   1      43.169  24.659  28.261  1.00  0.00     0.034 A 
ATOM     47  C   UNL A   1      42.781  31.126  31.447  1.00  0.00     0.034 A 
ATOM     48  C   UNL A   1      44.277  25.458  28.813  1.00  0.00     0.049 A 
ATOM     49  C   UNL A   1      43.764  30.126  32.048  1.00  0.00     0.074 A 
ATOM     50  C   UNL A   1      45.165  26.367  28.261  1.00  0.00     0.029 A 
ATOM     51  N   UNL A   1      44.381  25.602  30.193  1.00  0.00    -0.354 N 
ATOM     52  N   UNL A   1      44.239  29.090  31.412  1.00  0.00    -0.248 NA
ATOM     53  C   UNL A   1      44.267  30.201  33.419  1.00  0.00     0.031 C 
ATOM     54  C   UNL A   1      45.718  27.139  29.322  1.00  0.00     0.029 A 
ATOM     55  C   UNL A   1      45.199  26.673  30.519  1.00  0.00     0.049 A 
ATOM     56  H   UNL A   1      43.934  25.021  30.849  1.00  0.00     0.167 HD
ATOM     57  C   UNL A   1      44.963  28.302  32.268  1.00  0.00     0.074 A 
ATOM     58  C   UNL A   1      45.024  29.090  33.489  1.00  0.00     0.031 C 
ATOM     59  C   UNL A   1      45.386  27.046  31.921  1.00  0.00     0.034 A 
BRANCH  46  60
ATOM     60  C   UNL A   1      43.385  23.511  27.279  1.00  0.00     0.023 A 
ATOM     61  C   UNL A   1      44.190  23.778  26.148  1.00  0.00     0.012 A 
ATOM     62  C   UNL A   1      42.795  22.223  27.310  1.00  0.00     0.148 A 
ATOM     63  C   UNL A   1      44.335  22.870  25.087  1.00  0.00     0.002 A 
ATOM     64  C   UNL A   1      42.909  21.327  26.241  1.00  0.00     0.091 A 
ATOM     65  F   UNL A   1      42.141  21.807  28.390  1.00  0.00    -0.205 F 
ATOM     66  C   UNL A   1      43.673  21.652  25.122  1.00  0.00     0.022 A 
BRANCH  64  67
ATOM     67  S   UNL A   1      42.048  19.740  26.212  1.00  0.00     0.127 S 
ATOM     68  O   UNL A   1      42.427  19.160  27.502  1.00  0.00    -0.237 OA
ATOM     69  O   UNL A   1      40.647  20.146  26.116  1.00  0.00    -0.237 OA
ATOM     70  O   UNL A   1      42.561  19.010  25.058  1.00  0.00    -0.744 OA
ENDBRANCH  64  67
ENDBRANCH  46  60
BRANCH  47  71
ATOM     71  C   UNL A   1      41.577  31.672  32.147  1.00  0.00     0.023 A 
ATOM     72  C   UNL A   1      41.154  32.971  31.771  1.00  0.00     0.012 A 
ATOM     73  C   UNL A   1      40.669  30.835  32.819  1.00  0.00     0.148 A 
ATOM     74  C   UNL A   1      39.817  33.352  31.895  1.00  0.00     0.002 A 
ATOM     75  C   UNL A   1      39.339  31.233  32.958  1.00  0.00     0.091 A 
ATOM     76  F   UNL A   1      41.093  29.641  33.254  1.00  0.00    -0.205 F 
ATOM     77  C   UNL A   1      38.901  32.466  32.448  1.00  0.00     0.022 A 
BRANCH  75  78
ATOM     78  S   UNL A   1      38.104  30.139  33.677  1.00  0.00     0.127 S 
ATOM     79  O   UNL A   1      36.870  30.686  33.122  1.00  0.00    -0.237 OA
ATOM     80  O   UNL A   1      38.491  28.831  33.144  1.00  0.00    -0.237 OA
ATOM     81  O   UNL A   1      38.287  30.272  35.114  1.00  0.00    -0.744 OA
ENDBRANCH  75  78
ENDBRANCH  47  71
BRANCH  59  82
ATOM     82  C   UNL A   1      45.974  26.016  32.873  1.00  0.00     0.023 A 
ATOM     83  C   UNL A   1      47.350  25.952  33.162  1.00  0.00     0.012 A 
ATOM     84  C   UNL A   1      45.126  25.176  33.643  1.00  0.00     0.148 A 
ATOM     85  C   UNL A   1      47.868  25.067  34.117  1.00  0.00     0.002 A 
ATOM     86  C   UNL A   1      45.633  24.387  34.674  1.00  0.00     0.091 A 
ATOM     87  F   UNL A   1      43.813  25.121  33.373  1.00  0.00    -0.205 F 
ATOM     88  C   UNL A   1      47.008  24.304  34.893  1.00  0.00     0.022 A 
BRANCH  86  89
ATOM     89  S   UNL A   1      44.528  23.597  35.856  1.00  0.00     0.127 S 
ATOM     90  O   UNL A   1      43.762  24.731  36.366  1.00  0.00    -0.237 OA
ATOM     91  O   UNL A   1      43.765  22.677  35.011  1.00  0.00    -0.237 OA
ATOM     92  O   UNL A   1      45.412  22.934  36.807  1.00  0.00    -0.744 OA
ENDBRANCH  86  89
ENDBRANCH  59  82
ENDBRANCH  33  34
ENDBRANCH  25  28
ENDBRANCH  23  24
ENDBRANCH   1  23
TORSDOF 16
ENDMDL
MODEL 2
REMARK VINA RESULT:     -12.0      4.103      9.759
REMARK SMILES Cc1cccc(C(=O)NCCCNC(=O)c2ccc(-c3c4nc(c(-c5cccc(S(=O)(=O)[O-])c5F)c5ccc([nH]5)c(-c5cccc(S(=O)(=O)[O-])c5F)c5nc(c(-c6cccc(S(=O)(=O)[O-])c6F)c6ccc3[nH]6)C=C5)C=C4)cc2)c1OC[C@@H]1C[C@H]2CC[C@@H]1C2
REMARK SMILES IDX 11 1 10 2 9 3 7 4 8 5 6 7 1 8 2 9 3 10 79 11 4 12 5 13 80 14
REMARK SMILES IDX 81 15 82 16 83 17 87 18 84 19 86 20 88 21 85 22 12 23 13 24
REMARK SMILES IDX 14 25 15 27 16 28 17 29 78 30 18 31 77 32 19 33 20 34 21 35
REMARK SMILES IDX 71 36 22 37 76 38 70 39 72 40 23 41 75 42 69 43 68 44 24 46
REMARK SMILES IDX 56 47 36 48 55 49 37 50 40 51 54 52 73 53 38 54 39 55 53 57
REMARK SMILES IDX 74 58 41 59 25 60 26 61 34 62 27 63 29 64 35 65 28 66 30 67
REMARK SMILES IDX 31 68 32 69 33 70 57 71 58 72 66 73 59 74 61 75 67 76 60 77
REMARK SMILES IDX 62 78 63 79 64 80 65 81 42 82 43 83 51 84 44 85 46 86 52 87
REMARK SMILES IDX 45 88 47 89 48 90 49 91 50 92
REMARK H PARENT 9 6 13 26 72 45 40 56
REMARK Flexibility Score: inf
ROOT
ATOM      1  C   UNL A   1      37.953  22.238  26.264  1.00  0.00     0.042 C 
ENDROOT
BRANCH   1   2
ATOM      2  C   UNL A   1      37.019  21.488  25.327  1.00  0.00     0.118 C 
BRANCH   2   3
ATOM      3  N   UNL A   1      36.707  22.333  24.203  1.00  0.00    -0.352 N 
ATOM      4  C   UNL A   1      35.521  22.733  23.655  1.00  0.00     0.255 C 
ATOM      5  O   UNL A   1      35.627  23.287  22.552  1.00  0.00    -0.269 OA
ATOM      6  H   UNL A   1      37.500  22.691  23.742  1.00  0.00     0.163 HD
BRANCH   4   7
ATOM      7  C   UNL A   1      34.139  22.635  24.253  1.00  0.00     0.082 A 
ATOM      8  C   UNL A   1      31.811  23.369  27.218  1.00  0.00     0.048 C 
ATOM      9  C   UNL A   1      32.353  22.898  25.895  1.00  0.00    -0.008 A 
ATOM     10  C   UNL A   1      31.744  21.723  25.410  1.00  0.00     0.007 A 
ATOM     11  C   UNL A   1      33.492  23.429  25.241  1.00  0.00     0.134 A 
ATOM     12  C   UNL A   1      32.301  21.008  24.368  1.00  0.00     0.001 A 
ATOM     13  C   UNL A   1      33.501  21.444  23.826  1.00  0.00     0.018 A 
BRANCH  11  14
ATOM     14  O   UNL A   1      34.055  24.607  25.627  1.00  0.00    -0.492 OA
BRANCH  14  15
ATOM     15  C   UNL A   1      33.584  25.889  25.158  1.00  0.00     0.233 C 
BRANCH  15  16
ATOM     16  C   UNL A   1      33.307  26.968  26.219  1.00  0.00     0.030 C 
ATOM     17  C   UNL A   1      31.807  27.389  26.280  1.00  0.00     0.011 C 
ATOM     18  C   UNL A   1      33.973  28.313  25.823  1.00  0.00    -0.004 C 
ATOM     19  C   UNL A   1      31.840  28.902  25.994  1.00  0.00    -0.010 C 
ATOM     20  C   UNL A   1      33.975  29.237  27.047  1.00  0.00     0.004 C 
ATOM     21  C   UNL A   1      32.924  28.978  24.928  1.00  0.00     0.007 C 
ATOM     22  C   UNL A   1      32.500  29.631  27.176  1.00  0.00     0.004 C 
ENDBRANCH  15  16
ENDBRANCH  14  15
ENDBRANCH  11  14
ENDBRANCH   4   7
ENDBRANCH   2   3
ENDBRANCH   1   2
BRANCH   1  23
ATOM     23  C   UNL A   1      39.381  22.341  25.787  1.00  0.00     0.118 C 
BRANCH  23  24
ATOM     24  N   UNL A   1      40.296  22.354  26.931  1.00  0.00    -0.352 N 
ATOM     25  C   UNL A   1      40.743  23.409  27.699  1.00  0.00     0.251 C 
ATOM     26  H   UNL A   1      40.647  21.473  27.192  1.00  0.00     0.163 HD
ATOM     27  O   UNL A   1      41.624  23.225  28.534  1.00  0.00    -0.269 OA
BRANCH  25  28
ATOM     28  C   UNL A   1      40.018  24.693  27.608  1.00  0.00     0.039 A 
ATOM     29  C   UNL A   1      40.596  25.659  26.780  1.00  0.00     0.014 A 
ATOM     30  C   UNL A   1      39.133  25.050  28.619  1.00  0.00     0.014 A 
ATOM     31  C   UNL A   1      40.552  26.989  27.171  1.00  0.00     0.010 A 
ATOM     32  C   UNL A   1      39.191  26.345  29.078  1.00  0.00     0.010 A 
ATOM     33  C   UNL A   1      39.975  27.287  28.398  1.00  0.00    -0.014 A 
BRANCH  33  34
ATOM     34  C   UNL A   1      40.123  28.554  29.088  1.00  0.00     0.031 A 
ATOM     35  C   UNL A   1      39.180  29.638  28.769  1.00  0.00     0.074 A 
ATOM     36  C   UNL A   1      40.961  28.626  30.148  1.00  0.00     0.049 A 
ATOM     37  N   UNL A   1      39.286  30.850  29.185  1.00  0.00    -0.248 NA
ATOM     38  C   UNL A   1      38.034  29.423  27.893  1.00  0.00     0.031 C 
ATOM     39  C   UNL A   1      40.948  29.618  31.216  1.00  0.00     0.029 A 
ATOM     40  N   UNL A   1      42.147  27.914  30.370  1.00  0.00    -0.354 N 
ATOM     41  C   UNL A   1      38.097  31.488  28.898  1.00  0.00     0.074 A 
ATOM     42  C   UNL A   1      37.411  30.598  27.998  1.00  0.00     0.031 C 
ATOM     43  C   UNL A   1      42.162  29.652  31.788  1.00  0.00     0.029 A 
ATOM     44  C   UNL A   1      43.031  28.845  30.950  1.00  0.00     0.049 A 
ATOM     45  H   UNL A   1      42.325  26.967  30.166  1.00  0.00     0.167 HD
ATOM     46  C   UNL A   1      37.788  32.623  29.589  1.00  0.00     0.034 A 
ATOM     47  C   UNL A   1      44.159  29.308  30.326  1.00  0.00     0.034 A 
ATOM     48  C   UNL A   1      38.958  33.083  30.358  1.00  0.00     0.049 A 
ATOM     49  C   UNL A   1      44.192  30.826  30.176  1.00  0.00     0.074 A 
ATOM     50  C   UNL A   1      39.335  32.963  31.686  1.00  0.00     0.029 A 
ATOM     51  N   UNL A   1      40.090  33.510  29.669  1.00  0.00    -0.354 N 
ATOM     52  N   UNL A   1      43.174  31.609  30.408  1.00  0.00    -0.248 NA
ATOM     53  C   UNL A   1      45.365  31.576  29.729  1.00  0.00     0.031 C 
ATOM     54  C   UNL A   1      40.735  33.211  31.767  1.00  0.00     0.029 A 
ATOM     55  C   UNL A   1      41.200  33.521  30.500  1.00  0.00     0.049 A 
ATOM     56  H   UNL A   1      40.100  33.769  28.720  1.00  0.00     0.167 HD
ATOM     57  C   UNL A   1      43.470  32.892  30.029  1.00  0.00     0.074 A 
ATOM     58  C   UNL A   1      44.884  32.833  29.695  1.00  0.00     0.031 C 
ATOM     59  C   UNL A   1      42.512  33.870  29.956  1.00  0.00     0.034 A 
BRANCH  46  60
ATOM     60  C   UNL A   1      36.384  33.182  29.805  1.00  0.00     0.023 A 
ATOM     61  C   UNL A   1      35.690  33.634  28.659  1.00  0.00     0.012 A 
ATOM     62  C   UNL A   1      35.719  33.395  31.038  1.00  0.00     0.148 A 
ATOM     63  C   UNL A   1      34.468  34.320  28.733  1.00  0.00     0.002 A 
ATOM     64  C   UNL A   1      34.516  34.105  31.120  1.00  0.00     0.091 A 
ATOM     65  F   UNL A   1      36.204  32.880  32.163  1.00  0.00    -0.205 F 
ATOM     66  C   UNL A   1      33.891  34.578  29.967  1.00  0.00     0.022 A 
BRANCH  64  67
ATOM     67  S   UNL A   1      33.731  34.502  32.697  1.00  0.00     0.127 S 
ATOM     68  O   UNL A   1      34.746  35.336  33.344  1.00  0.00    -0.237 OA
ATOM     69  O   UNL A   1      32.530  35.221  32.277  1.00  0.00    -0.237 OA
ATOM     70  O   UNL A   1      33.487  33.231  33.371  1.00  0.00    -0.744 OA
ENDBRANCH  64  67
ENDBRANCH  46  60
BRANCH  47  71
ATOM     71  C   UNL A   1      44.745  28.337  29.350  1.00  0.00     0.023 A 
ATOM     72  C   UNL A   1      45.174  27.090  29.869  1.00  0.00     0.012 A 
ATOM     73  C   UNL A   1      44.517  28.450  27.967  1.00  0.00     0.148 A 
ATOM     74  C   UNL A   1      45.194  25.949  29.065  1.00  0.00     0.002 A 
ATOM     75  C   UNL A   1      44.561  27.308  27.167  1.00  0.00     0.091 A 
ATOM     76  F   UNL A   1      44.198  29.649  27.462  1.00  0.00    -0.205 F 
ATOM     77  C   UNL A   1      44.845  26.051  27.724  1.00  0.00     0.022 A 
BRANCH  75  78
ATOM     78  S   UNL A   1      44.133  27.372  25.420  1.00  0.00     0.127 S 
ATOM     79  O   UNL A   1      43.735  25.991  25.166  1.00  0.00    -0.237 OA
ATOM     80  O   UNL A   1      43.038  28.342  25.397  1.00  0.00    -0.237 OA
ATOM     81  O   UNL A   1      45.346  27.831  24.760  1.00  0.00    -0.744 OA
ENDBRANCH  75  78
ENDBRANCH  47  71
BRANCH  59  82
ATOM     82  C   UNL A   1      42.693  35.239  29.320  1.00  0.00     0.023 A 
ATOM     83  C   UNL A   1      41.990  35.638  28.167  1.00  0.00     0.012 A 
ATOM     84  C   UNL A   1      43.466  36.240  29.967  1.00  0.00     0.148 A 
ATOM     85  C   UNL A   1      42.088  36.936  27.650  1.00  0.00     0.002 A 
ATOM     86  C   UNL A   1      43.465  37.559  29.517  1.00  0.00     0.091 A 
ATOM     87  F   UNL A   1      44.228  35.918  31.023  1.00  0.00    -0.205 F 
ATOM     88  C   UNL A   1      42.803  37.904  28.338  1.00  0.00     0.022 A 
BRANCH  86  89
ATOM     89  S   UNL A   1      44.161  38.877  30.526  1.00  0.00     0.127 S 
ATOM     90  O   UNL A   1      43.756  38.479  31.872  1.00  0.00    -0.237 OA
ATOM     91  O   UNL A   1      45.596  38.755  30.261  1.00  0.00    -0.237 OA
ATOM     92  O   UNL A   1      43.564  40.100  30.006  1.00  0.00    -0.744 OA
ENDBRANCH  86  89
ENDBRANCH  59  82
ENDBRANCH  33  34
ENDBRANCH  25  28
ENDBRANCH  23  24
ENDBRANCH   1  23
TORSDOF 16
ENDMDL
MODEL 3
REMARK VINA RESULT:     -11.9      2.749      4.731
REMARK SMILES Cc1cccc(C(=O)NCCCNC(=O)c2ccc(-c3c4nc(c(-c5cccc(S(=O)(=O)[O-])c5F)c5ccc([nH]5)c(-c5cccc(S(=O)(=O)[O-])c5F)c5nc(c(-c6cccc(S(=O)(=O)[O-])c6F)c6ccc3[nH]6)C=C5)C=C4)cc2)c1OC[C@@H]1C[C@H]2CC[C@@H]1C2
REMARK SMILES IDX 11 1 10 2 9 3 7 4 8 5 6 7 1 8 2 9 3 10 79 11 4 12 5 13 80 14
REMARK SMILES IDX 81 15 82 16 83 17 87 18 84 19 86 20 88 21 85 22 12 23 13 24
REMARK SMILES IDX 14 25 15 27 16 28 17 29 78 30 18 31 77 32 19 33 20 34 21 35
REMARK SMILES IDX 71 36 22 37 76 38 70 39 72 40 23 41 75 42 69 43 68 44 24 46
REMARK SMILES IDX 56 47 36 48 55 49 37 50 40 51 54 52 73 53 38 54 39 55 53 57
REMARK SMILES IDX 74 58 41 59 25 60 26 61 34 62 27 63 29 64 35 65 28 66 30 67
REMARK SMILES IDX 31 68 32 69 33 70 57 71 58 72 66 73 59 74 61 75 67 76 60 77
REMARK SMILES IDX 62 78 63 79 64 80 65 81 42 82 43 83 51 84 44 85 46 86 52 87
REMARK SMILES IDX 45 88 47 89 48 90 49 91 50 92
REMARK H PARENT 9 6 13 26 72 45 40 56
REMARK Flexibility Score: inf
ROOT
ATOM      1  C   UNL A   1      34.736  29.363  27.035  1.00  0.00     0.042 C 
ENDROOT
BRANCH   1   2
ATOM      2  C   UNL A   1      33.409  29.681  26.363  1.00  0.00     0.118 C 
BRANCH   2   3
ATOM      3  N   UNL A   1      33.557  29.520  24.939  1.00  0.00    -0.352 N 
ATOM      4  C   UNL A   1      33.351  28.456  24.108  1.00  0.00     0.255 C 
ATOM      5  O   UNL A   1      33.791  28.609  22.960  1.00  0.00    -0.269 OA
ATOM      6  H   UNL A   1      33.864  30.334  24.476  1.00  0.00     0.163 HD
BRANCH   4   7
ATOM      7  C   UNL A   1      32.615  27.172  24.404  1.00  0.00     0.082 A 
ATOM      8  C   UNL A   1      29.455  25.467  25.768  1.00  0.00     0.048 C 
ATOM      9  C   UNL A   1      30.818  25.713  25.177  1.00  0.00    -0.008 A 
ATOM     10  C   UNL A   1      31.768  24.721  25.491  1.00  0.00     0.007 A 
ATOM     11  C   UNL A   1      31.223  26.901  24.520  1.00  0.00     0.134 A 
ATOM     12  C   UNL A   1      33.116  24.927  25.270  1.00  0.00     0.001 A 
ATOM     13  C   UNL A   1      33.529  26.152  24.767  1.00  0.00     0.018 A 
BRANCH  11  14
ATOM     14  O   UNL A   1      30.323  27.842  24.123  1.00  0.00    -0.492 OA
BRANCH  14  15
ATOM     15  C   UNL A   1      30.112  28.187  22.737  1.00  0.00     0.233 C 
BRANCH  15  16
ATOM     16  C   UNL A   1      29.822  29.663  22.415  1.00  0.00     0.030 C 
ATOM     17  C   UNL A   1      29.711  30.553  23.690  1.00  0.00     0.011 C 
ATOM     18  C   UNL A   1      28.400  29.827  21.817  1.00  0.00    -0.004 C 
ATOM     19  C   UNL A   1      28.294  31.150  23.596  1.00  0.00    -0.010 C 
ATOM     20  C   UNL A   1      28.289  31.224  21.193  1.00  0.00     0.004 C 
ATOM     21  C   UNL A   1      27.508  29.963  23.054  1.00  0.00     0.007 C 
ATOM     22  C   UNL A   1      28.233  32.140  22.421  1.00  0.00     0.004 C 
ENDBRANCH  15  16
ENDBRANCH  14  15
ENDBRANCH  11  14
ENDBRANCH   4   7
ENDBRANCH   2   3
ENDBRANCH   1   2
BRANCH   1  23
ATOM     23  C   UNL A   1      35.382  30.527  27.746  1.00  0.00     0.118 C 
BRANCH  23  24
ATOM     24  N   UNL A   1      34.537  31.719  27.636  1.00  0.00    -0.352 N 
ATOM     25  C   UNL A   1      34.502  32.857  28.415  1.00  0.00     0.251 C 
ATOM     26  H   UNL A   1      33.894  31.704  26.892  1.00  0.00     0.163 HD
ATOM     27  O   UNL A   1      33.615  33.689  28.238  1.00  0.00    -0.269 OA
BRANCH  25  28
ATOM     28  C   UNL A   1      35.638  33.117  29.320  1.00  0.00     0.039 A 
ATOM     29  C   UNL A   1      36.767  33.692  28.729  1.00  0.00     0.014 A 
ATOM     30  C   UNL A   1      35.734  32.414  30.516  1.00  0.00     0.014 A 
ATOM     31  C   UNL A   1      38.024  33.284  29.150  1.00  0.00     0.010 A 
ATOM     32  C   UNL A   1      36.968  31.910  30.853  1.00  0.00     0.010 A 
ATOM     33  C   UNL A   1      38.095  32.282  30.108  1.00  0.00    -0.014 A 
BRANCH  33  34
ATOM     34  C   UNL A   1      39.296  31.532  30.424  1.00  0.00     0.031 A 
ATOM     35  C   UNL A   1      39.464  30.197  29.827  1.00  0.00     0.074 A 
ATOM     36  C   UNL A   1      40.310  32.163  31.060  1.00  0.00     0.049 A 
ATOM     37  N   UNL A   1      40.395  29.366  30.137  1.00  0.00    -0.248 NA
ATOM     38  C   UNL A   1      38.532  29.681  28.832  1.00  0.00     0.031 C 
ATOM     39  C   UNL A   1      41.713  31.765  31.093  1.00  0.00     0.029 A 
ATOM     40  N   UNL A   1      40.239  33.206  31.992  1.00  0.00    -0.354 N 
ATOM     41  C   UNL A   1      40.374  28.357  29.197  1.00  0.00     0.074 A 
ATOM     42  C   UNL A   1      39.134  28.541  28.489  1.00  0.00     0.031 C 
ATOM     43  C   UNL A   1      42.296  32.326  32.164  1.00  0.00     0.029 A 
ATOM     44  C   UNL A   1      41.224  32.906  32.954  1.00  0.00     0.049 A 
ATOM     45  H   UNL A   1      39.633  33.981  31.979  1.00  0.00     0.167 HD
ATOM     46  C   UNL A   1      41.493  27.592  29.044  1.00  0.00     0.034 A 
ATOM     47  C   UNL A   1      40.938  32.563  34.249  1.00  0.00     0.034 A 
ATOM     48  C   UNL A   1      42.443  27.859  30.138  1.00  0.00     0.049 A 
ATOM     49  C   UNL A   1      41.504  31.207  34.658  1.00  0.00     0.074 A 
ATOM     50  C   UNL A   1      43.585  28.637  30.242  1.00  0.00     0.029 A 
ATOM     51  N   UNL A   1      42.084  27.520  31.439  1.00  0.00    -0.354 N 
ATOM     52  N   UNL A   1      42.019  30.345  33.825  1.00  0.00    -0.248 NA
ATOM     53  C   UNL A   1      41.509  30.705  36.031  1.00  0.00     0.031 C 
ATOM     54  C   UNL A   1      43.840  28.858  31.626  1.00  0.00     0.029 A 
ATOM     55  C   UNL A   1      42.880  28.182  32.361  1.00  0.00     0.049 A 
ATOM     56  H   UNL A   1      41.361  26.895  31.672  1.00  0.00     0.167 HD
ATOM     57  C   UNL A   1      42.286  29.166  34.470  1.00  0.00     0.074 A 
ATOM     58  C   UNL A   1      42.032  29.476  35.868  1.00  0.00     0.031 C 
ATOM     59  C   UNL A   1      42.622  28.023  33.792  1.00  0.00     0.034 A 
BRANCH  46  60
ATOM     60  C   UNL A   1      41.872  26.805  27.792  1.00  0.00     0.023 A 
ATOM     61  C   UNL A   1      42.032  27.542  26.595  1.00  0.00     0.012 A 
ATOM     62  C   UNL A   1      41.992  25.400  27.657  1.00  0.00     0.148 A 
ATOM     63  C   UNL A   1      42.214  26.930  25.346  1.00  0.00     0.002 A 
ATOM     64  C   UNL A   1      42.143  24.783  26.410  1.00  0.00     0.091 A 
ATOM     65  F   UNL A   1      42.009  24.619  28.732  1.00  0.00    -0.205 F 
ATOM     66  C   UNL A   1      42.246  25.547  25.249  1.00  0.00     0.022 A 
BRANCH  64  67
ATOM     67  S   UNL A   1      42.158  22.988  26.213  1.00  0.00     0.127 S 
ATOM     68  O   UNL A   1      42.994  22.562  27.337  1.00  0.00    -0.237 OA
ATOM     69  O   UNL A   1      40.743  22.647  26.345  1.00  0.00    -0.237 OA
ATOM     70  O   UNL A   1      42.739  22.719  24.903  1.00  0.00    -0.744 OA
ENDBRANCH  64  67
ENDBRANCH  46  60
BRANCH  47  71
ATOM     71  C   UNL A   1      39.655  33.146  34.754  1.00  0.00     0.023 A 
ATOM     72  C   UNL A   1      38.598  33.267  33.819  1.00  0.00     0.012 A 
ATOM     73  C   UNL A   1      39.352  33.186  36.126  1.00  0.00     0.148 A 
ATOM     74  C   UNL A   1      37.267  33.243  34.237  1.00  0.00     0.002 A 
ATOM     75  C   UNL A   1      38.018  33.184  36.535  1.00  0.00     0.091 A 
ATOM     76  F   UNL A   1      40.357  33.161  37.010  1.00  0.00    -0.205 F 
ATOM     77  C   UNL A   1      36.977  33.157  35.593  1.00  0.00     0.022 A 
BRANCH  75  78
ATOM     78  S   UNL A   1      37.573  33.086  38.276  1.00  0.00     0.127 S 
ATOM     79  O   UNL A   1      36.116  33.115  38.208  1.00  0.00    -0.237 OA
ATOM     80  O   UNL A   1      38.144  31.800  38.678  1.00  0.00    -0.237 OA
ATOM     81  O   UNL A   1      38.219  34.238  38.887  1.00  0.00    -0.744 OA
ENDBRANCH  75  78
ENDBRANCH  47  71
BRANCH  59  82
ATOM     82  C   UNL A   1      42.695  26.628  34.392  1.00  0.00     0.023 A 
ATOM     83  C   UNL A   1      41.645  26.073  35.148  1.00  0.00     0.012 A 
ATOM     84  C   UNL A   1      43.772  25.759  34.072  1.00  0.00     0.148 A 
ATOM     85  C   UNL A   1      41.681  24.751  35.610  1.00  0.00     0.002 A 
ATOM     86  C   UNL A   1      43.746  24.412  34.431  1.00  0.00     0.091 A 
ATOM     87  F   UNL A   1      44.846  26.234  33.425  1.00  0.00    -0.205 F 
ATOM     88  C   UNL A   1      42.717  23.912  35.229  1.00  0.00     0.022 A 
BRANCH  86  89
ATOM     89  S   UNL A   1      44.933  23.251  33.736  1.00  0.00     0.127 S 
ATOM     90  O   UNL A   1      44.687  23.383  32.302  1.00  0.00    -0.237 OA
ATOM     91  O   UNL A   1      46.214  23.799  34.187  1.00  0.00    -0.237 OA
ATOM     92  O   UNL A   1      44.594  21.967  34.335  1.00  0.00    -0.744 OA
ENDBRANCH  86  89
ENDBRANCH  59  82
ENDBRANCH  33  34
ENDBRANCH  25  28
ENDBRANCH  23  24
ENDBRANCH   1  23
TORSDOF 16
ENDMDL
