MODEL 1
REMARK VINA RESULT:     -12.2      0.000      0.000
REMARK SMILES O=C(CCc1cn(-c2ccc(Br)cc2)nc1-c1ccccc1)NCCCNC(=O)c1ccc(-c2c3nc(c(-c4cccc(S(=O)(=O)[O-])c4F)c4ccc([nH]4)c(-c4cccc(S(=O)(=O)[O-])c4F)c4nc(c(-c5cccc(S(=O)(=O)[O-])c5F)c5ccc2[nH]5)C=C4)C=C3)cc1
REMARK SMILES IDX 25 1 24 2 23 3 1 4 2 5 3 7 4 8 5 9 6 10 16 11 7 12 15 13
REMARK SMILES IDX 17 14 18 15 22 16 19 17 21 18 20 19 8 20 9 21 14 22 10 23
REMARK SMILES IDX 13 24 11 25 12 26 26 27 27 28 28 29 29 31 30 32 31 33 92 34
REMARK SMILES IDX 32 35 91 36 33 37 34 38 35 39 85 40 36 41 90 42 84 43 86 44
REMARK SMILES IDX 37 45 89 46 83 47 82 48 38 50 70 51 50 52 69 53 51 54 54 55
REMARK SMILES IDX 68 56 87 57 52 58 53 59 67 61 88 62 55 63 39 64 40 65 48 66
REMARK SMILES IDX 41 67 43 68 49 69 42 70 44 71 45 72 46 73 47 74 71 75 72 76
REMARK SMILES IDX 80 77 73 78 75 79 81 80 74 81 76 82 77 83 78 84 79 85 56 86
REMARK SMILES IDX 57 87 65 88 58 89 60 90 66 91 59 92 61 93 62 94 63 95 64 96
REMARK H PARENT 23 6 27 30 86 49 54 60
REMARK Flexibility Score: inf
ROOT
ATOM      1  C   UNL A   1      39.173  20.164  25.311  1.00  0.00     0.042 C 
ENDROOT
BRANCH   1   2
ATOM      2  C   UNL A   1      38.922  21.613  25.794  1.00  0.00     0.117 C 
BRANCH   2   3
ATOM      3  N   UNL A   1      37.541  22.099  25.864  1.00  0.00    -0.356 N 
ATOM      4  O   UNL A   1      37.184  22.150  23.614  1.00  0.00    -0.275 OA
ATOM      5  C   UNL A   1      36.759  22.353  24.754  1.00  0.00     0.220 C 
ATOM      6  H   UNL A   1      37.148  22.253  26.753  1.00  0.00     0.163 HD
BRANCH   5   7
ATOM      7  C   UNL A   1      35.369  22.991  24.931  1.00  0.00     0.105 C 
BRANCH   7   8
ATOM      8  C   UNL A   1      34.767  23.923  23.889  1.00  0.00     0.049 C 
BRANCH   8   9
ATOM      9  C   UNL A   1      33.321  24.273  23.988  1.00  0.00    -0.001 A 
ATOM     10  C   UNL A   1      32.844  25.563  23.912  1.00  0.00     0.119 A 
ATOM     11  C   UNL A   1      32.150  23.466  24.163  1.00  0.00     0.096 A 
ATOM     12  N   UNL A   1      31.476  25.503  23.889  1.00  0.00    -0.240 N 
ATOM     13  N   UNL A   1      31.044  24.224  24.063  1.00  0.00    -0.168 NA
BRANCH  11  14
ATOM     14  C   UNL A   1      32.110  21.996  24.165  1.00  0.00     0.002 A 
ATOM     15  C   UNL A   1      32.108  21.360  22.922  1.00  0.00     0.010 A 
ATOM     16  C   UNL A   1      32.281  21.197  25.288  1.00  0.00     0.010 A 
ATOM     17  C   UNL A   1      32.383  20.009  22.743  1.00  0.00     0.001 A 
ATOM     18  C   UNL A   1      32.524  19.817  25.130  1.00  0.00     0.001 A 
ATOM     19  C   UNL A   1      32.609  19.232  23.861  1.00  0.00     0.000 A 
ENDBRANCH  11  14
BRANCH  12  20
ATOM     20  C   UNL A   1      30.595  26.594  23.613  1.00  0.00     0.065 A 
ATOM     21  C   UNL A   1      29.204  26.470  23.749  1.00  0.00     0.029 A 
ATOM     22  C   UNL A   1      31.118  27.822  23.211  1.00  0.00     0.029 A 
ATOM     23  C   UNL A   1      28.362  27.551  23.453  1.00  0.00     0.018 A 
ATOM     24  C   UNL A   1      30.282  28.900  22.896  1.00  0.00     0.018 A 
ATOM     25  C   UNL A   1      28.903  28.756  23.013  1.00  0.00     0.018 A 
ATOM     26  Br  UNL A   1      27.756  30.193  22.574  1.00  0.00    -0.051 Br
ENDBRANCH  12  20
ENDBRANCH   8   9
ENDBRANCH   7   8
ENDBRANCH   5   7
ENDBRANCH   2   3
ENDBRANCH   1   2
BRANCH   1  27
ATOM     27  C   UNL A   1      39.854  19.122  26.218  1.00  0.00     0.118 C 
BRANCH  27  28
ATOM     28  N   UNL A   1      41.202  18.724  25.865  1.00  0.00    -0.352 N 
ATOM     29  C   UNL A   1      42.311  19.546  25.731  1.00  0.00     0.251 C 
ATOM     30  H   UNL A   1      41.346  17.764  25.702  1.00  0.00     0.163 HD
ATOM     31  O   UNL A   1      43.239  19.157  25.023  1.00  0.00    -0.269 OA
BRANCH  29  32
ATOM     32  C   UNL A   1      42.424  20.868  26.417  1.00  0.00     0.039 A 
ATOM     33  C   UNL A   1      42.202  20.953  27.798  1.00  0.00     0.014 A 
ATOM     34  C   UNL A   1      42.614  22.047  25.698  1.00  0.00     0.014 A 
ATOM     35  C   UNL A   1      42.175  22.202  28.433  1.00  0.00     0.010 A 
ATOM     36  C   UNL A   1      42.646  23.283  26.332  1.00  0.00     0.010 A 
ATOM     37  C   UNL A   1      42.380  23.374  27.694  1.00  0.00    -0.014 A 
BRANCH  37  38
ATOM     38  C   UNL A   1      42.439  24.675  28.371  1.00  0.00     0.031 A 
ATOM     39  C   UNL A   1      41.254  25.547  28.149  1.00  0.00     0.074 A 
ATOM     40  C   UNL A   1      43.361  25.022  29.295  1.00  0.00     0.049 A 
ATOM     41  N   UNL A   1      41.226  26.702  27.570  1.00  0.00    -0.248 NA
ATOM     42  C   UNL A   1      39.930  25.028  28.516  1.00  0.00     0.031 C 
ATOM     43  C   UNL A   1      44.420  24.189  29.854  1.00  0.00     0.029 A 
ATOM     44  N   UNL A   1      43.459  26.156  30.049  1.00  0.00    -0.354 N 
ATOM     45  C   UNL A   1      39.913  27.157  27.693  1.00  0.00     0.074 A 
ATOM     46  C   UNL A   1      39.135  26.022  28.114  1.00  0.00     0.031 C 
ATOM     47  C   UNL A   1      44.851  24.708  31.023  1.00  0.00     0.029 A 
ATOM     48  C   UNL A   1      44.219  26.000  31.208  1.00  0.00     0.049 A 
ATOM     49  H   UNL A   1      43.030  27.007  29.798  1.00  0.00     0.167 HD
ATOM     50  C   UNL A   1      39.617  28.487  27.661  1.00  0.00     0.034 A 
ATOM     51  C   UNL A   1      44.285  26.842  32.268  1.00  0.00     0.034 A 
ATOM     52  C   UNL A   1      40.715  29.262  27.138  1.00  0.00     0.049 A 
ATOM     53  C   UNL A   1      43.841  28.171  31.791  1.00  0.00     0.074 A 
ATOM     54  C   UNL A   1      41.457  29.246  25.973  1.00  0.00     0.029 A 
ATOM     55  N   UNL A   1      41.450  30.001  28.035  1.00  0.00    -0.354 N 
ATOM     56  N   UNL A   1      44.512  28.891  30.935  1.00  0.00    -0.248 NA
ATOM     57  C   UNL A   1      42.433  28.505  31.930  1.00  0.00     0.031 C 
ATOM     58  C   UNL A   1      42.793  29.517  26.392  1.00  0.00     0.029 A 
ATOM     59  C   UNL A   1      42.768  29.751  27.767  1.00  0.00     0.049 A 
ATOM     60  H   UNL A   1      41.096  30.596  28.735  1.00  0.00     0.167 HD
ATOM     61  C   UNL A   1      43.536  29.423  30.103  1.00  0.00     0.074 A 
ATOM     62  C   UNL A   1      42.278  29.241  30.826  1.00  0.00     0.031 C 
ATOM     63  C   UNL A   1      43.791  29.687  28.786  1.00  0.00     0.034 A 
BRANCH  50  64
ATOM     64  C   UNL A   1      38.491  29.155  28.422  1.00  0.00     0.023 A 
ATOM     65  C   UNL A   1      37.659  30.040  27.694  1.00  0.00     0.012 A 
ATOM     66  C   UNL A   1      38.384  29.197  29.831  1.00  0.00     0.148 A 
ATOM     67  C   UNL A   1      36.834  30.972  28.332  1.00  0.00     0.002 A 
ATOM     68  C   UNL A   1      37.504  30.073  30.460  1.00  0.00     0.091 A 
ATOM     69  F   UNL A   1      39.222  28.490  30.590  1.00  0.00    -0.205 F 
ATOM     70  C   UNL A   1      36.755  30.988  29.717  1.00  0.00     0.022 A 
BRANCH  68  71
ATOM     71  S   UNL A   1      37.322  30.105  32.248  1.00  0.00     0.127 S 
ATOM     72  O   UNL A   1      36.104  30.890  32.405  1.00  0.00    -0.237 OA
ATOM     73  O   UNL A   1      37.192  28.683  32.561  1.00  0.00    -0.237 OA
ATOM     74  O   UNL A   1      38.550  30.714  32.753  1.00  0.00    -0.744 OA
ENDBRANCH  68  71
ENDBRANCH  50  64
BRANCH  51  75
ATOM     75  C   UNL A   1      44.480  26.546  33.710  1.00  0.00     0.023 A 
ATOM     76  C   UNL A   1      45.755  26.707  34.289  1.00  0.00     0.012 A 
ATOM     77  C   UNL A   1      43.377  26.378  34.578  1.00  0.00     0.148 A 
ATOM     78  C   UNL A   1      45.921  26.741  35.680  1.00  0.00     0.002 A 
ATOM     79  C   UNL A   1      43.547  26.404  35.961  1.00  0.00     0.091 A 
ATOM     80  F   UNL A   1      42.147  26.290  34.054  1.00  0.00    -0.205 F 
ATOM     81  C   UNL A   1      44.817  26.598  36.516  1.00  0.00     0.022 A 
BRANCH  79  82
ATOM     82  S   UNL A   1      42.160  26.250  37.098  1.00  0.00     0.127 S 
ATOM     83  O   UNL A   1      41.553  24.989  36.674  1.00  0.00    -0.237 OA
ATOM     84  O   UNL A   1      42.833  26.200  38.394  1.00  0.00    -0.237 OA
ATOM     85  O   UNL A   1      41.320  27.421  36.869  1.00  0.00    -0.744 OA
ENDBRANCH  79  82
ENDBRANCH  51  75
BRANCH  63  86
ATOM     86  C   UNL A   1      45.214  29.625  28.290  1.00  0.00     0.023 A 
ATOM     87  C   UNL A   1      45.803  28.428  27.834  1.00  0.00     0.012 A 
ATOM     88  C   UNL A   1      45.896  30.837  28.083  1.00  0.00     0.148 A 
ATOM     89  C   UNL A   1      47.051  28.438  27.204  1.00  0.00     0.002 A 
ATOM     90  C   UNL A   1      47.112  30.850  27.413  1.00  0.00     0.091 A 
ATOM     91  F   UNL A   1      45.322  31.970  28.519  1.00  0.00    -0.205 F 
ATOM     92  C   UNL A   1      47.699  29.650  26.979  1.00  0.00     0.022 A 
BRANCH  90  93
ATOM     93  S   UNL A   1      47.924  32.389  26.973  1.00  0.00     0.127 S 
ATOM     94  O   UNL A   1      48.076  33.036  28.274  1.00  0.00    -0.237 OA
ATOM     95  O   UNL A   1      49.174  31.926  26.369  1.00  0.00    -0.237 OA
ATOM     96  O   UNL A   1      47.028  33.061  26.039  1.00  0.00    -0.744 OA
ENDBRANCH  90  93
ENDBRANCH  63  86
ENDBRANCH  37  38
ENDBRANCH  29  32
ENDBRANCH  27  28
ENDBRANCH   1  27
TORSDOF 17
ENDMDL
MODEL 2
REMARK VINA RESULT:     -12.2      3.103      8.247
REMARK SMILES O=C(CCc1cn(-c2ccc(Br)cc2)nc1-c1ccccc1)NCCCNC(=O)c1ccc(-c2c3nc(c(-c4cccc(S(=O)(=O)[O-])c4F)c4ccc([nH]4)c(-c4cccc(S(=O)(=O)[O-])c4F)c4nc(c(-c5cccc(S(=O)(=O)[O-])c5F)c5ccc2[nH]5)C=C4)C=C3)cc1
REMARK SMILES IDX 25 1 24 2 23 3 1 4 2 5 3 7 4 8 5 9 6 10 16 11 7 12 15 13
REMARK SMILES IDX 17 14 18 15 22 16 19 17 21 18 20 19 8 20 9 21 14 22 10 23
REMARK SMILES IDX 13 24 11 25 12 26 26 27 27 28 28 29 29 31 30 32 31 33 92 34
REMARK SMILES IDX 32 35 91 36 33 37 34 38 35 39 85 40 36 41 90 42 84 43 86 44
REMARK SMILES IDX 37 45 89 46 83 47 82 48 38 50 70 51 50 52 69 53 51 54 54 55
REMARK SMILES IDX 68 56 87 57 52 58 53 59 67 61 88 62 55 63 39 64 40 65 48 66
REMARK SMILES IDX 41 67 43 68 49 69 42 70 44 71 45 72 46 73 47 74 71 75 72 76
REMARK SMILES IDX 80 77 73 78 75 79 81 80 74 81 76 82 77 83 78 84 79 85 56 86
REMARK SMILES IDX 57 87 65 88 58 89 60 90 66 91 59 92 61 93 62 94 63 95 64 96
REMARK H PARENT 23 6 27 30 86 49 54 60
REMARK Flexibility Score: inf
ROOT
ATOM      1  C   UNL A   1      34.907  31.763  27.630  1.00  0.00     0.042 C 
ENDROOT
BRANCH   1   2
ATOM      2  C   UNL A   1      35.295  30.264  27.648  1.00  0.00     0.117 C 
BRANCH   2   3
ATOM      3  N   UNL A   1      34.241  29.270  27.870  1.00  0.00    -0.356 N 
ATOM      4  O   UNL A   1      33.478  29.236  25.722  1.00  0.00    -0.275 OA
ATOM      5  C   UNL A   1      33.382  28.828  26.883  1.00  0.00     0.220 C 
ATOM      6  H   UNL A   1      34.140  28.896  28.774  1.00  0.00     0.163 HD
BRANCH   5   7
ATOM      7  C   UNL A   1      32.221  27.885  27.250  1.00  0.00     0.105 C 
BRANCH   7   8
ATOM      8  C   UNL A   1      31.059  27.625  26.302  1.00  0.00     0.049 C 
BRANCH   8   9
ATOM      9  C   UNL A   1      31.219  26.597  25.235  1.00  0.00    -0.001 A 
ATOM     10  C   UNL A   1      31.781  25.357  25.451  1.00  0.00     0.119 A 
ATOM     11  C   UNL A   1      30.872  26.596  23.845  1.00  0.00     0.096 A 
ATOM     12  N   UNL A   1      31.633  24.625  24.304  1.00  0.00    -0.240 N 
ATOM     13  N   UNL A   1      31.095  25.383  23.310  1.00  0.00    -0.168 NA
BRANCH  11  14
ATOM     14  C   UNL A   1      30.116  27.648  23.146  1.00  0.00     0.002 A 
ATOM     15  C   UNL A   1      28.731  27.656  23.322  1.00  0.00     0.010 A 
ATOM     16  C   UNL A   1      30.684  28.739  22.502  1.00  0.00     0.010 A 
ATOM     17  C   UNL A   1      27.917  28.737  23.001  1.00  0.00     0.001 A 
ATOM     18  C   UNL A   1      29.869  29.830  22.134  1.00  0.00     0.001 A 
ATOM     19  C   UNL A   1      28.497  29.843  22.413  1.00  0.00     0.000 A 
ENDBRANCH  11  14
BRANCH  12  20
ATOM     20  C   UNL A   1      31.893  23.226  24.164  1.00  0.00     0.065 A 
ATOM     21  C   UNL A   1      32.055  22.628  22.906  1.00  0.00     0.029 A 
ATOM     22  C   UNL A   1      32.004  22.426  25.301  1.00  0.00     0.029 A 
ATOM     23  C   UNL A   1      32.291  21.251  22.798  1.00  0.00     0.018 A 
ATOM     24  C   UNL A   1      32.220  21.046  25.199  1.00  0.00     0.018 A 
ATOM     25  C   UNL A   1      32.357  20.463  23.944  1.00  0.00     0.018 A 
ATOM     26  Br  UNL A   1      32.630  18.599  23.785  1.00  0.00    -0.051 Br
ENDBRANCH  12  20
ENDBRANCH   8   9
ENDBRANCH   7   8
ENDBRANCH   5   7
ENDBRANCH   2   3
ENDBRANCH   1   2
BRANCH   1  27
ATOM     27  C   UNL A   1      35.898  32.855  28.075  1.00  0.00     0.118 C 
BRANCH  27  28
ATOM     28  N   UNL A   1      35.751  33.366  29.422  1.00  0.00    -0.352 N 
ATOM     29  C   UNL A   1      36.286  32.831  30.585  1.00  0.00     0.251 C 
ATOM     30  H   UNL A   1      35.212  34.183  29.524  1.00  0.00     0.163 HD
ATOM     31  O   UNL A   1      35.735  33.097  31.652  1.00  0.00    -0.269 OA
BRANCH  29  32
ATOM     32  C   UNL A   1      37.500  31.962  30.590  1.00  0.00     0.039 A 
ATOM     33  C   UNL A   1      38.773  32.548  30.524  1.00  0.00     0.014 A 
ATOM     34  C   UNL A   1      37.402  30.574  30.522  1.00  0.00     0.014 A 
ATOM     35  C   UNL A   1      39.914  31.746  30.395  1.00  0.00     0.010 A 
ATOM     36  C   UNL A   1      38.535  29.770  30.454  1.00  0.00     0.010 A 
ATOM     37  C   UNL A   1      39.794  30.352  30.342  1.00  0.00    -0.014 A 
BRANCH  37  38
ATOM     38  C   UNL A   1      40.993  29.506  30.296  1.00  0.00     0.031 A 
ATOM     39  C   UNL A   1      41.509  29.082  31.626  1.00  0.00     0.074 A 
ATOM     40  C   UNL A   1      41.504  28.954  29.173  1.00  0.00     0.049 A 
ATOM     41  N   UNL A   1      42.655  29.366  32.150  1.00  0.00    -0.248 NA
ATOM     42  C   UNL A   1      40.604  28.348  32.520  1.00  0.00     0.031 C 
ATOM     43  C   UNL A   1      40.960  29.018  27.821  1.00  0.00     0.029 A 
ATOM     44  N   UNL A   1      42.547  28.086  29.023  1.00  0.00    -0.354 N 
ATOM     45  C   UNL A   1      42.705  28.664  33.355  1.00  0.00     0.074 A 
ATOM     46  C   UNL A   1      41.363  28.212  33.610  1.00  0.00     0.031 C 
ATOM     47  C   UNL A   1      41.473  28.024  27.067  1.00  0.00     0.029 A 
ATOM     48  C   UNL A   1      42.510  27.361  27.832  1.00  0.00     0.049 A 
ATOM     49  H   UNL A   1      43.260  27.981  29.694  1.00  0.00     0.167 HD
ATOM     50  C   UNL A   1      43.894  28.318  33.925  1.00  0.00     0.034 A 
ATOM     51  C   UNL A   1      43.239  26.262  27.516  1.00  0.00     0.034 A 
ATOM     52  C   UNL A   1      44.992  29.055  33.351  1.00  0.00     0.049 A 
ATOM     53  C   UNL A   1      44.424  26.261  28.403  1.00  0.00     0.074 A 
ATOM     54  C   UNL A   1      45.292  30.394  33.184  1.00  0.00     0.029 A 
ATOM     55  N   UNL A   1      45.826  28.380  32.492  1.00  0.00    -0.354 N 
ATOM     56  N   UNL A   1      45.378  27.147  28.333  1.00  0.00    -0.248 NA
ATOM     57  C   UNL A   1      44.330  25.533  29.658  1.00  0.00     0.031 C 
ATOM     58  C   UNL A   1      45.892  30.471  31.893  1.00  0.00     0.029 A 
ATOM     59  C   UNL A   1      45.986  29.173  31.389  1.00  0.00     0.049 A 
ATOM     60  H   UNL A   1      46.231  27.494  32.642  1.00  0.00     0.167 HD
ATOM     61  C   UNL A   1      45.682  27.422  29.659  1.00  0.00     0.074 A 
ATOM     62  C   UNL A   1      45.087  26.324  30.422  1.00  0.00     0.031 C 
ATOM     63  C   UNL A   1      46.124  28.655  30.047  1.00  0.00     0.034 A 
BRANCH  50  64
ATOM     64  C   UNL A   1      44.144  27.069  34.745  1.00  0.00     0.023 A 
ATOM     65  C   UNL A   1      44.864  27.227  35.954  1.00  0.00     0.012 A 
ATOM     66  C   UNL A   1      43.980  25.747  34.270  1.00  0.00     0.148 A 
ATOM     67  C   UNL A   1      45.461  26.143  36.605  1.00  0.00     0.002 A 
ATOM     68  C   UNL A   1      44.510  24.663  34.964  1.00  0.00     0.091 A 
ATOM     69  F   UNL A   1      43.427  25.525  33.077  1.00  0.00    -0.205 F 
ATOM     70  C   UNL A   1      45.283  24.858  36.110  1.00  0.00     0.022 A 
BRANCH  68  71
ATOM     71  S   UNL A   1      44.270  22.974  34.399  1.00  0.00     0.127 S 
ATOM     72  O   UNL A   1      42.825  22.930  34.212  1.00  0.00    -0.237 OA
ATOM     73  O   UNL A   1      45.059  22.954  33.169  1.00  0.00    -0.237 OA
ATOM     74  O   UNL A   1      44.807  22.128  35.463  1.00  0.00    -0.744 OA
ENDBRANCH  68  71
ENDBRANCH  50  64
BRANCH  51  75
ATOM     75  C   UNL A   1      42.883  25.093  26.673  1.00  0.00     0.023 A 
ATOM     76  C   UNL A   1      43.737  24.707  25.620  1.00  0.00     0.012 A 
ATOM     77  C   UNL A   1      41.867  24.190  27.064  1.00  0.00     0.148 A 
ATOM     78  C   UNL A   1      43.610  23.453  25.006  1.00  0.00     0.002 A 
ATOM     79  C   UNL A   1      41.739  22.949  26.446  1.00  0.00     0.091 A 
ATOM     80  F   UNL A   1      41.086  24.506  28.105  1.00  0.00    -0.205 F 
ATOM     81  C   UNL A   1      42.618  22.571  25.424  1.00  0.00     0.022 A 
BRANCH  79  82
ATOM     82  S   UNL A   1      40.495  21.751  26.954  1.00  0.00     0.127 S 
ATOM     83  O   UNL A   1      40.787  21.590  28.378  1.00  0.00    -0.237 OA
ATOM     84  O   UNL A   1      39.252  22.460  26.660  1.00  0.00    -0.237 OA
ATOM     85  O   UNL A   1      40.742  20.553  26.157  1.00  0.00    -0.744 OA
ENDBRANCH  79  82
ENDBRANCH  51  75
BRANCH  63  86
ATOM     86  C   UNL A   1      46.514  29.659  28.990  1.00  0.00     0.023 A 
ATOM     87  C   UNL A   1      47.801  29.689  28.416  1.00  0.00     0.012 A 
ATOM     88  C   UNL A   1      45.499  30.446  28.418  1.00  0.00     0.148 A 
ATOM     89  C   UNL A   1      48.075  30.498  27.310  1.00  0.00     0.002 A 
ATOM     90  C   UNL A   1      45.760  31.211  27.289  1.00  0.00     0.091 A 
ATOM     91  F   UNL A   1      44.277  30.406  28.973  1.00  0.00    -0.205 F 
ATOM     92  C   UNL A   1      47.050  31.247  26.736  1.00  0.00     0.022 A 
BRANCH  90  93
ATOM     93  S   UNL A   1      44.451  32.086  26.427  1.00  0.00     0.127 S 
ATOM     94  O   UNL A   1      43.478  31.023  26.191  1.00  0.00    -0.237 OA
ATOM     95  O   UNL A   1      44.039  33.087  27.412  1.00  0.00    -0.237 OA
ATOM     96  O   UNL A   1      45.067  32.650  25.232  1.00  0.00    -0.744 OA
ENDBRANCH  90  93
ENDBRANCH  63  86
ENDBRANCH  37  38
ENDBRANCH  29  32
ENDBRANCH  27  28
ENDBRANCH   1  27
TORSDOF 17
ENDMDL
MODEL 3
REMARK VINA RESULT:     -12.1      2.867      7.975
REMARK SMILES O=C(CCc1cn(-c2ccc(Br)cc2)nc1-c1ccccc1)NCCCNC(=O)c1ccc(-c2c3nc(c(-c4cccc(S(=O)(=O)[O-])c4F)c4ccc([nH]4)c(-c4cccc(S(=O)(=O)[O-])c4F)c4nc(c(-c5cccc(S(=O)(=O)[O-])c5F)c5ccc2[nH]5)C=C4)C=C3)cc1
REMARK SMILES IDX 25 1 24 2 23 3 1 4 2 5 3 7 4 8 5 9 6 10 16 11 7 12 15 13
REMARK SMILES IDX 17 14 18 15 22 16 19 17 21 18 20 19 8 20 9 21 14 22 10 23
REMARK SMILES IDX 13 24 11 25 12 26 26 27 27 28 28 29 29 31 30 32 31 33 92 34
REMARK SMILES IDX 32 35 91 36 33 37 34 38 35 39 85 40 36 41 90 42 84 43 86 44
REMARK SMILES IDX 37 45 89 46 83 47 82 48 38 50 70 51 50 52 69 53 51 54 54 55
REMARK SMILES IDX 68 56 87 57 52 58 53 59 67 61 88 62 55 63 39 64 40 65 48 66
REMARK SMILES IDX 41 67 43 68 49 69 42 70 44 71 45 72 46 73 47 74 71 75 72 76
REMARK SMILES IDX 80 77 73 78 75 79 81 80 74 81 76 82 77 83 78 84 79 85 56 86
REMARK SMILES IDX 57 87 65 88 58 89 60 90 66 91 59 92 61 93 62 94 63 95 64 96
REMARK H PARENT 23 6 27 30 86 49 54 60
REMARK Flexibility Score: inf
ROOT
ATOM      1  C   UNL A   1      32.580  30.737  27.128  1.00  0.00     0.042 C 
ENDROOT
BRANCH   1   2
ATOM      2  C   UNL A   1      32.237  29.430  26.373  1.00  0.00     0.117 C 
BRANCH   2   3
ATOM      3  N   UNL A   1      32.713  29.270  24.996  1.00  0.00    -0.356 N 
ATOM      4  O   UNL A   1      34.080  27.494  25.411  1.00  0.00    -0.275 OA
ATOM      5  C   UNL A   1      33.626  28.311  24.605  1.00  0.00     0.220 C 
ATOM      6  H   UNL A   1      32.362  29.883  24.311  1.00  0.00     0.163 HD
BRANCH   5   7
ATOM      7  C   UNL A   1      34.165  28.315  23.162  1.00  0.00     0.105 C 
BRANCH   7   8
ATOM      8  C   UNL A   1      33.525  27.489  22.056  1.00  0.00     0.049 C 
BRANCH   8   9
ATOM      9  C   UNL A   1      32.798  26.240  22.421  1.00  0.00    -0.001 A 
ATOM     10  C   UNL A   1      33.393  24.998  22.465  1.00  0.00     0.119 A 
ATOM     11  C   UNL A   1      31.436  25.998  22.795  1.00  0.00     0.096 A 
ATOM     12  N   UNL A   1      32.483  24.114  22.977  1.00  0.00    -0.240 N 
ATOM     13  N   UNL A   1      31.276  24.715  23.163  1.00  0.00    -0.168 NA
BRANCH  11  14
ATOM     14  C   UNL A   1      30.412  27.028  23.031  1.00  0.00     0.002 A 
ATOM     15  C   UNL A   1      30.598  28.261  22.404  1.00  0.00     0.010 A 
ATOM     16  C   UNL A   1      29.189  26.806  23.651  1.00  0.00     0.010 A 
ATOM     17  C   UNL A   1      29.597  29.217  22.265  1.00  0.00     0.001 A 
ATOM     18  C   UNL A   1      28.173  27.779  23.553  1.00  0.00     0.001 A 
ATOM     19  C   UNL A   1      28.366  28.965  22.834  1.00  0.00     0.000 A 
ENDBRANCH  11  14
BRANCH  12  20
ATOM     20  C   UNL A   1      32.755  22.769  23.378  1.00  0.00     0.065 A 
ATOM     21  C   UNL A   1      33.724  22.470  24.346  1.00  0.00     0.029 A 
ATOM     22  C   UNL A   1      32.035  21.719  22.810  1.00  0.00     0.029 A 
ATOM     23  C   UNL A   1      33.983  21.141  24.707  1.00  0.00     0.018 A 
ATOM     24  C   UNL A   1      32.302  20.387  23.151  1.00  0.00     0.018 A 
ATOM     25  C   UNL A   1      33.282  20.104  24.096  1.00  0.00     0.018 A 
ATOM     26  Br  UNL A   1      33.670  18.312  24.557  1.00  0.00    -0.051 Br
ENDBRANCH  12  20
ENDBRANCH   8   9
ENDBRANCH   7   8
ENDBRANCH   5   7
ENDBRANCH   2   3
ENDBRANCH   1   2
BRANCH   1  27
ATOM     27  C   UNL A   1      33.975  30.971  27.738  1.00  0.00     0.118 C 
BRANCH  27  28
ATOM     28  N   UNL A   1      34.055  31.874  28.867  1.00  0.00    -0.352 N 
ATOM     29  C   UNL A   1      34.968  31.831  29.911  1.00  0.00     0.251 C 
ATOM     30  H   UNL A   1      33.389  32.598  28.897  1.00  0.00     0.163 HD
ATOM     31  O   UNL A   1      34.653  32.358  30.978  1.00  0.00    -0.269 OA
BRANCH  29  32
ATOM     32  C   UNL A   1      36.308  31.186  29.786  1.00  0.00     0.039 A 
ATOM     33  C   UNL A   1      36.428  29.799  29.950  1.00  0.00     0.014 A 
ATOM     34  C   UNL A   1      37.470  31.943  29.644  1.00  0.00     0.014 A 
ATOM     35  C   UNL A   1      37.693  29.196  29.965  1.00  0.00     0.010 A 
ATOM     36  C   UNL A   1      38.724  31.343  29.599  1.00  0.00     0.010 A 
ATOM     37  C   UNL A   1      38.847  29.974  29.808  1.00  0.00    -0.014 A 
BRANCH  37  38
ATOM     38  C   UNL A   1      40.166  29.335  29.736  1.00  0.00     0.031 A 
ATOM     39  C   UNL A   1      40.809  29.083  31.055  1.00  0.00     0.074 A 
ATOM     40  C   UNL A   1      40.708  28.806  28.616  1.00  0.00     0.049 A 
ATOM     41  N   UNL A   1      41.916  29.582  31.497  1.00  0.00    -0.248 NA
ATOM     42  C   UNL A   1      40.084  28.267  32.037  1.00  0.00     0.031 C 
ATOM     43  C   UNL A   1      40.096  28.698  27.297  1.00  0.00     0.029 A 
ATOM     44  N   UNL A   1      41.872  28.114  28.452  1.00  0.00    -0.354 N 
ATOM     45  C   UNL A   1      42.141  28.973  32.732  1.00  0.00     0.074 A 
ATOM     46  C   UNL A   1      40.907  28.323  33.087  1.00  0.00     0.031 C 
ATOM     47  C   UNL A   1      40.731  27.757  26.567  1.00  0.00     0.029 A 
ATOM     48  C   UNL A   1      41.900  27.321  27.305  1.00  0.00     0.049 A 
ATOM     49  H   UNL A   1      42.625  28.168  29.086  1.00  0.00     0.167 HD
ATOM     50  C   UNL A   1      43.397  28.862  33.250  1.00  0.00     0.034 A 
ATOM     51  C   UNL A   1      42.786  26.339  27.005  1.00  0.00     0.034 A 
ATOM     52  C   UNL A   1      44.327  29.733  32.575  1.00  0.00     0.049 A 
ATOM     53  C   UNL A   1      43.996  26.586  27.821  1.00  0.00     0.074 A 
ATOM     54  C   UNL A   1      44.391  31.090  32.322  1.00  0.00     0.029 A 
ATOM     55  N   UNL A   1      45.220  29.152  31.706  1.00  0.00    -0.354 N 
ATOM     56  N   UNL A   1      44.784  27.611  27.650  1.00  0.00    -0.248 NA
ATOM     57  C   UNL A   1      44.086  25.931  29.115  1.00  0.00     0.031 C 
ATOM     58  C   UNL A   1      44.908  31.185  30.996  1.00  0.00     0.029 A 
ATOM     59  C   UNL A   1      45.192  29.892  30.556  1.00  0.00     0.049 A 
ATOM     60  H   UNL A   1      45.774  28.356  31.878  1.00  0.00     0.167 HD
ATOM     61  C   UNL A   1      45.102  28.012  28.940  1.00  0.00     0.074 A 
ATOM     62  C   UNL A   1      44.736  26.881  29.792  1.00  0.00     0.031 C 
ATOM     63  C   UNL A   1      45.350  29.323  29.237  1.00  0.00     0.034 A 
BRANCH  50  64
ATOM     64  C   UNL A   1      43.891  27.723  34.117  1.00  0.00     0.023 A 
ATOM     65  C   UNL A   1      44.349  26.559  33.451  1.00  0.00     0.012 A 
ATOM     66  C   UNL A   1      43.664  27.611  35.508  1.00  0.00     0.148 A 
ATOM     67  C   UNL A   1      44.487  25.335  34.113  1.00  0.00     0.002 A 
ATOM     68  C   UNL A   1      43.878  26.410  36.177  1.00  0.00     0.091 A 
ATOM     69  F   UNL A   1      43.112  28.621  36.182  1.00  0.00    -0.205 F 
ATOM     70  C   UNL A   1      44.253  25.260  35.479  1.00  0.00     0.022 A 
BRANCH  68  71
ATOM     71  S   UNL A   1      43.639  26.265  37.953  1.00  0.00     0.127 S 
ATOM     72  O   UNL A   1      42.188  26.333  38.060  1.00  0.00    -0.237 OA
ATOM     73  O   UNL A   1      44.223  24.953  38.228  1.00  0.00    -0.237 OA
ATOM     74  O   UNL A   1      44.381  27.379  38.538  1.00  0.00    -0.744 OA
ENDBRANCH  68  71
ENDBRANCH  50  64
BRANCH  51  75
ATOM     75  C   UNL A   1      42.590  25.078  26.246  1.00  0.00     0.023 A 
ATOM     76  C   UNL A   1      43.515  24.715  25.246  1.00  0.00     0.012 A 
ATOM     77  C   UNL A   1      41.669  24.097  26.682  1.00  0.00     0.148 A 
ATOM     78  C   UNL A   1      43.548  23.413  24.727  1.00  0.00     0.002 A 
ATOM     79  C   UNL A   1      41.700  22.807  26.158  1.00  0.00     0.091 A 
ATOM     80  F   UNL A   1      40.825  24.397  27.677  1.00  0.00    -0.205 F 
ATOM     81  C   UNL A   1      42.648  22.457  25.189  1.00  0.00     0.022 A 
BRANCH  79  82
ATOM     82  S   UNL A   1      40.582  21.516  26.727  1.00  0.00     0.127 S 
ATOM     83  O   UNL A   1      40.780  21.554  28.175  1.00  0.00    -0.237 OA
ATOM     84  O   UNL A   1      39.286  22.014  26.273  1.00  0.00    -0.237 OA
ATOM     85  O   UNL A   1      41.039  20.282  26.096  1.00  0.00    -0.744 OA
ENDBRANCH  79  82
ENDBRANCH  51  75
BRANCH  63  86
ATOM     86  C   UNL A   1      45.515  30.310  28.108  1.00  0.00     0.023 A 
ATOM     87  C   UNL A   1      44.415  30.858  27.417  1.00  0.00     0.012 A 
ATOM     88  C   UNL A   1      46.794  30.851  27.885  1.00  0.00     0.148 A 
ATOM     89  C   UNL A   1      44.588  31.908  26.511  1.00  0.00     0.002 A 
ATOM     90  C   UNL A   1      46.956  31.927  27.021  1.00  0.00     0.091 A 
ATOM     91  F   UNL A   1      47.832  30.322  28.551  1.00  0.00    -0.205 F 
ATOM     92  C   UNL A   1      45.856  32.454  26.325  1.00  0.00     0.022 A 
BRANCH  90  93
ATOM     93  S   UNL A   1      48.537  32.758  26.847  1.00  0.00     0.127 S 
ATOM     94  O   UNL A   1      49.412  31.664  26.433  1.00  0.00    -0.237 OA
ATOM     95  O   UNL A   1      48.260  33.748  25.806  1.00  0.00    -0.237 OA
ATOM     96  O   UNL A   1      48.831  33.337  28.152  1.00  0.00    -0.744 OA
ENDBRANCH  90  93
ENDBRANCH  63  86
ENDBRANCH  37  38
ENDBRANCH  29  32
ENDBRANCH  27  28
ENDBRANCH   1  27
TORSDOF 17
ENDMDL
