MODEL 1
REMARK VINA RESULT:     -11.7      0.000      0.000
REMARK SMILES Cc1ccc([C@H](C)[N@H+](CC(=O)NCCCNC(=O)c2ccc(-c3c4nc(c(-c5cccc(S(=O)(=O)[O-])c5F)c5ccc([nH]5)c(-c5cccc(S(=O)(=O)[O-])c5F)c5nc(c(-c6cccc(S(=O)(=O)[O-])c6F)c6ccc3[nH]6)C=C5)C=C4)cc2)CC(F)(F)F)cc1
REMARK SMILES IDX 14 1 13 2 12 3 10 4 11 5 9 7 8 8 6 10 7 11 5 12 1 13 2 14
REMARK SMILES IDX 3 15 88 16 4 17 87 18 82 19 83 20 84 21 85 22 86 23 15 24
REMARK SMILES IDX 16 25 17 26 18 28 19 29 20 30 81 31 21 32 80 33 22 34 23 35
REMARK SMILES IDX 24 36 74 37 25 38 79 39 73 40 75 41 26 42 78 43 72 44 71 45
REMARK SMILES IDX 27 47 59 48 39 49 58 50 40 51 43 52 57 53 76 54 41 55 42 56
REMARK SMILES IDX 56 58 77 59 44 60 28 61 29 62 37 63 30 64 32 65 38 66 31 67
REMARK SMILES IDX 33 68 34 69 35 70 36 71 60 72 61 73 69 74 62 75 64 76 70 77
REMARK SMILES IDX 63 78 65 79 66 80 67 81 68 82 45 83 46 84 54 85 47 86 49 87
REMARK SMILES IDX 55 88 48 89 50 90 51 91 52 92 53 93
REMARK H PARENT 12 6 8 9 16 27 75 46 43 57
REMARK Flexibility Score: inf
ROOT
ATOM      1  C   UNL A   1      36.836  22.510  25.934  1.00  0.00     0.042 C 
ENDROOT
BRANCH   1   2
ATOM      2  C   UNL A   1      35.657  22.645  24.954  1.00  0.00     0.118 C 
BRANCH   2   3
ATOM      3  N   UNL A   1      34.531  21.725  24.985  1.00  0.00    -0.351 N 
ATOM      4  C   UNL A   1      33.542  21.404  24.092  1.00  0.00     0.275 C 
ATOM      5  O   UNL A   1      33.023  20.289  24.217  1.00  0.00    -0.269 OA
ATOM      6  H   UNL A   1      34.465  21.225  25.831  1.00  0.00     0.163 HD
BRANCH   4   7
ATOM      7  C   UNL A   1      33.014  22.393  23.035  1.00  0.00     0.364 C 
BRANCH   7   8
ATOM      8  N   UNL A   1      32.476  23.591  23.702  1.00  0.00    -0.314 N 
ATOM      9  H   UNL A   1      32.930  23.570  24.615  1.00  0.00     0.349 HD
BRANCH   8  10
ATOM     10  C   UNL A   1      32.978  24.867  23.185  1.00  0.00     0.212 C 
ATOM     11  C   UNL A   1      32.658  25.154  21.713  1.00  0.00     0.081 C 
BRANCH  10  12
ATOM     12  C   UNL A   1      32.703  25.976  24.179  1.00  0.00     0.009 A 
ATOM     13  C   UNL A   1      31.694  28.520  27.479  1.00  0.00     0.044 C 
ATOM     14  C   UNL A   1      32.083  27.680  26.315  1.00  0.00    -0.051 A 
ATOM     15  C   UNL A   1      33.268  26.960  26.343  1.00  0.00     0.004 A 
ATOM     16  C   UNL A   1      31.285  27.657  25.170  1.00  0.00     0.004 A 
ATOM     17  C   UNL A   1      33.554  26.111  25.291  1.00  0.00     0.010 A 
ATOM     18  C   UNL A   1      31.599  26.821  24.101  1.00  0.00     0.010 A 
ENDBRANCH  10  12
ENDBRANCH   8  10
BRANCH   8  19
ATOM     19  C   UNL A   1      31.097  23.524  24.215  1.00  0.00     0.380 C 
BRANCH  19  20
ATOM     20  C   UNL A   1      30.844  23.399  25.741  1.00  0.00     0.438 C 
ATOM     21  F   UNL A   1      30.201  22.255  26.056  1.00  0.00    -0.165 F 
ATOM     22  F   UNL A   1      32.037  23.352  26.394  1.00  0.00    -0.165 F 
ATOM     23  F   UNL A   1      30.164  24.443  26.251  1.00  0.00    -0.165 F 
ENDBRANCH  19  20
ENDBRANCH   8  19
ENDBRANCH   7   8
ENDBRANCH   4   7
ENDBRANCH   2   3
ENDBRANCH   1   2
BRANCH   1  24
ATOM     24  C   UNL A   1      38.234  22.123  25.425  1.00  0.00     0.118 C 
BRANCH  24  25
ATOM     25  N   UNL A   1      39.230  21.981  26.469  1.00  0.00    -0.352 N 
ATOM     26  C   UNL A   1      40.200  22.899  26.839  1.00  0.00     0.251 C 
ATOM     27  H   UNL A   1      39.216  21.134  26.971  1.00  0.00     0.163 HD
ATOM     28  O   UNL A   1      41.318  22.476  27.128  1.00  0.00    -0.269 OA
BRANCH  26  29
ATOM     29  C   UNL A   1      39.834  24.320  27.089  1.00  0.00     0.039 A 
ATOM     30  C   UNL A   1      40.545  25.293  26.363  1.00  0.00     0.014 A 
ATOM     31  C   UNL A   1      39.011  24.720  28.135  1.00  0.00     0.014 A 
ATOM     32  C   UNL A   1      40.653  26.597  26.846  1.00  0.00     0.010 A 
ATOM     33  C   UNL A   1      39.116  26.013  28.614  1.00  0.00     0.010 A 
ATOM     34  C   UNL A   1      40.026  26.909  28.042  1.00  0.00    -0.014 A 
BRANCH  34  35
ATOM     35  C   UNL A   1      40.304  28.103  28.831  1.00  0.00     0.031 A 
ATOM     36  C   UNL A   1      39.422  29.280  28.745  1.00  0.00     0.074 A 
ATOM     37  C   UNL A   1      41.205  27.999  29.836  1.00  0.00     0.049 A 
ATOM     38  N   UNL A   1      39.637  30.385  29.370  1.00  0.00    -0.248 NA
ATOM     39  C   UNL A   1      38.223  29.310  27.923  1.00  0.00     0.031 C 
ATOM     40  C   UNL A   1      41.291  28.841  31.025  1.00  0.00     0.029 A 
ATOM     41  N   UNL A   1      42.298  27.140  29.972  1.00  0.00    -0.354 N 
ATOM     42  C   UNL A   1      38.485  31.135  29.307  1.00  0.00     0.074 A 
ATOM     43  C   UNL A   1      37.701  30.488  28.282  1.00  0.00     0.031 C 
ATOM     44  C   UNL A   1      42.420  28.571  31.690  1.00  0.00     0.029 A 
ATOM     45  C   UNL A   1      43.239  27.815  30.774  1.00  0.00     0.049 A 
ATOM     46  H   UNL A   1      42.393  26.240  29.584  1.00  0.00     0.167 HD
ATOM     47  C   UNL A   1      38.303  32.117  30.239  1.00  0.00     0.034 A 
ATOM     48  C   UNL A   1      44.449  28.251  30.308  1.00  0.00     0.034 A 
ATOM     49  C   UNL A   1      39.523  32.287  31.069  1.00  0.00     0.049 A 
ATOM     50  C   UNL A   1      44.587  29.777  30.361  1.00  0.00     0.074 A 
ATOM     51  C   UNL A   1      39.866  31.978  32.376  1.00  0.00     0.029 A 
ATOM     52  N   UNL A   1      40.717  32.637  30.444  1.00  0.00    -0.354 N 
ATOM     53  N   UNL A   1      43.679  30.593  30.832  1.00  0.00    -0.248 NA
ATOM     54  C   UNL A   1      45.735  30.508  29.838  1.00  0.00     0.031 C 
ATOM     55  C   UNL A   1      41.282  32.125  32.518  1.00  0.00     0.029 A 
ATOM     56  C   UNL A   1      41.802  32.554  31.308  1.00  0.00     0.049 A 
ATOM     57  H   UNL A   1      40.784  32.913  29.501  1.00  0.00     0.167 HD
ATOM     58  C   UNL A   1      44.004  31.897  30.566  1.00  0.00     0.074 A 
ATOM     59  C   UNL A   1      45.328  31.786  29.969  1.00  0.00     0.031 C 
ATOM     60  C   UNL A   1      43.132  32.933  30.817  1.00  0.00     0.034 A 
BRANCH  47  61
ATOM     61  C   UNL A   1      36.982  32.817  30.577  1.00  0.00     0.023 A 
ATOM     62  C   UNL A   1      36.561  32.791  31.928  1.00  0.00     0.012 A 
ATOM     63  C   UNL A   1      36.080  33.450  29.682  1.00  0.00     0.148 A 
ATOM     64  C   UNL A   1      35.322  33.294  32.353  1.00  0.00     0.002 A 
ATOM     65  C   UNL A   1      34.840  33.951  30.100  1.00  0.00     0.091 A 
ATOM     66  F   UNL A   1      36.397  33.597  28.400  1.00  0.00    -0.205 F 
ATOM     67  C   UNL A   1      34.453  33.865  31.436  1.00  0.00     0.022 A 
BRANCH  65  68
ATOM     68  S   UNL A   1      33.656  34.704  28.960  1.00  0.00     0.127 S 
ATOM     69  O   UNL A   1      33.361  33.594  28.052  1.00  0.00    -0.237 OA
ATOM     70  O   UNL A   1      32.554  35.071  29.847  1.00  0.00    -0.237 OA
ATOM     71  O   UNL A   1      34.338  35.831  28.333  1.00  0.00    -0.744 OA
ENDBRANCH  65  68
ENDBRANCH  47  61
BRANCH  48  72
ATOM     72  C   UNL A   1      45.009  27.325  29.279  1.00  0.00     0.023 A 
ATOM     73  C   UNL A   1      45.224  25.988  29.705  1.00  0.00     0.012 A 
ATOM     74  C   UNL A   1      44.835  27.577  27.909  1.00  0.00     0.148 A 
ATOM     75  C   UNL A   1      45.056  24.921  28.822  1.00  0.00     0.002 A 
ATOM     76  C   UNL A   1      44.687  26.504  27.030  1.00  0.00     0.091 A 
ATOM     77  F   UNL A   1      44.714  28.846  27.499  1.00  0.00    -0.205 F 
ATOM     78  C   UNL A   1      44.738  25.179  27.494  1.00  0.00     0.022 A 
BRANCH  76  79
ATOM     79  S   UNL A   1      44.284  26.778  25.300  1.00  0.00     0.127 S 
ATOM     80  O   UNL A   1      45.607  26.983  24.722  1.00  0.00    -0.237 OA
ATOM     81  O   UNL A   1      43.637  25.523  24.919  1.00  0.00    -0.237 OA
ATOM     82  O   UNL A   1      43.393  27.929  25.310  1.00  0.00    -0.744 OA
ENDBRANCH  76  79
ENDBRANCH  48  72
BRANCH  60  83
ATOM     83  C   UNL A   1      43.413  34.415  30.559  1.00  0.00     0.023 A 
ATOM     84  C   UNL A   1      43.741  35.308  31.595  1.00  0.00     0.012 A 
ATOM     85  C   UNL A   1      43.296  34.994  29.262  1.00  0.00     0.148 A 
ATOM     86  C   UNL A   1      44.095  36.642  31.349  1.00  0.00     0.002 A 
ATOM     87  C   UNL A   1      43.636  36.322  29.016  1.00  0.00     0.091 A 
ATOM     88  F   UNL A   1      42.796  34.280  28.249  1.00  0.00    -0.205 F 
ATOM     89  C   UNL A   1      44.070  37.141  30.055  1.00  0.00     0.022 A 
BRANCH  87  90
ATOM     90  S   UNL A   1      43.526  37.059  27.378  1.00  0.00     0.127 S 
ATOM     91  O   UNL A   1      42.081  37.052  27.150  1.00  0.00    -0.237 OA
ATOM     92  O   UNL A   1      44.102  38.385  27.606  1.00  0.00    -0.237 OA
ATOM     93  O   UNL A   1      44.302  36.205  26.491  1.00  0.00    -0.744 OA
ENDBRANCH  87  90
ENDBRANCH  60  83
ENDBRANCH  34  35
ENDBRANCH  26  29
ENDBRANCH  24  25
ENDBRANCH   1  24
TORSDOF 18
ENDMDL
MODEL 2
REMARK VINA RESULT:     -11.6      1.280      2.560
REMARK SMILES Cc1ccc([C@H](C)[N@H+](CC(=O)NCCCNC(=O)c2ccc(-c3c4nc(c(-c5cccc(S(=O)(=O)[O-])c5F)c5ccc([nH]5)c(-c5cccc(S(=O)(=O)[O-])c5F)c5nc(c(-c6cccc(S(=O)(=O)[O-])c6F)c6ccc3[nH]6)C=C5)C=C4)cc2)CC(F)(F)F)cc1
REMARK SMILES IDX 14 1 13 2 12 3 10 4 11 5 9 7 8 8 6 10 7 11 5 12 1 13 2 14
REMARK SMILES IDX 3 15 88 16 4 17 87 18 82 19 83 20 84 21 85 22 86 23 15 24
REMARK SMILES IDX 16 25 17 26 18 28 19 29 20 30 81 31 21 32 80 33 22 34 23 35
REMARK SMILES IDX 24 36 74 37 25 38 79 39 73 40 75 41 26 42 78 43 72 44 71 45
REMARK SMILES IDX 27 47 59 48 39 49 58 50 40 51 43 52 57 53 76 54 41 55 42 56
REMARK SMILES IDX 56 58 77 59 44 60 28 61 29 62 37 63 30 64 32 65 38 66 31 67
REMARK SMILES IDX 33 68 34 69 35 70 36 71 60 72 61 73 69 74 62 75 64 76 70 77
REMARK SMILES IDX 63 78 65 79 66 80 67 81 68 82 45 83 46 84 54 85 47 86 49 87
REMARK SMILES IDX 55 88 48 89 50 90 51 91 52 92 53 93
REMARK H PARENT 12 6 8 9 16 27 75 46 43 57
REMARK Flexibility Score: inf
ROOT
ATOM      1  C   UNL A   1      37.340  22.430  25.945  1.00  0.00     0.042 C 
ENDROOT
BRANCH   1   2
ATOM      2  C   UNL A   1      36.736  23.706  25.333  1.00  0.00     0.118 C 
BRANCH   2   3
ATOM      3  N   UNL A   1      35.788  23.648  24.231  1.00  0.00    -0.351 N 
ATOM      4  C   UNL A   1      34.651  24.346  23.920  1.00  0.00     0.275 C 
ATOM      5  O   UNL A   1      34.334  24.384  22.725  1.00  0.00    -0.269 OA
ATOM      6  H   UNL A   1      36.012  22.958  23.566  1.00  0.00     0.163 HD
BRANCH   4   7
ATOM      7  C   UNL A   1      33.739  24.983  24.987  1.00  0.00     0.364 C 
BRANCH   7   8
ATOM      8  N   UNL A   1      32.456  24.262  25.036  1.00  0.00    -0.314 N 
ATOM      9  H   UNL A   1      32.431  23.775  24.140  1.00  0.00     0.349 HD
BRANCH   8  10
ATOM     10  C   UNL A   1      32.418  23.125  25.959  1.00  0.00     0.212 C 
ATOM     11  C   UNL A   1      31.225  23.093  26.921  1.00  0.00     0.081 C 
BRANCH  10  12
ATOM     12  C   UNL A   1      32.740  21.843  25.218  1.00  0.00     0.009 A 
ATOM     13  C   UNL A   1      32.880  18.037  23.250  1.00  0.00     0.044 C 
ATOM     14  C   UNL A   1      32.878  19.376  23.898  1.00  0.00    -0.051 A 
ATOM     15  C   UNL A   1      32.298  20.459  23.254  1.00  0.00     0.004 A 
ATOM     16  C   UNL A   1      33.507  19.559  25.130  1.00  0.00     0.004 A 
ATOM     17  C   UNL A   1      32.223  21.666  23.922  1.00  0.00     0.010 A 
ATOM     18  C   UNL A   1      33.453  20.788  25.782  1.00  0.00     0.010 A 
ENDBRANCH  10  12
ENDBRANCH   8  10
BRANCH   8  19
ATOM     19  C   UNL A   1      31.226  25.044  24.820  1.00  0.00     0.380 C 
BRANCH  19  20
ATOM     20  C   UNL A   1      30.539  25.037  23.428  1.00  0.00     0.438 C 
ATOM     21  F   UNL A   1      30.046  23.820  23.112  1.00  0.00    -0.165 F 
ATOM     22  F   UNL A   1      29.472  25.881  23.447  1.00  0.00    -0.165 F 
ATOM     23  F   UNL A   1      31.348  25.457  22.437  1.00  0.00    -0.165 F 
ENDBRANCH  19  20
ENDBRANCH   8  19
ENDBRANCH   7   8
ENDBRANCH   4   7
ENDBRANCH   2   3
ENDBRANCH   1   2
BRANCH   1  24
ATOM     24  C   UNL A   1      38.728  21.936  25.506  1.00  0.00     0.118 C 
BRANCH  24  25
ATOM     25  N   UNL A   1      39.694  21.839  26.582  1.00  0.00    -0.352 N 
ATOM     26  C   UNL A   1      40.619  22.795  26.973  1.00  0.00     0.251 C 
ATOM     27  H   UNL A   1      39.694  20.998  27.094  1.00  0.00     0.163 HD
ATOM     28  O   UNL A   1      41.741  22.415  27.303  1.00  0.00    -0.269 OA
BRANCH  26  29
ATOM     29  C   UNL A   1      40.196  24.205  27.196  1.00  0.00     0.039 A 
ATOM     30  C   UNL A   1      40.859  25.190  26.441  1.00  0.00     0.014 A 
ATOM     31  C   UNL A   1      39.366  24.593  28.240  1.00  0.00     0.014 A 
ATOM     32  C   UNL A   1      40.916  26.508  26.895  1.00  0.00     0.010 A 
ATOM     33  C   UNL A   1      39.420  25.900  28.690  1.00  0.00     0.010 A 
ATOM     34  C   UNL A   1      40.287  26.821  28.090  1.00  0.00    -0.014 A 
BRANCH  34  35
ATOM     35  C   UNL A   1      40.522  28.042  28.849  1.00  0.00     0.031 A 
ATOM     36  C   UNL A   1      39.593  29.181  28.743  1.00  0.00     0.074 A 
ATOM     37  C   UNL A   1      41.431  27.998  29.851  1.00  0.00     0.049 A 
ATOM     38  N   UNL A   1      39.766  30.308  29.341  1.00  0.00    -0.248 NA
ATOM     39  C   UNL A   1      38.388  29.144  27.928  1.00  0.00     0.031 C 
ATOM     40  C   UNL A   1      41.490  28.869  31.020  1.00  0.00     0.029 A 
ATOM     41  N   UNL A   1      42.559  27.187  29.999  1.00  0.00    -0.354 N 
ATOM     42  C   UNL A   1      38.585  31.009  29.268  1.00  0.00     0.074 A 
ATOM     43  C   UNL A   1      37.822  30.308  28.264  1.00  0.00     0.031 C 
ATOM     44  C   UNL A   1      42.633  28.660  31.684  1.00  0.00     0.029 A 
ATOM     45  C   UNL A   1      43.476  27.916  30.779  1.00  0.00     0.049 A 
ATOM     46  H   UNL A   1      42.688  26.282  29.630  1.00  0.00     0.167 HD
ATOM     47  C   UNL A   1      38.369  32.004  30.180  1.00  0.00     0.034 A 
ATOM     48  C   UNL A   1      44.665  28.390  30.296  1.00  0.00     0.034 A 
ATOM     49  C   UNL A   1      39.586  32.242  30.997  1.00  0.00     0.049 A 
ATOM     50  C   UNL A   1      44.742  29.921  30.313  1.00  0.00     0.074 A 
ATOM     51  C   UNL A   1      39.948  31.977  32.309  1.00  0.00     0.029 A 
ATOM     52  N   UNL A   1      40.761  32.625  30.357  1.00  0.00    -0.354 N 
ATOM     53  N   UNL A   1      43.805  30.710  30.771  1.00  0.00    -0.248 NA
ATOM     54  C   UNL A   1      45.857  30.685  29.765  1.00  0.00     0.031 C 
ATOM     55  C   UNL A   1      41.359  32.183  32.438  1.00  0.00     0.029 A 
ATOM     56  C   UNL A   1      41.853  32.605  31.215  1.00  0.00     0.049 A 
ATOM     57  H   UNL A   1      40.812  32.882  29.407  1.00  0.00     0.167 HD
ATOM     58  C   UNL A   1      44.075  32.020  30.474  1.00  0.00     0.074 A 
ATOM     59  C   UNL A   1      45.400  31.948  29.870  1.00  0.00     0.031 C 
ATOM     60  C   UNL A   1      43.164  33.025  30.707  1.00  0.00     0.034 A 
BRANCH  47  61
ATOM     61  C   UNL A   1      37.022  32.658  30.510  1.00  0.00     0.023 A 
ATOM     62  C   UNL A   1      36.547  32.527  31.837  1.00  0.00     0.012 A 
ATOM     63  C   UNL A   1      36.148  33.341  29.626  1.00  0.00     0.148 A 
ATOM     64  C   UNL A   1      35.282  32.980  32.243  1.00  0.00     0.002 A 
ATOM     65  C   UNL A   1      34.882  33.792  30.025  1.00  0.00     0.091 A 
ATOM     66  F   UNL A   1      36.515  33.586  28.373  1.00  0.00    -0.205 F 
ATOM     67  C   UNL A   1      34.442  33.603  31.334  1.00  0.00     0.022 A 
BRANCH  65  68
ATOM     68  S   UNL A   1      33.734  34.609  28.893  1.00  0.00     0.127 S 
ATOM     69  O   UNL A   1      33.416  33.532  27.954  1.00  0.00    -0.237 OA
ATOM     70  O   UNL A   1      32.634  34.987  29.779  1.00  0.00    -0.237 OA
ATOM     71  O   UNL A   1      34.456  35.730  28.302  1.00  0.00    -0.744 OA
ENDBRANCH  65  68
ENDBRANCH  47  61
BRANCH  48  72
ATOM     72  C   UNL A   1      45.256  27.463  29.284  1.00  0.00     0.023 A 
ATOM     73  C   UNL A   1      45.523  26.145  29.738  1.00  0.00     0.012 A 
ATOM     74  C   UNL A   1      45.068  27.680  27.910  1.00  0.00     0.148 A 
ATOM     75  C   UNL A   1      45.392  25.054  28.878  1.00  0.00     0.002 A 
ATOM     76  C   UNL A   1      44.958  26.583  27.055  1.00  0.00     0.091 A 
ATOM     77  F   UNL A   1      44.898  28.934  27.474  1.00  0.00    -0.205 F 
ATOM     78  C   UNL A   1      45.060  25.272  27.546  1.00  0.00     0.022 A 
BRANCH  76  79
ATOM     79  S   UNL A   1      44.539  26.805  25.321  1.00  0.00     0.127 S 
ATOM     80  O   UNL A   1      45.842  27.113  24.743  1.00  0.00    -0.237 OA
ATOM     81  O   UNL A   1      43.999  25.497  24.951  1.00  0.00    -0.237 OA
ATOM     82  O   UNL A   1      43.555  27.878  25.316  1.00  0.00    -0.744 OA
ENDBRANCH  76  79
ENDBRANCH  48  72
BRANCH  60  83
ATOM     83  C   UNL A   1      43.384  34.512  30.414  1.00  0.00     0.023 A 
ATOM     84  C   UNL A   1      43.486  35.471  31.436  1.00  0.00     0.012 A 
ATOM     85  C   UNL A   1      43.434  35.022  29.084  1.00  0.00     0.148 A 
ATOM     86  C   UNL A   1      43.787  36.815  31.174  1.00  0.00     0.002 A 
ATOM     87  C   UNL A   1      43.719  36.359  28.820  1.00  0.00     0.091 A 
ATOM     88  F   UNL A   1      43.146  34.229  28.047  1.00  0.00    -0.205 F 
ATOM     89  C   UNL A   1      43.931  37.254  29.866  1.00  0.00     0.022 A 
BRANCH  87  90
ATOM     90  S   UNL A   1      43.819  37.013  27.146  1.00  0.00     0.127 S 
ATOM     91  O   UNL A   1      42.684  36.349  26.505  1.00  0.00    -0.237 OA
ATOM     92  O   UNL A   1      43.638  38.448  27.372  1.00  0.00    -0.237 OA
ATOM     93  O   UNL A   1      45.130  36.639  26.637  1.00  0.00    -0.744 OA
ENDBRANCH  87  90
ENDBRANCH  60  83
ENDBRANCH  34  35
ENDBRANCH  26  29
ENDBRANCH  24  25
ENDBRANCH   1  24
TORSDOF 18
ENDMDL
MODEL 3
REMARK VINA RESULT:     -11.5      1.219      1.980
REMARK SMILES Cc1ccc([C@H](C)[N@H+](CC(=O)NCCCNC(=O)c2ccc(-c3c4nc(c(-c5cccc(S(=O)(=O)[O-])c5F)c5ccc([nH]5)c(-c5cccc(S(=O)(=O)[O-])c5F)c5nc(c(-c6cccc(S(=O)(=O)[O-])c6F)c6ccc3[nH]6)C=C5)C=C4)cc2)CC(F)(F)F)cc1
REMARK SMILES IDX 14 1 13 2 12 3 10 4 11 5 9 7 8 8 6 10 7 11 5 12 1 13 2 14
REMARK SMILES IDX 3 15 88 16 4 17 87 18 82 19 83 20 84 21 85 22 86 23 15 24
REMARK SMILES IDX 16 25 17 26 18 28 19 29 20 30 81 31 21 32 80 33 22 34 23 35
REMARK SMILES IDX 24 36 74 37 25 38 79 39 73 40 75 41 26 42 78 43 72 44 71 45
REMARK SMILES IDX 27 47 59 48 39 49 58 50 40 51 43 52 57 53 76 54 41 55 42 56
REMARK SMILES IDX 56 58 77 59 44 60 28 61 29 62 37 63 30 64 32 65 38 66 31 67
REMARK SMILES IDX 33 68 34 69 35 70 36 71 60 72 61 73 69 74 62 75 64 76 70 77
REMARK SMILES IDX 63 78 65 79 66 80 67 81 68 82 45 83 46 84 54 85 47 86 49 87
REMARK SMILES IDX 55 88 48 89 50 90 51 91 52 92 53 93
REMARK H PARENT 12 6 8 9 16 27 75 46 43 57
REMARK Flexibility Score: inf
ROOT
ATOM      1  C   UNL A   1      36.996  21.151  25.506  1.00  0.00     0.042 C 
ENDROOT
BRANCH   1   2
ATOM      2  C   UNL A   1      35.537  21.639  25.540  1.00  0.00     0.118 C 
BRANCH   2   3
ATOM      3  N   UNL A   1      34.834  22.024  24.326  1.00  0.00    -0.351 N 
ATOM      4  C   UNL A   1      34.857  23.140  23.530  1.00  0.00     0.275 C 
ATOM      5  O   UNL A   1      34.509  22.988  22.353  1.00  0.00    -0.269 OA
ATOM      6  H   UNL A   1      34.208  21.336  24.007  1.00  0.00     0.163 HD
BRANCH   4   7
ATOM      7  C   UNL A   1      35.201  24.543  24.063  1.00  0.00     0.364 C 
BRANCH   7   8
ATOM      8  N   UNL A   1      33.970  25.342  24.190  1.00  0.00    -0.314 N 
ATOM      9  H   UNL A   1      33.233  24.646  24.080  1.00  0.00     0.349 HD
BRANCH   8  10
ATOM     10  C   UNL A   1      33.681  25.825  25.543  1.00  0.00     0.212 C 
ATOM     11  C   UNL A   1      33.706  27.348  25.720  1.00  0.00     0.081 C 
BRANCH  10  12
ATOM     12  C   UNL A   1      32.492  25.084  26.117  1.00  0.00     0.009 A 
ATOM     13  C   UNL A   1      29.204  22.514  27.100  1.00  0.00     0.044 C 
ATOM     14  C   UNL A   1      30.351  23.419  26.819  1.00  0.00    -0.051 A 
ATOM     15  C   UNL A   1      31.649  22.982  27.035  1.00  0.00     0.004 A 
ATOM     16  C   UNL A   1      30.122  24.726  26.388  1.00  0.00     0.004 A 
ATOM     17  C   UNL A   1      32.696  23.807  26.671  1.00  0.00     0.010 A 
ATOM     18  C   UNL A   1      31.185  25.561  26.052  1.00  0.00     0.010 A 
ENDBRANCH  10  12
ENDBRANCH   8  10
BRANCH   8  19
ATOM     19  C   UNL A   1      33.573  26.170  23.039  1.00  0.00     0.380 C 
BRANCH  19  20
ATOM     20  C   UNL A   1      32.235  25.884  22.305  1.00  0.00     0.438 C 
ATOM     21  F   UNL A   1      32.412  25.714  20.977  1.00  0.00    -0.165 F 
ATOM     22  F   UNL A   1      31.708  24.718  22.766  1.00  0.00    -0.165 F 
ATOM     23  F   UNL A   1      31.307  26.837  22.509  1.00  0.00    -0.165 F 
ENDBRANCH  19  20
ENDBRANCH   8  19
ENDBRANCH   7   8
ENDBRANCH   4   7
ENDBRANCH   2   3
ENDBRANCH   1   2
BRANCH   1  24
ATOM     24  C   UNL A   1      38.154  22.159  25.439  1.00  0.00     0.118 C 
BRANCH  24  25
ATOM     25  N   UNL A   1      39.136  22.011  26.496  1.00  0.00    -0.352 N 
ATOM     26  C   UNL A   1      40.105  22.925  26.880  1.00  0.00     0.251 C 
ATOM     27  H   UNL A   1      39.112  21.164  26.997  1.00  0.00     0.163 HD
ATOM     28  O   UNL A   1      41.217  22.497  27.183  1.00  0.00    -0.269 OA
BRANCH  26  29
ATOM     29  C   UNL A   1      39.743  24.348  27.126  1.00  0.00     0.039 A 
ATOM     30  C   UNL A   1      40.435  25.315  26.376  1.00  0.00     0.014 A 
ATOM     31  C   UNL A   1      38.943  24.755  28.187  1.00  0.00     0.014 A 
ATOM     32  C   UNL A   1      40.551  26.623  26.847  1.00  0.00     0.010 A 
ATOM     33  C   UNL A   1      39.056  26.052  28.653  1.00  0.00     0.010 A 
ATOM     34  C   UNL A   1      39.952  26.945  28.054  1.00  0.00    -0.014 A 
BRANCH  34  35
ATOM     35  C   UNL A   1      40.246  28.145  28.826  1.00  0.00     0.031 A 
ATOM     36  C   UNL A   1      39.371  29.327  28.736  1.00  0.00     0.074 A 
ATOM     37  C   UNL A   1      41.155  28.047  29.824  1.00  0.00     0.049 A 
ATOM     38  N   UNL A   1      39.599  30.438  29.346  1.00  0.00    -0.248 NA
ATOM     39  C   UNL A   1      38.163  29.356  27.925  1.00  0.00     0.031 C 
ATOM     40  C   UNL A   1      41.259  28.901  31.002  1.00  0.00     0.029 A 
ATOM     41  N   UNL A   1      42.245  27.182  29.958  1.00  0.00    -0.354 N 
ATOM     42  C   UNL A   1      38.451  31.194  29.286  1.00  0.00     0.074 A 
ATOM     43  C   UNL A   1      37.653  30.542  28.276  1.00  0.00     0.031 C 
ATOM     44  C   UNL A   1      42.393  28.631  31.659  1.00  0.00     0.029 A 
ATOM     45  C   UNL A   1      43.197  27.859  30.743  1.00  0.00     0.049 A 
ATOM     46  H   UNL A   1      42.330  26.277  29.579  1.00  0.00     0.167 HD
ATOM     47  C   UNL A   1      38.285  32.188  30.209  1.00  0.00     0.034 A 
ATOM     48  C   UNL A   1      44.406  28.282  30.261  1.00  0.00     0.034 A 
ATOM     49  C   UNL A   1      39.514  32.359  31.024  1.00  0.00     0.049 A 
ATOM     50  C   UNL A   1      44.554  29.807  30.295  1.00  0.00     0.074 A 
ATOM     51  C   UNL A   1      39.868  32.063  32.332  1.00  0.00     0.029 A 
ATOM     52  N   UNL A   1      40.705  32.694  30.384  1.00  0.00    -0.354 N 
ATOM     53  N   UNL A   1      43.657  30.634  30.765  1.00  0.00    -0.248 NA
ATOM     54  C   UNL A   1      45.702  30.525  29.752  1.00  0.00     0.031 C 
ATOM     55  C   UNL A   1      41.287  32.201  32.457  1.00  0.00     0.029 A 
ATOM     56  C   UNL A   1      41.797  32.613  31.238  1.00  0.00     0.049 A 
ATOM     57  H   UNL A   1      40.764  32.959  29.437  1.00  0.00     0.167 HD
ATOM     58  C   UNL A   1      43.987  31.933  30.482  1.00  0.00     0.074 A 
ATOM     59  C   UNL A   1      45.305  31.807  29.873  1.00  0.00     0.031 C 
ATOM     60  C   UNL A   1      43.125  32.978  30.730  1.00  0.00     0.034 A 
BRANCH  47  61
ATOM     61  C   UNL A   1      36.972  32.900  30.551  1.00  0.00     0.023 A 
ATOM     62  C   UNL A   1      36.583  32.923  31.913  1.00  0.00     0.012 A 
ATOM     63  C   UNL A   1      36.050  33.502  29.656  1.00  0.00     0.148 A 
ATOM     64  C   UNL A   1      35.353  33.441  32.347  1.00  0.00     0.002 A 
ATOM     65  C   UNL A   1      34.820  34.019  30.084  1.00  0.00     0.091 A 
ATOM     66  F   UNL A   1      36.337  33.603  28.363  1.00  0.00    -0.205 F 
ATOM     67  C   UNL A   1      34.464  33.980  31.431  1.00  0.00     0.022 A 
BRANCH  65  68
ATOM     68  S   UNL A   1      33.610  34.732  28.945  1.00  0.00     0.127 S 
ATOM     69  O   UNL A   1      34.380  35.810  28.321  1.00  0.00    -0.237 OA
ATOM     70  O   UNL A   1      33.312  33.608  28.059  1.00  0.00    -0.237 OA
ATOM     71  O   UNL A   1      32.487  35.185  29.757  1.00  0.00    -0.744 OA
ENDBRANCH  65  68
ENDBRANCH  47  61
BRANCH  48  72
ATOM     72  C   UNL A   1      44.949  27.340  29.236  1.00  0.00     0.023 A 
ATOM     73  C   UNL A   1      45.143  26.003  29.671  1.00  0.00     0.012 A 
ATOM     74  C   UNL A   1      44.778  27.587  27.865  1.00  0.00     0.148 A 
ATOM     75  C   UNL A   1      44.957  24.933  28.794  1.00  0.00     0.002 A 
ATOM     76  C   UNL A   1      44.611  26.511  26.993  1.00  0.00     0.091 A 
ATOM     77  F   UNL A   1      44.677  28.856  27.448  1.00  0.00    -0.205 F 
ATOM     78  C   UNL A   1      44.642  25.189  27.465  1.00  0.00     0.022 A 
BRANCH  76  79
ATOM     79  S   UNL A   1      44.210  26.781  25.262  1.00  0.00     0.127 S 
ATOM     80  O   UNL A   1      43.599  25.506  24.903  1.00  0.00    -0.237 OA
ATOM     81  O   UNL A   1      43.282  27.910  25.319  1.00  0.00    -0.237 OA
ATOM     82  O   UNL A   1      45.487  27.090  24.634  1.00  0.00    -0.744 OA
ENDBRANCH  76  79
ENDBRANCH  48  72
BRANCH  60  83
ATOM     83  C   UNL A   1      43.413  34.455  30.452  1.00  0.00     0.023 A 
ATOM     84  C   UNL A   1      43.570  35.396  31.485  1.00  0.00     0.012 A 
ATOM     85  C   UNL A   1      43.476  34.979  29.128  1.00  0.00     0.148 A 
ATOM     86  C   UNL A   1      43.932  36.727  31.237  1.00  0.00     0.002 A 
ATOM     87  C   UNL A   1      43.822  36.304  28.878  1.00  0.00     0.091 A 
ATOM     88  F   UNL A   1      43.141  34.214  28.085  1.00  0.00    -0.205 F 
ATOM     89  C   UNL A   1      44.086  37.175  29.933  1.00  0.00     0.022 A 
BRANCH  87  90
ATOM     90  S   UNL A   1      43.939  36.974  27.211  1.00  0.00     0.127 S 
ATOM     91  O   UNL A   1      44.208  38.386  27.482  1.00  0.00    -0.237 OA
ATOM     92  O   UNL A   1      45.076  36.230  26.667  1.00  0.00    -0.237 OA
ATOM     93  O   UNL A   1      42.665  36.694  26.566  1.00  0.00    -0.744 OA
ENDBRANCH  87  90
ENDBRANCH  60  83
ENDBRANCH  34  35
ENDBRANCH  26  29
ENDBRANCH  24  25
ENDBRANCH   1  24
TORSDOF 18
ENDMDL
