MODEL 1
REMARK VINA RESULT:     -13.4      0.000      0.000
REMARK SMILES NS(=O)(=O)c1ccc(-n2nc(C(=O)NCCCNC(=O)c3ccc(-c4c5nc(c(-c6cccc(S(=O)(=O)[O-])c6F)c6ccc([nH]6)c(-c6cccc(S(=O)(=O)[O-])c6F)c6nc(c(-c7cccc(S(=O)(=O)[O-])c7F)c7ccc4[nH]7)C=C6)C=C5)cc3)c(Cl)c2-c2ccc(Cl)cc2)cc1
REMARK SMILES IDX 16 1 15 2 14 3 12 4 13 5 11 7 9 8 10 9 86 10 84 11 85 12
REMARK SMILES IDX 8 13 5 14 6 15 95 16 7 17 94 18 2 19 3 20 4 21 1 22 87 25
REMARK SMILES IDX 88 26 93 27 89 28 92 29 90 30 91 31 17 32 18 33 19 34 20 36
REMARK SMILES IDX 21 37 22 38 83 39 23 40 82 41 24 42 25 43 26 44 76 45 27 46
REMARK SMILES IDX 81 47 75 48 77 49 28 50 80 51 74 52 73 53 29 55 61 56 41 57
REMARK SMILES IDX 60 58 42 59 45 60 59 61 78 62 43 63 44 64 58 66 79 67 46 68
REMARK SMILES IDX 30 69 31 70 39 71 32 72 34 73 40 74 33 75 35 76 36 77 37 78
REMARK SMILES IDX 38 79 62 80 63 81 71 82 64 83 66 84 72 85 65 86 67 87 68 88
REMARK SMILES IDX 69 89 70 90 47 91 48 92 56 93 49 94 51 95 57 96 50 97 52 98
REMARK SMILES IDX 53 99 54 100 55 101
REMARK H PARENT 14 6 1 23 1 24 18 35 77 54 45 65
REMARK Flexibility Score: inf
ROOT
ATOM      1  C   UNL A   1      36.618  21.384  25.495  1.00  0.00     0.042 C 
ENDROOT
BRANCH   1   2
ATOM      2  C   UNL A   1      35.727  22.171  24.524  1.00  0.00     0.118 C 
BRANCH   2   3
ATOM      3  N   UNL A   1      34.536  21.427  24.129  1.00  0.00    -0.351 N 
ATOM      4  C   UNL A   1      33.222  21.822  23.954  1.00  0.00     0.273 C 
ATOM      5  O   UNL A   1      32.460  21.012  23.427  1.00  0.00    -0.267 OA
ATOM      6  H   UNL A   1      34.698  20.472  23.954  1.00  0.00     0.163 HD
BRANCH   4   7
ATOM      7  C   UNL A   1      32.780  23.185  24.293  1.00  0.00     0.169 A 
ATOM      8  N   UNL A   1      31.916  25.123  23.974  1.00  0.00    -0.231 N 
ATOM      9  N   UNL A   1      32.026  23.900  23.421  1.00  0.00    -0.160 NA
ATOM     10  C   UNL A   1      32.675  25.250  25.114  1.00  0.00     0.094 A 
ATOM     11  C   UNL A   1      32.937  23.945  25.473  1.00  0.00     0.100 A 
ATOM     12  Cl  UNL A   1      33.322  23.476  27.055  1.00  0.00    -0.079 Cl
BRANCH   8  13
ATOM     13  C   UNL A   1      30.997  26.075  23.495  1.00  0.00     0.065 A 
ATOM     14  C   UNL A   1      29.276  28.170  22.929  1.00  0.00     0.082 A 
ATOM     15  C   UNL A   1      28.796  27.061  23.636  1.00  0.00     0.024 A 
ATOM     16  C   UNL A   1      30.599  28.215  22.473  1.00  0.00     0.024 A 
ATOM     17  C   UNL A   1      29.658  25.993  23.903  1.00  0.00     0.030 A 
ATOM     18  C   UNL A   1      31.470  27.174  22.776  1.00  0.00     0.030 A 
BRANCH  14  19
ATOM     19  S   UNL A   1      28.255  29.571  22.591  1.00  0.00     0.238 S 
ATOM     20  O   UNL A   1      28.280  29.817  21.158  1.00  0.00    -0.207 OA
ATOM     21  O   UNL A   1      28.549  30.594  23.553  1.00  0.00    -0.207 OA
BRANCH  19  22
ATOM     22  N   UNL A   1      26.689  29.064  22.915  1.00  0.00    -0.225 NA
ATOM     23  H   UNL A   1      26.661  28.045  22.941  1.00  0.00     0.137 HD
ATOM     24  H   UNL A   1      26.063  29.405  22.186  1.00  0.00     0.137 HD
ENDBRANCH  19  22
ENDBRANCH  14  19
ENDBRANCH   8  13
BRANCH  10  25
ATOM     25  C   UNL A   1      32.901  26.432  25.926  1.00  0.00     0.002 A 
ATOM     26  C   UNL A   1      31.855  26.886  26.743  1.00  0.00     0.012 A 
ATOM     27  C   UNL A   1      34.010  27.251  25.691  1.00  0.00     0.012 A 
ATOM     28  C   UNL A   1      31.894  28.172  27.278  1.00  0.00     0.021 A 
ATOM     29  C   UNL A   1      34.045  28.539  26.223  1.00  0.00     0.021 A 
ATOM     30  C   UNL A   1      32.980  29.000  26.999  1.00  0.00     0.041 A 
ATOM     31  Cl  UNL A   1      32.980  30.622  27.570  1.00  0.00    -0.084 Cl
ENDBRANCH  10  25
ENDBRANCH   4   7
ENDBRANCH   2   3
ENDBRANCH   1   2
BRANCH   1  32
ATOM     32  C   UNL A   1      38.074  21.355  25.109  1.00  0.00     0.118 C 
BRANCH  32  33
ATOM     33  N   UNL A   1      38.734  20.073  25.394  1.00  0.00    -0.352 N 
ATOM     34  C   UNL A   1      40.052  19.872  25.785  1.00  0.00     0.251 C 
ATOM     35  H   UNL A   1      38.180  19.265  25.296  1.00  0.00     0.163 HD
ATOM     36  O   UNL A   1      40.586  18.774  25.674  1.00  0.00    -0.269 OA
BRANCH  34  37
ATOM     37  C   UNL A   1      40.789  21.020  26.346  1.00  0.00     0.039 A 
ATOM     38  C   UNL A   1      41.668  21.824  25.614  1.00  0.00     0.014 A 
ATOM     39  C   UNL A   1      40.499  21.324  27.665  1.00  0.00     0.014 A 
ATOM     40  C   UNL A   1      42.197  22.957  26.235  1.00  0.00     0.010 A 
ATOM     41  C   UNL A   1      40.708  22.585  28.110  1.00  0.00     0.010 A 
ATOM     42  C   UNL A   1      41.703  23.319  27.493  1.00  0.00    -0.014 A 
BRANCH  42  43
ATOM     43  C   UNL A   1      42.134  24.482  28.247  1.00  0.00     0.031 A 
ATOM     44  C   UNL A   1      41.161  25.598  28.217  1.00  0.00     0.074 A 
ATOM     45  C   UNL A   1      43.117  24.370  29.172  1.00  0.00     0.049 A 
ATOM     46  N   UNL A   1      41.265  26.724  27.592  1.00  0.00    -0.248 NA
ATOM     47  C   UNL A   1      39.818  25.345  28.767  1.00  0.00     0.031 C 
ATOM     48  C   UNL A   1      43.850  23.158  29.585  1.00  0.00     0.029 A 
ATOM     49  N   UNL A   1      43.536  25.279  30.088  1.00  0.00    -0.354 N 
ATOM     50  C   UNL A   1      40.106  27.424  27.922  1.00  0.00     0.074 A 
ATOM     51  C   UNL A   1      39.164  26.425  28.338  1.00  0.00     0.031 C 
ATOM     52  C   UNL A   1      44.387  23.349  30.810  1.00  0.00     0.029 A 
ATOM     53  C   UNL A   1      44.185  24.732  31.193  1.00  0.00     0.049 A 
ATOM     54  H   UNL A   1      43.394  26.248  29.979  1.00  0.00     0.167 HD
ATOM     55  C   UNL A   1      40.141  28.767  28.163  1.00  0.00     0.034 A 
ATOM     56  C   UNL A   1      44.457  25.365  32.363  1.00  0.00     0.034 A 
ATOM     57  C   UNL A   1      41.409  29.322  27.729  1.00  0.00     0.049 A 
ATOM     58  C   UNL A   1      44.336  26.820  32.097  1.00  0.00     0.074 A 
ATOM     59  C   UNL A   1      42.128  29.322  26.548  1.00  0.00     0.029 A 
ATOM     60  N   UNL A   1      42.319  29.632  28.715  1.00  0.00    -0.354 N 
ATOM     61  N   UNL A   1      45.122  27.474  31.286  1.00  0.00    -0.248 NA
ATOM     62  C   UNL A   1      43.043  27.438  32.354  1.00  0.00     0.031 C 
ATOM     63  C   UNL A   1      43.486  29.136  26.947  1.00  0.00     0.029 A 
ATOM     64  C   UNL A   1      43.532  29.124  28.342  1.00  0.00     0.049 A 
ATOM     65  H   UNL A   1      42.128  30.131  29.542  1.00  0.00     0.167 HD
ATOM     66  C   UNL A   1      44.267  28.312  30.581  1.00  0.00     0.074 A 
ATOM     67  C   UNL A   1      43.020  28.318  31.350  1.00  0.00     0.031 C 
ATOM     68  C   UNL A   1      44.529  28.665  29.286  1.00  0.00     0.034 A 
BRANCH  55  69
ATOM     69  C   UNL A   1      39.276  29.514  29.176  1.00  0.00     0.023 A 
ATOM     70  C   UNL A   1      38.878  30.823  28.807  1.00  0.00     0.012 A 
ATOM     71  C   UNL A   1      39.074  29.163  30.531  1.00  0.00     0.148 A 
ATOM     72  C   UNL A   1      38.454  31.764  29.751  1.00  0.00     0.002 A 
ATOM     73  C   UNL A   1      38.606  30.086  31.460  1.00  0.00     0.091 A 
ATOM     74  F   UNL A   1      39.400  27.954  30.981  1.00  0.00    -0.205 F 
ATOM     75  C   UNL A   1      38.335  31.401  31.083  1.00  0.00     0.022 A 
BRANCH  73  76
ATOM     76  S   UNL A   1      38.400  29.662  33.199  1.00  0.00     0.127 S 
ATOM     77  O   UNL A   1      37.924  30.927  33.749  1.00  0.00    -0.237 OA
ATOM     78  O   UNL A   1      37.398  28.598  33.125  1.00  0.00    -0.237 OA
ATOM     79  O   UNL A   1      39.710  29.221  33.662  1.00  0.00    -0.744 OA
ENDBRANCH  73  76
ENDBRANCH  55  69
BRANCH  56  80
ATOM     80  C   UNL A   1      44.529  24.827  33.745  1.00  0.00     0.023 A 
ATOM     81  C   UNL A   1      43.671  23.776  34.132  1.00  0.00     0.012 A 
ATOM     82  C   UNL A   1      45.612  25.141  34.595  1.00  0.00     0.148 A 
ATOM     83  C   UNL A   1      43.903  23.045  35.306  1.00  0.00     0.002 A 
ATOM     84  C   UNL A   1      45.833  24.418  35.766  1.00  0.00     0.091 A 
ATOM     85  F   UNL A   1      46.483  26.084  34.209  1.00  0.00    -0.205 F 
ATOM     86  C   UNL A   1      44.988  23.360  36.119  1.00  0.00     0.022 A 
BRANCH  84  87
ATOM     87  S   UNL A   1      47.225  24.763  36.853  1.00  0.00     0.127 S 
ATOM     88  O   UNL A   1      46.970  26.151  37.240  1.00  0.00    -0.237 OA
ATOM     89  O   UNL A   1      47.025  23.783  37.916  1.00  0.00    -0.237 OA
ATOM     90  O   UNL A   1      48.415  24.578  36.032  1.00  0.00    -0.744 OA
ENDBRANCH  84  87
ENDBRANCH  56  80
BRANCH  68  91
ATOM     91  C   UNL A   1      45.881  28.332  28.705  1.00  0.00     0.023 A 
ATOM     92  C   UNL A   1      47.037  29.091  28.979  1.00  0.00     0.012 A 
ATOM     93  C   UNL A   1      46.020  27.104  28.039  1.00  0.00     0.148 A 
ATOM     94  C   UNL A   1      48.301  28.641  28.586  1.00  0.00     0.002 A 
ATOM     95  C   UNL A   1      47.280  26.637  27.690  1.00  0.00     0.091 A 
ATOM     96  F   UNL A   1      44.910  26.392  27.788  1.00  0.00    -0.205 F 
ATOM     97  C   UNL A   1      48.424  27.406  27.955  1.00  0.00     0.022 A 
BRANCH  95  98
ATOM     98  S   UNL A   1      47.510  24.999  26.997  1.00  0.00     0.127 S 
ATOM     99  O   UNL A   1      47.034  25.179  25.627  1.00  0.00    -0.237 OA
ATOM    100  O   UNL A   1      48.955  24.804  27.122  1.00  0.00    -0.237 OA
ATOM    101  O   UNL A   1      46.716  24.098  27.824  1.00  0.00    -0.744 OA
ENDBRANCH  95  98
ENDBRANCH  68  91
ENDBRANCH  42  43
ENDBRANCH  34  37
ENDBRANCH  32  33
ENDBRANCH   1  32
TORSDOF 17
ENDMDL
MODEL 2
REMARK VINA RESULT:     -13.3      2.964      7.055
REMARK SMILES NS(=O)(=O)c1ccc(-n2nc(C(=O)NCCCNC(=O)c3ccc(-c4c5nc(c(-c6cccc(S(=O)(=O)[O-])c6F)c6ccc([nH]6)c(-c6cccc(S(=O)(=O)[O-])c6F)c6nc(c(-c7cccc(S(=O)(=O)[O-])c7F)c7ccc4[nH]7)C=C6)C=C5)cc3)c(Cl)c2-c2ccc(Cl)cc2)cc1
REMARK SMILES IDX 16 1 15 2 14 3 12 4 13 5 11 7 9 8 10 9 86 10 84 11 85 12
REMARK SMILES IDX 8 13 5 14 6 15 95 16 7 17 94 18 2 19 3 20 4 21 1 22 87 25
REMARK SMILES IDX 88 26 93 27 89 28 92 29 90 30 91 31 17 32 18 33 19 34 20 36
REMARK SMILES IDX 21 37 22 38 83 39 23 40 82 41 24 42 25 43 26 44 76 45 27 46
REMARK SMILES IDX 81 47 75 48 77 49 28 50 80 51 74 52 73 53 29 55 61 56 41 57
REMARK SMILES IDX 60 58 42 59 45 60 59 61 78 62 43 63 44 64 58 66 79 67 46 68
REMARK SMILES IDX 30 69 31 70 39 71 32 72 34 73 40 74 33 75 35 76 36 77 37 78
REMARK SMILES IDX 38 79 62 80 63 81 71 82 64 83 66 84 72 85 65 86 67 87 68 88
REMARK SMILES IDX 69 89 70 90 47 91 48 92 56 93 49 94 51 95 57 96 50 97 52 98
REMARK SMILES IDX 53 99 54 100 55 101
REMARK H PARENT 14 6 1 23 1 24 18 35 77 54 45 65
REMARK Flexibility Score: inf
ROOT
ATOM      1  C   UNL A   1      36.174  22.076  25.433  1.00  0.00     0.042 C 
ENDROOT
BRANCH   1   2
ATOM      2  C   UNL A   1      35.381  22.230  24.128  1.00  0.00     0.118 C 
BRANCH   2   3
ATOM      3  N   UNL A   1      34.148  21.451  24.126  1.00  0.00    -0.351 N 
ATOM      4  C   UNL A   1      32.822  21.828  24.239  1.00  0.00     0.273 C 
ATOM      5  O   UNL A   1      31.974  20.966  24.011  1.00  0.00    -0.267 OA
ATOM      6  H   UNL A   1      34.286  20.481  24.027  1.00  0.00     0.163 HD
BRANCH   4   7
ATOM      7  C   UNL A   1      32.444  23.223  24.520  1.00  0.00     0.169 A 
ATOM      8  N   UNL A   1      31.668  25.183  24.120  1.00  0.00    -0.231 N 
ATOM      9  N   UNL A   1      31.720  23.934  23.619  1.00  0.00    -0.160 NA
ATOM     10  C   UNL A   1      32.436  25.324  25.252  1.00  0.00     0.094 A 
ATOM     11  C   UNL A   1      32.639  24.025  25.666  1.00  0.00     0.100 A 
ATOM     12  Cl  UNL A   1      33.007  23.607  27.265  1.00  0.00    -0.079 Cl
BRANCH   8  13
ATOM     13  C   UNL A   1      30.791  26.155  23.602  1.00  0.00     0.065 A 
ATOM     14  C   UNL A   1      29.159  28.297  22.953  1.00  0.00     0.082 A 
ATOM     15  C   UNL A   1      28.630  27.231  23.691  1.00  0.00     0.024 A 
ATOM     16  C   UNL A   1      30.487  28.274  22.507  1.00  0.00     0.024 A 
ATOM     17  C   UNL A   1      29.446  26.139  24.000  1.00  0.00     0.030 A 
ATOM     18  C   UNL A   1      31.314  27.210  22.852  1.00  0.00     0.030 A 
BRANCH  14  19
ATOM     19  S   UNL A   1      28.197  29.725  22.560  1.00  0.00     0.238 S 
ATOM     20  O   UNL A   1      26.869  29.549  23.124  1.00  0.00    -0.207 OA
ATOM     21  O   UNL A   1      28.410  30.054  21.180  1.00  0.00    -0.207 OA
BRANCH  19  22
ATOM     22  N   UNL A   1      28.881  30.975  23.447  1.00  0.00    -0.225 NA
ATOM     23  H   UNL A   1      29.401  31.590  22.821  1.00  0.00     0.137 HD
ATOM     24  H   UNL A   1      29.513  30.588  24.148  1.00  0.00     0.137 HD
ENDBRANCH  19  22
ENDBRANCH  14  19
ENDBRANCH   8  13
BRANCH  10  25
ATOM     25  C   UNL A   1      32.718  26.528  26.012  1.00  0.00     0.002 A 
ATOM     26  C   UNL A   1      31.688  27.079  26.789  1.00  0.00     0.012 A 
ATOM     27  C   UNL A   1      33.875  27.269  25.759  1.00  0.00     0.012 A 
ATOM     28  C   UNL A   1      31.794  28.384  27.265  1.00  0.00     0.021 A 
ATOM     29  C   UNL A   1      33.977  28.578  26.232  1.00  0.00     0.021 A 
ATOM     30  C   UNL A   1      32.929  29.135  26.967  1.00  0.00     0.041 A 
ATOM     31  Cl  UNL A   1      33.015  30.779  27.462  1.00  0.00    -0.084 Cl
ENDBRANCH  10  25
ENDBRANCH   4   7
ENDBRANCH   2   3
ENDBRANCH   1   2
BRANCH   1  32
ATOM     32  C   UNL A   1      37.643  22.383  25.301  1.00  0.00     0.118 C 
BRANCH  32  33
ATOM     33  N   UNL A   1      38.510  21.433  26.013  1.00  0.00    -0.352 N 
ATOM     34  C   UNL A   1      39.709  21.707  26.660  1.00  0.00     0.251 C 
ATOM     35  H   UNL A   1      38.207  20.497  26.034  1.00  0.00     0.163 HD
ATOM     36  O   UNL A   1      40.505  20.813  26.926  1.00  0.00    -0.269 OA
BRANCH  34  37
ATOM     37  C   UNL A   1      39.994  23.109  27.022  1.00  0.00     0.039 A 
ATOM     38  C   UNL A   1      39.077  24.156  26.896  1.00  0.00     0.014 A 
ATOM     39  C   UNL A   1      41.237  23.333  27.590  1.00  0.00     0.014 A 
ATOM     40  C   UNL A   1      39.434  25.409  27.399  1.00  0.00     0.010 A 
ATOM     41  C   UNL A   1      41.411  24.413  28.387  1.00  0.00     0.010 A 
ATOM     42  C   UNL A   1      40.615  25.516  28.143  1.00  0.00    -0.014 A 
BRANCH  42  43
ATOM     43  C   UNL A   1      41.100  26.741  28.751  1.00  0.00     0.031 A 
ATOM     44  C   UNL A   1      42.362  27.237  28.155  1.00  0.00     0.074 A 
ATOM     45  C   UNL A   1      40.267  27.513  29.490  1.00  0.00     0.049 A 
ATOM     46  N   UNL A   1      43.543  27.230  28.680  1.00  0.00    -0.248 NA
ATOM     47  C   UNL A   1      42.350  27.579  26.722  1.00  0.00     0.031 C 
ATOM     48  C   UNL A   1      38.833  27.303  29.766  1.00  0.00     0.029 A 
ATOM     49  N   UNL A   1      40.473  28.757  29.988  1.00  0.00    -0.354 N 
ATOM     50  C   UNL A   1      44.360  27.839  27.729  1.00  0.00     0.074 A 
ATOM     51  C   UNL A   1      43.656  27.712  26.485  1.00  0.00     0.031 C 
ATOM     52  C   UNL A   1      38.264  28.477  30.119  1.00  0.00     0.029 A 
ATOM     53  C   UNL A   1      39.308  29.473  30.256  1.00  0.00     0.049 A 
ATOM     54  H   UNL A   1      41.372  29.125  30.147  1.00  0.00     0.167 HD
ATOM     55  C   UNL A   1      45.355  28.695  28.103  1.00  0.00     0.034 A 
ATOM     56  C   UNL A   1      39.218  30.807  30.494  1.00  0.00     0.034 A 
ATOM     57  C   UNL A   1      45.591  28.598  29.531  1.00  0.00     0.049 A 
ATOM     58  C   UNL A   1      40.585  31.271  30.838  1.00  0.00     0.074 A 
ATOM     59  C   UNL A   1      45.883  27.572  30.409  1.00  0.00     0.029 A 
ATOM     60  N   UNL A   1      45.105  29.624  30.309  1.00  0.00    -0.354 N 
ATOM     61  N   UNL A   1      41.232  30.884  31.904  1.00  0.00    -0.248 NA
ATOM     62  C   UNL A   1      41.410  31.775  29.751  1.00  0.00     0.031 C 
ATOM     63  C   UNL A   1      45.100  27.851  31.570  1.00  0.00     0.029 A 
ATOM     64  C   UNL A   1      44.449  29.070  31.374  1.00  0.00     0.049 A 
ATOM     65  H   UNL A   1      45.210  30.587  30.131  1.00  0.00     0.167 HD
ATOM     66  C   UNL A   1      42.528  30.655  31.455  1.00  0.00     0.074 A 
ATOM     67  C   UNL A   1      42.600  31.316  30.150  1.00  0.00     0.031 C 
ATOM     68  C   UNL A   1      43.315  29.692  32.023  1.00  0.00     0.034 A 
BRANCH  55  69
ATOM     69  C   UNL A   1      45.807  29.931  27.327  1.00  0.00     0.023 A 
ATOM     70  C   UNL A   1      47.205  30.153  27.271  1.00  0.00     0.012 A 
ATOM     71  C   UNL A   1      44.990  31.009  26.912  1.00  0.00     0.148 A 
ATOM     72  C   UNL A   1      47.747  31.407  26.974  1.00  0.00     0.002 A 
ATOM     73  C   UNL A   1      45.534  32.242  26.568  1.00  0.00     0.091 A 
ATOM     74  F   UNL A   1      43.664  30.903  26.911  1.00  0.00    -0.205 F 
ATOM     75  C   UNL A   1      46.909  32.459  26.638  1.00  0.00     0.022 A 
BRANCH  73  76
ATOM     76  S   UNL A   1      44.497  33.637  26.094  1.00  0.00     0.127 S 
ATOM     77  O   UNL A   1      45.500  34.660  25.818  1.00  0.00    -0.237 OA
ATOM     78  O   UNL A   1      43.809  33.105  24.917  1.00  0.00    -0.237 OA
ATOM     79  O   UNL A   1      43.624  33.894  27.233  1.00  0.00    -0.744 OA
ENDBRANCH  73  76
ENDBRANCH  55  69
BRANCH  56  80
ATOM     80  C   UNL A   1      38.127  31.763  30.174  1.00  0.00     0.023 A 
ATOM     81  C   UNL A   1      37.656  31.868  28.849  1.00  0.00     0.012 A 
ATOM     82  C   UNL A   1      37.360  32.364  31.197  1.00  0.00     0.148 A 
ATOM     83  C   UNL A   1      36.449  32.521  28.557  1.00  0.00     0.002 A 
ATOM     84  C   UNL A   1      36.167  33.020  30.901  1.00  0.00     0.091 A 
ATOM     85  F   UNL A   1      37.749  32.211  32.470  1.00  0.00    -0.205 F 
ATOM     86  C   UNL A   1      35.701  33.089  29.583  1.00  0.00     0.022 A 
BRANCH  84  87
ATOM     87  S   UNL A   1      35.143  33.763  32.181  1.00  0.00     0.127 S 
ATOM     88  O   UNL A   1      34.956  32.644  33.105  1.00  0.00    -0.237 OA
ATOM     89  O   UNL A   1      36.010  34.829  32.677  1.00  0.00    -0.237 OA
ATOM     90  O   UNL A   1      33.926  34.193  31.505  1.00  0.00    -0.744 OA
ENDBRANCH  84  87
ENDBRANCH  56  80
BRANCH  68  91
ATOM     91  C   UNL A   1      42.851  29.041  33.302  1.00  0.00     0.023 A 
ATOM     92  C   UNL A   1      41.903  27.996  33.327  1.00  0.00     0.012 A 
ATOM     93  C   UNL A   1      43.545  29.352  34.482  1.00  0.00     0.148 A 
ATOM     94  C   UNL A   1      41.647  27.288  34.506  1.00  0.00     0.002 A 
ATOM     95  C   UNL A   1      43.322  28.617  35.639  1.00  0.00     0.091 A 
ATOM     96  F   UNL A   1      44.445  30.347  34.441  1.00  0.00    -0.205 F 
ATOM     97  C   UNL A   1      42.368  27.588  35.657  1.00  0.00     0.022 A 
BRANCH  95  98
ATOM     98  S   UNL A   1      44.314  28.872  37.112  1.00  0.00     0.127 S 
ATOM     99  O   UNL A   1      43.680  30.048  37.705  1.00  0.00    -0.237 OA
ATOM    100  O   UNL A   1      44.105  27.626  37.851  1.00  0.00    -0.237 OA
ATOM    101  O   UNL A   1      45.682  29.064  36.646  1.00  0.00    -0.744 OA
ENDBRANCH  95  98
ENDBRANCH  68  91
ENDBRANCH  42  43
ENDBRANCH  34  37
ENDBRANCH  32  33
ENDBRANCH   1  32
TORSDOF 17
ENDMDL
MODEL 3
REMARK VINA RESULT:     -12.6      1.715      1.990
REMARK SMILES NS(=O)(=O)c1ccc(-n2nc(C(=O)NCCCNC(=O)c3ccc(-c4c5nc(c(-c6cccc(S(=O)(=O)[O-])c6F)c6ccc([nH]6)c(-c6cccc(S(=O)(=O)[O-])c6F)c6nc(c(-c7cccc(S(=O)(=O)[O-])c7F)c7ccc4[nH]7)C=C6)C=C5)cc3)c(Cl)c2-c2ccc(Cl)cc2)cc1
REMARK SMILES IDX 16 1 15 2 14 3 12 4 13 5 11 7 9 8 10 9 86 10 84 11 85 12
REMARK SMILES IDX 8 13 5 14 6 15 95 16 7 17 94 18 2 19 3 20 4 21 1 22 87 25
REMARK SMILES IDX 88 26 93 27 89 28 92 29 90 30 91 31 17 32 18 33 19 34 20 36
REMARK SMILES IDX 21 37 22 38 83 39 23 40 82 41 24 42 25 43 26 44 76 45 27 46
REMARK SMILES IDX 81 47 75 48 77 49 28 50 80 51 74 52 73 53 29 55 61 56 41 57
REMARK SMILES IDX 60 58 42 59 45 60 59 61 78 62 43 63 44 64 58 66 79 67 46 68
REMARK SMILES IDX 30 69 31 70 39 71 32 72 34 73 40 74 33 75 35 76 36 77 37 78
REMARK SMILES IDX 38 79 62 80 63 81 71 82 64 83 66 84 72 85 65 86 67 87 68 88
REMARK SMILES IDX 69 89 70 90 47 91 48 92 56 93 49 94 51 95 57 96 50 97 52 98
REMARK SMILES IDX 53 99 54 100 55 101
REMARK H PARENT 14 6 1 23 1 24 18 35 77 54 45 65
REMARK Flexibility Score: inf
ROOT
ATOM      1  C   UNL A   1      36.413  22.142  25.354  1.00  0.00     0.042 C 
ENDROOT
BRANCH   1   2
ATOM      2  C   UNL A   1      35.571  22.300  24.081  1.00  0.00     0.118 C 
BRANCH   2   3
ATOM      3  N   UNL A   1      34.358  21.489  24.108  1.00  0.00    -0.351 N 
ATOM      4  C   UNL A   1      33.026  21.833  24.248  1.00  0.00     0.273 C 
ATOM      5  O   UNL A   1      32.195  20.949  24.040  1.00  0.00    -0.267 OA
ATOM      6  H   UNL A   1      34.518  20.523  24.008  1.00  0.00     0.163 HD
BRANCH   4   7
ATOM      7  C   UNL A   1      32.618  23.219  24.532  1.00  0.00     0.169 A 
ATOM      8  N   UNL A   1      31.817  25.169  24.134  1.00  0.00    -0.231 N 
ATOM      9  N   UNL A   1      31.900  23.925  23.624  1.00  0.00    -0.160 NA
ATOM     10  C   UNL A   1      32.560  25.313  25.282  1.00  0.00     0.094 A 
ATOM     11  C   UNL A   1      32.777  24.014  25.689  1.00  0.00     0.100 A 
ATOM     12  Cl  UNL A   1      33.121  23.589  27.292  1.00  0.00    -0.079 Cl
BRANCH   8  13
ATOM     13  C   UNL A   1      30.933  26.130  23.607  1.00  0.00     0.065 A 
ATOM     14  C   UNL A   1      29.253  28.234  22.958  1.00  0.00     0.082 A 
ATOM     15  C   UNL A   1      28.723  27.105  23.595  1.00  0.00     0.024 A 
ATOM     16  C   UNL A   1      30.607  28.294  22.610  1.00  0.00     0.024 A 
ATOM     17  C   UNL A   1      29.566  26.033  23.904  1.00  0.00     0.030 A 
ATOM     18  C   UNL A   1      31.458  27.249  22.956  1.00  0.00     0.030 A 
BRANCH  14  19
ATOM     19  S   UNL A   1      28.254  29.640  22.574  1.00  0.00     0.238 S 
ATOM     20  O   UNL A   1      28.252  29.816  21.131  1.00  0.00    -0.207 OA
ATOM     21  O   UNL A   1      28.593  30.700  23.479  1.00  0.00    -0.207 OA
BRANCH  19  22
ATOM     22  N   UNL A   1      26.686  29.184  22.957  1.00  0.00    -0.225 NA
ATOM     23  H   UNL A   1      26.194  29.975  23.371  1.00  0.00     0.137 HD
ATOM     24  H   UNL A   1      26.709  28.410  23.622  1.00  0.00     0.137 HD
ENDBRANCH  19  22
ENDBRANCH  14  19
ENDBRANCH   8  13
BRANCH  10  25
ATOM     25  C   UNL A   1      32.806  26.515  26.058  1.00  0.00     0.002 A 
ATOM     26  C   UNL A   1      31.744  27.060  26.794  1.00  0.00     0.012 A 
ATOM     27  C   UNL A   1      33.971  27.262  25.855  1.00  0.00     0.012 A 
ATOM     28  C   UNL A   1      31.825  28.364  27.278  1.00  0.00     0.021 A 
ATOM     29  C   UNL A   1      34.048  28.568  26.336  1.00  0.00     0.021 A 
ATOM     30  C   UNL A   1      32.970  29.119  27.029  1.00  0.00     0.041 A 
ATOM     31  Cl  UNL A   1      33.030  30.762  27.534  1.00  0.00    -0.084 Cl
ENDBRANCH  10  25
ENDBRANCH   4   7
ENDBRANCH   2   3
ENDBRANCH   1   2
BRANCH   1  32
ATOM     32  C   UNL A   1      37.891  21.999  25.101  1.00  0.00     0.118 C 
BRANCH  32  33
ATOM     33  N   UNL A   1      38.406  20.645  25.355  1.00  0.00    -0.352 N 
ATOM     34  C   UNL A   1      39.699  20.289  25.720  1.00  0.00     0.251 C 
ATOM     35  H   UNL A   1      37.762  19.908  25.257  1.00  0.00     0.163 HD
ATOM     36  O   UNL A   1      40.102  19.139  25.583  1.00  0.00    -0.269 OA
BRANCH  34  37
ATOM     37  C   UNL A   1      40.572  21.337  26.282  1.00  0.00     0.039 A 
ATOM     38  C   UNL A   1      41.532  22.039  25.548  1.00  0.00     0.014 A 
ATOM     39  C   UNL A   1      40.332  21.660  27.607  1.00  0.00     0.014 A 
ATOM     40  C   UNL A   1      42.197  23.095  26.173  1.00  0.00     0.010 A 
ATOM     41  C   UNL A   1      40.693  22.882  28.061  1.00  0.00     0.010 A 
ATOM     42  C   UNL A   1      41.761  23.500  27.440  1.00  0.00    -0.014 A 
BRANCH  42  43
ATOM     43  C   UNL A   1      42.334  24.596  28.199  1.00  0.00     0.031 A 
ATOM     44  C   UNL A   1      41.491  25.814  28.204  1.00  0.00     0.074 A 
ATOM     45  C   UNL A   1      43.316  24.362  29.102  1.00  0.00     0.049 A 
ATOM     46  N   UNL A   1      41.708  26.931  27.591  1.00  0.00    -0.248 NA
ATOM     47  C   UNL A   1      40.138  25.704  28.779  1.00  0.00     0.031 C 
ATOM     48  C   UNL A   1      43.916  23.070  29.485  1.00  0.00     0.029 A 
ATOM     49  N   UNL A   1      43.851  25.205  30.020  1.00  0.00    -0.354 N 
ATOM     50  C   UNL A   1      40.640  27.750  27.954  1.00  0.00     0.074 A 
ATOM     51  C   UNL A   1      39.601  26.857  28.377  1.00  0.00     0.031 C 
ATOM     52  C   UNL A   1      44.495  23.181  30.700  1.00  0.00     0.029 A 
ATOM     53  C   UNL A   1      44.456  24.573  31.105  1.00  0.00     0.049 A 
ATOM     54  H   UNL A   1      43.815  26.185  29.928  1.00  0.00     0.167 HD
ATOM     55  C   UNL A   1      40.830  29.077  28.211  1.00  0.00     0.034 A 
ATOM     56  C   UNL A   1      44.819  25.154  32.277  1.00  0.00     0.034 A 
ATOM     57  C   UNL A   1      42.143  29.494  27.758  1.00  0.00     0.049 A 
ATOM     58  C   UNL A   1      44.856  26.617  32.033  1.00  0.00     0.074 A 
ATOM     59  C   UNL A   1      42.834  29.432  26.563  1.00  0.00     0.029 A 
ATOM     60  N   UNL A   1      43.100  29.686  28.729  1.00  0.00    -0.354 N 
ATOM     61  N   UNL A   1      45.695  27.192  31.214  1.00  0.00    -0.248 NA
ATOM     62  C   UNL A   1      43.646  27.371  32.324  1.00  0.00     0.031 C 
ATOM     63  C   UNL A   1      44.170  29.090  26.931  1.00  0.00     0.029 A 
ATOM     64  C   UNL A   1      44.242  29.053  28.324  1.00  0.00     0.049 A 
ATOM     65  H   UNL A   1      42.983  30.191  29.567  1.00  0.00     0.167 HD
ATOM     66  C   UNL A   1      44.925  28.130  30.537  1.00  0.00     0.074 A 
ATOM     67  C   UNL A   1      43.702  28.264  31.332  1.00  0.00     0.031 C 
ATOM     68  C   UNL A   1      45.199  28.471  29.242  1.00  0.00     0.034 A 
BRANCH  55  69
ATOM     69  C   UNL A   1      40.073  29.901  29.253  1.00  0.00     0.023 A 
ATOM     70  C   UNL A   1      40.601  29.876  30.567  1.00  0.00     0.012 A 
ATOM     71  C   UNL A   1      38.773  30.441  29.116  1.00  0.00     0.148 A 
ATOM     72  C   UNL A   1      39.832  30.218  31.683  1.00  0.00     0.002 A 
ATOM     73  C   UNL A   1      38.027  30.827  30.224  1.00  0.00     0.091 A 
ATOM     74  F   UNL A   1      38.188  30.525  27.924  1.00  0.00    -0.205 F 
ATOM     75  C   UNL A   1      38.536  30.678  31.513  1.00  0.00     0.022 A 
BRANCH  73  76
ATOM     76  S   UNL A   1      36.348  31.462  30.062  1.00  0.00     0.127 S 
ATOM     77  O   UNL A   1      35.924  31.511  31.457  1.00  0.00    -0.237 OA
ATOM     78  O   UNL A   1      36.585  32.764  29.437  1.00  0.00    -0.237 OA
ATOM     79  O   UNL A   1      35.639  30.511  29.215  1.00  0.00    -0.744 OA
ENDBRANCH  73  76
ENDBRANCH  55  69
BRANCH  56  80
ATOM     80  C   UNL A   1      44.858  24.590  33.650  1.00  0.00     0.023 A 
ATOM     81  C   UNL A   1      43.660  24.178  34.271  1.00  0.00     0.012 A 
ATOM     82  C   UNL A   1      46.078  24.197  34.245  1.00  0.00     0.148 A 
ATOM     83  C   UNL A   1      43.678  23.377  35.422  1.00  0.00     0.002 A 
ATOM     84  C   UNL A   1      46.090  23.410  35.394  1.00  0.00     0.091 A 
ATOM     85  F   UNL A   1      47.226  24.513  33.630  1.00  0.00    -0.205 F 
ATOM     86  C   UNL A   1      44.892  22.986  35.979  1.00  0.00     0.022 A 
BRANCH  84  87
ATOM     87  S   UNL A   1      47.624  22.857  36.156  1.00  0.00     0.127 S 
ATOM     88  O   UNL A   1      48.273  24.126  36.485  1.00  0.00    -0.237 OA
ATOM     89  O   UNL A   1      47.132  22.104  37.306  1.00  0.00    -0.237 OA
ATOM     90  O   UNL A   1      48.309  22.080  35.131  1.00  0.00    -0.744 OA
ENDBRANCH  84  87
ENDBRANCH  56  80
BRANCH  68  91
ATOM     91  C   UNL A   1      46.494  27.998  28.629  1.00  0.00     0.023 A 
ATOM     92  C   UNL A   1      46.641  26.722  28.047  1.00  0.00     0.012 A 
ATOM     93  C   UNL A   1      47.517  28.943  28.453  1.00  0.00     0.148 A 
ATOM     94  C   UNL A   1      47.789  26.394  27.317  1.00  0.00     0.002 A 
ATOM     95  C   UNL A   1      48.634  28.631  27.690  1.00  0.00     0.091 A 
ATOM     96  F   UNL A   1      47.361  30.154  29.011  1.00  0.00    -0.205 F 
ATOM     97  C   UNL A   1      48.778  27.354  27.125  1.00  0.00     0.022 A 
BRANCH  95  98
ATOM     98  S   UNL A   1      49.874  29.867  27.301  1.00  0.00     0.127 S 
ATOM     99  O   UNL A   1      50.438  30.157  28.618  1.00  0.00    -0.237 OA
ATOM    100  O   UNL A   1      50.769  29.142  26.398  1.00  0.00    -0.237 OA
ATOM    101  O   UNL A   1      49.158  30.968  26.668  1.00  0.00    -0.744 OA
ENDBRANCH  95  98
ENDBRANCH  68  91
ENDBRANCH  42  43
ENDBRANCH  34  37
ENDBRANCH  32  33
ENDBRANCH   1  32
TORSDOF 17
ENDMDL
