MODEL 1
REMARK VINA RESULT:     -10.6      0.000      0.000
REMARK SMILES O=C(NCCCNC(=O)[C@H]1CC[C@H](CNS(=O)(=O)c2cccs2)O1)c1ccc(-c2c3nc(c(-c4cccc(S(=O)(=O)[O-])c4F)c4ccc([nH]4)c(-c4cccc(S(=O)(=O)[O-])c4F)c4nc(c(-c5cccc(S(=O)(=O)[O-])c5F)c5ccc2[nH]5)C=C4)C=C3)cc1
REMARK SMILES IDX 5 1 4 2 3 3 1 4 2 5 25 7 26 8 87 9 27 10 86 11 28 12 29 13
REMARK SMILES IDX 30 14 80 15 31 16 85 17 79 18 81 19 32 20 84 21 78 22 77 23
REMARK SMILES IDX 33 25 65 26 45 27 64 28 46 29 49 30 63 31 82 32 47 33 48 34
REMARK SMILES IDX 62 36 83 37 50 38 34 39 35 40 43 41 36 42 38 43 44 44 37 45
REMARK SMILES IDX 39 46 40 47 41 48 42 49 66 50 67 51 75 52 68 53 70 54 76 55
REMARK SMILES IDX 69 56 71 57 72 58 73 59 74 60 51 61 52 62 60 63 53 64 55 65
REMARK SMILES IDX 61 66 54 67 56 68 57 69 58 70 59 71 6 72 7 73 8 74 9 76
REMARK SMILES IDX 10 77 11 78 24 79 12 80 13 81 14 82 15 83 16 85 17 86 18 87
REMARK SMILES IDX 19 88 20 89 23 90 21 91 22 92
REMARK H PARENT 3 6 81 24 49 35 7 75 15 84
REMARK Flexibility Score: inf
ROOT
ATOM      1  C   UNL A   1      34.396  34.602  28.008  1.00  0.00     0.042 C 
ENDROOT
BRANCH   1   2
ATOM      2  C   UNL A   1      35.131  33.262  28.040  1.00  0.00     0.118 C 
BRANCH   2   3
ATOM      3  N   UNL A   1      34.281  32.149  27.651  1.00  0.00    -0.352 N 
ATOM      4  O   UNL A   1      33.740  30.069  27.016  1.00  0.00    -0.269 OA
ATOM      5  C   UNL A   1      34.564  30.808  27.549  1.00  0.00     0.251 C 
ATOM      6  H   UNL A   1      33.355  32.394  27.425  1.00  0.00     0.163 HD
BRANCH   5   7
ATOM      7  C   UNL A   1      35.843  30.255  28.052  1.00  0.00     0.039 A 
ATOM      8  C   UNL A   1      37.018  30.326  27.298  1.00  0.00     0.014 A 
ATOM      9  C   UNL A   1      35.880  29.714  29.342  1.00  0.00     0.014 A 
ATOM     10  C   UNL A   1      38.197  29.764  27.789  1.00  0.00     0.010 A 
ATOM     11  C   UNL A   1      37.076  29.208  29.858  1.00  0.00     0.010 A 
ATOM     12  C   UNL A   1      38.241  29.205  29.076  1.00  0.00    -0.014 A 
BRANCH  12  13
ATOM     13  C   UNL A   1      39.525  28.689  29.614  1.00  0.00     0.031 A 
ATOM     14  C   UNL A   1      40.158  29.297  30.836  1.00  0.00     0.074 A 
ATOM     15  C   UNL A   1      40.132  27.666  28.982  1.00  0.00     0.049 A 
ATOM     16  N   UNL A   1      41.251  28.937  31.459  1.00  0.00    -0.248 NA
ATOM     17  C   UNL A   1      39.486  30.462  31.433  1.00  0.00     0.031 C 
ATOM     18  C   UNL A   1      39.648  27.033  27.753  1.00  0.00     0.029 A 
ATOM     19  N   UNL A   1      41.284  26.982  29.276  1.00  0.00    -0.354 N 
ATOM     20  C   UNL A   1      41.416  29.843  32.498  1.00  0.00     0.074 A 
ATOM     21  C   UNL A   1      40.315  30.780  32.419  1.00  0.00     0.031 C 
ATOM     22  C   UNL A   1      40.486  26.044  27.408  1.00  0.00     0.029 A 
ATOM     23  C   UNL A   1      41.580  25.989  28.373  1.00  0.00     0.049 A 
ATOM     24  H   UNL A   1      41.846  27.184  30.059  1.00  0.00     0.167 HD
ATOM     25  C   UNL A   1      42.383  29.878  33.447  1.00  0.00     0.034 A 
ATOM     26  C   UNL A   1      42.615  25.127  28.324  1.00  0.00     0.034 A 
ATOM     27  C   UNL A   1      43.452  28.920  33.552  1.00  0.00     0.049 A 
ATOM     28  C   UNL A   1      43.647  25.162  29.414  1.00  0.00     0.074 A 
ATOM     29  C   UNL A   1      44.435  28.832  34.523  1.00  0.00     0.029 A 
ATOM     30  N   UNL A   1      43.682  27.889  32.655  1.00  0.00    -0.354 N 
ATOM     31  N   UNL A   1      43.698  25.930  30.475  1.00  0.00    -0.248 NA
ATOM     32  C   UNL A   1      44.747  24.192  29.320  1.00  0.00     0.031 C 
ATOM     33  C   UNL A   1      45.263  27.748  34.209  1.00  0.00     0.029 A 
ATOM     34  C   UNL A   1      44.794  27.160  33.046  1.00  0.00     0.049 A 
ATOM     35  H   UNL A   1      43.136  27.701  31.858  1.00  0.00     0.167 HD
ATOM     36  C   UNL A   1      44.821  25.523  31.186  1.00  0.00     0.074 A 
ATOM     37  C   UNL A   1      45.406  24.422  30.448  1.00  0.00     0.031 C 
ATOM     38  C   UNL A   1      45.333  26.032  32.332  1.00  0.00     0.034 A 
BRANCH  25  39
ATOM     39  C   UNL A   1      42.298  30.953  34.498  1.00  0.00     0.023 A 
ATOM     40  C   UNL A   1      41.570  30.703  35.678  1.00  0.00     0.012 A 
ATOM     41  C   UNL A   1      42.997  32.168  34.360  1.00  0.00     0.148 A 
ATOM     42  C   UNL A   1      41.524  31.651  36.699  1.00  0.00     0.002 A 
ATOM     43  C   UNL A   1      42.972  33.096  35.395  1.00  0.00     0.091 A 
ATOM     44  F   UNL A   1      43.663  32.398  33.220  1.00  0.00    -0.205 F 
ATOM     45  C   UNL A   1      42.232  32.842  36.561  1.00  0.00     0.022 A 
BRANCH  43  46
ATOM     46  S   UNL A   1      43.906  34.630  35.335  1.00  0.00     0.127 S 
ATOM     47  O   UNL A   1      43.279  35.313  34.204  1.00  0.00    -0.237 OA
ATOM     48  O   UNL A   1      43.616  35.225  36.640  1.00  0.00    -0.237 OA
ATOM     49  O   UNL A   1      45.296  34.240  35.146  1.00  0.00    -0.744 OA
ENDBRANCH  43  46
ENDBRANCH  25  39
BRANCH  26  50
ATOM     50  C   UNL A   1      42.674  24.112  27.235  1.00  0.00     0.023 A 
ATOM     51  C   UNL A   1      43.469  24.363  26.101  1.00  0.00     0.012 A 
ATOM     52  C   UNL A   1      42.000  22.880  27.342  1.00  0.00     0.148 A 
ATOM     53  C   UNL A   1      43.580  23.413  25.086  1.00  0.00     0.002 A 
ATOM     54  C   UNL A   1      42.159  21.915  26.354  1.00  0.00     0.091 A 
ATOM     55  F   UNL A   1      41.227  22.666  28.417  1.00  0.00    -0.205 F 
ATOM     56  C   UNL A   1      42.937  22.184  25.218  1.00  0.00     0.022 A 
BRANCH  54  57
ATOM     57  S   UNL A   1      41.480  20.262  26.536  1.00  0.00     0.127 S 
ATOM     58  O   UNL A   1      40.043  20.518  26.476  1.00  0.00    -0.237 OA
ATOM     59  O   UNL A   1      42.031  19.567  25.371  1.00  0.00    -0.237 OA
ATOM     60  O   UNL A   1      41.996  19.781  27.810  1.00  0.00    -0.744 OA
ENDBRANCH  54  57
ENDBRANCH  26  50
BRANCH  38  61
ATOM     61  C   UNL A   1      46.588  25.402  32.872  1.00  0.00     0.023 A 
ATOM     62  C   UNL A   1      47.840  25.885  32.444  1.00  0.00     0.012 A 
ATOM     63  C   UNL A   1      46.532  24.387  33.846  1.00  0.00     0.148 A 
ATOM     64  C   UNL A   1      49.019  25.351  32.962  1.00  0.00     0.002 A 
ATOM     65  C   UNL A   1      47.711  23.886  34.386  1.00  0.00     0.091 A 
ATOM     66  F   UNL A   1      45.331  23.923  34.222  1.00  0.00    -0.205 F 
ATOM     67  C   UNL A   1      48.955  24.361  33.940  1.00  0.00     0.022 A 
BRANCH  65  68
ATOM     68  S   UNL A   1      47.709  22.669  35.709  1.00  0.00     0.127 S 
ATOM     69  O   UNL A   1      49.138  22.476  35.939  1.00  0.00    -0.237 OA
ATOM     70  O   UNL A   1      47.007  23.371  36.784  1.00  0.00    -0.237 OA
ATOM     71  O   UNL A   1      46.992  21.517  35.179  1.00  0.00    -0.744 OA
ENDBRANCH  65  68
ENDBRANCH  38  61
ENDBRANCH  12  13
ENDBRANCH   5   7
ENDBRANCH   2   3
ENDBRANCH   1   2
BRANCH   1  72
ATOM     72  C   UNL A   1      33.003  34.568  28.634  1.00  0.00     0.117 C 
BRANCH  72  73
ATOM     73  N   UNL A   1      32.728  35.760  29.415  1.00  0.00    -0.354 N 
ATOM     74  C   UNL A   1      33.154  36.091  30.669  1.00  0.00     0.249 C 
ATOM     75  H   UNL A   1      32.149  36.425  28.978  1.00  0.00     0.163 HD
ATOM     76  O   UNL A   1      32.721  37.138  31.156  1.00  0.00    -0.272 OA
BRANCH  74  77
ATOM     77  C   UNL A   1      34.230  35.235  31.383  1.00  0.00     0.207 C 
ATOM     78  C   UNL A   1      34.922  36.010  32.502  1.00  0.00     0.045 C 
ATOM     79  O   UNL A   1      33.764  34.013  31.966  1.00  0.00    -0.364 OA
ATOM     80  C   UNL A   1      34.258  35.462  33.746  1.00  0.00     0.037 C 
ATOM     81  C   UNL A   1      34.028  34.009  33.379  1.00  0.00     0.134 C 
BRANCH  81  82
ATOM     82  C   UNL A   1      35.250  33.109  33.647  1.00  0.00     0.131 C 
BRANCH  82  83
ATOM     83  N   UNL A   1      35.880  33.445  34.938  1.00  0.00    -0.208 NA
ATOM     84  H   UNL A   1      35.253  33.131  35.678  1.00  0.00     0.141 HD
BRANCH  83  85
ATOM     85  S   UNL A   1      37.406  32.774  35.239  1.00  0.00     0.250 S 
ATOM     86  O   UNL A   1      37.312  32.007  36.460  1.00  0.00    -0.206 OA
ATOM     87  O   UNL A   1      37.806  32.167  33.987  1.00  0.00    -0.206 OA
BRANCH  85  88
ATOM     88  C   UNL A   1      38.553  34.087  35.596  1.00  0.00     0.134 A 
ATOM     89  C   UNL A   1      39.281  34.943  34.786  1.00  0.00     0.033 A 
ATOM     90  S   UNL A   1      38.800  34.455  37.253  1.00  0.00    -0.131 S 
ATOM     91  C   UNL A   1      40.059  35.877  35.529  1.00  0.00     0.013 A 
ATOM     92  C   UNL A   1      39.896  35.715  36.886  1.00  0.00     0.066 A 
ENDBRANCH  85  88
ENDBRANCH  83  85
ENDBRANCH  82  83
ENDBRANCH  81  82
ENDBRANCH  74  77
ENDBRANCH  72  73
ENDBRANCH   1  72
TORSDOF 17
ENDMDL
MODEL 2
REMARK VINA RESULT:     -10.6      4.251     10.749
REMARK SMILES O=C(NCCCNC(=O)[C@H]1CC[C@H](CNS(=O)(=O)c2cccs2)O1)c1ccc(-c2c3nc(c(-c4cccc(S(=O)(=O)[O-])c4F)c4ccc([nH]4)c(-c4cccc(S(=O)(=O)[O-])c4F)c4nc(c(-c5cccc(S(=O)(=O)[O-])c5F)c5ccc2[nH]5)C=C4)C=C3)cc1
REMARK SMILES IDX 5 1 4 2 3 3 1 4 2 5 25 7 26 8 87 9 27 10 86 11 28 12 29 13
REMARK SMILES IDX 30 14 80 15 31 16 85 17 79 18 81 19 32 20 84 21 78 22 77 23
REMARK SMILES IDX 33 25 65 26 45 27 64 28 46 29 49 30 63 31 82 32 47 33 48 34
REMARK SMILES IDX 62 36 83 37 50 38 34 39 35 40 43 41 36 42 38 43 44 44 37 45
REMARK SMILES IDX 39 46 40 47 41 48 42 49 66 50 67 51 75 52 68 53 70 54 76 55
REMARK SMILES IDX 69 56 71 57 72 58 73 59 74 60 51 61 52 62 60 63 53 64 55 65
REMARK SMILES IDX 61 66 54 67 56 68 57 69 58 70 59 71 6 72 7 73 8 74 9 76
REMARK SMILES IDX 10 77 11 78 24 79 12 80 13 81 14 82 15 83 16 85 17 86 18 87
REMARK SMILES IDX 19 88 20 89 23 90 21 91 22 92
REMARK H PARENT 3 6 81 24 49 35 7 75 15 84
REMARK Flexibility Score: inf
ROOT
ATOM      1  C   UNL A   1      31.398  32.152  26.493  1.00  0.00     0.042 C 
ENDROOT
BRANCH   1   2
ATOM      2  C   UNL A   1      32.673  32.645  27.178  1.00  0.00     0.118 C 
BRANCH   2   3
ATOM      3  N   UNL A   1      32.567  34.022  27.632  1.00  0.00    -0.352 N 
ATOM      4  O   UNL A   1      32.803  35.786  28.993  1.00  0.00    -0.269 OA
ATOM      5  C   UNL A   1      33.188  34.663  28.676  1.00  0.00     0.251 C 
ATOM      6  H   UNL A   1      31.951  34.585  27.108  1.00  0.00     0.163 HD
BRANCH   5   7
ATOM      7  C   UNL A   1      34.291  34.018  29.425  1.00  0.00     0.039 A 
ATOM      8  C   UNL A   1      34.043  33.060  30.413  1.00  0.00     0.014 A 
ATOM      9  C   UNL A   1      35.611  34.328  29.077  1.00  0.00     0.014 A 
ATOM     10  C   UNL A   1      35.105  32.496  31.121  1.00  0.00     0.010 A 
ATOM     11  C   UNL A   1      36.676  33.716  29.745  1.00  0.00     0.010 A 
ATOM     12  C   UNL A   1      36.433  32.813  30.791  1.00  0.00    -0.014 A 
BRANCH  12  13
ATOM     13  C   UNL A   1      37.551  32.139  31.498  1.00  0.00     0.031 A 
ATOM     14  C   UNL A   1      38.315  31.016  30.854  1.00  0.00     0.074 A 
ATOM     15  C   UNL A   1      37.870  32.541  32.744  1.00  0.00     0.049 A 
ATOM     16  N   UNL A   1      39.344  30.352  31.317  1.00  0.00    -0.248 NA
ATOM     17  C   UNL A   1      37.866  30.571  29.526  1.00  0.00     0.031 C 
ATOM     18  C   UNL A   1      37.163  33.579  33.498  1.00  0.00     0.029 A 
ATOM     19  N   UNL A   1      38.861  32.128  33.598  1.00  0.00    -0.354 N 
ATOM     20  C   UNL A   1      39.647  29.396  30.356  1.00  0.00     0.074 A 
ATOM     21  C   UNL A   1      38.687  29.556  29.285  1.00  0.00     0.031 C 
ATOM     22  C   UNL A   1      37.752  33.733  34.694  1.00  0.00     0.029 A 
ATOM     23  C   UNL A   1      38.859  32.789  34.803  1.00  0.00     0.049 A 
ATOM     24  H   UNL A   1      39.511  31.424  33.369  1.00  0.00     0.167 HD
ATOM     25  C   UNL A   1      40.649  28.484  30.355  1.00  0.00     0.034 A 
ATOM     26  C   UNL A   1      39.659  32.652  35.879  1.00  0.00     0.034 A 
ATOM     27  C   UNL A   1      41.631  28.355  31.399  1.00  0.00     0.049 A 
ATOM     28  C   UNL A   1      40.788  31.663  35.830  1.00  0.00     0.074 A 
ATOM     29  C   UNL A   1      42.726  27.510  31.451  1.00  0.00     0.029 A 
ATOM     30  N   UNL A   1      41.635  29.086  32.577  1.00  0.00    -0.354 N 
ATOM     31  N   UNL A   1      41.150  30.876  34.847  1.00  0.00    -0.248 NA
ATOM     32  C   UNL A   1      41.638  31.564  37.025  1.00  0.00     0.031 C 
ATOM     33  C   UNL A   1      43.390  27.728  32.664  1.00  0.00     0.029 A 
ATOM     34  C   UNL A   1      42.711  28.710  33.365  1.00  0.00     0.049 A 
ATOM     35  H   UNL A   1      40.972  29.772  32.819  1.00  0.00     0.167 HD
ATOM     36  C   UNL A   1      42.282  30.204  35.295  1.00  0.00     0.074 A 
ATOM     37  C   UNL A   1      42.561  30.697  36.628  1.00  0.00     0.031 C 
ATOM     38  C   UNL A   1      43.008  29.248  34.667  1.00  0.00     0.034 A 
BRANCH  25  39
ATOM     39  C   UNL A   1      40.782  27.587  29.153  1.00  0.00     0.023 A 
ATOM     40  C   UNL A   1      40.000  26.417  29.081  1.00  0.00     0.012 A 
ATOM     41  C   UNL A   1      41.608  27.936  28.067  1.00  0.00     0.148 A 
ATOM     42  C   UNL A   1      40.051  25.597  27.954  1.00  0.00     0.002 A 
ATOM     43  C   UNL A   1      41.631  27.130  26.934  1.00  0.00     0.091 A 
ATOM     44  F   UNL A   1      42.364  29.039  28.166  1.00  0.00    -0.205 F 
ATOM     45  C   UNL A   1      40.858  25.959  26.878  1.00  0.00     0.022 A 
BRANCH  43  46
ATOM     46  S   UNL A   1      42.590  27.549  25.473  1.00  0.00     0.127 S 
ATOM     47  O   UNL A   1      42.364  26.378  24.627  1.00  0.00    -0.237 OA
ATOM     48  O   UNL A   1      41.935  28.772  25.008  1.00  0.00    -0.237 OA
ATOM     49  O   UNL A   1      43.957  27.737  25.938  1.00  0.00    -0.744 OA
ENDBRANCH  43  46
ENDBRANCH  25  39
BRANCH  26  50
ATOM     50  C   UNL A   1      39.455  33.535  37.062  1.00  0.00     0.023 A 
ATOM     51  C   UNL A   1      39.887  34.875  37.003  1.00  0.00     0.012 A 
ATOM     52  C   UNL A   1      38.787  33.079  38.214  1.00  0.00     0.148 A 
ATOM     53  C   UNL A   1      39.671  35.738  38.078  1.00  0.00     0.002 A 
ATOM     54  C   UNL A   1      38.525  33.959  39.258  1.00  0.00     0.091 A 
ATOM     55  F   UNL A   1      38.404  31.795  38.263  1.00  0.00    -0.205 F 
ATOM     56  C   UNL A   1      38.978  35.285  39.198  1.00  0.00     0.022 A 
BRANCH  54  57
ATOM     57  S   UNL A   1      37.511  33.479  40.661  1.00  0.00     0.127 S 
ATOM     58  O   UNL A   1      37.412  34.731  41.404  1.00  0.00    -0.237 OA
ATOM     59  O   UNL A   1      36.270  33.045  40.016  1.00  0.00    -0.237 OA
ATOM     60  O   UNL A   1      38.249  32.402  41.308  1.00  0.00    -0.744 OA
ENDBRANCH  54  57
ENDBRANCH  26  50
BRANCH  38  61
ATOM     61  C   UNL A   1      44.184  28.672  35.407  1.00  0.00     0.023 A 
ATOM     62  C   UNL A   1      45.460  29.241  35.223  1.00  0.00     0.012 A 
ATOM     63  C   UNL A   1      44.020  27.623  36.331  1.00  0.00     0.148 A 
ATOM     64  C   UNL A   1      46.559  28.758  35.931  1.00  0.00     0.002 A 
ATOM     65  C   UNL A   1      45.113  27.172  37.062  1.00  0.00     0.091 A 
ATOM     66  F   UNL A   1      42.803  27.078  36.474  1.00  0.00    -0.205 F 
ATOM     67  C   UNL A   1      46.385  27.733  36.858  1.00  0.00     0.022 A 
BRANCH  65  68
ATOM     68  S   UNL A   1      44.953  25.912  38.333  1.00  0.00     0.127 S 
ATOM     69  O   UNL A   1      46.308  25.861  38.877  1.00  0.00    -0.237 OA
ATOM     70  O   UNL A   1      43.956  26.495  39.234  1.00  0.00    -0.237 OA
ATOM     71  O   UNL A   1      44.503  24.712  37.640  1.00  0.00    -0.744 OA
ENDBRANCH  65  68
ENDBRANCH  38  61
ENDBRANCH  12  13
ENDBRANCH   5   7
ENDBRANCH   2   3
ENDBRANCH   1   2
BRANCH   1  72
ATOM     72  C   UNL A   1      31.514  30.754  25.886  1.00  0.00     0.117 C 
BRANCH  72  73
ATOM     73  N   UNL A   1      30.653  30.588  24.731  1.00  0.00    -0.354 N 
ATOM     74  C   UNL A   1      30.630  29.585  23.805  1.00  0.00     0.249 C 
ATOM     75  H   UNL A   1      29.990  31.303  24.593  1.00  0.00     0.163 HD
ATOM     76  O   UNL A   1      29.846  29.705  22.860  1.00  0.00    -0.272 OA
BRANCH  74  77
ATOM     77  C   UNL A   1      31.473  28.303  24.017  1.00  0.00     0.207 C 
ATOM     78  C   UNL A   1      30.726  27.050  23.567  1.00  0.00     0.045 C 
ATOM     79  O   UNL A   1      32.741  28.278  23.351  1.00  0.00    -0.364 OA
ATOM     80  C   UNL A   1      31.360  26.746  22.228  1.00  0.00     0.037 C 
ATOM     81  C   UNL A   1      32.802  27.159  22.451  1.00  0.00     0.134 C 
BRANCH  81  82
ATOM     82  C   UNL A   1      33.662  26.055  23.098  1.00  0.00     0.131 C 
BRANCH  82  83
ATOM     83  N   UNL A   1      33.669  24.836  22.268  1.00  0.00    -0.208 NA
ATOM     84  H   UNL A   1      34.597  24.751  21.854  1.00  0.00     0.141 HD
BRANCH  83  85
ATOM     85  S   UNL A   1      33.321  23.377  23.054  1.00  0.00     0.250 S 
ATOM     86  O   UNL A   1      32.466  23.680  24.180  1.00  0.00    -0.206 OA
ATOM     87  O   UNL A   1      32.905  22.471  22.004  1.00  0.00    -0.206 OA
BRANCH  85  88
ATOM     88  C   UNL A   1      34.820  22.731  23.764  1.00  0.00     0.134 A 
ATOM     89  C   UNL A   1      36.150  22.826  23.391  1.00  0.00     0.033 A 
ATOM     90  S   UNL A   1      34.658  21.864  25.234  1.00  0.00    -0.131 S 
ATOM     91  C   UNL A   1      37.027  22.164  24.299  1.00  0.00     0.013 A 
ATOM     92  C   UNL A   1      36.340  21.589  25.345  1.00  0.00     0.066 A 
ENDBRANCH  85  88
ENDBRANCH  83  85
ENDBRANCH  82  83
ENDBRANCH  81  82
ENDBRANCH  74  77
ENDBRANCH  72  73
ENDBRANCH   1  72
TORSDOF 17
ENDMDL
MODEL 3
REMARK VINA RESULT:     -10.5      4.147      8.109
REMARK SMILES O=C(NCCCNC(=O)[C@H]1CC[C@H](CNS(=O)(=O)c2cccs2)O1)c1ccc(-c2c3nc(c(-c4cccc(S(=O)(=O)[O-])c4F)c4ccc([nH]4)c(-c4cccc(S(=O)(=O)[O-])c4F)c4nc(c(-c5cccc(S(=O)(=O)[O-])c5F)c5ccc2[nH]5)C=C4)C=C3)cc1
REMARK SMILES IDX 5 1 4 2 3 3 1 4 2 5 25 7 26 8 87 9 27 10 86 11 28 12 29 13
REMARK SMILES IDX 30 14 80 15 31 16 85 17 79 18 81 19 32 20 84 21 78 22 77 23
REMARK SMILES IDX 33 25 65 26 45 27 64 28 46 29 49 30 63 31 82 32 47 33 48 34
REMARK SMILES IDX 62 36 83 37 50 38 34 39 35 40 43 41 36 42 38 43 44 44 37 45
REMARK SMILES IDX 39 46 40 47 41 48 42 49 66 50 67 51 75 52 68 53 70 54 76 55
REMARK SMILES IDX 69 56 71 57 72 58 73 59 74 60 51 61 52 62 60 63 53 64 55 65
REMARK SMILES IDX 61 66 54 67 56 68 57 69 58 70 59 71 6 72 7 73 8 74 9 76
REMARK SMILES IDX 10 77 11 78 24 79 12 80 13 81 14 82 15 83 16 85 17 86 18 87
REMARK SMILES IDX 19 88 20 89 23 90 21 91 22 92
REMARK H PARENT 3 6 81 24 49 35 7 75 15 84
REMARK Flexibility Score: inf
ROOT
ATOM      1  C   UNL A   1      32.676  28.864  23.585  1.00  0.00     0.042 C 
ENDROOT
BRANCH   1   2
ATOM      2  C   UNL A   1      33.401  29.323  24.850  1.00  0.00     0.118 C 
BRANCH   2   3
ATOM      3  N   UNL A   1      32.749  30.453  25.490  1.00  0.00    -0.352 N 
ATOM      4  O   UNL A   1      32.207  31.890  27.121  1.00  0.00    -0.269 OA
ATOM      5  C   UNL A   1      33.011  31.066  26.691  1.00  0.00     0.251 C 
ATOM      6  H   UNL A   1      32.001  30.842  24.981  1.00  0.00     0.163 HD
BRANCH   5   7
ATOM      7  C   UNL A   1      34.226  30.736  27.471  1.00  0.00     0.039 A 
ATOM      8  C   UNL A   1      34.438  29.454  27.989  1.00  0.00     0.014 A 
ATOM      9  C   UNL A   1      35.212  31.717  27.626  1.00  0.00     0.014 A 
ATOM     10  C   UNL A   1      35.579  29.188  28.747  1.00  0.00     0.010 A 
ATOM     11  C   UNL A   1      36.383  31.431  28.334  1.00  0.00     0.010 A 
ATOM     12  C   UNL A   1      36.566  30.171  28.922  1.00  0.00    -0.014 A 
BRANCH  12  13
ATOM     13  C   UNL A   1      37.812  29.842  29.660  1.00  0.00     0.031 A 
ATOM     14  C   UNL A   1      38.084  30.415  31.024  1.00  0.00     0.074 A 
ATOM     15  C   UNL A   1      38.715  29.025  29.083  1.00  0.00     0.049 A 
ATOM     16  N   UNL A   1      39.100  30.195  31.819  1.00  0.00    -0.248 NA
ATOM     17  C   UNL A   1      37.097  31.363  31.564  1.00  0.00     0.031 C 
ATOM     18  C   UNL A   1      38.593  28.455  27.739  1.00  0.00     0.029 A 
ATOM     19  N   UNL A   1      39.911  28.536  29.544  1.00  0.00    -0.354 N 
ATOM     20  C   UNL A   1      38.893  30.994  32.936  1.00  0.00     0.074 A 
ATOM     21  C   UNL A   1      37.658  31.715  32.715  1.00  0.00     0.031 C 
ATOM     22  C   UNL A   1      39.660  27.682  27.490  1.00  0.00     0.029 A 
ATOM     23  C   UNL A   1      40.555  27.721  28.643  1.00  0.00     0.049 A 
ATOM     24  H   UNL A   1      40.273  28.748  30.434  1.00  0.00     0.167 HD
ATOM     25  C   UNL A   1      39.650  31.098  34.055  1.00  0.00     0.034 A 
ATOM     26  C   UNL A   1      41.734  27.075  28.732  1.00  0.00     0.034 A 
ATOM     27  C   UNL A   1      40.854  30.348  34.294  1.00  0.00     0.049 A 
ATOM     28  C   UNL A   1      42.529  27.176  30.002  1.00  0.00     0.074 A 
ATOM     29  C   UNL A   1      41.648  30.333  35.428  1.00  0.00     0.029 A 
ATOM     30  N   UNL A   1      41.441  29.483  33.384  1.00  0.00    -0.354 N 
ATOM     31  N   UNL A   1      42.236  27.816  31.107  1.00  0.00    -0.248 NA
ATOM     32  C   UNL A   1      43.801  26.441  30.051  1.00  0.00     0.031 C 
ATOM     33  C   UNL A   1      42.719  29.461  35.201  1.00  0.00     0.029 A 
ATOM     34  C   UNL A   1      42.590  28.931  33.928  1.00  0.00     0.049 A 
ATOM     35  H   UNL A   1      41.094  29.288  32.484  1.00  0.00     0.167 HD
ATOM     36  C   UNL A   1      43.274  27.546  31.991  1.00  0.00     0.074 A 
ATOM     37  C   UNL A   1      44.190  26.660  31.301  1.00  0.00     0.031 C 
ATOM     38  C   UNL A   1      43.463  28.009  33.250  1.00  0.00     0.034 A 
BRANCH  25  39
ATOM     39  C   UNL A   1      39.166  32.015  35.147  1.00  0.00     0.023 A 
ATOM     40  C   UNL A   1      38.214  31.540  36.071  1.00  0.00     0.012 A 
ATOM     41  C   UNL A   1      39.705  33.306  35.311  1.00  0.00     0.148 A 
ATOM     42  C   UNL A   1      37.792  32.339  37.132  1.00  0.00     0.002 A 
ATOM     43  C   UNL A   1      39.303  34.087  36.389  1.00  0.00     0.091 A 
ATOM     44  F   UNL A   1      40.590  33.750  34.408  1.00  0.00    -0.205 F 
ATOM     45  C   UNL A   1      38.344  33.608  37.296  1.00  0.00     0.022 A 
BRANCH  43  46
ATOM     46  S   UNL A   1      40.005  35.708  36.720  1.00  0.00     0.127 S 
ATOM     47  O   UNL A   1      41.428  35.393  36.841  1.00  0.00    -0.237 OA
ATOM     48  O   UNL A   1      39.648  36.456  35.514  1.00  0.00    -0.237 OA
ATOM     49  O   UNL A   1      39.357  36.179  37.936  1.00  0.00    -0.744 OA
ENDBRANCH  43  46
ENDBRANCH  25  39
BRANCH  26  50
ATOM     50  C   UNL A   1      42.187  26.215  27.602  1.00  0.00     0.023 A 
ATOM     51  C   UNL A   1      43.089  26.740  26.657  1.00  0.00     0.012 A 
ATOM     52  C   UNL A   1      41.781  24.872  27.492  1.00  0.00     0.148 A 
ATOM     53  C   UNL A   1      43.566  25.947  25.613  1.00  0.00     0.002 A 
ATOM     54  C   UNL A   1      42.304  24.071  26.483  1.00  0.00     0.091 A 
ATOM     55  F   UNL A   1      40.903  24.395  28.386  1.00  0.00    -0.205 F 
ATOM     56  C   UNL A   1      43.185  24.609  25.534  1.00  0.00     0.022 A 
BRANCH  54  57
ATOM     57  S   UNL A   1      41.969  22.307  26.415  1.00  0.00     0.127 S 
ATOM     58  O   UNL A   1      42.713  21.905  25.225  1.00  0.00    -0.237 OA
ATOM     59  O   UNL A   1      42.528  21.833  27.682  1.00  0.00    -0.237 OA
ATOM     60  O   UNL A   1      40.518  22.202  26.333  1.00  0.00    -0.744 OA
ENDBRANCH  54  57
ENDBRANCH  26  50
BRANCH  38  61
ATOM     61  C   UNL A   1      44.704  27.563  33.974  1.00  0.00     0.023 A 
ATOM     62  C   UNL A   1      45.868  28.352  33.897  1.00  0.00     0.012 A 
ATOM     63  C   UNL A   1      44.700  26.410  34.783  1.00  0.00     0.148 A 
ATOM     64  C   UNL A   1      47.018  27.987  34.596  1.00  0.00     0.002 A 
ATOM     65  C   UNL A   1      45.838  26.074  35.507  1.00  0.00     0.091 A 
ATOM     66  F   UNL A   1      43.590  25.658  34.824  1.00  0.00    -0.205 F 
ATOM     67  C   UNL A   1      47.000  26.856  35.409  1.00  0.00     0.022 A 
BRANCH  65  68
ATOM     68  S   UNL A   1      45.867  24.679  36.640  1.00  0.00     0.127 S 
ATOM     69  O   UNL A   1      47.295  24.543  36.912  1.00  0.00    -0.237 OA
ATOM     70  O   UNL A   1      45.075  25.171  37.769  1.00  0.00    -0.237 OA
ATOM     71  O   UNL A   1      45.252  23.574  35.916  1.00  0.00    -0.744 OA
ENDBRANCH  65  68
ENDBRANCH  38  61
ENDBRANCH  12  13
ENDBRANCH   5   7
ENDBRANCH   2   3
ENDBRANCH   1   2
BRANCH   1  72
ATOM     72  C   UNL A   1      31.522  27.895  23.841  1.00  0.00     0.117 C 
BRANCH  72  73
ATOM     73  N   UNL A   1      31.510  27.411  25.209  1.00  0.00    -0.354 N 
ATOM     74  C   UNL A   1      31.812  26.170  25.692  1.00  0.00     0.249 C 
ATOM     75  H   UNL A   1      31.244  28.073  25.887  1.00  0.00     0.163 HD
ATOM     76  O   UNL A   1      31.654  25.979  26.900  1.00  0.00    -0.272 OA
BRANCH  74  77
ATOM     77  C   UNL A   1      32.440  25.100  24.764  1.00  0.00     0.207 C 
ATOM     78  C   UNL A   1      33.889  25.431  24.416  1.00  0.00     0.045 C 
ATOM     79  O   UNL A   1      32.442  23.762  25.274  1.00  0.00    -0.364 OA
ATOM     80  C   UNL A   1      34.669  24.504  25.322  1.00  0.00     0.037 C 
ATOM     81  C   UNL A   1      33.790  23.269  25.359  1.00  0.00     0.134 C 
BRANCH  81  82
ATOM     82  C   UNL A   1      34.036  22.307  24.179  1.00  0.00     0.131 C 
BRANCH  82  83
ATOM     83  N   UNL A   1      34.132  20.912  24.647  1.00  0.00    -0.208 NA
ATOM     84  H   UNL A   1      34.312  20.935  25.650  1.00  0.00     0.141 HD
BRANCH  83  85
ATOM     85  S   UNL A   1      32.779  19.927  24.389  1.00  0.00     0.250 S 
ATOM     86  O   UNL A   1      31.777  20.298  25.363  1.00  0.00    -0.206 OA
ATOM     87  O   UNL A   1      32.522  20.001  22.967  1.00  0.00    -0.206 OA
BRANCH  85  88
ATOM     88  C   UNL A   1      33.209  18.243  24.776  1.00  0.00     0.134 A 
ATOM     89  C   UNL A   1      32.513  17.215  25.389  1.00  0.00     0.033 A 
ATOM     90  S   UNL A   1      34.753  17.711  24.254  1.00  0.00    -0.131 S 
ATOM     91  C   UNL A   1      33.261  16.004  25.453  1.00  0.00     0.013 A 
ATOM     92  C   UNL A   1      34.504  16.139  24.878  1.00  0.00     0.066 A 
ENDBRANCH  85  88
ENDBRANCH  83  85
ENDBRANCH  82  83
ENDBRANCH  81  82
ENDBRANCH  74  77
ENDBRANCH  72  73
ENDBRANCH   1  72
TORSDOF 17
ENDMDL
