MODEL 1
REMARK VINA RESULT:     -12.7      0.000      0.000
REMARK SMILES Cc1c(C)c2c(c(C)c1O)CC[C@@](C)(C(=O)NCCCNC(=O)c1ccc(-c3c4nc(c(-c5cccc(S(=O)(=O)[O-])c5F)c5ccc([nH]5)c(-c5cccc(S(=O)(=O)[O-])c5F)c5nc(c(-c6cccc(S(=O)(=O)[O-])c6F)c6ccc3[nH]6)C=C5)C=C4)cc1)O2
REMARK SMILES IDX 20 1 19 2 18 3 17 4 15 5 16 6 13 8 1 9 2 10 3 11 9 12 4 13
REMARK SMILES IDX 5 14 7 15 6 16 87 17 8 18 11 19 12 20 14 21 10 22 21 24
REMARK SMILES IDX 22 25 23 27 24 28 25 29 86 30 26 31 85 32 27 33 28 34 29 35
REMARK SMILES IDX 79 36 30 37 84 38 78 39 80 40 31 41 83 42 77 43 76 44 32 46
REMARK SMILES IDX 64 47 44 48 63 49 45 50 48 51 62 52 81 53 46 54 47 55 61 57
REMARK SMILES IDX 82 58 49 59 33 60 34 61 42 62 35 63 37 64 43 65 36 66 38 67
REMARK SMILES IDX 39 68 40 69 41 70 65 71 66 72 74 73 67 74 69 75 75 76 68 77
REMARK SMILES IDX 70 78 71 79 72 80 73 81 50 82 51 83 59 84 52 85 54 86 60 87
REMARK SMILES IDX 53 88 55 89 56 90 57 91 58 92
REMARK H PARENT 17 7 10 23 21 26 80 45 48 56
REMARK Flexibility Score: inf
ROOT
ATOM      1  C   UNL A   1      33.146  29.082  25.244  1.00  0.00     0.118 C 
ENDROOT
BRANCH   1   2
ATOM      2  C   UNL A   1      33.195  29.008  23.727  1.00  0.00     0.042 C 
BRANCH   2   3
ATOM      3  C   UNL A   1      32.085  28.157  23.126  1.00  0.00     0.118 C 
BRANCH   3   4
ATOM      4  N   UNL A   1      32.541  27.346  22.006  1.00  0.00    -0.353 N 
ATOM      5  C   UNL A   1      32.895  26.024  21.922  1.00  0.00     0.263 C 
ATOM      6  O   UNL A   1      33.224  25.616  20.804  1.00  0.00    -0.270 OA
ATOM      7  H   UNL A   1      32.609  27.835  21.155  1.00  0.00     0.163 HD
BRANCH   5   8
ATOM      8  C   UNL A   1      32.852  25.098  23.170  1.00  0.00     0.184 C 
ATOM      9  C   UNL A   1      32.199  19.114  24.220  1.00  0.00     0.049 C 
ATOM     10  C   UNL A   1      32.731  20.498  24.487  1.00  0.00    -0.002 A 
ATOM     11  C   UNL A   1      32.680  21.474  23.461  1.00  0.00    -0.002 A 
ATOM     12  C   UNL A   1      33.221  20.868  25.753  1.00  0.00     0.122 A 
ATOM     13  C   UNL A   1      32.153  21.115  22.093  1.00  0.00     0.049 C 
ATOM     14  C   UNL A   1      33.097  22.788  23.741  1.00  0.00     0.127 A 
ATOM     15  C   UNL A   1      33.661  22.169  26.032  1.00  0.00    -0.002 A 
ATOM     16  C   UNL A   1      33.616  23.133  25.004  1.00  0.00     0.001 A 
ATOM     17  O   UNL A   1      32.941  23.720  22.735  1.00  0.00    -0.477 OA
ATOM     18  C   UNL A   1      34.171  22.548  27.401  1.00  0.00     0.049 C 
ATOM     19  C   UNL A   1      34.072  24.539  25.279  1.00  0.00     0.044 C 
ATOM     20  C   UNL A   1      34.098  25.365  24.015  1.00  0.00     0.063 C 
ATOM     21  C   UNL A   1      31.463  25.265  23.825  1.00  0.00     0.067 C 
BRANCH  12  22
ATOM     22  O   UNL A   1      33.278  19.957  26.775  1.00  0.00    -0.507 OA
ATOM     23  H   UNL A   1      32.931  20.176  27.617  1.00  0.00     0.293 HD
ENDBRANCH  12  22
ENDBRANCH   5   8
ENDBRANCH   3   4
ENDBRANCH   2   3
ENDBRANCH   1   2
BRANCH   1  24
ATOM     24  N   UNL A   1      32.663  30.374  25.718  1.00  0.00    -0.352 N 
ATOM     25  C   UNL A   1      33.081  31.141  26.775  1.00  0.00     0.251 C 
ATOM     26  H   UNL A   1      31.921  30.756  25.195  1.00  0.00     0.163 HD
ATOM     27  O   UNL A   1      32.390  32.093  27.139  1.00  0.00    -0.269 OA
BRANCH  25  28
ATOM     28  C   UNL A   1      34.338  30.824  27.483  1.00  0.00     0.039 A 
ATOM     29  C   UNL A   1      35.308  31.820  27.627  1.00  0.00     0.014 A 
ATOM     30  C   UNL A   1      34.576  29.541  27.983  1.00  0.00     0.014 A 
ATOM     31  C   UNL A   1      36.487  31.543  28.323  1.00  0.00     0.010 A 
ATOM     32  C   UNL A   1      35.702  29.296  28.759  1.00  0.00     0.010 A 
ATOM     33  C   UNL A   1      36.679  30.287  28.921  1.00  0.00    -0.014 A 
BRANCH  33  34
ATOM     34  C   UNL A   1      37.904  29.984  29.702  1.00  0.00     0.031 A 
ATOM     35  C   UNL A   1      38.936  29.037  29.154  1.00  0.00     0.074 A 
ATOM     36  C   UNL A   1      38.051  30.501  30.938  1.00  0.00     0.049 A 
ATOM     37  N   UNL A   1      40.052  28.631  29.701  1.00  0.00    -0.248 NA
ATOM     38  C   UNL A   1      38.669  28.448  27.832  1.00  0.00     0.031 C 
ATOM     39  C   UNL A   1      37.079  31.365  31.610  1.00  0.00     0.029 A 
ATOM     40  N   UNL A   1      39.061  30.357  31.855  1.00  0.00    -0.354 N 
ATOM     41  C   UNL A   1      40.599  27.717  28.810  1.00  0.00     0.074 A 
ATOM     42  C   UNL A   1      39.673  27.593  27.707  1.00  0.00     0.031 C 
ATOM     43  C   UNL A   1      37.548  31.687  32.826  1.00  0.00     0.029 A 
ATOM     44  C   UNL A   1      38.835  31.030  33.032  1.00  0.00     0.049 A 
ATOM     45  H   UNL A   1      39.870  29.823  31.686  1.00  0.00     0.167 HD
ATOM     46  C   UNL A   1      41.785  27.067  28.883  1.00  0.00     0.034 A 
ATOM     47  C   UNL A   1      39.579  31.110  34.154  1.00  0.00     0.034 A 
ATOM     48  C   UNL A   1      42.722  27.231  29.960  1.00  0.00     0.049 A 
ATOM     49  C   UNL A   1      40.908  30.407  34.202  1.00  0.00     0.074 A 
ATOM     50  C   UNL A   1      43.993  26.698  30.078  1.00  0.00     0.029 A 
ATOM     51  N   UNL A   1      42.489  27.973  31.108  1.00  0.00    -0.354 N 
ATOM     52  N   UNL A   1      41.489  29.683  33.276  1.00  0.00    -0.248 NA
ATOM     53  C   UNL A   1      41.700  30.558  35.431  1.00  0.00     0.031 C 
ATOM     54  C   UNL A   1      44.514  27.088  31.315  1.00  0.00     0.029 A 
ATOM     55  C   UNL A   1      43.582  27.892  31.953  1.00  0.00     0.049 A 
ATOM     56  H   UNL A   1      41.667  28.480  31.295  1.00  0.00     0.167 HD
ATOM     57  C   UNL A   1      42.720  29.306  33.801  1.00  0.00     0.074 A 
ATOM     58  C   UNL A   1      42.813  29.906  35.116  1.00  0.00     0.031 C 
ATOM     59  C   UNL A   1      43.678  28.521  33.248  1.00  0.00     0.034 A 
BRANCH  46  60
ATOM     60  C   UNL A   1      42.159  26.160  27.738  1.00  0.00     0.023 A 
ATOM     61  C   UNL A   1      42.965  26.656  26.692  1.00  0.00     0.012 A 
ATOM     62  C   UNL A   1      41.767  24.807  27.725  1.00  0.00     0.148 A 
ATOM     63  C   UNL A   1      43.342  25.833  25.633  1.00  0.00     0.002 A 
ATOM     64  C   UNL A   1      42.189  23.980  26.691  1.00  0.00     0.091 A 
ATOM     65  F   UNL A   1      40.982  24.358  28.715  1.00  0.00    -0.205 F 
ATOM     66  C   UNL A   1      42.965  24.494  25.638  1.00  0.00     0.022 A 
BRANCH  64  67
ATOM     67  S   UNL A   1      41.834  22.220  26.653  1.00  0.00     0.127 S 
ATOM     68  O   UNL A   1      42.426  21.827  25.375  1.00  0.00    -0.237 OA
ATOM     69  O   UNL A   1      42.552  21.735  27.832  1.00  0.00    -0.237 OA
ATOM     70  O   UNL A   1      40.385  22.101  26.733  1.00  0.00    -0.744 OA
ENDBRANCH  64  67
ENDBRANCH  46  60
BRANCH  47  71
ATOM     71  C   UNL A   1      39.101  31.961  35.281  1.00  0.00     0.023 A 
ATOM     72  C   UNL A   1      38.243  31.404  36.248  1.00  0.00     0.012 A 
ATOM     73  C   UNL A   1      39.573  33.277  35.455  1.00  0.00     0.148 A 
ATOM     74  C   UNL A   1      37.857  32.144  37.367  1.00  0.00     0.002 A 
ATOM     75  C   UNL A   1      39.233  33.987  36.601  1.00  0.00     0.091 A 
ATOM     76  F   UNL A   1      40.385  33.788  34.519  1.00  0.00    -0.205 F 
ATOM     77  C   UNL A   1      38.363  33.428  37.552  1.00  0.00     0.022 A 
BRANCH  75  78
ATOM     78  S   UNL A   1      39.956  35.581  37.004  1.00  0.00     0.127 S 
ATOM     79  O   UNL A   1      39.277  35.913  38.254  1.00  0.00    -0.237 OA
ATOM     80  O   UNL A   1      41.372  35.239  37.143  1.00  0.00    -0.237 OA
ATOM     81  O   UNL A   1      39.653  36.453  35.876  1.00  0.00    -0.744 OA
ENDBRANCH  75  78
ENDBRANCH  47  71
BRANCH  59  82
ATOM     82  C   UNL A   1      44.922  28.243  34.054  1.00  0.00     0.023 A 
ATOM     83  C   UNL A   1      46.000  29.148  34.000  1.00  0.00     0.012 A 
ATOM     84  C   UNL A   1      44.972  27.162  34.957  1.00  0.00     0.148 A 
ATOM     85  C   UNL A   1      47.116  28.972  34.818  1.00  0.00     0.002 A 
ATOM     86  C   UNL A   1      46.064  27.022  35.806  1.00  0.00     0.091 A 
ATOM     87  F   UNL A   1      43.942  26.302  34.983  1.00  0.00    -0.205 F 
ATOM     88  C   UNL A   1      47.141  27.920  35.731  1.00  0.00     0.022 A 
BRANCH  86  89
ATOM     89  S   UNL A   1      46.138  25.767  37.090  1.00  0.00     0.127 S 
ATOM     90  O   UNL A   1      44.938  26.067  37.870  1.00  0.00    -0.237 OA
ATOM     91  O   UNL A   1      46.067  24.527  36.315  1.00  0.00    -0.237 OA
ATOM     92  O   UNL A   1      47.400  25.975  37.786  1.00  0.00    -0.744 OA
ENDBRANCH  86  89
ENDBRANCH  59  82
ENDBRANCH  33  34
ENDBRANCH  25  28
ENDBRANCH   1  24
TORSDOF 14
ENDMDL
MODEL 2
REMARK VINA RESULT:     -12.6      5.305      9.942
REMARK SMILES Cc1c(C)c2c(c(C)c1O)CC[C@@](C)(C(=O)NCCCNC(=O)c1ccc(-c3c4nc(c(-c5cccc(S(=O)(=O)[O-])c5F)c5ccc([nH]5)c(-c5cccc(S(=O)(=O)[O-])c5F)c5nc(c(-c6cccc(S(=O)(=O)[O-])c6F)c6ccc3[nH]6)C=C5)C=C4)cc1)O2
REMARK SMILES IDX 20 1 19 2 18 3 17 4 15 5 16 6 13 8 1 9 2 10 3 11 9 12 4 13
REMARK SMILES IDX 5 14 7 15 6 16 87 17 8 18 11 19 12 20 14 21 10 22 21 24
REMARK SMILES IDX 22 25 23 27 24 28 25 29 86 30 26 31 85 32 27 33 28 34 29 35
REMARK SMILES IDX 79 36 30 37 84 38 78 39 80 40 31 41 83 42 77 43 76 44 32 46
REMARK SMILES IDX 64 47 44 48 63 49 45 50 48 51 62 52 81 53 46 54 47 55 61 57
REMARK SMILES IDX 82 58 49 59 33 60 34 61 42 62 35 63 37 64 43 65 36 66 38 67
REMARK SMILES IDX 39 68 40 69 41 70 65 71 66 72 74 73 67 74 69 75 75 76 68 77
REMARK SMILES IDX 70 78 71 79 72 80 73 81 50 82 51 83 59 84 52 85 54 86 60 87
REMARK SMILES IDX 53 88 55 89 56 90 57 91 58 92
REMARK H PARENT 17 7 10 23 21 26 80 45 48 56
REMARK Flexibility Score: inf
ROOT
ATOM      1  C   UNL A   1      35.808  22.225  25.741  1.00  0.00     0.118 C 
ENDROOT
BRANCH   1   2
ATOM      2  C   UNL A   1      34.637  21.862  26.638  1.00  0.00     0.042 C 
BRANCH   2   3
ATOM      3  C   UNL A   1      33.330  21.671  25.881  1.00  0.00     0.118 C 
BRANCH   3   4
ATOM      4  N   UNL A   1      32.178  22.187  26.608  1.00  0.00    -0.353 N 
ATOM      5  C   UNL A   1      31.479  23.361  26.494  1.00  0.00     0.263 C 
ATOM      6  O   UNL A   1      30.516  23.500  27.255  1.00  0.00    -0.270 OA
ATOM      7  H   UNL A   1      31.841  21.584  27.309  1.00  0.00     0.163 HD
BRANCH   5   8
ATOM      8  C   UNL A   1      31.875  24.435  25.442  1.00  0.00     0.184 C 
ATOM      9  C   UNL A   1      29.024  28.886  22.376  1.00  0.00     0.049 C 
ATOM     10  C   UNL A   1      30.191  28.241  23.079  1.00  0.00    -0.002 A 
ATOM     11  C   UNL A   1      29.961  27.148  23.951  1.00  0.00    -0.002 A 
ATOM     12  C   UNL A   1      31.514  28.656  22.844  1.00  0.00     0.122 A 
ATOM     13  C   UNL A   1      28.554  26.670  24.221  1.00  0.00     0.049 C 
ATOM     14  C   UNL A   1      31.059  26.493  24.537  1.00  0.00     0.127 A 
ATOM     15  C   UNL A   1      32.612  28.024  23.443  1.00  0.00    -0.002 A 
ATOM     16  C   UNL A   1      32.376  26.943  24.315  1.00  0.00     0.001 A 
ATOM     17  O   UNL A   1      30.786  25.378  25.303  1.00  0.00    -0.477 OA
ATOM     18  C   UNL A   1      34.025  28.477  23.167  1.00  0.00     0.049 C 
ATOM     19  C   UNL A   1      33.537  26.240  24.964  1.00  0.00     0.044 C 
ATOM     20  C   UNL A   1      33.067  25.226  25.981  1.00  0.00     0.063 C 
ATOM     21  C   UNL A   1      32.015  23.720  24.079  1.00  0.00     0.067 C 
BRANCH  12  22
ATOM     22  O   UNL A   1      31.780  29.703  22.000  1.00  0.00    -0.507 OA
ATOM     23  H   UNL A   1      31.301  29.792  21.199  1.00  0.00     0.293 HD
ENDBRANCH  12  22
ENDBRANCH   5   8
ENDBRANCH   3   4
ENDBRANCH   2   3
ENDBRANCH   1   2
BRANCH   1  24
ATOM     24  N   UNL A   1      36.777  21.142  25.633  1.00  0.00    -0.352 N 
ATOM     25  C   UNL A   1      38.147  21.170  25.697  1.00  0.00     0.251 C 
ATOM     26  H   UNL A   1      36.386  20.249  25.492  1.00  0.00     0.163 HD
ATOM     27  O   UNL A   1      38.788  20.175  25.357  1.00  0.00    -0.269 OA
BRANCH  25  28
ATOM     28  C   UNL A   1      38.853  22.384  26.157  1.00  0.00     0.039 A 
ATOM     29  C   UNL A   1      39.974  22.249  26.980  1.00  0.00     0.014 A 
ATOM     30  C   UNL A   1      38.398  23.656  25.801  1.00  0.00     0.014 A 
ATOM     31  C   UNL A   1      40.670  23.386  27.395  1.00  0.00     0.010 A 
ATOM     32  C   UNL A   1      39.147  24.779  26.130  1.00  0.00     0.010 A 
ATOM     33  C   UNL A   1      40.279  24.659  26.948  1.00  0.00    -0.014 A 
BRANCH  33  34
ATOM     34  C   UNL A   1      41.029  25.878  27.339  1.00  0.00     0.031 A 
ATOM     35  C   UNL A   1      40.349  26.964  28.127  1.00  0.00     0.074 A 
ATOM     36  C   UNL A   1      42.299  26.044  26.919  1.00  0.00     0.049 A 
ATOM     37  N   UNL A   1      40.831  28.109  28.535  1.00  0.00    -0.248 NA
ATOM     38  C   UNL A   1      38.936  26.750  28.481  1.00  0.00     0.031 C 
ATOM     39  C   UNL A   1      43.038  25.099  26.080  1.00  0.00     0.029 A 
ATOM     40  N   UNL A   1      43.183  27.072  27.122  1.00  0.00    -0.354 N 
ATOM     41  C   UNL A   1      39.777  28.763  29.159  1.00  0.00     0.074 A 
ATOM     42  C   UNL A   1      38.617  27.908  29.039  1.00  0.00     0.031 C 
ATOM     43  C   UNL A   1      44.268  25.584  25.853  1.00  0.00     0.029 A 
ATOM     44  C   UNL A   1      44.396  26.886  26.503  1.00  0.00     0.049 A 
ATOM     45  H   UNL A   1      42.970  27.868  27.660  1.00  0.00     0.167 HD
ATOM     46  C   UNL A   1      39.781  29.951  29.808  1.00  0.00     0.034 A 
ATOM     47  C   UNL A   1      45.490  27.673  26.460  1.00  0.00     0.034 A 
ATOM     48  C   UNL A   1      40.950  30.773  29.966  1.00  0.00     0.049 A 
ATOM     49  C   UNL A   1      45.486  28.973  27.216  1.00  0.00     0.074 A 
ATOM     50  C   UNL A   1      41.083  31.942  30.693  1.00  0.00     0.029 A 
ATOM     51  N   UNL A   1      42.181  30.521  29.379  1.00  0.00    -0.354 N 
ATOM     52  N   UNL A   1      44.531  29.496  27.947  1.00  0.00    -0.248 NA
ATOM     53  C   UNL A   1      46.716  29.775  27.172  1.00  0.00     0.031 C 
ATOM     54  C   UNL A   1      42.386  32.417  30.515  1.00  0.00     0.029 A 
ATOM     55  C   UNL A   1      43.074  31.527  29.706  1.00  0.00     0.049 A 
ATOM     56  H   UNL A   1      42.388  29.743  28.813  1.00  0.00     0.167 HD
ATOM     57  C   UNL A   1      45.047  30.678  28.464  1.00  0.00     0.074 A 
ATOM     58  C   UNL A   1      46.412  30.780  27.985  1.00  0.00     0.031 C 
ATOM     59  C   UNL A   1      44.441  31.602  29.251  1.00  0.00     0.034 A 
BRANCH  46  60
ATOM     60  C   UNL A   1      38.493  30.405  30.447  1.00  0.00     0.023 A 
ATOM     61  C   UNL A   1      38.252  30.119  31.807  1.00  0.00     0.012 A 
ATOM     62  C   UNL A   1      37.553  31.165  29.724  1.00  0.00     0.148 A 
ATOM     63  C   UNL A   1      37.078  30.546  32.426  1.00  0.00     0.002 A 
ATOM     64  C   UNL A   1      36.409  31.630  30.363  1.00  0.00     0.091 A 
ATOM     65  F   UNL A   1      37.788  31.409  28.427  1.00  0.00    -0.205 F 
ATOM     66  C   UNL A   1      36.164  31.311  31.709  1.00  0.00     0.022 A 
BRANCH  64  67
ATOM     67  S   UNL A   1      35.215  32.699  29.552  1.00  0.00     0.127 S 
ATOM     68  O   UNL A   1      34.239  32.912  30.619  1.00  0.00    -0.237 OA
ATOM     69  O   UNL A   1      36.025  33.873  29.224  1.00  0.00    -0.237 OA
ATOM     70  O   UNL A   1      34.729  31.955  28.399  1.00  0.00    -0.744 OA
ENDBRANCH  64  67
ENDBRANCH  46  60
BRANCH  47  71
ATOM     71  C   UNL A   1      46.700  27.192  25.735  1.00  0.00     0.023 A 
ATOM     72  C   UNL A   1      47.468  26.152  26.291  1.00  0.00     0.012 A 
ATOM     73  C   UNL A   1      47.030  27.683  24.455  1.00  0.00     0.148 A 
ATOM     74  C   UNL A   1      48.549  25.612  25.591  1.00  0.00     0.002 A 
ATOM     75  C   UNL A   1      48.070  27.101  23.738  1.00  0.00     0.091 A 
ATOM     76  F   UNL A   1      46.288  28.677  23.947  1.00  0.00    -0.205 F 
ATOM     77  C   UNL A   1      48.840  26.075  24.310  1.00  0.00     0.022 A 
BRANCH  75  78
ATOM     78  S   UNL A   1      48.421  27.520  22.028  1.00  0.00     0.127 S 
ATOM     79  O   UNL A   1      49.613  28.355  22.161  1.00  0.00    -0.237 OA
ATOM     80  O   UNL A   1      48.654  26.201  21.440  1.00  0.00    -0.237 OA
ATOM     81  O   UNL A   1      47.232  28.202  21.532  1.00  0.00    -0.744 OA
ENDBRANCH  75  78
ENDBRANCH  47  71
BRANCH  59  82
ATOM     82  C   UNL A   1      45.230  32.823  29.651  1.00  0.00     0.023 A 
ATOM     83  C   UNL A   1      46.029  32.784  30.811  1.00  0.00     0.012 A 
ATOM     84  C   UNL A   1      45.281  33.957  28.815  1.00  0.00     0.148 A 
ATOM     85  C   UNL A   1      46.851  33.859  31.143  1.00  0.00     0.002 A 
ATOM     86  C   UNL A   1      46.143  35.003  29.124  1.00  0.00     0.091 A 
ATOM     87  F   UNL A   1      44.502  33.981  27.723  1.00  0.00    -0.205 F 
ATOM     88  C   UNL A   1      46.921  34.961  30.292  1.00  0.00     0.022 A 
BRANCH  86  89
ATOM     89  S   UNL A   1      46.384  36.413  28.035  1.00  0.00     0.127 S 
ATOM     90  O   UNL A   1      46.811  35.762  26.797  1.00  0.00    -0.237 OA
ATOM     91  O   UNL A   1      45.044  36.998  27.986  1.00  0.00    -0.237 OA
ATOM     92  O   UNL A   1      47.389  37.250  28.675  1.00  0.00    -0.744 OA
ENDBRANCH  86  89
ENDBRANCH  59  82
ENDBRANCH  33  34
ENDBRANCH  25  28
ENDBRANCH   1  24
TORSDOF 14
ENDMDL
MODEL 3
REMARK VINA RESULT:     -12.6      4.864      7.569
REMARK SMILES Cc1c(C)c2c(c(C)c1O)CC[C@@](C)(C(=O)NCCCNC(=O)c1ccc(-c3c4nc(c(-c5cccc(S(=O)(=O)[O-])c5F)c5ccc([nH]5)c(-c5cccc(S(=O)(=O)[O-])c5F)c5nc(c(-c6cccc(S(=O)(=O)[O-])c6F)c6ccc3[nH]6)C=C5)C=C4)cc1)O2
REMARK SMILES IDX 20 1 19 2 18 3 17 4 15 5 16 6 13 8 1 9 2 10 3 11 9 12 4 13
REMARK SMILES IDX 5 14 7 15 6 16 87 17 8 18 11 19 12 20 14 21 10 22 21 24
REMARK SMILES IDX 22 25 23 27 24 28 25 29 86 30 26 31 85 32 27 33 28 34 29 35
REMARK SMILES IDX 79 36 30 37 84 38 78 39 80 40 31 41 83 42 77 43 76 44 32 46
REMARK SMILES IDX 64 47 44 48 63 49 45 50 48 51 62 52 81 53 46 54 47 55 61 57
REMARK SMILES IDX 82 58 49 59 33 60 34 61 42 62 35 63 37 64 43 65 36 66 38 67
REMARK SMILES IDX 39 68 40 69 41 70 65 71 66 72 74 73 67 74 69 75 75 76 68 77
REMARK SMILES IDX 70 78 71 79 72 80 73 81 50 82 51 83 59 84 52 85 54 86 60 87
REMARK SMILES IDX 53 88 55 89 56 90 57 91 58 92
REMARK H PARENT 17 7 10 23 21 26 80 45 48 56
REMARK Flexibility Score: inf
ROOT
ATOM      1  C   UNL A   1      35.936  22.328  25.786  1.00  0.00     0.118 C 
ENDROOT
BRANCH   1   2
ATOM      2  C   UNL A   1      34.763  21.990  26.690  1.00  0.00     0.042 C 
BRANCH   2   3
ATOM      3  C   UNL A   1      33.470  21.723  25.930  1.00  0.00     0.118 C 
BRANCH   3   4
ATOM      4  N   UNL A   1      32.292  22.208  26.637  1.00  0.00    -0.353 N 
ATOM      5  C   UNL A   1      31.560  23.359  26.505  1.00  0.00     0.263 C 
ATOM      6  O   UNL A   1      30.582  23.473  27.250  1.00  0.00    -0.270 OA
ATOM      7  H   UNL A   1      31.963  21.599  27.336  1.00  0.00     0.163 HD
BRANCH   5   8
ATOM      8  C   UNL A   1      31.939  24.438  25.451  1.00  0.00     0.184 C 
ATOM      9  C   UNL A   1      29.017  28.836  22.376  1.00  0.00     0.049 C 
ATOM     10  C   UNL A   1      30.193  28.212  23.081  1.00  0.00    -0.002 A 
ATOM     11  C   UNL A   1      29.981  27.116  23.954  1.00  0.00    -0.002 A 
ATOM     12  C   UNL A   1      31.510  28.649  22.847  1.00  0.00     0.122 A 
ATOM     13  C   UNL A   1      28.582  26.615  24.223  1.00  0.00     0.049 C 
ATOM     14  C   UNL A   1      31.089  26.481  24.542  1.00  0.00     0.127 A 
ATOM     15  C   UNL A   1      32.617  28.037  23.448  1.00  0.00    -0.002 A 
ATOM     16  C   UNL A   1      32.398  26.953  24.322  1.00  0.00     0.001 A 
ATOM     17  O   UNL A   1      30.834  25.363  25.310  1.00  0.00    -0.477 OA
ATOM     18  C   UNL A   1      34.023  28.513  23.174  1.00  0.00     0.049 C 
ATOM     19  C   UNL A   1      33.570  26.270  24.974  1.00  0.00     0.044 C 
ATOM     20  C   UNL A   1      33.116  25.251  25.991  1.00  0.00     0.063 C 
ATOM     21  C   UNL A   1      32.093  23.725  24.090  1.00  0.00     0.067 C 
BRANCH  12  22
ATOM     22  O   UNL A   1      31.758  29.700  22.002  1.00  0.00    -0.507 OA
ATOM     23  H   UNL A   1      32.578  30.152  22.046  1.00  0.00     0.293 HD
ENDBRANCH  12  22
ENDBRANCH   5   8
ENDBRANCH   3   4
ENDBRANCH   2   3
ENDBRANCH   1   2
BRANCH   1  24
ATOM     24  N   UNL A   1      36.951  21.282  25.784  1.00  0.00    -0.352 N 
ATOM     25  C   UNL A   1      38.314  21.370  25.915  1.00  0.00     0.251 C 
ATOM     26  H   UNL A   1      36.603  20.367  25.672  1.00  0.00     0.163 HD
ATOM     27  O   UNL A   1      39.009  20.387  25.661  1.00  0.00    -0.269 OA
BRANCH  25  28
ATOM     28  C   UNL A   1      38.947  22.635  26.344  1.00  0.00     0.039 A 
ATOM     29  C   UNL A   1      40.026  22.589  27.231  1.00  0.00     0.014 A 
ATOM     30  C   UNL A   1      38.464  23.867  25.896  1.00  0.00     0.014 A 
ATOM     31  C   UNL A   1      40.655  23.774  27.618  1.00  0.00     0.010 A 
ATOM     32  C   UNL A   1      39.151  25.035  26.202  1.00  0.00     0.010 A 
ATOM     33  C   UNL A   1      40.241  25.005  27.082  1.00  0.00    -0.014 A 
BRANCH  33  34
ATOM     34  C   UNL A   1      40.921  26.272  27.445  1.00  0.00     0.031 A 
ATOM     35  C   UNL A   1      42.351  26.505  27.043  1.00  0.00     0.074 A 
ATOM     36  C   UNL A   1      40.276  27.182  28.202  1.00  0.00     0.049 A 
ATOM     37  N   UNL A   1      43.118  27.534  27.291  1.00  0.00    -0.248 NA
ATOM     38  C   UNL A   1      43.017  25.432  26.286  1.00  0.00     0.031 C 
ATOM     39  C   UNL A   1      38.916  27.033  28.722  1.00  0.00     0.029 A 
ATOM     40  N   UNL A   1      40.685  28.401  28.681  1.00  0.00    -0.354 N 
ATOM     41  C   UNL A   1      44.360  27.220  26.756  1.00  0.00     0.074 A 
ATOM     42  C   UNL A   1      44.259  25.886  26.207  1.00  0.00     0.031 C 
ATOM     43  C   UNL A   1      38.598  28.124  29.435  1.00  0.00     0.029 A 
ATOM     44  C   UNL A   1      39.739  29.035  29.450  1.00  0.00     0.049 A 
ATOM     45  H   UNL A   1      41.572  28.783  28.494  1.00  0.00     0.167 HD
ATOM     46  C   UNL A   1      45.475  27.985  26.691  1.00  0.00     0.034 A 
ATOM     47  C   UNL A   1      39.782  30.219  30.096  1.00  0.00     0.034 A 
ATOM     48  C   UNL A   1      45.554  29.328  27.196  1.00  0.00     0.049 A 
ATOM     49  C   UNL A   1      41.017  31.069  29.983  1.00  0.00     0.074 A 
ATOM     50  C   UNL A   1      46.602  30.224  27.089  1.00  0.00     0.029 A 
ATOM     51  N   UNL A   1      44.552  29.966  27.913  1.00  0.00    -0.354 N 
ATOM     52  N   UNL A   1      42.125  30.826  29.324  1.00  0.00    -0.248 NA
ATOM     53  C   UNL A   1      40.999  32.367  30.671  1.00  0.00     0.031 C 
ATOM     54  C   UNL A   1      46.249  31.390  27.773  1.00  0.00     0.029 A 
ATOM     55  C   UNL A   1      44.967  31.235  28.278  1.00  0.00     0.049 A 
ATOM     56  H   UNL A   1      43.677  29.573  28.132  1.00  0.00     0.167 HD
ATOM     57  C   UNL A   1      42.930  31.946  29.503  1.00  0.00     0.074 A 
ATOM     58  C   UNL A   1      42.170  32.880  30.308  1.00  0.00     0.031 C 
ATOM     59  C   UNL A   1      44.189  32.171  29.052  1.00  0.00     0.034 A 
BRANCH  46  60
ATOM     60  C   UNL A   1      46.684  27.407  26.000  1.00  0.00     0.023 A 
ATOM     61  C   UNL A   1      46.820  27.547  24.603  1.00  0.00     0.012 A 
ATOM     62  C   UNL A   1      47.710  26.782  26.734  1.00  0.00     0.148 A 
ATOM     63  C   UNL A   1      47.938  27.039  23.943  1.00  0.00     0.002 A 
ATOM     64  C   UNL A   1      48.845  26.324  26.075  1.00  0.00     0.091 A 
ATOM     65  F   UNL A   1      47.554  26.637  28.058  1.00  0.00    -0.205 F 
ATOM     66  C   UNL A   1      48.954  26.439  24.679  1.00  0.00     0.022 A 
BRANCH  64  67
ATOM     67  S   UNL A   1      50.251  25.618  26.943  1.00  0.00     0.127 S 
ATOM     68  O   UNL A   1      50.612  26.706  27.850  1.00  0.00    -0.237 OA
ATOM     69  O   UNL A   1      49.655  24.452  27.596  1.00  0.00    -0.237 OA
ATOM     70  O   UNL A   1      51.237  25.303  25.920  1.00  0.00    -0.744 OA
ENDBRANCH  64  67
ENDBRANCH  46  60
BRANCH  47  71
ATOM     71  C   UNL A   1      38.572  30.686  30.832  1.00  0.00     0.023 A 
ATOM     72  C   UNL A   1      38.545  30.598  32.236  1.00  0.00     0.012 A 
ATOM     73  C   UNL A   1      37.502  31.310  30.159  1.00  0.00     0.148 A 
ATOM     74  C   UNL A   1      37.470  31.117  32.960  1.00  0.00     0.002 A 
ATOM     75  C   UNL A   1      36.464  31.878  30.889  1.00  0.00     0.091 A 
ATOM     76  F   UNL A   1      37.548  31.377  28.821  1.00  0.00    -0.205 F 
ATOM     77  C   UNL A   1      36.438  31.770  32.289  1.00  0.00     0.022 A 
BRANCH  75  78
ATOM     78  S   UNL A   1      35.175  32.870  30.129  1.00  0.00     0.127 S 
ATOM     79  O   UNL A   1      34.330  33.196  31.276  1.00  0.00    -0.237 OA
ATOM     80  O   UNL A   1      35.942  33.993  29.589  1.00  0.00    -0.237 OA
ATOM     81  O   UNL A   1      34.558  32.019  29.120  1.00  0.00    -0.744 OA
ENDBRANCH  75  78
ENDBRANCH  47  71
BRANCH  59  82
ATOM     82  C   UNL A   1      44.852  33.476  29.418  1.00  0.00     0.023 A 
ATOM     83  C   UNL A   1      45.682  33.537  30.554  1.00  0.00     0.012 A 
ATOM     84  C   UNL A   1      44.755  34.598  28.570  1.00  0.00     0.148 A 
ATOM     85  C   UNL A   1      46.392  34.700  30.851  1.00  0.00     0.002 A 
ATOM     86  C   UNL A   1      45.506  35.735  28.844  1.00  0.00     0.091 A 
ATOM     87  F   UNL A   1      43.948  34.524  27.502  1.00  0.00    -0.205 F 
ATOM     88  C   UNL A   1      46.317  35.792  29.989  1.00  0.00     0.022 A 
BRANCH  86  89
ATOM     89  S   UNL A   1      45.561  37.149  27.736  1.00  0.00     0.127 S 
ATOM     90  O   UNL A   1      46.025  36.535  26.493  1.00  0.00    -0.237 OA
ATOM     91  O   UNL A   1      44.164  37.583  27.718  1.00  0.00    -0.237 OA
ATOM     92  O   UNL A   1      46.484  38.100  28.340  1.00  0.00    -0.744 OA
ENDBRANCH  86  89
ENDBRANCH  59  82
ENDBRANCH  33  34
ENDBRANCH  25  28
ENDBRANCH   1  24
TORSDOF 14
ENDMDL
