MODEL 1
REMARK VINA RESULT:     -11.9      0.000      0.000
REMARK SMILES Cn1c(Cn2nnc3ccccc32)nnc1SCC(=O)NCCCNC(=O)c1ccc(-c2c3nc(c(-c4cccc(S(=O)(=O)[O-])c4F)c4ccc([nH]4)c(-c4cccc(S(=O)(=O)[O-])c4F)c4nc(c(-c5cccc(S(=O)(=O)[O-])c5F)c5ccc2[nH]5)C=C4)C=C3)cc1
REMARK SMILES IDX 22 1 21 2 19 3 20 4 18 6 17 7 16 8 1 9 2 10 3 11 14 12 15 13
REMARK SMILES IDX 4 14 5 15 6 16 13 17 7 18 8 19 12 20 9 21 11 22 10 23 23 24
REMARK SMILES IDX 24 25 25 26 26 27 27 29 28 30 29 31 90 32 30 33 89 34 31 35
REMARK SMILES IDX 32 36 33 37 83 38 34 39 88 40 82 41 84 42 35 43 87 44 81 45
REMARK SMILES IDX 80 46 36 48 68 49 48 50 67 51 49 52 52 53 66 54 85 55 50 56
REMARK SMILES IDX 51 57 65 59 86 60 53 61 37 62 38 63 46 64 39 65 41 66 47 67
REMARK SMILES IDX 40 68 42 69 43 70 44 71 45 72 69 73 70 74 78 75 71 76 73 77
REMARK SMILES IDX 79 78 72 79 74 80 75 81 76 82 77 83 54 84 55 85 63 86 56 87
REMARK SMILES IDX 58 88 64 89 57 90 59 91 60 92 61 93 62 94
REMARK H PARENT 21 5 25 28 84 47 52 58
REMARK Flexibility Score: inf
ROOT
ATOM      1  C   UNL A   1      33.298  30.419  26.654  1.00  0.00     0.117 C 
ENDROOT
BRANCH   1   2
ATOM      2  N   UNL A   1      32.293  29.633  27.350  1.00  0.00    -0.355 N 
ATOM      3  C   UNL A   1      32.016  28.305  27.273  1.00  0.00     0.230 C 
ATOM      4  O   UNL A   1      31.139  27.853  28.017  1.00  0.00    -0.274 OA
ATOM      5  H   UNL A   1      31.724  30.140  27.973  1.00  0.00     0.163 HD
BRANCH   3   6
ATOM      6  C   UNL A   1      32.795  27.384  26.368  1.00  0.00     0.178 C 
BRANCH   6   7
ATOM      7  S   UNL A   1      31.841  26.255  25.362  1.00  0.00    -0.076 SA
BRANCH   7   8
ATOM      8  C   UNL A   1      32.691  24.773  25.123  1.00  0.00     0.191 A 
ATOM      9  C   UNL A   1      31.404  23.057  26.499  1.00  0.00     0.154 C 
ATOM     10  N   UNL A   1      32.465  23.528  25.650  1.00  0.00    -0.308 N 
ATOM     11  C   UNL A   1      33.547  22.755  25.260  1.00  0.00     0.155 A 
ATOM     12  N   UNL A   1      34.386  23.520  24.596  1.00  0.00    -0.132 NA
ATOM     13  N   UNL A   1      33.848  24.767  24.500  1.00  0.00    -0.123 NA
BRANCH  11  14
ATOM     14  C   UNL A   1      33.776  21.327  25.618  1.00  0.00     0.224 C 
BRANCH  14  15
ATOM     15  N   UNL A   1      33.315  20.420  24.580  1.00  0.00    -0.237 N 
ATOM     16  N   UNL A   1      32.321  20.811  23.753  1.00  0.00    -0.066 NA
ATOM     17  C   UNL A   1      33.665  19.111  24.361  1.00  0.00     0.089 A 
ATOM     18  N   UNL A   1      32.053  19.796  22.940  1.00  0.00    -0.130 NA
ATOM     19  C   UNL A   1      32.868  18.750  23.281  1.00  0.00     0.113 A 
ATOM     20  C   UNL A   1      34.586  18.236  24.950  1.00  0.00     0.030 A 
ATOM     21  C   UNL A   1      32.991  17.466  22.730  1.00  0.00     0.032 A 
ATOM     22  C   UNL A   1      34.709  16.966  24.377  1.00  0.00     0.002 A 
ATOM     23  C   UNL A   1      33.929  16.584  23.285  1.00  0.00     0.002 A 
ENDBRANCH  14  15
ENDBRANCH  11  14
ENDBRANCH   7   8
ENDBRANCH   6   7
ENDBRANCH   3   6
ENDBRANCH   1   2
BRANCH   1  24
ATOM     24  C   UNL A   1      34.420  30.891  27.581  1.00  0.00     0.042 C 
BRANCH  24  25
ATOM     25  C   UNL A   1      34.238  32.296  28.156  1.00  0.00     0.118 C 
BRANCH  25  26
ATOM     26  N   UNL A   1      34.170  32.357  29.604  1.00  0.00    -0.352 N 
ATOM     27  C   UNL A   1      35.044  32.154  30.637  1.00  0.00     0.251 C 
ATOM     28  H   UNL A   1      33.273  32.607  29.921  1.00  0.00     0.163 HD
ATOM     29  O   UNL A   1      34.628  32.513  31.743  1.00  0.00    -0.269 OA
BRANCH  27  30
ATOM     30  C   UNL A   1      36.375  31.492  30.550  1.00  0.00     0.039 A 
ATOM     31  C   UNL A   1      37.604  32.134  30.425  1.00  0.00     0.014 A 
ATOM     32  C   UNL A   1      36.353  30.080  30.535  1.00  0.00     0.014 A 
ATOM     33  C   UNL A   1      38.764  31.387  30.203  1.00  0.00     0.010 A 
ATOM     34  C   UNL A   1      37.508  29.331  30.320  1.00  0.00     0.010 A 
ATOM     35  C   UNL A   1      38.713  29.988  30.112  1.00  0.00    -0.014 A 
BRANCH  35  36
ATOM     36  C   UNL A   1      39.970  29.248  29.979  1.00  0.00     0.031 A 
ATOM     37  C   UNL A   1      40.666  29.037  31.278  1.00  0.00     0.074 A 
ATOM     38  C   UNL A   1      40.460  28.710  28.840  1.00  0.00     0.049 A 
ATOM     39  N   UNL A   1      41.756  29.609  31.672  1.00  0.00    -0.248 NA
ATOM     40  C   UNL A   1      40.001  28.232  32.312  1.00  0.00     0.031 C 
ATOM     41  C   UNL A   1      39.799  28.615  27.537  1.00  0.00     0.029 A 
ATOM     42  N   UNL A   1      41.634  28.035  28.634  1.00  0.00    -0.354 N 
ATOM     43  C   UNL A   1      42.048  29.038  32.905  1.00  0.00     0.074 A 
ATOM     44  C   UNL A   1      40.857  28.351  33.330  1.00  0.00     0.031 C 
ATOM     45  C   UNL A   1      40.467  27.731  26.760  1.00  0.00     0.029 A 
ATOM     46  C   UNL A   1      41.667  27.292  27.451  1.00  0.00     0.049 A 
ATOM     47  H   UNL A   1      42.389  28.069  29.264  1.00  0.00     0.167 HD
ATOM     48  C   UNL A   1      43.331  28.949  33.349  1.00  0.00     0.034 A 
ATOM     49  C   UNL A   1      42.582  26.350  27.098  1.00  0.00     0.034 A 
ATOM     50  C   UNL A   1      44.216  29.821  32.623  1.00  0.00     0.049 A 
ATOM     51  C   UNL A   1      43.815  26.648  27.861  1.00  0.00     0.074 A 
ATOM     52  C   UNL A   1      44.248  31.174  32.352  1.00  0.00     0.029 A 
ATOM     53  N   UNL A   1      45.061  29.233  31.714  1.00  0.00    -0.354 N 
ATOM     54  N   UNL A   1      44.542  27.711  27.664  1.00  0.00    -0.248 NA
ATOM     55  C   UNL A   1      44.017  25.967  29.128  1.00  0.00     0.031 C 
ATOM     56  C   UNL A   1      44.707  31.266  31.006  1.00  0.00     0.029 A 
ATOM     57  C   UNL A   1      44.997  29.973  30.566  1.00  0.00     0.049 A 
ATOM     58  H   UNL A   1      45.610  28.430  31.861  1.00  0.00     0.167 HD
ATOM     59  C   UNL A   1      44.917  28.097  28.942  1.00  0.00     0.074 A 
ATOM     60  C   UNL A   1      44.657  26.935  29.787  1.00  0.00     0.031 C 
ATOM     61  C   UNL A   1      45.120  29.411  29.243  1.00  0.00     0.034 A 
BRANCH  48  62
ATOM     62  C   UNL A   1      43.866  27.790  34.154  1.00  0.00     0.023 A 
ATOM     63  C   UNL A   1      44.631  28.087  35.303  1.00  0.00     0.012 A 
ATOM     64  C   UNL A   1      43.910  26.463  33.671  1.00  0.00     0.148 A 
ATOM     65  C   UNL A   1      45.431  27.117  35.916  1.00  0.00     0.002 A 
ATOM     66  C   UNL A   1      44.647  25.486  34.327  1.00  0.00     0.091 A 
ATOM     67  F   UNL A   1      43.357  26.164  32.491  1.00  0.00    -0.205 F 
ATOM     68  C   UNL A   1      45.432  25.813  35.435  1.00  0.00     0.022 A 
BRANCH  66  69
ATOM     69  S   UNL A   1      44.673  23.783  33.756  1.00  0.00     0.127 S 
ATOM     70  O   UNL A   1      45.932  23.307  34.317  1.00  0.00    -0.237 OA
ATOM     71  O   UNL A   1      43.466  23.242  34.377  1.00  0.00    -0.237 OA
ATOM     72  O   UNL A   1      44.611  23.861  32.297  1.00  0.00    -0.744 OA
ENDBRANCH  66  69
ENDBRANCH  48  62
BRANCH  49  73
ATOM     73  C   UNL A   1      42.433  25.074  26.340  1.00  0.00     0.023 A 
ATOM     74  C   UNL A   1      43.392  24.731  25.356  1.00  0.00     0.012 A 
ATOM     75  C   UNL A   1      41.550  24.058  26.765  1.00  0.00     0.148 A 
ATOM     76  C   UNL A   1      43.507  23.421  24.870  1.00  0.00     0.002 A 
ATOM     77  C   UNL A   1      41.657  22.761  26.266  1.00  0.00     0.091 A 
ATOM     78  F   UNL A   1      40.663  24.329  27.729  1.00  0.00    -0.205 F 
ATOM     79  C   UNL A   1      42.647  22.432  25.334  1.00  0.00     0.022 A 
BRANCH  77  80
ATOM     80  S   UNL A   1      40.571  21.440  26.827  1.00  0.00     0.127 S 
ATOM     81  O   UNL A   1      41.074  20.289  26.076  1.00  0.00    -0.237 OA
ATOM     82  O   UNL A   1      40.847  21.405  28.259  1.00  0.00    -0.237 OA
ATOM     83  O   UNL A   1      39.224  21.852  26.449  1.00  0.00    -0.744 OA
ENDBRANCH  77  80
ENDBRANCH  49  73
BRANCH  61  84
ATOM     84  C   UNL A   1      45.216  30.406  28.120  1.00  0.00     0.023 A 
ATOM     85  C   UNL A   1      44.076  30.955  27.499  1.00  0.00     0.012 A 
ATOM     86  C   UNL A   1      46.477  30.967  27.861  1.00  0.00     0.148 A 
ATOM     87  C   UNL A   1      44.195  32.053  26.641  1.00  0.00     0.002 A 
ATOM     88  C   UNL A   1      46.587  32.081  27.041  1.00  0.00     0.091 A 
ATOM     89  F   UNL A   1      47.543  30.429  28.472  1.00  0.00    -0.205 F 
ATOM     90  C   UNL A   1      45.448  32.627  26.427  1.00  0.00     0.022 A 
BRANCH  88  91
ATOM     91  S   UNL A   1      48.148  32.936  26.814  1.00  0.00     0.127 S 
ATOM     92  O   UNL A   1      47.814  33.909  25.776  1.00  0.00    -0.237 OA
ATOM     93  O   UNL A   1      48.379  33.511  28.140  1.00  0.00    -0.237 OA
ATOM     94  O   UNL A   1      49.117  31.921  26.421  1.00  0.00    -0.744 OA
ENDBRANCH  88  91
ENDBRANCH  61  84
ENDBRANCH  35  36
ENDBRANCH  27  30
ENDBRANCH  25  26
ENDBRANCH  24  25
ENDBRANCH   1  24
TORSDOF 17
ENDMDL
MODEL 2
REMARK VINA RESULT:     -11.6      2.987      9.086
REMARK SMILES Cn1c(Cn2nnc3ccccc32)nnc1SCC(=O)NCCCNC(=O)c1ccc(-c2c3nc(c(-c4cccc(S(=O)(=O)[O-])c4F)c4ccc([nH]4)c(-c4cccc(S(=O)(=O)[O-])c4F)c4nc(c(-c5cccc(S(=O)(=O)[O-])c5F)c5ccc2[nH]5)C=C4)C=C3)cc1
REMARK SMILES IDX 22 1 21 2 19 3 20 4 18 6 17 7 16 8 1 9 2 10 3 11 14 12 15 13
REMARK SMILES IDX 4 14 5 15 6 16 13 17 7 18 8 19 12 20 9 21 11 22 10 23 23 24
REMARK SMILES IDX 24 25 25 26 26 27 27 29 28 30 29 31 90 32 30 33 89 34 31 35
REMARK SMILES IDX 32 36 33 37 83 38 34 39 88 40 82 41 84 42 35 43 87 44 81 45
REMARK SMILES IDX 80 46 36 48 68 49 48 50 67 51 49 52 52 53 66 54 85 55 50 56
REMARK SMILES IDX 51 57 65 59 86 60 53 61 37 62 38 63 46 64 39 65 41 66 47 67
REMARK SMILES IDX 40 68 42 69 43 70 44 71 45 72 69 73 70 74 78 75 71 76 73 77
REMARK SMILES IDX 79 78 72 79 74 80 75 81 76 82 77 83 54 84 55 85 63 86 56 87
REMARK SMILES IDX 58 88 64 89 57 90 59 91 60 92 61 93 62 94
REMARK H PARENT 21 5 25 28 84 47 52 58
REMARK Flexibility Score: inf
ROOT
ATOM      1  C   UNL A   1      39.506  21.462  26.389  1.00  0.00     0.117 C 
ENDROOT
BRANCH   1   2
ATOM      2  N   UNL A   1      38.676  22.653  26.458  1.00  0.00    -0.355 N 
ATOM      3  C   UNL A   1      37.586  23.001  25.724  1.00  0.00     0.230 C 
ATOM      4  O   UNL A   1      37.008  24.054  26.013  1.00  0.00    -0.274 OA
ATOM      5  H   UNL A   1      38.943  23.309  27.141  1.00  0.00     0.163 HD
BRANCH   3   6
ATOM      6  C   UNL A   1      37.043  22.107  24.637  1.00  0.00     0.178 C 
BRANCH   6   7
ATOM      7  S   UNL A   1      35.522  21.241  24.999  1.00  0.00    -0.076 SA
BRANCH   7   8
ATOM      8  C   UNL A   1      34.158  22.274  24.785  1.00  0.00     0.191 A 
ATOM      9  C   UNL A   1      33.527  23.015  27.140  1.00  0.00     0.154 C 
ATOM     10  N   UNL A   1      33.387  22.927  25.712  1.00  0.00    -0.308 N 
ATOM     11  C   UNL A   1      32.329  23.471  25.002  1.00  0.00     0.155 A 
ATOM     12  N   UNL A   1      32.442  23.106  23.743  1.00  0.00    -0.132 NA
ATOM     13  N   UNL A   1      33.583  22.376  23.608  1.00  0.00    -0.123 NA
BRANCH  11  14
ATOM     14  C   UNL A   1      31.196  24.250  25.578  1.00  0.00     0.224 C 
BRANCH  14  15
ATOM     15  N   UNL A   1      31.441  25.682  25.542  1.00  0.00    -0.237 N 
ATOM     16  N   UNL A   1      32.279  26.234  26.447  1.00  0.00    -0.066 NA
ATOM     17  C   UNL A   1      30.837  26.640  24.767  1.00  0.00     0.089 A 
ATOM     18  N   UNL A   1      32.290  27.544  26.236  1.00  0.00    -0.130 NA
ATOM     19  C   UNL A   1      31.429  27.819  25.208  1.00  0.00     0.113 A 
ATOM     20  C   UNL A   1      29.888  26.607  23.737  1.00  0.00     0.030 A 
ATOM     21  C   UNL A   1      31.090  29.033  24.594  1.00  0.00     0.032 A 
ATOM     22  C   UNL A   1      29.576  27.825  23.124  1.00  0.00     0.002 A 
ATOM     23  C   UNL A   1      30.165  29.019  23.541  1.00  0.00     0.002 A 
ENDBRANCH  14  15
ENDBRANCH  11  14
ENDBRANCH   7   8
ENDBRANCH   6   7
ENDBRANCH   3   6
ENDBRANCH   1   2
BRANCH   1  24
ATOM     24  C   UNL A   1      40.551  21.408  27.505  1.00  0.00     0.042 C 
BRANCH  24  25
ATOM     25  C   UNL A   1      41.982  21.136  27.039  1.00  0.00     0.118 C 
BRANCH  25  26
ATOM     26  N   UNL A   1      42.349  21.779  25.792  1.00  0.00    -0.352 N 
ATOM     27  C   UNL A   1      42.734  23.034  25.410  1.00  0.00     0.251 C 
ATOM     28  H   UNL A   1      42.312  21.156  25.031  1.00  0.00     0.163 HD
ATOM     29  O   UNL A   1      43.159  23.116  24.253  1.00  0.00    -0.269 OA
BRANCH  27  30
ATOM     30  C   UNL A   1      42.617  24.278  26.222  1.00  0.00     0.039 A 
ATOM     31  C   UNL A   1      43.282  24.544  27.416  1.00  0.00     0.014 A 
ATOM     32  C   UNL A   1      41.693  25.233  25.743  1.00  0.00     0.014 A 
ATOM     33  C   UNL A   1      42.967  25.689  28.152  1.00  0.00     0.010 A 
ATOM     34  C   UNL A   1      41.380  26.379  26.470  1.00  0.00     0.010 A 
ATOM     35  C   UNL A   1      41.989  26.588  27.701  1.00  0.00    -0.014 A 
BRANCH  35  36
ATOM     36  C   UNL A   1      41.768  27.823  28.458  1.00  0.00     0.031 A 
ATOM     37  C   UNL A   1      42.752  28.892  28.137  1.00  0.00     0.074 A 
ATOM     38  C   UNL A   1      40.747  28.060  29.310  1.00  0.00     0.049 A 
ATOM     39  N   UNL A   1      43.705  29.319  28.898  1.00  0.00    -0.248 NA
ATOM     40  C   UNL A   1      42.786  29.431  26.770  1.00  0.00     0.031 C 
ATOM     41  C   UNL A   1      39.572  27.223  29.559  1.00  0.00     0.029 A 
ATOM     42  N   UNL A   1      40.492  29.170  30.072  1.00  0.00    -0.354 N 
ATOM     43  C   UNL A   1      44.298  30.363  28.198  1.00  0.00     0.074 A 
ATOM     44  C   UNL A   1      43.827  30.265  26.841  1.00  0.00     0.031 C 
ATOM     45  C   UNL A   1      38.636  27.947  30.214  1.00  0.00     0.029 A 
ATOM     46  C   UNL A   1      39.180  29.252  30.545  1.00  0.00     0.049 A 
ATOM     47  H   UNL A   1      41.174  29.852  30.269  1.00  0.00     0.167 HD
ATOM     48  C   UNL A   1      44.915  31.384  28.852  1.00  0.00     0.034 A 
ATOM     49  C   UNL A   1      38.577  30.331  31.114  1.00  0.00     0.034 A 
ATOM     50  C   UNL A   1      45.205  31.051  30.221  1.00  0.00     0.049 A 
ATOM     51  C   UNL A   1      39.656  31.176  31.672  1.00  0.00     0.074 A 
ATOM     52  C   UNL A   1      45.892  30.035  30.855  1.00  0.00     0.029 A 
ATOM     53  N   UNL A   1      44.414  31.630  31.184  1.00  0.00    -0.354 N 
ATOM     54  N   UNL A   1      40.403  30.816  32.677  1.00  0.00    -0.248 NA
ATOM     55  C   UNL A   1      40.178  32.253  30.848  1.00  0.00     0.031 C 
ATOM     56  C   UNL A   1      45.119  29.742  32.016  1.00  0.00     0.029 A 
ATOM     57  C   UNL A   1      44.055  30.644  32.058  1.00  0.00     0.049 A 
ATOM     58  H   UNL A   1      44.156  32.579  31.234  1.00  0.00     0.167 HD
ATOM     59  C   UNL A   1      41.667  31.268  32.331  1.00  0.00     0.074 A 
ATOM     60  C   UNL A   1      41.450  32.231  31.254  1.00  0.00     0.031 C 
ATOM     61  C   UNL A   1      42.784  30.602  32.741  1.00  0.00     0.034 A 
BRANCH  48  62
ATOM     62  C   UNL A   1      44.892  32.819  28.386  1.00  0.00     0.023 A 
ATOM     63  C   UNL A   1      43.650  33.492  28.399  1.00  0.00     0.012 A 
ATOM     64  C   UNL A   1      45.947  33.419  27.663  1.00  0.00     0.148 A 
ATOM     65  C   UNL A   1      43.462  34.685  27.694  1.00  0.00     0.002 A 
ATOM     66  C   UNL A   1      45.775  34.641  27.027  1.00  0.00     0.091 A 
ATOM     67  F   UNL A   1      47.085  32.747  27.463  1.00  0.00    -0.205 F 
ATOM     68  C   UNL A   1      44.526  35.266  27.015  1.00  0.00     0.022 A 
BRANCH  66  69
ATOM     69  S   UNL A   1      47.120  35.443  26.147  1.00  0.00     0.127 S 
ATOM     70  O   UNL A   1      47.290  34.555  25.003  1.00  0.00    -0.237 OA
ATOM     71  O   UNL A   1      46.541  36.750  25.845  1.00  0.00    -0.237 OA
ATOM     72  O   UNL A   1      48.233  35.487  27.094  1.00  0.00    -0.744 OA
ENDBRANCH  66  69
ENDBRANCH  48  62
BRANCH  49  73
ATOM     73  C   UNL A   1      37.174  30.829  31.025  1.00  0.00     0.023 A 
ATOM     74  C   UNL A   1      36.483  31.182  32.209  1.00  0.00     0.012 A 
ATOM     75  C   UNL A   1      36.612  31.245  29.799  1.00  0.00     0.148 A 
ATOM     76  C   UNL A   1      35.323  31.969  32.175  1.00  0.00     0.002 A 
ATOM     77  C   UNL A   1      35.448  32.013  29.769  1.00  0.00     0.091 A 
ATOM     78  F   UNL A   1      37.261  30.975  28.661  1.00  0.00    -0.205 F 
ATOM     79  C   UNL A   1      34.812  32.395  30.954  1.00  0.00     0.022 A 
BRANCH  77  80
ATOM     80  S   UNL A   1      34.738  32.591  28.220  1.00  0.00     0.127 S 
ATOM     81  O   UNL A   1      33.636  33.435  28.683  1.00  0.00    -0.237 OA
ATOM     82  O   UNL A   1      35.855  33.317  27.623  1.00  0.00    -0.237 OA
ATOM     83  O   UNL A   1      34.309  31.391  27.512  1.00  0.00    -0.744 OA
ENDBRANCH  77  80
ENDBRANCH  49  73
BRANCH  61  84
ATOM     84  C   UNL A   1      42.650  29.548  33.803  1.00  0.00     0.023 A 
ATOM     85  C   UNL A   1      42.103  28.275  33.539  1.00  0.00     0.012 A 
ATOM     86  C   UNL A   1      43.310  29.773  35.022  1.00  0.00     0.148 A 
ATOM     87  C   UNL A   1      42.224  27.243  34.475  1.00  0.00     0.002 A 
ATOM     88  C   UNL A   1      43.463  28.735  35.931  1.00  0.00     0.091 A 
ATOM     89  F   UNL A   1      43.827  30.991  35.242  1.00  0.00    -0.205 F 
ATOM     90  C   UNL A   1      42.920  27.468  35.662  1.00  0.00     0.022 A 
BRANCH  88  91
ATOM     91  S   UNL A   1      44.442  28.924  37.422  1.00  0.00     0.127 S 
ATOM     92  O   UNL A   1      43.807  30.075  38.060  1.00  0.00    -0.237 OA
ATOM     93  O   UNL A   1      44.219  27.647  38.101  1.00  0.00    -0.237 OA
ATOM     94  O   UNL A   1      45.817  29.140  36.985  1.00  0.00    -0.744 OA
ENDBRANCH  88  91
ENDBRANCH  61  84
ENDBRANCH  35  36
ENDBRANCH  27  30
ENDBRANCH  25  26
ENDBRANCH  24  25
ENDBRANCH   1  24
TORSDOF 17
ENDMDL
MODEL 3
REMARK VINA RESULT:     -11.5      3.077      8.861
REMARK SMILES Cn1c(Cn2nnc3ccccc32)nnc1SCC(=O)NCCCNC(=O)c1ccc(-c2c3nc(c(-c4cccc(S(=O)(=O)[O-])c4F)c4ccc([nH]4)c(-c4cccc(S(=O)(=O)[O-])c4F)c4nc(c(-c5cccc(S(=O)(=O)[O-])c5F)c5ccc2[nH]5)C=C4)C=C3)cc1
REMARK SMILES IDX 22 1 21 2 19 3 20 4 18 6 17 7 16 8 1 9 2 10 3 11 14 12 15 13
REMARK SMILES IDX 4 14 5 15 6 16 13 17 7 18 8 19 12 20 9 21 11 22 10 23 23 24
REMARK SMILES IDX 24 25 25 26 26 27 27 29 28 30 29 31 90 32 30 33 89 34 31 35
REMARK SMILES IDX 32 36 33 37 83 38 34 39 88 40 82 41 84 42 35 43 87 44 81 45
REMARK SMILES IDX 80 46 36 48 68 49 48 50 67 51 49 52 52 53 66 54 85 55 50 56
REMARK SMILES IDX 51 57 65 59 86 60 53 61 37 62 38 63 46 64 39 65 41 66 47 67
REMARK SMILES IDX 40 68 42 69 43 70 44 71 45 72 69 73 70 74 78 75 71 76 73 77
REMARK SMILES IDX 79 78 72 79 74 80 75 81 76 82 77 83 54 84 55 85 63 86 56 87
REMARK SMILES IDX 58 88 64 89 57 90 59 91 60 92 61 93 62 94
REMARK H PARENT 21 5 25 28 84 47 52 58
REMARK Flexibility Score: inf
ROOT
ATOM      1  C   UNL A   1      35.591  22.984  23.957  1.00  0.00     0.117 C 
ENDROOT
BRANCH   1   2
ATOM      2  N   UNL A   1      34.611  22.823  25.019  1.00  0.00    -0.355 N 
ATOM      3  C   UNL A   1      33.563  21.964  25.116  1.00  0.00     0.230 C 
ATOM      4  O   UNL A   1      32.898  21.980  26.158  1.00  0.00    -0.274 OA
ATOM      5  H   UNL A   1      34.724  23.430  25.785  1.00  0.00     0.163 HD
BRANCH   3   6
ATOM      6  C   UNL A   1      33.252  20.966  24.030  1.00  0.00     0.178 C 
BRANCH   6   7
ATOM      7  S   UNL A   1      32.172  21.522  22.718  1.00  0.00    -0.076 SA
BRANCH   7   8
ATOM      8  C   UNL A   1      32.401  23.201  22.400  1.00  0.00     0.191 A 
ATOM      9  C   UNL A   1      30.442  24.355  23.552  1.00  0.00     0.154 C 
ATOM     10  N   UNL A   1      31.632  24.282  22.748  1.00  0.00    -0.308 N 
ATOM     11  C   UNL A   1      32.191  25.365  22.089  1.00  0.00     0.155 A 
ATOM     12  N   UNL A   1      33.191  24.933  21.351  1.00  0.00    -0.132 NA
ATOM     13  N   UNL A   1      33.328  23.594  21.556  1.00  0.00    -0.123 NA
BRANCH  11  14
ATOM     14  C   UNL A   1      31.685  26.767  22.125  1.00  0.00     0.224 C 
BRANCH  14  15
ATOM     15  N   UNL A   1      32.461  27.607  23.022  1.00  0.00    -0.237 N 
ATOM     16  N   UNL A   1      33.455  28.372  22.519  1.00  0.00    -0.066 NA
ATOM     17  C   UNL A   1      32.423  27.668  24.393  1.00  0.00     0.089 A 
ATOM     18  N   UNL A   1      34.035  28.995  23.538  1.00  0.00    -0.130 NA
ATOM     19  C   UNL A   1      33.417  28.594  24.692  1.00  0.00     0.113 A 
ATOM     20  C   UNL A   1      31.634  27.060  25.376  1.00  0.00     0.030 A 
ATOM     21  C   UNL A   1      33.639  28.962  26.027  1.00  0.00     0.032 A 
ATOM     22  C   UNL A   1      31.856  27.451  26.700  1.00  0.00     0.002 A 
ATOM     23  C   UNL A   1      32.839  28.387  27.025  1.00  0.00     0.002 A 
ENDBRANCH  14  15
ENDBRANCH  11  14
ENDBRANCH   7   8
ENDBRANCH   6   7
ENDBRANCH   3   6
ENDBRANCH   1   2
BRANCH   1  24
ATOM     24  C   UNL A   1      37.028  22.800  24.451  1.00  0.00     0.042 C 
BRANCH  24  25
ATOM     25  C   UNL A   1      37.188  21.848  25.637  1.00  0.00     0.118 C 
BRANCH  25  26
ATOM     26  N   UNL A   1      38.533  21.342  25.834  1.00  0.00    -0.352 N 
ATOM     27  C   UNL A   1      39.657  21.768  26.486  1.00  0.00     0.251 C 
ATOM     28  H   UNL A   1      38.671  20.476  25.388  1.00  0.00     0.163 HD
ATOM     29  O   UNL A   1      40.554  20.924  26.577  1.00  0.00    -0.269 OA
BRANCH  27  30
ATOM     30  C   UNL A   1      39.907  23.141  27.010  1.00  0.00     0.039 A 
ATOM     31  C   UNL A   1      39.156  24.277  26.721  1.00  0.00     0.014 A 
ATOM     32  C   UNL A   1      41.052  23.284  27.823  1.00  0.00     0.014 A 
ATOM     33  C   UNL A   1      39.589  25.532  27.161  1.00  0.00     0.010 A 
ATOM     34  C   UNL A   1      41.485  24.531  28.268  1.00  0.00     0.010 A 
ATOM     35  C   UNL A   1      40.773  25.665  27.901  1.00  0.00    -0.014 A 
BRANCH  35  36
ATOM     36  C   UNL A   1      41.128  26.988  28.422  1.00  0.00     0.031 A 
ATOM     37  C   UNL A   1      42.425  27.496  27.898  1.00  0.00     0.074 A 
ATOM     38  C   UNL A   1      40.362  27.756  29.229  1.00  0.00     0.049 A 
ATOM     39  N   UNL A   1      43.530  27.616  28.557  1.00  0.00    -0.248 NA
ATOM     40  C   UNL A   1      42.553  27.744  26.455  1.00  0.00     0.031 C 
ATOM     41  C   UNL A   1      38.977  27.522  29.641  1.00  0.00     0.029 A 
ATOM     42  N   UNL A   1      40.637  28.981  29.777  1.00  0.00    -0.354 N 
ATOM     43  C   UNL A   1      44.428  28.199  27.670  1.00  0.00     0.074 A 
ATOM     44  C   UNL A   1      43.842  28.081  26.360  1.00  0.00     0.031 C 
ATOM     45  C   UNL A   1      38.466  28.660  30.163  1.00  0.00     0.029 A 
ATOM     46  C   UNL A   1      39.512  29.666  30.242  1.00  0.00     0.049 A 
ATOM     47  H   UNL A   1      41.548  29.349  29.837  1.00  0.00     0.167 HD
ATOM     48  C   UNL A   1      45.454  28.972  28.118  1.00  0.00     0.034 A 
ATOM     49  C   UNL A   1      39.439  30.974  30.611  1.00  0.00     0.034 A 
ATOM     50  C   UNL A   1      45.703  28.777  29.521  1.00  0.00     0.049 A 
ATOM     51  C   UNL A   1      40.809  31.384  30.991  1.00  0.00     0.074 A 
ATOM     52  C   UNL A   1      45.980  27.687  30.323  1.00  0.00     0.029 A 
ATOM     53  N   UNL A   1      45.294  29.776  30.371  1.00  0.00    -0.354 N 
ATOM     54  N   UNL A   1      41.433  30.921  32.037  1.00  0.00    -0.248 NA
ATOM     55  C   UNL A   1      41.643  32.006  29.978  1.00  0.00     0.031 C 
ATOM     56  C   UNL A   1      45.257  27.927  31.527  1.00  0.00     0.029 A 
ATOM     57  C   UNL A   1      44.647  29.178  31.415  1.00  0.00     0.049 A 
ATOM     58  H   UNL A   1      45.439  30.742  30.250  1.00  0.00     0.167 HD
ATOM     59  C   UNL A   1      42.738  30.756  31.598  1.00  0.00     0.074 A 
ATOM     60  C   UNL A   1      42.831  31.535  30.365  1.00  0.00     0.031 C 
ATOM     61  C   UNL A   1      43.528  29.769  32.110  1.00  0.00     0.034 A 
BRANCH  48  62
ATOM     62  C   UNL A   1      45.964  30.195  27.397  1.00  0.00     0.023 A 
ATOM     63  C   UNL A   1      47.342  30.486  27.495  1.00  0.00     0.012 A 
ATOM     64  C   UNL A   1      45.120  31.213  26.901  1.00  0.00     0.148 A 
ATOM     65  C   UNL A   1      47.847  31.744  27.151  1.00  0.00     0.002 A 
ATOM     66  C   UNL A   1      45.637  32.435  26.490  1.00  0.00     0.091 A 
ATOM     67  F   UNL A   1      43.793  31.064  26.954  1.00  0.00    -0.205 F 
ATOM     68  C   UNL A   1      46.996  32.717  26.639  1.00  0.00     0.022 A 
BRANCH  66  69
ATOM     69  S   UNL A   1      44.585  33.721  25.808  1.00  0.00     0.127 S 
ATOM     70  O   UNL A   1      43.780  34.084  26.968  1.00  0.00    -0.237 OA
ATOM     71  O   UNL A   1      45.568  34.719  25.391  1.00  0.00    -0.237 OA
ATOM     72  O   UNL A   1      43.867  33.091  24.702  1.00  0.00    -0.744 OA
ENDBRANCH  66  69
ENDBRANCH  48  62
BRANCH  49  73
ATOM     73  C   UNL A   1      38.349  31.978  30.449  1.00  0.00     0.023 A 
ATOM     74  C   UNL A   1      37.757  32.167  29.176  1.00  0.00     0.012 A 
ATOM     75  C   UNL A   1      37.681  32.533  31.562  1.00  0.00     0.148 A 
ATOM     76  C   UNL A   1      36.524  32.819  29.030  1.00  0.00     0.002 A 
ATOM     77  C   UNL A   1      36.464  33.196  31.409  1.00  0.00     0.091 A 
ATOM     78  F   UNL A   1      38.181  32.333  32.786  1.00  0.00    -0.205 F 
ATOM     79  C   UNL A   1      35.871  33.324  30.148  1.00  0.00     0.022 A 
BRANCH  77  80
ATOM     80  S   UNL A   1      35.573  33.871  32.819  1.00  0.00     0.127 S 
ATOM     81  O   UNL A   1      36.509  34.880  33.319  1.00  0.00    -0.237 OA
ATOM     82  O   UNL A   1      34.371  34.410  32.191  1.00  0.00    -0.237 OA
ATOM     83  O   UNL A   1      35.368  32.750  33.728  1.00  0.00    -0.744 OA
ENDBRANCH  77  80
ENDBRANCH  49  73
BRANCH  61  84
ATOM     84  C   UNL A   1      43.076  29.049  33.349  1.00  0.00     0.023 A 
ATOM     85  C   UNL A   1      42.208  27.940  33.303  1.00  0.00     0.012 A 
ATOM     86  C   UNL A   1      43.736  29.357  34.550  1.00  0.00     0.148 A 
ATOM     87  C   UNL A   1      42.011  27.146  34.437  1.00  0.00     0.002 A 
ATOM     88  C   UNL A   1      43.570  28.542  35.662  1.00  0.00     0.091 A 
ATOM     89  F   UNL A   1      44.563  30.413  34.562  1.00  0.00    -0.205 F 
ATOM     90  C   UNL A   1      42.707  27.436  35.610  1.00  0.00     0.022 A 
BRANCH  88  91
ATOM     91  S   UNL A   1      44.519  28.792  37.164  1.00  0.00     0.127 S 
ATOM     92  O   UNL A   1      44.132  27.631  37.964  1.00  0.00    -0.237 OA
ATOM     93  O   UNL A   1      45.895  28.762  36.667  1.00  0.00    -0.237 OA
ATOM     94  O   UNL A   1      44.102  30.081  37.703  1.00  0.00    -0.744 OA
ENDBRANCH  88  91
ENDBRANCH  61  84
ENDBRANCH  35  36
ENDBRANCH  27  30
ENDBRANCH  25  26
ENDBRANCH  24  25
ENDBRANCH   1  24
TORSDOF 17
ENDMDL
