MODEL 1
REMARK VINA RESULT:     -10.4      0.000      0.000
REMARK SMILES [NH3+][C@@H](CC(=O)NCCCNC(=O)c1ccc(-c2c3nc(c(-c4cccc(S(=O)(=O)[O-])c4F)c4ccc([nH]4)c(-c4cccc(S(=O)(=O)[O-])c4F)c4nc(c(-c5cccc(S(=O)(=O)[O-])c5F)c5ccc2[nH]5)C=C4)C=C3)cc1)Cc1ccc(F)cc1
REMARK SMILES IDX 8 1 7 2 6 3 4 4 5 5 3 7 2 8 1 9 76 13 77 14 78 15 83 16
REMARK SMILES IDX 79 17 82 18 80 19 81 20 9 21 10 22 11 23 12 25 13 26 14 27
REMARK SMILES IDX 75 28 15 29 74 30 16 31 17 32 18 33 68 34 19 35 73 36 67 37
REMARK SMILES IDX 69 38 20 39 72 40 66 41 65 42 21 44 53 45 33 46 52 47 34 48
REMARK SMILES IDX 37 49 51 50 70 51 35 52 36 53 50 55 71 56 38 57 22 58 23 59
REMARK SMILES IDX 31 60 24 61 26 62 32 63 25 64 27 65 28 66 29 67 30 68 54 69
REMARK SMILES IDX 55 70 63 71 56 72 58 73 64 74 57 75 59 76 60 77 61 78 62 79
REMARK SMILES IDX 39 80 40 81 48 82 41 83 43 84 49 85 42 86 44 87 45 88 46 89
REMARK SMILES IDX 47 90
REMARK H PARENT 6 6 1 10 1 11 1 12 10 24 69 43 37 54
REMARK Flexibility Score: inf
ROOT
ATOM      1  C   UNL A   1      42.277  20.888  27.081  1.00  0.00     0.042 C 
ENDROOT
BRANCH   1   2
ATOM      2  C   UNL A   1      42.061  19.587  26.314  1.00  0.00     0.117 C 
BRANCH   2   3
ATOM      3  N   UNL A   1      43.274  18.791  26.253  1.00  0.00    -0.356 N 
ATOM      4  C   UNL A   1      44.327  18.863  25.397  1.00  0.00     0.225 C 
ATOM      5  O   UNL A   1      45.235  18.038  25.520  1.00  0.00    -0.275 OA
ATOM      6  H   UNL A   1      43.343  18.088  26.939  1.00  0.00     0.163 HD
BRANCH   4   7
ATOM      7  C   UNL A   1      44.401  19.941  24.334  1.00  0.00     0.165 C 
BRANCH   7   8
ATOM      8  C   UNL A   1      45.557  20.953  24.446  1.00  0.00     0.194 C 
BRANCH   8   9
ATOM      9  N   UNL A   1      46.860  20.330  24.185  1.00  0.00    -0.354 N 
ATOM     10  H   UNL A   1      47.519  20.600  24.914  1.00  0.00     0.344 HD
ATOM     11  H   UNL A   1      47.209  20.641  23.278  1.00  0.00     0.344 HD
ATOM     12  H   UNL A   1      46.757  19.315  24.179  1.00  0.00     0.344 HD
ENDBRANCH   8   9
BRANCH   8  13
ATOM     13  C   UNL A   1      45.509  21.826  25.732  1.00  0.00     0.101 C 
BRANCH  13  14
ATOM     14  C   UNL A   1      45.547  23.315  25.464  1.00  0.00    -0.042 A 
ATOM     15  C   UNL A   1      46.732  24.048  25.622  1.00  0.00     0.007 A 
ATOM     16  C   UNL A   1      44.364  23.996  25.120  1.00  0.00     0.007 A 
ATOM     17  C   UNL A   1      46.724  25.434  25.469  1.00  0.00     0.039 A 
ATOM     18  C   UNL A   1      44.356  25.382  24.982  1.00  0.00     0.039 A 
ATOM     19  C   UNL A   1      45.537  26.089  25.165  1.00  0.00     0.123 A 
ATOM     20  F   UNL A   1      45.535  27.423  25.052  1.00  0.00    -0.207 F 
ENDBRANCH  13  14
ENDBRANCH   8  13
ENDBRANCH   7   8
ENDBRANCH   4   7
ENDBRANCH   2   3
ENDBRANCH   1   2
BRANCH   1  21
ATOM     21  C   UNL A   1      41.018  21.443  27.744  1.00  0.00     0.118 C 
BRANCH  21  22
ATOM     22  N   UNL A   1      39.903  21.553  26.817  1.00  0.00    -0.352 N 
ATOM     23  C   UNL A   1      39.145  22.644  26.467  1.00  0.00     0.251 C 
ATOM     24  H   UNL A   1      39.652  20.713  26.368  1.00  0.00     0.163 HD
ATOM     25  O   UNL A   1      38.125  22.470  25.802  1.00  0.00    -0.269 OA
BRANCH  23  26
ATOM     26  C   UNL A   1      39.526  24.013  26.888  1.00  0.00     0.039 A 
ATOM     27  C   UNL A   1      39.262  24.409  28.203  1.00  0.00     0.014 A 
ATOM     28  C   UNL A   1      40.095  24.924  25.995  1.00  0.00     0.014 A 
ATOM     29  C   UNL A   1      39.616  25.692  28.634  1.00  0.00     0.010 A 
ATOM     30  C   UNL A   1      40.517  26.176  26.445  1.00  0.00     0.010 A 
ATOM     31  C   UNL A   1      40.274  26.578  27.767  1.00  0.00    -0.014 A 
BRANCH  31  32
ATOM     32  C   UNL A   1      40.712  27.925  28.225  1.00  0.00     0.031 A 
ATOM     33  C   UNL A   1      42.178  28.274  28.278  1.00  0.00     0.074 A 
ATOM     34  C   UNL A   1      39.796  28.812  28.663  1.00  0.00     0.049 A 
ATOM     35  N   UNL A   1      42.749  29.372  28.700  1.00  0.00    -0.248 NA
ATOM     36  C   UNL A   1      43.128  27.248  27.815  1.00  0.00     0.031 C 
ATOM     37  C   UNL A   1      38.352  28.574  28.730  1.00  0.00     0.029 A 
ATOM     38  N   UNL A   1      39.944  30.084  29.159  1.00  0.00    -0.354 N 
ATOM     39  C   UNL A   1      44.119  29.159  28.588  1.00  0.00     0.074 A 
ATOM     40  C   UNL A   1      44.296  27.814  28.088  1.00  0.00     0.031 C 
ATOM     41  C   UNL A   1      37.748  29.662  29.234  1.00  0.00     0.029 A 
ATOM     42  C   UNL A   1      38.759  30.664  29.555  1.00  0.00     0.049 A 
ATOM     43  H   UNL A   1      40.814  30.538  29.225  1.00  0.00     0.167 HD
ATOM     44  C   UNL A   1      45.137  30.015  28.846  1.00  0.00     0.034 A 
ATOM     45  C   UNL A   1      38.517  31.862  30.124  1.00  0.00     0.034 A 
ATOM     46  C   UNL A   1      44.959  31.368  29.301  1.00  0.00     0.049 A 
ATOM     47  C   UNL A   1      39.667  32.800  30.376  1.00  0.00     0.074 A 
ATOM     48  C   UNL A   1      45.926  32.336  29.516  1.00  0.00     0.029 A 
ATOM     49  N   UNL A   1      43.740  31.945  29.614  1.00  0.00    -0.354 N 
ATOM     50  N   UNL A   1      40.941  32.632  30.119  1.00  0.00    -0.248 NA
ATOM     51  C   UNL A   1      39.341  34.108  30.964  1.00  0.00     0.031 C 
ATOM     52  C   UNL A   1      45.292  33.492  29.981  1.00  0.00     0.029 A 
ATOM     53  C   UNL A   1      43.928  33.253  30.027  1.00  0.00     0.049 A 
ATOM     54  H   UNL A   1      42.868  31.492  29.552  1.00  0.00     0.167 HD
ATOM     55  C   UNL A   1      41.561  33.826  30.474  1.00  0.00     0.074 A 
ATOM     56  C   UNL A   1      40.520  34.715  30.943  1.00  0.00     0.031 C 
ATOM     57  C   UNL A   1      42.877  34.150  30.432  1.00  0.00     0.034 A 
BRANCH  44  58
ATOM     58  C   UNL A   1      46.543  29.538  28.584  1.00  0.00     0.023 A 
ATOM     59  C   UNL A   1      47.132  29.775  27.326  1.00  0.00     0.012 A 
ATOM     60  C   UNL A   1      47.306  28.931  29.600  1.00  0.00     0.148 A 
ATOM     61  C   UNL A   1      48.448  29.391  27.072  1.00  0.00     0.002 A 
ATOM     62  C   UNL A   1      48.632  28.591  29.354  1.00  0.00     0.091 A 
ATOM     63  F   UNL A   1      46.725  28.699  30.786  1.00  0.00    -0.205 F 
ATOM     64  C   UNL A   1      49.201  28.810  28.089  1.00  0.00     0.022 A 
BRANCH  62  65
ATOM     65  S   UNL A   1      49.713  27.911  30.618  1.00  0.00     0.127 S 
ATOM     66  O   UNL A   1      50.940  27.668  29.858  1.00  0.00    -0.237 OA
ATOM     67  O   UNL A   1      49.798  29.016  31.575  1.00  0.00    -0.237 OA
ATOM     68  O   UNL A   1      49.048  26.718  31.121  1.00  0.00    -0.744 OA
ENDBRANCH  62  65
ENDBRANCH  44  58
BRANCH  45  69
ATOM     69  C   UNL A   1      37.120  32.271  30.448  1.00  0.00     0.023 A 
ATOM     70  C   UNL A   1      36.603  32.012  31.733  1.00  0.00     0.012 A 
ATOM     71  C   UNL A   1      36.304  32.908  29.496  1.00  0.00     0.148 A 
ATOM     72  C   UNL A   1      35.285  32.343  32.050  1.00  0.00     0.002 A 
ATOM     73  C   UNL A   1      35.010  33.288  29.837  1.00  0.00     0.091 A 
ATOM     74  F   UNL A   1      36.806  33.132  28.274  1.00  0.00    -0.205 F 
ATOM     75  C   UNL A   1      34.492  32.989  31.106  1.00  0.00     0.022 A 
BRANCH  73  76
ATOM     76  S   UNL A   1      33.971  34.244  28.727  1.00  0.00     0.127 S 
ATOM     77  O   UNL A   1      33.647  33.256  27.699  1.00  0.00    -0.237 OA
ATOM     78  O   UNL A   1      32.855  34.613  29.600  1.00  0.00    -0.237 OA
ATOM     79  O   UNL A   1      34.792  35.364  28.300  1.00  0.00    -0.744 OA
ENDBRANCH  73  76
ENDBRANCH  45  69
BRANCH  57  80
ATOM     80  C   UNL A   1      43.269  35.540  30.859  1.00  0.00     0.023 A 
ATOM     81  C   UNL A   1      43.627  35.790  32.198  1.00  0.00     0.012 A 
ATOM     82  C   UNL A   1      43.352  36.582  29.915  1.00  0.00     0.148 A 
ATOM     83  C   UNL A   1      44.025  37.065  32.599  1.00  0.00     0.002 A 
ATOM     84  C   UNL A   1      43.799  37.837  30.310  1.00  0.00     0.091 A 
ATOM     85  F   UNL A   1      42.990  36.329  28.649  1.00  0.00    -0.205 F 
ATOM     86  C   UNL A   1      44.124  38.083  31.654  1.00  0.00     0.022 A 
BRANCH  84  87
ATOM     87  S   UNL A   1      44.050  39.181  29.146  1.00  0.00     0.127 S 
ATOM     88  O   UNL A   1      44.658  40.203  29.997  1.00  0.00    -0.237 OA
ATOM     89  O   UNL A   1      44.961  38.581  28.170  1.00  0.00    -0.237 OA
ATOM     90  O   UNL A   1      42.733  39.508  28.620  1.00  0.00    -0.744 OA
ENDBRANCH  84  87
ENDBRANCH  57  80
ENDBRANCH  31  32
ENDBRANCH  23  26
ENDBRANCH  21  22
ENDBRANCH   1  21
TORSDOF 17
ENDMDL
MODEL 2
REMARK VINA RESULT:     -10.3      4.532     11.663
REMARK SMILES [NH3+][C@@H](CC(=O)NCCCNC(=O)c1ccc(-c2c3nc(c(-c4cccc(S(=O)(=O)[O-])c4F)c4ccc([nH]4)c(-c4cccc(S(=O)(=O)[O-])c4F)c4nc(c(-c5cccc(S(=O)(=O)[O-])c5F)c5ccc2[nH]5)C=C4)C=C3)cc1)Cc1ccc(F)cc1
REMARK SMILES IDX 8 1 7 2 6 3 4 4 5 5 3 7 2 8 1 9 76 13 77 14 78 15 83 16
REMARK SMILES IDX 79 17 82 18 80 19 81 20 9 21 10 22 11 23 12 25 13 26 14 27
REMARK SMILES IDX 75 28 15 29 74 30 16 31 17 32 18 33 68 34 19 35 73 36 67 37
REMARK SMILES IDX 69 38 20 39 72 40 66 41 65 42 21 44 53 45 33 46 52 47 34 48
REMARK SMILES IDX 37 49 51 50 70 51 35 52 36 53 50 55 71 56 38 57 22 58 23 59
REMARK SMILES IDX 31 60 24 61 26 62 32 63 25 64 27 65 28 66 29 67 30 68 54 69
REMARK SMILES IDX 55 70 63 71 56 72 58 73 64 74 57 75 59 76 60 77 61 78 62 79
REMARK SMILES IDX 39 80 40 81 48 82 41 83 43 84 49 85 42 86 44 87 45 88 46 89
REMARK SMILES IDX 47 90
REMARK H PARENT 6 6 1 10 1 11 1 12 10 24 69 43 37 54
REMARK Flexibility Score: inf
ROOT
ATOM      1  C   UNL A   1      34.314  33.402  29.729  1.00  0.00     0.042 C 
ENDROOT
BRANCH   1   2
ATOM      2  C   UNL A   1      34.863  32.512  30.840  1.00  0.00     0.117 C 
BRANCH   2   3
ATOM      3  N   UNL A   1      34.534  33.030  32.155  1.00  0.00    -0.356 N 
ATOM      4  C   UNL A   1      35.187  32.891  33.340  1.00  0.00     0.225 C 
ATOM      5  O   UNL A   1      34.682  33.395  34.346  1.00  0.00    -0.275 OA
ATOM      6  H   UNL A   1      33.708  33.564  32.196  1.00  0.00     0.163 HD
BRANCH   4   7
ATOM      7  C   UNL A   1      36.511  32.160  33.424  1.00  0.00     0.165 C 
BRANCH   7   8
ATOM      8  C   UNL A   1      37.661  32.880  34.155  1.00  0.00     0.194 C 
BRANCH   8   9
ATOM      9  N   UNL A   1      37.562  32.733  35.612  1.00  0.00    -0.354 N 
ATOM     10  H   UNL A   1      37.252  31.789  35.838  1.00  0.00     0.344 HD
ATOM     11  H   UNL A   1      36.891  33.409  35.976  1.00  0.00     0.344 HD
ATOM     12  H   UNL A   1      38.476  32.900  36.033  1.00  0.00     0.344 HD
ENDBRANCH   8   9
BRANCH   8  13
ATOM     13  C   UNL A   1      37.900  34.338  33.671  1.00  0.00     0.101 C 
BRANCH  13  14
ATOM     14  C   UNL A   1      38.787  34.441  32.449  1.00  0.00    -0.042 A 
ATOM     15  C   UNL A   1      38.245  34.388  31.156  1.00  0.00     0.007 A 
ATOM     16  C   UNL A   1      40.184  34.522  32.601  1.00  0.00     0.007 A 
ATOM     17  C   UNL A   1      39.086  34.383  30.044  1.00  0.00     0.039 A 
ATOM     18  C   UNL A   1      41.022  34.502  31.488  1.00  0.00     0.039 A 
ATOM     19  C   UNL A   1      40.464  34.426  30.219  1.00  0.00     0.123 A 
ATOM     20  F   UNL A   1      41.262  34.389  29.145  1.00  0.00    -0.207 F 
ENDBRANCH  13  14
ENDBRANCH   8  13
ENDBRANCH   7   8
ENDBRANCH   4   7
ENDBRANCH   2   3
ENDBRANCH   1   2
BRANCH   1  21
ATOM     21  C   UNL A   1      34.777  33.014  28.326  1.00  0.00     0.118 C 
BRANCH  21  22
ATOM     22  N   UNL A   1      34.077  31.845  27.813  1.00  0.00    -0.352 N 
ATOM     23  C   UNL A   1      34.529  30.566  27.599  1.00  0.00     0.251 C 
ATOM     24  H   UNL A   1      33.132  31.995  27.582  1.00  0.00     0.163 HD
ATOM     25  O   UNL A   1      33.815  29.780  26.978  1.00  0.00    -0.269 OA
BRANCH  23  26
ATOM     26  C   UNL A   1      35.856  30.126  28.089  1.00  0.00     0.039 A 
ATOM     27  C   UNL A   1      35.952  29.582  29.374  1.00  0.00     0.014 A 
ATOM     28  C   UNL A   1      37.013  30.285  27.320  1.00  0.00     0.014 A 
ATOM     29  C   UNL A   1      37.190  29.151  29.863  1.00  0.00     0.010 A 
ATOM     30  C   UNL A   1      38.232  29.785  27.777  1.00  0.00     0.010 A 
ATOM     31  C   UNL A   1      38.338  29.221  29.058  1.00  0.00    -0.014 A 
BRANCH  31  32
ATOM     32  C   UNL A   1      39.651  28.712  29.539  1.00  0.00     0.031 A 
ATOM     33  C   UNL A   1      40.391  29.429  30.640  1.00  0.00     0.074 A 
ATOM     34  C   UNL A   1      40.215  27.646  28.937  1.00  0.00     0.049 A 
ATOM     35  N   UNL A   1      41.567  29.167  31.149  1.00  0.00    -0.248 NA
ATOM     36  C   UNL A   1      39.734  30.607  31.233  1.00  0.00     0.031 C 
ATOM     37  C   UNL A   1      39.637  26.904  27.813  1.00  0.00     0.029 A 
ATOM     38  N   UNL A   1      41.412  27.014  29.167  1.00  0.00    -0.354 N 
ATOM     39  C   UNL A   1      41.805  30.160  32.093  1.00  0.00     0.074 A 
ATOM     40  C   UNL A   1      40.666  31.051  32.063  1.00  0.00     0.031 C 
ATOM     41  C   UNL A   1      40.476  25.919  27.456  1.00  0.00     0.029 A 
ATOM     42  C   UNL A   1      41.665  25.975  28.300  1.00  0.00     0.049 A 
ATOM     43  H   UNL A   1      42.031  27.278  29.886  1.00  0.00     0.167 HD
ATOM     44  C   UNL A   1      42.860  30.302  32.931  1.00  0.00     0.034 A 
ATOM     45  C   UNL A   1      42.739  25.166  28.189  1.00  0.00     0.034 A 
ATOM     46  C   UNL A   1      43.972  29.391  32.991  1.00  0.00     0.049 A 
ATOM     47  C   UNL A   1      43.885  25.334  29.151  1.00  0.00     0.074 A 
ATOM     48  C   UNL A   1      45.051  29.409  33.859  1.00  0.00     0.029 A 
ATOM     49  N   UNL A   1      44.154  28.305  32.151  1.00  0.00    -0.354 N 
ATOM     50  N   UNL A   1      44.018  26.188  30.136  1.00  0.00    -0.248 NA
ATOM     51  C   UNL A   1      45.013  24.401  29.008  1.00  0.00     0.031 C 
ATOM     52  C   UNL A   1      45.895  28.344  33.529  1.00  0.00     0.029 A 
ATOM     53  C   UNL A   1      45.328  27.648  32.474  1.00  0.00     0.049 A 
ATOM     54  H   UNL A   1      43.538  28.040  31.430  1.00  0.00     0.167 HD
ATOM     55  C   UNL A   1      45.223  25.870  30.755  1.00  0.00     0.074 A 
ATOM     56  C   UNL A   1      45.769  24.731  30.047  1.00  0.00     0.031 C 
ATOM     57  C   UNL A   1      45.830  26.477  31.803  1.00  0.00     0.034 A 
BRANCH  44  58
ATOM     58  C   UNL A   1      42.839  31.455  33.902  1.00  0.00     0.023 A 
ATOM     59  C   UNL A   1      43.404  32.689  33.525  1.00  0.00     0.012 A 
ATOM     60  C   UNL A   1      42.193  31.343  35.150  1.00  0.00     0.148 A 
ATOM     61  C   UNL A   1      43.354  33.787  34.383  1.00  0.00     0.002 A 
ATOM     62  C   UNL A   1      42.108  32.455  35.981  1.00  0.00     0.091 A 
ATOM     63  F   UNL A   1      41.675  30.158  35.499  1.00  0.00    -0.205 F 
ATOM     64  C   UNL A   1      42.696  33.673  35.604  1.00  0.00     0.022 A 
BRANCH  62  65
ATOM     65  S   UNL A   1      41.214  32.438  37.540  1.00  0.00     0.127 S 
ATOM     66  O   UNL A   1      41.192  33.860  37.883  1.00  0.00    -0.237 OA
ATOM     67  O   UNL A   1      39.917  31.887  37.143  1.00  0.00    -0.237 OA
ATOM     68  O   UNL A   1      41.987  31.594  38.439  1.00  0.00    -0.744 OA
ENDBRANCH  62  65
ENDBRANCH  44  58
BRANCH  45  69
ATOM     69  C   UNL A   1      42.764  24.087  27.161  1.00  0.00     0.023 A 
ATOM     70  C   UNL A   1      43.444  24.303  25.946  1.00  0.00     0.012 A 
ATOM     71  C   UNL A   1      42.118  22.856  27.376  1.00  0.00     0.148 A 
ATOM     72  C   UNL A   1      43.446  23.328  24.948  1.00  0.00     0.002 A 
ATOM     73  C   UNL A   1      42.173  21.866  26.400  1.00  0.00     0.091 A 
ATOM     74  F   UNL A   1      41.463  22.673  28.530  1.00  0.00    -0.205 F 
ATOM     75  C   UNL A   1      42.818  22.107  25.178  1.00  0.00     0.022 A 
BRANCH  73  76
ATOM     76  S   UNL A   1      41.510  20.219  26.671  1.00  0.00     0.127 S 
ATOM     77  O   UNL A   1      42.219  19.809  27.883  1.00  0.00    -0.237 OA
ATOM     78  O   UNL A   1      40.084  20.494  26.856  1.00  0.00    -0.237 OA
ATOM     79  O   UNL A   1      41.825  19.474  25.464  1.00  0.00    -0.744 OA
ENDBRANCH  73  76
ENDBRANCH  45  69
BRANCH  57  80
ATOM     80  C   UNL A   1      47.134  25.898  32.288  1.00  0.00     0.023 A 
ATOM     81  C   UNL A   1      48.347  26.309  31.701  1.00  0.00     0.012 A 
ATOM     82  C   UNL A   1      47.159  25.001  33.374  1.00  0.00     0.148 A 
ATOM     83  C   UNL A   1      49.563  25.807  32.163  1.00  0.00     0.002 A 
ATOM     84  C   UNL A   1      48.377  24.545  33.863  1.00  0.00     0.091 A 
ATOM     85  F   UNL A   1      45.993  24.609  33.907  1.00  0.00    -0.205 F 
ATOM     86  C   UNL A   1      49.579  24.937  33.251  1.00  0.00     0.022 A 
BRANCH  84  87
ATOM     87  S   UNL A   1      48.500  23.500  35.319  1.00  0.00     0.127 S 
ATOM     88  O   UNL A   1      47.937  22.242  34.831  1.00  0.00    -0.237 OA
ATOM     89  O   UNL A   1      49.944  23.470  35.557  1.00  0.00    -0.237 OA
ATOM     90  O   UNL A   1      47.731  24.168  36.359  1.00  0.00    -0.744 OA
ENDBRANCH  84  87
ENDBRANCH  57  80
ENDBRANCH  31  32
ENDBRANCH  23  26
ENDBRANCH  21  22
ENDBRANCH   1  21
TORSDOF 17
ENDMDL
MODEL 3
REMARK VINA RESULT:     -10.2      5.270     10.914
REMARK SMILES [NH3+][C@@H](CC(=O)NCCCNC(=O)c1ccc(-c2c3nc(c(-c4cccc(S(=O)(=O)[O-])c4F)c4ccc([nH]4)c(-c4cccc(S(=O)(=O)[O-])c4F)c4nc(c(-c5cccc(S(=O)(=O)[O-])c5F)c5ccc2[nH]5)C=C4)C=C3)cc1)Cc1ccc(F)cc1
REMARK SMILES IDX 8 1 7 2 6 3 4 4 5 5 3 7 2 8 1 9 76 13 77 14 78 15 83 16
REMARK SMILES IDX 79 17 82 18 80 19 81 20 9 21 10 22 11 23 12 25 13 26 14 27
REMARK SMILES IDX 75 28 15 29 74 30 16 31 17 32 18 33 68 34 19 35 73 36 67 37
REMARK SMILES IDX 69 38 20 39 72 40 66 41 65 42 21 44 53 45 33 46 52 47 34 48
REMARK SMILES IDX 37 49 51 50 70 51 35 52 36 53 50 55 71 56 38 57 22 58 23 59
REMARK SMILES IDX 31 60 24 61 26 62 32 63 25 64 27 65 28 66 29 67 30 68 54 69
REMARK SMILES IDX 55 70 63 71 56 72 58 73 64 74 57 75 59 76 60 77 61 78 62 79
REMARK SMILES IDX 39 80 40 81 48 82 41 83 43 84 49 85 42 86 44 87 45 88 46 89
REMARK SMILES IDX 47 90
REMARK H PARENT 6 6 1 10 1 11 1 12 10 24 69 43 37 54
REMARK Flexibility Score: inf
ROOT
ATOM      1  C   UNL A   1      32.833  27.958  27.081  1.00  0.00     0.042 C 
ENDROOT
BRANCH   1   2
ATOM      2  C   UNL A   1      31.846  27.194  26.203  1.00  0.00     0.117 C 
BRANCH   2   3
ATOM      3  N   UNL A   1      31.376  25.983  26.851  1.00  0.00    -0.356 N 
ATOM      4  C   UNL A   1      31.638  24.679  26.568  1.00  0.00     0.225 C 
ATOM      5  O   UNL A   1      31.078  23.813  27.244  1.00  0.00    -0.275 OA
ATOM      6  H   UNL A   1      30.771  26.129  27.614  1.00  0.00     0.163 HD
BRANCH   4   7
ATOM      7  C   UNL A   1      32.608  24.295  25.470  1.00  0.00     0.165 C 
BRANCH   7   8
ATOM      8  C   UNL A   1      32.001  23.824  24.135  1.00  0.00     0.194 C 
BRANCH   8   9
ATOM      9  N   UNL A   1      30.541  23.979  24.111  1.00  0.00    -0.354 N 
ATOM     10  H   UNL A   1      30.290  24.749  23.493  1.00  0.00     0.344 HD
ATOM     11  H   UNL A   1      30.206  24.176  25.054  1.00  0.00     0.344 HD
ATOM     12  H   UNL A   1      30.113  23.118  23.772  1.00  0.00     0.344 HD
ENDBRANCH   8   9
BRANCH   8  13
ATOM     13  C   UNL A   1      32.506  22.430  23.668  1.00  0.00     0.101 C 
BRANCH  13  14
ATOM     14  C   UNL A   1      33.988  22.209  23.890  1.00  0.00    -0.042 A 
ATOM     15  C   UNL A   1      34.446  21.337  24.888  1.00  0.00     0.007 A 
ATOM     16  C   UNL A   1      34.926  22.938  23.135  1.00  0.00     0.007 A 
ATOM     17  C   UNL A   1      35.812  21.223  25.144  1.00  0.00     0.039 A 
ATOM     18  C   UNL A   1      36.289  22.833  23.404  1.00  0.00     0.039 A 
ATOM     19  C   UNL A   1      36.719  21.981  24.411  1.00  0.00     0.123 A 
ATOM     20  F   UNL A   1      38.025  21.886  24.688  1.00  0.00    -0.207 F 
ENDBRANCH  13  14
ENDBRANCH   8  13
ENDBRANCH   7   8
ENDBRANCH   4   7
ENDBRANCH   2   3
ENDBRANCH   1   2
BRANCH   1  21
ATOM     21  C   UNL A   1      33.794  28.859  26.310  1.00  0.00     0.118 C 
BRANCH  21  22
ATOM     22  N   UNL A   1      33.736  30.244  26.751  1.00  0.00    -0.352 N 
ATOM     23  C   UNL A   1      34.552  30.934  27.615  1.00  0.00     0.251 C 
ATOM     24  H   UNL A   1      32.996  30.770  26.372  1.00  0.00     0.163 HD
ATOM     25  O   UNL A   1      34.205  32.052  27.994  1.00  0.00    -0.269 OA
BRANCH  23  26
ATOM     26  C   UNL A   1      35.824  30.351  28.103  1.00  0.00     0.039 A 
ATOM     27  C   UNL A   1      36.960  30.442  27.292  1.00  0.00     0.014 A 
ATOM     28  C   UNL A   1      35.902  29.676  29.325  1.00  0.00     0.014 A 
ATOM     29  C   UNL A   1      38.177  29.909  27.727  1.00  0.00     0.010 A 
ATOM     30  C   UNL A   1      37.132  29.212  29.791  1.00  0.00     0.010 A 
ATOM     31  C   UNL A   1      38.282  29.314  28.994  1.00  0.00    -0.014 A 
BRANCH  31  32
ATOM     32  C   UNL A   1      39.583  28.795  29.499  1.00  0.00     0.031 A 
ATOM     33  C   UNL A   1      40.310  29.508  30.610  1.00  0.00     0.074 A 
ATOM     34  C   UNL A   1      40.148  27.722  28.909  1.00  0.00     0.049 A 
ATOM     35  N   UNL A   1      41.475  29.238  31.140  1.00  0.00    -0.248 NA
ATOM     36  C   UNL A   1      39.654  30.693  31.189  1.00  0.00     0.031 C 
ATOM     37  C   UNL A   1      39.582  26.982  27.778  1.00  0.00     0.029 A 
ATOM     38  N   UNL A   1      41.335  27.080  29.161  1.00  0.00    -0.354 N 
ATOM     39  C   UNL A   1      41.707  30.231  32.085  1.00  0.00     0.074 A 
ATOM     40  C   UNL A   1      40.576  31.131  32.034  1.00  0.00     0.031 C 
ATOM     41  C   UNL A   1      40.419  25.989  27.437  1.00  0.00     0.029 A 
ATOM     42  C   UNL A   1      41.594  26.037  28.300  1.00  0.00     0.049 A 
ATOM     43  H   UNL A   1      41.944  27.341  29.889  1.00  0.00     0.167 HD
ATOM     44  C   UNL A   1      42.748  30.366  32.941  1.00  0.00     0.034 A 
ATOM     45  C   UNL A   1      42.662  25.219  28.209  1.00  0.00     0.034 A 
ATOM     46  C   UNL A   1      43.852  29.445  33.021  1.00  0.00     0.049 A 
ATOM     47  C   UNL A   1      43.793  25.379  29.190  1.00  0.00     0.074 A 
ATOM     48  C   UNL A   1      44.915  29.456  33.907  1.00  0.00     0.029 A 
ATOM     49  N   UNL A   1      44.038  28.356  32.187  1.00  0.00    -0.354 N 
ATOM     50  N   UNL A   1      43.918  26.235  30.175  1.00  0.00    -0.248 NA
ATOM     51  C   UNL A   1      44.916  24.437  29.068  1.00  0.00     0.031 C 
ATOM     52  C   UNL A   1      45.756  28.383  33.593  1.00  0.00     0.029 A 
ATOM     53  C   UNL A   1      45.201  27.690  32.531  1.00  0.00     0.049 A 
ATOM     54  H   UNL A   1      43.431  28.094  31.457  1.00  0.00     0.167 HD
ATOM     55  C   UNL A   1      45.109  25.908  30.814  1.00  0.00     0.074 A 
ATOM     56  C   UNL A   1      45.657  24.763  30.119  1.00  0.00     0.031 C 
ATOM     57  C   UNL A   1      45.704  26.513  31.872  1.00  0.00     0.034 A 
BRANCH  44  58
ATOM     58  C   UNL A   1      42.721  31.521  33.909  1.00  0.00     0.023 A 
ATOM     59  C   UNL A   1      43.244  32.768  33.513  1.00  0.00     0.012 A 
ATOM     60  C   UNL A   1      42.109  31.397  35.171  1.00  0.00     0.148 A 
ATOM     61  C   UNL A   1      43.186  33.867  34.369  1.00  0.00     0.002 A 
ATOM     62  C   UNL A   1      42.015  32.509  36.001  1.00  0.00     0.091 A 
ATOM     63  F   UNL A   1      41.630  30.200  35.537  1.00  0.00    -0.205 F 
ATOM     64  C   UNL A   1      42.562  33.741  35.607  1.00  0.00     0.022 A 
BRANCH  62  65
ATOM     65  S   UNL A   1      41.161  32.474  37.582  1.00  0.00     0.127 S 
ATOM     66  O   UNL A   1      41.169  33.890  37.953  1.00  0.00    -0.237 OA
ATOM     67  O   UNL A   1      39.845  31.952  37.207  1.00  0.00    -0.237 OA
ATOM     68  O   UNL A   1      41.941  31.601  38.445  1.00  0.00    -0.744 OA
ENDBRANCH  62  65
ENDBRANCH  44  58
BRANCH  45  69
ATOM     69  C   UNL A   1      42.695  24.137  27.184  1.00  0.00     0.023 A 
ATOM     70  C   UNL A   1      43.372  24.355  25.968  1.00  0.00     0.012 A 
ATOM     71  C   UNL A   1      42.060  22.901  27.403  1.00  0.00     0.148 A 
ATOM     72  C   UNL A   1      43.381  23.377  24.972  1.00  0.00     0.002 A 
ATOM     73  C   UNL A   1      42.122  21.909  26.431  1.00  0.00     0.091 A 
ATOM     74  F   UNL A   1      41.408  22.717  28.559  1.00  0.00    -0.205 F 
ATOM     75  C   UNL A   1      42.764  22.152  25.207  1.00  0.00     0.022 A 
BRANCH  73  76
ATOM     76  S   UNL A   1      41.474  20.257  26.708  1.00  0.00     0.127 S 
ATOM     77  O   UNL A   1      40.043  20.521  26.856  1.00  0.00    -0.237 OA
ATOM     78  O   UNL A   1      41.849  19.574  25.469  1.00  0.00    -0.237 OA
ATOM     79  O   UNL A   1      42.159  19.768  27.892  1.00  0.00    -0.744 OA
ENDBRANCH  73  76
ENDBRANCH  45  69
BRANCH  57  80
ATOM     80  C   UNL A   1      46.995  25.924  32.379  1.00  0.00     0.023 A 
ATOM     81  C   UNL A   1      48.226  26.394  31.882  1.00  0.00     0.012 A 
ATOM     82  C   UNL A   1      46.986  24.955  33.402  1.00  0.00     0.148 A 
ATOM     83  C   UNL A   1      49.428  25.882  32.369  1.00  0.00     0.002 A 
ATOM     84  C   UNL A   1      48.187  24.487  33.918  1.00  0.00     0.091 A 
ATOM     85  F   UNL A   1      45.803  24.508  33.849  1.00  0.00    -0.205 F 
ATOM     86  C   UNL A   1      49.409  24.939  33.394  1.00  0.00     0.022 A 
BRANCH  84  87
ATOM     87  S   UNL A   1      48.262  23.346  35.304  1.00  0.00     0.127 S 
ATOM     88  O   UNL A   1      47.827  24.195  36.413  1.00  0.00    -0.237 OA
ATOM     89  O   UNL A   1      47.298  22.317  34.911  1.00  0.00    -0.237 OA
ATOM     90  O   UNL A   1      49.641  22.886  35.372  1.00  0.00    -0.744 OA
ENDBRANCH  84  87
ENDBRANCH  57  80
ENDBRANCH  31  32
ENDBRANCH  23  26
ENDBRANCH  21  22
ENDBRANCH   1  21
TORSDOF 17
ENDMDL
