MODEL 1
REMARK VINA RESULT:     -12.1      0.000      0.000
REMARK SMILES C[C@H]1[C@H](C(=O)NCCCNC(=O)c2ccc(-c3c4nc(c(-c5cccc(S(=O)(=O)[O-])c5F)c5ccc([nH]5)c(-c5cccc(S(=O)(=O)[O-])c5F)c5nc(c(-c6cccc(S(=O)(=O)[O-])c6F)c6ccc3[nH]6)C=C5)C=C4)cc2)CCN1C(=O)[C@H]1CC=CCC1
REMARK SMILES IDX 8 1 7 2 6 3 4 4 5 5 3 7 1 8 2 9 78 10 76 11 77 12 79 13
REMARK SMILES IDX 80 14 81 15 82 16 86 17 83 18 85 19 84 20 9 21 10 22 11 23
REMARK SMILES IDX 12 25 13 26 14 27 75 28 15 29 74 30 16 31 17 32 18 33 68 34
REMARK SMILES IDX 19 35 73 36 67 37 69 38 20 39 72 40 66 41 65 42 21 44 53 45
REMARK SMILES IDX 33 46 52 47 34 48 37 49 51 50 70 51 35 52 36 53 50 55 71 56
REMARK SMILES IDX 38 57 22 58 23 59 31 60 24 61 26 62 32 63 25 64 27 65 28 66
REMARK SMILES IDX 29 67 30 68 54 69 55 70 63 71 56 72 58 73 64 74 57 75 59 76
REMARK SMILES IDX 60 77 61 78 62 79 39 80 40 81 48 82 41 83 43 84 49 85 42 86
REMARK SMILES IDX 44 87 45 88 46 89 47 90
REMARK H PARENT 6 6 10 24 69 43 37 54
REMARK Flexibility Score: inf
ROOT
ATOM      1  C   UNL A   1      32.017  27.938  27.323  1.00  0.00     0.042 C 
ENDROOT
BRANCH   1   2
ATOM      2  C   UNL A   1      31.544  26.925  26.289  1.00  0.00     0.117 C 
BRANCH   2   3
ATOM      3  N   UNL A   1      31.378  25.588  26.839  1.00  0.00    -0.356 N 
ATOM      4  C   UNL A   1      31.977  24.402  26.578  1.00  0.00     0.225 C 
ATOM      5  O   UNL A   1      31.644  23.452  27.296  1.00  0.00    -0.275 OA
ATOM      6  H   UNL A   1      30.691  25.535  27.542  1.00  0.00     0.163 HD
BRANCH   4   7
ATOM      7  C   UNL A   1      32.981  24.166  25.463  1.00  0.00     0.102 C 
ATOM      8  C   UNL A   1      35.392  23.539  25.602  1.00  0.00     0.032 C 
ATOM      9  C   UNL A   1      33.958  23.019  25.772  1.00  0.00     0.094 C 
ATOM     10  N   UNL A   1      33.640  21.986  24.793  1.00  0.00    -0.339 N 
ATOM     11  C   UNL A   1      32.420  23.905  24.068  1.00  0.00     0.037 C 
ATOM     12  C   UNL A   1      33.045  22.594  23.613  1.00  0.00     0.120 C 
BRANCH  10  13
ATOM     13  C   UNL A   1      33.865  20.627  24.796  1.00  0.00     0.226 C 
ATOM     14  O   UNL A   1      35.033  20.227  24.920  1.00  0.00    -0.275 OA
BRANCH  13  15
ATOM     15  C   UNL A   1      32.772  19.553  24.614  1.00  0.00     0.083 C 
ATOM     16  C   UNL A   1      32.439  19.131  23.184  1.00  0.00     0.040 C 
ATOM     17  C   UNL A   1      32.793  18.398  25.619  1.00  0.00     0.018 C 
ATOM     18  C   UNL A   1      32.878  17.750  22.801  1.00  0.00    -0.030 C 
ATOM     19  C   UNL A   1      33.454  17.103  25.144  1.00  0.00     0.028 C 
ATOM     20  C   UNL A   1      33.331  16.844  23.676  1.00  0.00    -0.031 C 
ENDBRANCH  13  15
ENDBRANCH  10  13
ENDBRANCH   4   7
ENDBRANCH   2   3
ENDBRANCH   1   2
BRANCH   1  21
ATOM     21  C   UNL A   1      33.405  28.520  27.098  1.00  0.00     0.118 C 
BRANCH  21  22
ATOM     22  N   UNL A   1      33.430  29.966  27.214  1.00  0.00    -0.352 N 
ATOM     23  C   UNL A   1      34.350  30.791  27.817  1.00  0.00     0.251 C 
ATOM     24  H   UNL A   1      32.670  30.429  26.794  1.00  0.00     0.163 HD
ATOM     25  O   UNL A   1      34.067  31.979  27.969  1.00  0.00    -0.269 OA
BRANCH  23  26
ATOM     26  C   UNL A   1      35.660  30.281  28.301  1.00  0.00     0.039 A 
ATOM     27  C   UNL A   1      36.764  30.365  27.446  1.00  0.00     0.014 A 
ATOM     28  C   UNL A   1      35.806  29.664  29.546  1.00  0.00     0.014 A 
ATOM     29  C   UNL A   1      38.010  29.875  27.854  1.00  0.00     0.010 A 
ATOM     30  C   UNL A   1      37.068  29.257  29.988  1.00  0.00     0.010 A 
ATOM     31  C   UNL A   1      38.182  29.336  29.140  1.00  0.00    -0.014 A 
BRANCH  31  32
ATOM     32  C   UNL A   1      39.511  28.839  29.594  1.00  0.00     0.031 A 
ATOM     33  C   UNL A   1      40.259  29.540  30.701  1.00  0.00     0.074 A 
ATOM     34  C   UNL A   1      40.082  27.787  28.973  1.00  0.00     0.049 A 
ATOM     35  N   UNL A   1      41.428  29.253  31.218  1.00  0.00    -0.248 NA
ATOM     36  C   UNL A   1      39.627  30.734  31.287  1.00  0.00     0.031 C 
ATOM     37  C   UNL A   1      39.513  27.071  27.830  1.00  0.00     0.029 A 
ATOM     38  N   UNL A   1      41.276  27.149  29.203  1.00  0.00    -0.354 N 
ATOM     39  C   UNL A   1      41.682  30.242  32.162  1.00  0.00     0.074 A 
ATOM     40  C   UNL A   1      40.566  31.161  32.118  1.00  0.00     0.031 C 
ATOM     41  C   UNL A   1      40.353  26.090  27.463  1.00  0.00     0.029 A 
ATOM     42  C   UNL A   1      41.529  26.118  28.328  1.00  0.00     0.049 A 
ATOM     43  H   UNL A   1      41.893  27.405  29.925  1.00  0.00     0.167 HD
ATOM     44  C   UNL A   1      42.729  30.360  33.015  1.00  0.00     0.034 A 
ATOM     45  C   UNL A   1      42.585  25.286  28.230  1.00  0.00     0.034 A 
ATOM     46  C   UNL A   1      43.816  29.420  33.097  1.00  0.00     0.049 A 
ATOM     47  C   UNL A   1      43.705  25.398  29.229  1.00  0.00     0.074 A 
ATOM     48  C   UNL A   1      44.876  29.406  33.989  1.00  0.00     0.029 A 
ATOM     49  N   UNL A   1      43.987  28.331  32.258  1.00  0.00    -0.354 N 
ATOM     50  N   UNL A   1      43.843  26.240  30.223  1.00  0.00    -0.248 NA
ATOM     51  C   UNL A   1      44.794  24.415  29.120  1.00  0.00     0.031 C 
ATOM     52  C   UNL A   1      45.696  28.315  33.678  1.00  0.00     0.029 A 
ATOM     53  C   UNL A   1      45.136  27.640  32.606  1.00  0.00     0.049 A 
ATOM     54  H   UNL A   1      43.381  28.086  31.523  1.00  0.00     0.167 HD
ATOM     55  C   UNL A   1      45.016  25.874  30.874  1.00  0.00     0.074 A 
ATOM     56  C   UNL A   1      45.535  24.715  30.179  1.00  0.00     0.031 C 
ATOM     57  C   UNL A   1      45.620  26.459  31.938  1.00  0.00     0.034 A 
BRANCH  44  58
ATOM     58  C   UNL A   1      42.712  31.514  33.986  1.00  0.00     0.023 A 
ATOM     59  C   UNL A   1      43.296  32.742  33.609  1.00  0.00     0.012 A 
ATOM     60  C   UNL A   1      42.078  31.408  35.239  1.00  0.00     0.148 A 
ATOM     61  C   UNL A   1      43.282  33.833  34.476  1.00  0.00     0.002 A 
ATOM     62  C   UNL A   1      42.031  32.515  36.081  1.00  0.00     0.091 A 
ATOM     63  F   UNL A   1      41.546  30.229  35.591  1.00  0.00    -0.205 F 
ATOM     64  C   UNL A   1      42.641  33.723  35.706  1.00  0.00     0.022 A 
BRANCH  62  65
ATOM     65  S   UNL A   1      41.162  32.496  37.654  1.00  0.00     0.127 S 
ATOM     66  O   UNL A   1      39.874  31.916  37.271  1.00  0.00    -0.237 OA
ATOM     67  O   UNL A   1      42.007  31.615  38.463  1.00  0.00    -0.237 OA
ATOM     68  O   UNL A   1      41.120  33.877  38.105  1.00  0.00    -0.744 OA
ENDBRANCH  62  65
ENDBRANCH  44  58
BRANCH  45  69
ATOM     69  C   UNL A   1      42.595  24.224  27.184  1.00  0.00     0.023 A 
ATOM     70  C   UNL A   1      43.275  24.452  25.972  1.00  0.00     0.012 A 
ATOM     71  C   UNL A   1      41.969  22.982  27.399  1.00  0.00     0.148 A 
ATOM     72  C   UNL A   1      43.309  23.470  24.982  1.00  0.00     0.002 A 
ATOM     73  C   UNL A   1      42.055  21.988  26.431  1.00  0.00     0.091 A 
ATOM     74  F   UNL A   1      41.314  22.791  28.553  1.00  0.00    -0.205 F 
ATOM     75  C   UNL A   1      42.710  22.234  25.214  1.00  0.00     0.022 A 
BRANCH  73  76
ATOM     76  S   UNL A   1      41.429  20.326  26.704  1.00  0.00     0.127 S 
ATOM     77  O   UNL A   1      42.167  19.920  27.897  1.00  0.00    -0.237 OA
ATOM     78  O   UNL A   1      40.001  20.570  26.915  1.00  0.00    -0.237 OA
ATOM     79  O   UNL A   1      41.736  19.589  25.486  1.00  0.00    -0.744 OA
ENDBRANCH  73  76
ENDBRANCH  45  69
BRANCH  57  80
ATOM     80  C   UNL A   1      46.904  25.845  32.436  1.00  0.00     0.023 A 
ATOM     81  C   UNL A   1      48.134  26.271  31.896  1.00  0.00     0.012 A 
ATOM     82  C   UNL A   1      46.898  24.894  33.476  1.00  0.00     0.148 A 
ATOM     83  C   UNL A   1      49.336  25.734  32.359  1.00  0.00     0.002 A 
ATOM     84  C   UNL A   1      48.102  24.398  33.963  1.00  0.00     0.091 A 
ATOM     85  F   UNL A   1      45.717  24.485  33.963  1.00  0.00    -0.205 F 
ATOM     86  C   UNL A   1      49.320  24.808  33.398  1.00  0.00     0.022 A 
BRANCH  84  87
ATOM     87  S   UNL A   1      48.178  23.271  35.360  1.00  0.00     0.127 S 
ATOM     88  O   UNL A   1      47.474  24.028  36.393  1.00  0.00    -0.237 OA
ATOM     89  O   UNL A   1      47.455  22.101  34.860  1.00  0.00    -0.237 OA
ATOM     90  O   UNL A   1      49.595  23.039  35.607  1.00  0.00    -0.744 OA
ENDBRANCH  84  87
ENDBRANCH  57  80
ENDBRANCH  31  32
ENDBRANCH  23  26
ENDBRANCH  21  22
ENDBRANCH   1  21
TORSDOF 15
ENDMDL
MODEL 2
REMARK VINA RESULT:     -12.1      4.485      9.720
REMARK SMILES C[C@H]1[C@H](C(=O)NCCCNC(=O)c2ccc(-c3c4nc(c(-c5cccc(S(=O)(=O)[O-])c5F)c5ccc([nH]5)c(-c5cccc(S(=O)(=O)[O-])c5F)c5nc(c(-c6cccc(S(=O)(=O)[O-])c6F)c6ccc3[nH]6)C=C5)C=C4)cc2)CCN1C(=O)[C@H]1CC=CCC1
REMARK SMILES IDX 8 1 7 2 6 3 4 4 5 5 3 7 1 8 2 9 78 10 76 11 77 12 79 13
REMARK SMILES IDX 80 14 81 15 82 16 86 17 83 18 85 19 84 20 9 21 10 22 11 23
REMARK SMILES IDX 12 25 13 26 14 27 75 28 15 29 74 30 16 31 17 32 18 33 68 34
REMARK SMILES IDX 19 35 73 36 67 37 69 38 20 39 72 40 66 41 65 42 21 44 53 45
REMARK SMILES IDX 33 46 52 47 34 48 37 49 51 50 70 51 35 52 36 53 50 55 71 56
REMARK SMILES IDX 38 57 22 58 23 59 31 60 24 61 26 62 32 63 25 64 27 65 28 66
REMARK SMILES IDX 29 67 30 68 54 69 55 70 63 71 56 72 58 73 64 74 57 75 59 76
REMARK SMILES IDX 60 77 61 78 62 79 39 80 40 81 48 82 41 83 43 84 49 85 42 86
REMARK SMILES IDX 44 87 45 88 46 89 47 90
REMARK H PARENT 6 6 10 24 69 43 37 54
REMARK Flexibility Score: inf
ROOT
ATOM      1  C   UNL A   1      31.485  32.289  26.760  1.00  0.00     0.042 C 
ENDROOT
BRANCH   1   2
ATOM      2  C   UNL A   1      31.594  30.921  26.101  1.00  0.00     0.117 C 
BRANCH   2   3
ATOM      3  N   UNL A   1      31.520  29.824  27.054  1.00  0.00    -0.356 N 
ATOM      4  C   UNL A   1      31.676  28.484  26.932  1.00  0.00     0.225 C 
ATOM      5  O   UNL A   1      31.619  27.830  27.980  1.00  0.00    -0.275 OA
ATOM      6  H   UNL A   1      31.315  30.113  27.972  1.00  0.00     0.163 HD
BRANCH   4   7
ATOM      7  C   UNL A   1      31.874  27.751  25.616  1.00  0.00     0.102 C 
ATOM      8  C   UNL A   1      30.251  26.390  24.297  1.00  0.00     0.032 C 
ATOM      9  C   UNL A   1      30.637  27.818  24.704  1.00  0.00     0.094 C 
ATOM     10  N   UNL A   1      31.067  28.608  23.555  1.00  0.00    -0.339 N 
ATOM     11  C   UNL A   1      33.074  28.161  24.767  1.00  0.00     0.037 C 
ATOM     12  C   UNL A   1      32.508  28.500  23.395  1.00  0.00     0.120 C 
BRANCH  10  13
ATOM     13  C   UNL A   1      30.350  29.335  22.629  1.00  0.00     0.226 C 
ATOM     14  O   UNL A   1      30.846  29.499  21.503  1.00  0.00    -0.275 OA
BRANCH  13  15
ATOM     15  C   UNL A   1      28.984  30.001  22.898  1.00  0.00     0.083 C 
ATOM     16  C   UNL A   1      28.983  31.273  23.743  1.00  0.00     0.040 C 
ATOM     17  C   UNL A   1      28.010  30.031  21.718  1.00  0.00     0.018 C 
ATOM     18  C   UNL A   1      28.668  32.538  23.003  1.00  0.00    -0.030 C 
ATOM     19  C   UNL A   1      27.942  31.342  20.934  1.00  0.00     0.028 C 
ATOM     20  C   UNL A   1      28.203  32.569  21.749  1.00  0.00    -0.031 C 
ENDBRANCH  13  15
ENDBRANCH  10  13
ENDBRANCH   4   7
ENDBRANCH   2   3
ENDBRANCH   1   2
BRANCH   1  21
ATOM     21  C   UNL A   1      32.802  32.957  27.130  1.00  0.00     0.118 C 
BRANCH  21  22
ATOM     22  N   UNL A   1      32.618  34.278  27.699  1.00  0.00    -0.352 N 
ATOM     23  C   UNL A   1      33.175  34.845  28.821  1.00  0.00     0.251 C 
ATOM     24  H   UNL A   1      31.997  34.860  27.205  1.00  0.00     0.163 HD
ATOM     25  O   UNL A   1      32.721  35.913  29.230  1.00  0.00    -0.269 OA
BRANCH  23  26
ATOM     26  C   UNL A   1      34.293  34.194  29.554  1.00  0.00     0.039 A 
ATOM     27  C   UNL A   1      35.603  34.445  29.131  1.00  0.00     0.014 A 
ATOM     28  C   UNL A   1      34.074  33.294  30.601  1.00  0.00     0.014 A 
ATOM     29  C   UNL A   1      36.681  33.833  29.780  1.00  0.00     0.010 A 
ATOM     30  C   UNL A   1      35.154  32.754  31.305  1.00  0.00     0.010 A 
ATOM     31  C   UNL A   1      36.471  32.998  30.889  1.00  0.00    -0.014 A 
BRANCH  31  32
ATOM     32  C   UNL A   1      37.616  32.366  31.604  1.00  0.00     0.031 A 
ATOM     33  C   UNL A   1      38.386  31.232  30.976  1.00  0.00     0.074 A 
ATOM     34  C   UNL A   1      37.935  32.773  32.850  1.00  0.00     0.049 A 
ATOM     35  N   UNL A   1      39.403  30.560  31.455  1.00  0.00    -0.248 NA
ATOM     36  C   UNL A   1      37.942  30.773  29.649  1.00  0.00     0.031 C 
ATOM     37  C   UNL A   1      37.219  33.797  33.614  1.00  0.00     0.029 A 
ATOM     38  N   UNL A   1      38.930  32.360  33.701  1.00  0.00    -0.354 N 
ATOM     39  C   UNL A   1      39.698  29.585  30.508  1.00  0.00     0.074 A 
ATOM     40  C   UNL A   1      38.727  29.726  29.445  1.00  0.00     0.031 C 
ATOM     41  C   UNL A   1      37.801  33.937  34.815  1.00  0.00     0.029 A 
ATOM     42  C   UNL A   1      38.917  33.001  34.918  1.00  0.00     0.049 A 
ATOM     43  H   UNL A   1      39.591  31.670  33.463  1.00  0.00     0.167 HD
ATOM     44  C   UNL A   1      40.706  28.678  30.500  1.00  0.00     0.034 A 
ATOM     45  C   UNL A   1      39.712  32.856  35.998  1.00  0.00     0.034 A 
ATOM     46  C   UNL A   1      41.703  28.568  31.532  1.00  0.00     0.049 A 
ATOM     47  C   UNL A   1      40.862  31.887  35.940  1.00  0.00     0.074 A 
ATOM     48  C   UNL A   1      42.813  27.740  31.571  1.00  0.00     0.029 A 
ATOM     49  N   UNL A   1      41.714  29.303  32.706  1.00  0.00    -0.354 N 
ATOM     50  N   UNL A   1      41.223  31.092  34.963  1.00  0.00    -0.248 NA
ATOM     51  C   UNL A   1      41.740  31.826  37.118  1.00  0.00     0.031 C 
ATOM     52  C   UNL A   1      43.487  27.967  32.776  1.00  0.00     0.029 A 
ATOM     53  C   UNL A   1      42.807  28.948  33.479  1.00  0.00     0.049 A 
ATOM     54  H   UNL A   1      41.043  29.979  32.954  1.00  0.00     0.167 HD
ATOM     55  C   UNL A   1      42.382  30.458  35.395  1.00  0.00     0.074 A 
ATOM     56  C   UNL A   1      42.680  30.984  36.711  1.00  0.00     0.031 C 
ATOM     57  C   UNL A   1      43.122  29.511  34.767  1.00  0.00     0.034 A 
BRANCH  44  58
ATOM     58  C   UNL A   1      40.822  27.774  29.299  1.00  0.00     0.023 A 
ATOM     59  C   UNL A   1      40.044  26.599  29.240  1.00  0.00     0.012 A 
ATOM     60  C   UNL A   1      41.652  28.108  28.210  1.00  0.00     0.148 A 
ATOM     61  C   UNL A   1      40.117  25.752  28.135  1.00  0.00     0.002 A 
ATOM     62  C   UNL A   1      41.686  27.279  27.093  1.00  0.00     0.091 A 
ATOM     63  F   UNL A   1      42.400  29.217  28.289  1.00  0.00    -0.205 F 
ATOM     64  C   UNL A   1      40.929  26.096  27.059  1.00  0.00     0.022 A 
BRANCH  62  65
ATOM     65  S   UNL A   1      42.641  27.676  25.623  1.00  0.00     0.127 S 
ATOM     66  O   UNL A   1      43.987  27.823  26.178  1.00  0.00    -0.237 OA
ATOM     67  O   UNL A   1      42.452  26.480  24.800  1.00  0.00    -0.237 OA
ATOM     68  O   UNL A   1      42.051  28.887  25.077  1.00  0.00    -0.744 OA
ENDBRANCH  62  65
ENDBRANCH  44  58
BRANCH  45  69
ATOM     69  C   UNL A   1      39.487  33.707  37.200  1.00  0.00     0.023 A 
ATOM     70  C   UNL A   1      39.931  35.044  37.196  1.00  0.00     0.012 A 
ATOM     71  C   UNL A   1      38.805  33.213  38.329  1.00  0.00     0.148 A 
ATOM     72  C   UNL A   1      39.723  35.865  38.304  1.00  0.00     0.002 A 
ATOM     73  C   UNL A   1      38.551  34.053  39.406  1.00  0.00     0.091 A 
ATOM     74  F   UNL A   1      38.404  31.934  38.319  1.00  0.00    -0.205 F 
ATOM     75  C   UNL A   1      39.024  35.374  39.404  1.00  0.00     0.022 A 
BRANCH  73  76
ATOM     76  S   UNL A   1      37.542  33.544  40.802  1.00  0.00     0.127 S 
ATOM     77  O   UNL A   1      37.362  34.804  41.518  1.00  0.00    -0.237 OA
ATOM     78  O   UNL A   1      36.341  33.033  40.139  1.00  0.00    -0.237 OA
ATOM     79  O   UNL A   1      38.320  32.525  41.495  1.00  0.00    -0.744 OA
ENDBRANCH  73  76
ENDBRANCH  45  69
BRANCH  57  80
ATOM     80  C   UNL A   1      44.342  28.990  35.483  1.00  0.00     0.023 A 
ATOM     81  C   UNL A   1      45.594  29.597  35.259  1.00  0.00     0.012 A 
ATOM     82  C   UNL A   1      44.240  27.943  36.421  1.00  0.00     0.148 A 
ATOM     83  C   UNL A   1      46.731  29.147  35.929  1.00  0.00     0.002 A 
ATOM     84  C   UNL A   1      45.370  27.531  37.119  1.00  0.00     0.091 A 
ATOM     85  F   UNL A   1      43.045  27.363  36.607  1.00  0.00    -0.205 F 
ATOM     86  C   UNL A   1      46.617  28.123  36.866  1.00  0.00     0.022 A 
BRANCH  84  87
ATOM     87  S   UNL A   1      45.296  26.282  38.409  1.00  0.00     0.127 S 
ATOM     88  O   UNL A   1      44.280  26.835  39.302  1.00  0.00    -0.237 OA
ATOM     89  O   UNL A   1      44.877  25.091  37.670  1.00  0.00    -0.237 OA
ATOM     90  O   UNL A   1      46.642  26.202  38.962  1.00  0.00    -0.744 OA
ENDBRANCH  84  87
ENDBRANCH  57  80
ENDBRANCH  31  32
ENDBRANCH  23  26
ENDBRANCH  21  22
ENDBRANCH   1  21
TORSDOF 15
ENDMDL
MODEL 3
REMARK VINA RESULT:     -12.0      1.806      2.469
REMARK SMILES C[C@H]1[C@H](C(=O)NCCCNC(=O)c2ccc(-c3c4nc(c(-c5cccc(S(=O)(=O)[O-])c5F)c5ccc([nH]5)c(-c5cccc(S(=O)(=O)[O-])c5F)c5nc(c(-c6cccc(S(=O)(=O)[O-])c6F)c6ccc3[nH]6)C=C5)C=C4)cc2)CCN1C(=O)[C@H]1CC=CCC1
REMARK SMILES IDX 8 1 7 2 6 3 4 4 5 5 3 7 1 8 2 9 78 10 76 11 77 12 79 13
REMARK SMILES IDX 80 14 81 15 82 16 86 17 83 18 85 19 84 20 9 21 10 22 11 23
REMARK SMILES IDX 12 25 13 26 14 27 75 28 15 29 74 30 16 31 17 32 18 33 68 34
REMARK SMILES IDX 19 35 73 36 67 37 69 38 20 39 72 40 66 41 65 42 21 44 53 45
REMARK SMILES IDX 33 46 52 47 34 48 37 49 51 50 70 51 35 52 36 53 50 55 71 56
REMARK SMILES IDX 38 57 22 58 23 59 31 60 24 61 26 62 32 63 25 64 27 65 28 66
REMARK SMILES IDX 29 67 30 68 54 69 55 70 63 71 56 72 58 73 64 74 57 75 59 76
REMARK SMILES IDX 60 77 61 78 62 79 39 80 40 81 48 82 41 83 43 84 49 85 42 86
REMARK SMILES IDX 44 87 45 88 46 89 47 90
REMARK H PARENT 6 6 10 24 69 43 37 54
REMARK Flexibility Score: inf
ROOT
ATOM      1  C   UNL A   1      33.172  27.970  26.874  1.00  0.00     0.042 C 
ENDROOT
BRANCH   1   2
ATOM      2  C   UNL A   1      31.669  27.956  26.634  1.00  0.00     0.117 C 
BRANCH   2   3
ATOM      3  N   UNL A   1      31.072  26.646  26.840  1.00  0.00    -0.356 N 
ATOM      4  C   UNL A   1      30.927  25.562  26.041  1.00  0.00     0.225 C 
ATOM      5  O   UNL A   1      30.427  24.560  26.566  1.00  0.00    -0.275 OA
ATOM      6  H   UNL A   1      30.697  26.522  27.742  1.00  0.00     0.163 HD
BRANCH   4   7
ATOM      7  C   UNL A   1      31.298  25.515  24.569  1.00  0.00     0.102 C 
ATOM      8  C   UNL A   1      33.162  26.655  23.365  1.00  0.00     0.032 C 
ATOM      9  C   UNL A   1      32.819  25.519  24.336  1.00  0.00     0.094 C 
ATOM     10  N   UNL A   1      33.109  24.211  23.760  1.00  0.00    -0.339 N 
ATOM     11  C   UNL A   1      30.727  24.365  23.745  1.00  0.00     0.037 C 
ATOM     12  C   UNL A   1      31.927  23.696  23.088  1.00  0.00     0.120 C 
BRANCH  10  13
ATOM     13  C   UNL A   1      34.273  23.476  23.708  1.00  0.00     0.226 C 
ATOM     14  O   UNL A   1      34.844  23.361  22.611  1.00  0.00    -0.275 OA
BRANCH  13  15
ATOM     15  C   UNL A   1      34.909  22.744  24.909  1.00  0.00     0.083 C 
ATOM     16  C   UNL A   1      35.659  21.446  24.617  1.00  0.00     0.040 C 
ATOM     17  C   UNL A   1      35.580  23.634  25.957  1.00  0.00     0.018 C 
ATOM     18  C   UNL A   1      37.149  21.516  24.766  1.00  0.00    -0.030 C 
ATOM     19  C   UNL A   1      37.101  23.761  25.859  1.00  0.00     0.028 C 
ATOM     20  C   UNL A   1      37.793  22.550  25.320  1.00  0.00    -0.031 C 
ENDBRANCH  13  15
ENDBRANCH  10  13
ENDBRANCH   4   7
ENDBRANCH   2   3
ENDBRANCH   1   2
BRANCH   1  21
ATOM     21  C   UNL A   1      33.957  29.034  26.120  1.00  0.00     0.118 C 
BRANCH  21  22
ATOM     22  N   UNL A   1      33.794  30.357  26.692  1.00  0.00    -0.352 N 
ATOM     23  C   UNL A   1      34.519  30.996  27.670  1.00  0.00     0.251 C 
ATOM     24  H   UNL A   1      33.048  30.880  26.321  1.00  0.00     0.163 HD
ATOM     25  O   UNL A   1      34.079  32.043  28.143  1.00  0.00    -0.269 OA
BRANCH  23  26
ATOM     26  C   UNL A   1      35.803  30.444  28.178  1.00  0.00     0.039 A 
ATOM     27  C   UNL A   1      35.789  29.717  29.373  1.00  0.00     0.014 A 
ATOM     28  C   UNL A   1      37.023  30.683  27.539  1.00  0.00     0.014 A 
ATOM     29  C   UNL A   1      36.980  29.200  29.897  1.00  0.00     0.010 A 
ATOM     30  C   UNL A   1      38.197  30.093  28.014  1.00  0.00     0.010 A 
ATOM     31  C   UNL A   1      38.195  29.362  29.211  1.00  0.00    -0.014 A 
BRANCH  31  32
ATOM     32  C   UNL A   1      39.462  28.789  29.746  1.00  0.00     0.031 A 
ATOM     33  C   UNL A   1      40.118  29.377  30.971  1.00  0.00     0.074 A 
ATOM     34  C   UNL A   1      40.063  27.770  29.099  1.00  0.00     0.049 A 
ATOM     35  N   UNL A   1      41.223  29.013  31.571  1.00  0.00    -0.248 NA
ATOM     36  C   UNL A   1      39.462  30.542  31.590  1.00  0.00     0.031 C 
ATOM     37  C   UNL A   1      39.589  27.164  27.854  1.00  0.00     0.029 A 
ATOM     38  N   UNL A   1      41.214  27.078  29.388  1.00  0.00    -0.354 N 
ATOM     39  C   UNL A   1      41.411  29.918  32.611  1.00  0.00     0.074 A 
ATOM     40  C   UNL A   1      40.327  30.873  32.537  1.00  0.00     0.031 C 
ATOM     41  C   UNL A   1      40.436  26.188  27.490  1.00  0.00     0.029 A 
ATOM     42  C   UNL A   1      41.523  26.111  28.461  1.00  0.00     0.049 A 
ATOM     43  H   UNL A   1      41.765  27.257  30.184  1.00  0.00     0.167 HD
ATOM     44  C   UNL A   1      42.373  29.934  33.566  1.00  0.00     0.034 A 
ATOM     45  C   UNL A   1      42.563  25.255  28.396  1.00  0.00     0.034 A 
ATOM     46  C   UNL A   1      43.423  28.957  33.673  1.00  0.00     0.049 A 
ATOM     47  C   UNL A   1      43.584  25.252  29.502  1.00  0.00     0.074 A 
ATOM     48  C   UNL A   1      44.392  28.839  34.656  1.00  0.00     0.029 A 
ATOM     49  N   UNL A   1      43.647  27.931  32.769  1.00  0.00    -0.354 N 
ATOM     50  N   UNL A   1      43.647  26.009  30.569  1.00  0.00    -0.248 NA
ATOM     51  C   UNL A   1      44.654  24.246  29.417  1.00  0.00     0.031 C 
ATOM     52  C   UNL A   1      45.210  27.750  34.337  1.00  0.00     0.029 A 
ATOM     53  C   UNL A   1      44.740  27.178  33.167  1.00  0.00     0.049 A 
ATOM     54  H   UNL A   1      43.109  27.763  31.963  1.00  0.00     0.167 HD
ATOM     55  C   UNL A   1      44.743  25.556  31.295  1.00  0.00     0.074 A 
ATOM     56  C   UNL A   1      45.296  24.438  30.561  1.00  0.00     0.031 C 
ATOM     57  C   UNL A   1      45.256  26.037  32.455  1.00  0.00     0.034 A 
BRANCH  44  58
ATOM     58  C   UNL A   1      42.292  31.010  34.619  1.00  0.00     0.023 A 
ATOM     59  C   UNL A   1      41.609  30.746  35.825  1.00  0.00     0.012 A 
ATOM     60  C   UNL A   1      42.930  32.254  34.447  1.00  0.00     0.148 A 
ATOM     61  C   UNL A   1      41.530  31.713  36.826  1.00  0.00     0.002 A 
ATOM     62  C   UNL A   1      42.884  33.198  35.468  1.00  0.00     0.091 A 
ATOM     63  F   UNL A   1      43.558  32.498  33.288  1.00  0.00    -0.205 F 
ATOM     64  C   UNL A   1      42.175  32.934  36.652  1.00  0.00     0.022 A 
BRANCH  62  65
ATOM     65  S   UNL A   1      43.748  34.770  35.371  1.00  0.00     0.127 S 
ATOM     66  O   UNL A   1      43.421  35.366  36.667  1.00  0.00    -0.237 OA
ATOM     67  O   UNL A   1      45.144  34.347  35.233  1.00  0.00    -0.237 OA
ATOM     68  O   UNL A   1      43.206  35.455  34.210  1.00  0.00    -0.744 OA
ENDBRANCH  62  65
ENDBRANCH  44  58
BRANCH  45  69
ATOM     69  C   UNL A   1      42.647  24.277  27.274  1.00  0.00     0.023 A 
ATOM     70  C   UNL A   1      43.326  24.635  26.093  1.00  0.00     0.012 A 
ATOM     71  C   UNL A   1      42.092  22.988  27.385  1.00  0.00     0.148 A 
ATOM     72  C   UNL A   1      43.428  23.734  25.032  1.00  0.00     0.002 A 
ATOM     73  C   UNL A   1      42.247  22.077  26.347  1.00  0.00     0.091 A 
ATOM     74  F   UNL A   1      41.437  22.673  28.511  1.00  0.00    -0.205 F 
ATOM     75  C   UNL A   1      42.900  22.452  25.163  1.00  0.00     0.022 A 
BRANCH  73  76
ATOM     76  S   UNL A   1      41.718  20.366  26.486  1.00  0.00     0.127 S 
ATOM     77  O   UNL A   1      40.274  20.483  26.305  1.00  0.00    -0.237 OA
ATOM     78  O   UNL A   1      42.430  19.737  25.372  1.00  0.00    -0.237 OA
ATOM     79  O   UNL A   1      42.161  19.926  27.802  1.00  0.00    -0.744 OA
ENDBRANCH  73  76
ENDBRANCH  45  69
BRANCH  57  80
ATOM     80  C   UNL A   1      46.470  25.345  33.020  1.00  0.00     0.023 A 
ATOM     81  C   UNL A   1      47.755  25.847  32.731  1.00  0.00     0.012 A 
ATOM     82  C   UNL A   1      46.338  24.239  33.883  1.00  0.00     0.148 A 
ATOM     83  C   UNL A   1      48.891  25.237  33.262  1.00  0.00     0.002 A 
ATOM     84  C   UNL A   1      47.473  23.665  34.445  1.00  0.00     0.091 A 
ATOM     85  F   UNL A   1      45.110  23.761  34.131  1.00  0.00    -0.205 F 
ATOM     86  C   UNL A   1      48.749  24.155  34.127  1.00  0.00     0.022 A 
BRANCH  84  87
ATOM     87  S   UNL A   1      47.378  22.327  35.640  1.00  0.00     0.127 S 
ATOM     88  O   UNL A   1      46.834  21.240  34.828  1.00  0.00    -0.237 OA
ATOM     89  O   UNL A   1      48.777  22.155  36.032  1.00  0.00    -0.237 OA
ATOM     90  O   UNL A   1      46.511  22.808  36.708  1.00  0.00    -0.744 OA
ENDBRANCH  84  87
ENDBRANCH  57  80
ENDBRANCH  31  32
ENDBRANCH  23  26
ENDBRANCH  21  22
ENDBRANCH   1  21
TORSDOF 15
ENDMDL
