MODEL 1
REMARK VINA RESULT:     -11.8      0.000      0.000
REMARK SMILES CC[NH+](CC)[C@](C)(C(=O)NCCCNC(=O)c1ccc(-c2c3nc(c(-c4cccc(S(=O)(=O)[O-])c4F)c4ccc([nH]4)c(-c4cccc(S(=O)(=O)[O-])c4F)c4nc(c(-c5cccc(S(=O)(=O)[O-])c5F)c5ccc2[nH]5)C=C4)C=C3)cc1)c1cc(F)c(C)cc1F
REMARK SMILES IDX 12 1 11 2 10 3 8 4 9 5 6 7 7 8 3 9 2 11 1 12 4 13 5 14 80 15
REMARK SMILES IDX 81 16 87 17 82 18 86 19 88 20 83 21 84 22 85 23 13 24 14 25
REMARK SMILES IDX 15 26 16 28 17 29 18 30 79 31 19 32 78 33 20 34 21 35 22 36
REMARK SMILES IDX 72 37 23 38 77 39 71 40 73 41 24 42 76 43 70 44 69 45 25 47
REMARK SMILES IDX 57 48 37 49 56 50 38 51 41 52 55 53 74 54 39 55 40 56 54 58
REMARK SMILES IDX 75 59 42 60 26 61 27 62 35 63 28 64 30 65 36 66 29 67 31 68
REMARK SMILES IDX 32 69 33 70 34 71 58 72 59 73 67 74 60 75 62 76 68 77 61 78
REMARK SMILES IDX 63 79 64 80 65 81 66 82 43 83 44 84 52 85 45 86 47 87 53 88
REMARK SMILES IDX 46 89 48 90 49 91 50 92 51 93
REMARK H PARENT 10 6 3 10 14 27 73 46 41 57
REMARK Flexibility Score: inf
ROOT
ATOM      1  C   UNL A   1      31.710  30.766  25.992  1.00  0.00     0.042 C 
ENDROOT
BRANCH   1   2
ATOM      2  C   UNL A   1      31.807  29.294  25.646  1.00  0.00     0.118 C 
BRANCH   2   3
ATOM      3  N   UNL A   1      32.972  28.960  24.851  1.00  0.00    -0.350 N 
ATOM      4  C   UNL A   1      33.265  27.844  24.114  1.00  0.00     0.286 C 
ATOM      5  O   UNL A   1      34.138  28.016  23.252  1.00  0.00    -0.267 OA
ATOM      6  H   UNL A   1      33.672  29.651  24.840  1.00  0.00     0.163 HD
BRANCH   4   7
ATOM      7  C   UNL A   1      32.584  26.435  24.358  1.00  0.00     0.202 C 
ATOM      8  C   UNL A   1      32.146  26.347  25.857  1.00  0.00     0.096 C 
BRANCH   7   9
ATOM      9  N   UNL A   1      31.461  26.136  23.387  1.00  0.00    -0.319 N 
ATOM     10  H   UNL A   1      32.020  25.720  22.641  1.00  0.00     0.349 HD
BRANCH   9  11
ATOM     11  C   UNL A   1      30.791  27.205  22.637  1.00  0.00     0.259 C 
ATOM     12  C   UNL A   1      29.523  27.814  23.233  1.00  0.00     0.071 C 
ENDBRANCH   9  11
BRANCH   9  13
ATOM     13  C   UNL A   1      30.474  25.178  23.943  1.00  0.00     0.259 C 
ATOM     14  C   UNL A   1      30.616  23.745  23.430  1.00  0.00     0.071 C 
ENDBRANCH   9  13
ENDBRANCH   7   9
BRANCH   7  15
ATOM     15  C   UNL A   1      33.734  25.358  24.241  1.00  0.00     0.060 A 
ATOM     16  C   UNL A   1      34.489  25.024  25.392  1.00  0.00     0.053 A 
ATOM     17  C   UNL A   1      34.053  24.655  23.068  1.00  0.00     0.133 A 
ATOM     18  C   UNL A   1      35.432  23.997  25.375  1.00  0.00     0.126 A 
ATOM     19  C   UNL A   1      34.987  23.611  23.060  1.00  0.00     0.046 A 
ATOM     20  F   UNL A   1      33.461  24.918  21.896  1.00  0.00    -0.206 F 
ATOM     21  F   UNL A   1      36.105  23.714  26.499  1.00  0.00    -0.207 F 
ATOM     22  C   UNL A   1      35.664  23.247  24.225  1.00  0.00    -0.012 A 
ATOM     23  C   UNL A   1      36.640  22.115  24.235  1.00  0.00     0.047 C 
ENDBRANCH   7  15
ENDBRANCH   4   7
ENDBRANCH   2   3
ENDBRANCH   1   2
BRANCH   1  24
ATOM     24  C   UNL A   1      32.535  31.151  27.211  1.00  0.00     0.118 C 
BRANCH  24  25
ATOM     25  N   UNL A   1      32.791  32.586  27.313  1.00  0.00    -0.352 N 
ATOM     26  C   UNL A   1      33.878  33.272  27.811  1.00  0.00     0.251 C 
ATOM     27  H   UNL A   1      32.067  33.158  26.969  1.00  0.00     0.163 HD
ATOM     28  O   UNL A   1      33.827  34.484  27.949  1.00  0.00    -0.269 OA
BRANCH  26  29
ATOM     29  C   UNL A   1      35.090  32.522  28.204  1.00  0.00     0.039 A 
ATOM     30  C   UNL A   1      36.326  33.172  28.225  1.00  0.00     0.014 A 
ATOM     31  C   UNL A   1      34.992  31.190  28.598  1.00  0.00     0.014 A 
ATOM     32  C   UNL A   1      37.441  32.510  28.748  1.00  0.00     0.010 A 
ATOM     33  C   UNL A   1      36.062  30.585  29.236  1.00  0.00     0.010 A 
ATOM     34  C   UNL A   1      37.304  31.232  29.313  1.00  0.00    -0.014 A 
BRANCH  34  35
ATOM     35  C   UNL A   1      38.428  30.538  29.991  1.00  0.00     0.031 A 
ATOM     36  C   UNL A   1      38.790  30.906  31.405  1.00  0.00     0.074 A 
ATOM     37  C   UNL A   1      39.200  29.675  29.298  1.00  0.00     0.049 A 
ATOM     38  N   UNL A   1      39.815  30.524  32.123  1.00  0.00    -0.248 NA
ATOM     39  C   UNL A   1      37.913  31.874  32.087  1.00  0.00     0.031 C 
ATOM     40  C   UNL A   1      39.012  29.303  27.894  1.00  0.00     0.029 A 
ATOM     41  N   UNL A   1      40.315  28.970  29.678  1.00  0.00    -0.354 N 
ATOM     42  C   UNL A   1      39.736  31.246  33.307  1.00  0.00     0.074 A 
ATOM     43  C   UNL A   1      38.596  32.128  33.192  1.00  0.00     0.031 C 
ATOM     44  C   UNL A   1      39.959  28.419  27.540  1.00  0.00     0.029 A 
ATOM     45  C   UNL A   1      40.842  28.187  28.677  1.00  0.00     0.049 A 
ATOM     46  H   UNL A   1      40.702  29.022  30.581  1.00  0.00     0.167 HD
ATOM     47  C   UNL A   1      40.511  31.154  34.414  1.00  0.00     0.034 A 
ATOM     48  C   UNL A   1      41.913  27.369  28.680  1.00  0.00     0.034 A 
ATOM     49  C   UNL A   1      41.589  30.216  34.556  1.00  0.00     0.049 A 
ATOM     50  C   UNL A   1      42.713  27.225  29.947  1.00  0.00     0.074 A 
ATOM     51  C   UNL A   1      42.374  29.967  35.667  1.00  0.00     0.029 A 
ATOM     52  N   UNL A   1      42.023  29.359  33.557  1.00  0.00    -0.354 N 
ATOM     53  N   UNL A   1      42.534  27.809  31.107  1.00  0.00    -0.248 NA
ATOM     54  C   UNL A   1      43.842  26.284  29.915  1.00  0.00     0.031 C 
ATOM     55  C   UNL A   1      43.285  28.958  35.338  1.00  0.00     0.029 A 
ATOM     56  C   UNL A   1      43.061  28.574  34.025  1.00  0.00     0.049 A 
ATOM     57  H   UNL A   1      41.648  29.316  32.648  1.00  0.00     0.167 HD
ATOM     58  C   UNL A   1      43.500  27.278  31.954  1.00  0.00     0.074 A 
ATOM     59  C   UNL A   1      44.251  26.314  31.176  1.00  0.00     0.031 C 
ATOM     60  C   UNL A   1      43.753  27.572  33.253  1.00  0.00     0.034 A 
BRANCH  47  61
ATOM     61  C   UNL A   1      40.158  32.041  35.580  1.00  0.00     0.023 A 
ATOM     62  C   UNL A   1      40.922  33.204  35.820  1.00  0.00     0.012 A 
ATOM     63  C   UNL A   1      39.075  31.744  36.429  1.00  0.00     0.148 A 
ATOM     64  C   UNL A   1      40.649  34.024  36.914  1.00  0.00     0.002 A 
ATOM     65  C   UNL A   1      38.779  32.593  37.490  1.00  0.00     0.091 A 
ATOM     66  F   UNL A   1      38.373  30.623  36.206  1.00  0.00    -0.205 F 
ATOM     67  C   UNL A   1      39.573  33.724  37.742  1.00  0.00     0.022 A 
BRANCH  65  68
ATOM     68  S   UNL A   1      37.361  32.329  38.562  1.00  0.00     0.127 S 
ATOM     69  O   UNL A   1      37.787  33.007  39.786  1.00  0.00    -0.237 OA
ATOM     70  O   UNL A   1      36.288  33.007  37.833  1.00  0.00    -0.237 OA
ATOM     71  O   UNL A   1      37.205  30.885  38.659  1.00  0.00    -0.744 OA
ENDBRANCH  65  68
ENDBRANCH  47  61
BRANCH  48  72
ATOM     72  C   UNL A   1      42.217  26.538  27.481  1.00  0.00     0.023 A 
ATOM     73  C   UNL A   1      42.876  27.139  26.390  1.00  0.00     0.012 A 
ATOM     74  C   UNL A   1      41.907  25.166  27.425  1.00  0.00     0.148 A 
ATOM     75  C   UNL A   1      43.196  26.397  25.253  1.00  0.00     0.002 A 
ATOM     76  C   UNL A   1      42.273  24.421  26.308  1.00  0.00     0.091 A 
ATOM     77  F   UNL A   1      41.274  24.614  28.469  1.00  0.00    -0.205 F 
ATOM     78  C   UNL A   1      42.904  25.037  25.216  1.00  0.00     0.022 A 
BRANCH  76  79
ATOM     79  S   UNL A   1      42.053  22.640  26.222  1.00  0.00     0.127 S 
ATOM     80  O   UNL A   1      40.597  22.517  26.236  1.00  0.00    -0.237 OA
ATOM     81  O   UNL A   1      42.686  22.318  24.942  1.00  0.00    -0.237 OA
ATOM     82  O   UNL A   1      42.746  22.101  27.384  1.00  0.00    -0.744 OA
ENDBRANCH  76  79
ENDBRANCH  48  72
BRANCH  60  83
ATOM     83  C   UNL A   1      44.862  26.819  33.935  1.00  0.00     0.023 A 
ATOM     84  C   UNL A   1      46.184  27.299  33.855  1.00  0.00     0.012 A 
ATOM     85  C   UNL A   1      44.582  25.685  34.722  1.00  0.00     0.148 A 
ATOM     86  C   UNL A   1      47.215  26.647  34.529  1.00  0.00     0.002 A 
ATOM     87  C   UNL A   1      45.607  25.067  35.427  1.00  0.00     0.091 A 
ATOM     88  F   UNL A   1      43.320  25.231  34.767  1.00  0.00    -0.205 F 
ATOM     89  C   UNL A   1      46.926  25.539  35.323  1.00  0.00     0.022 A 
BRANCH  87  90
ATOM     90  S   UNL A   1      45.307  23.695  36.548  1.00  0.00     0.127 S 
ATOM     91  O   UNL A   1      46.668  23.288  36.892  1.00  0.00    -0.237 OA
ATOM     92  O   UNL A   1      44.568  24.337  37.637  1.00  0.00    -0.237 OA
ATOM     93  O   UNL A   1      44.532  22.723  35.788  1.00  0.00    -0.744 OA
ENDBRANCH  87  90
ENDBRANCH  60  83
ENDBRANCH  34  35
ENDBRANCH  26  29
ENDBRANCH  24  25
ENDBRANCH   1  24
TORSDOF 17
ENDMDL
MODEL 2
REMARK VINA RESULT:     -11.8      1.726      2.916
REMARK SMILES CC[NH+](CC)[C@](C)(C(=O)NCCCNC(=O)c1ccc(-c2c3nc(c(-c4cccc(S(=O)(=O)[O-])c4F)c4ccc([nH]4)c(-c4cccc(S(=O)(=O)[O-])c4F)c4nc(c(-c5cccc(S(=O)(=O)[O-])c5F)c5ccc2[nH]5)C=C4)C=C3)cc1)c1cc(F)c(C)cc1F
REMARK SMILES IDX 12 1 11 2 10 3 8 4 9 5 6 7 7 8 3 9 2 11 1 12 4 13 5 14 80 15
REMARK SMILES IDX 81 16 87 17 82 18 86 19 88 20 83 21 84 22 85 23 13 24 14 25
REMARK SMILES IDX 15 26 16 28 17 29 18 30 79 31 19 32 78 33 20 34 21 35 22 36
REMARK SMILES IDX 72 37 23 38 77 39 71 40 73 41 24 42 76 43 70 44 69 45 25 47
REMARK SMILES IDX 57 48 37 49 56 50 38 51 41 52 55 53 74 54 39 55 40 56 54 58
REMARK SMILES IDX 75 59 42 60 26 61 27 62 35 63 28 64 30 65 36 66 29 67 31 68
REMARK SMILES IDX 32 69 33 70 34 71 58 72 59 73 67 74 60 75 62 76 68 77 61 78
REMARK SMILES IDX 63 79 64 80 65 81 66 82 43 83 44 84 52 85 45 86 47 87 53 88
REMARK SMILES IDX 46 89 48 90 49 91 50 92 51 93
REMARK H PARENT 10 6 3 10 14 27 73 46 41 57
REMARK Flexibility Score: inf
ROOT
ATOM      1  C   UNL A   1      31.455  29.517  26.836  1.00  0.00     0.042 C 
ENDROOT
BRANCH   1   2
ATOM      2  C   UNL A   1      31.959  28.304  27.590  1.00  0.00     0.118 C 
BRANCH   2   3
ATOM      3  N   UNL A   1      31.205  27.096  27.317  1.00  0.00    -0.350 N 
ATOM      4  C   UNL A   1      31.478  26.032  26.500  1.00  0.00     0.286 C 
ATOM      5  O   UNL A   1      30.849  25.001  26.775  1.00  0.00    -0.267 OA
ATOM      6  H   UNL A   1      30.351  27.029  27.801  1.00  0.00     0.163 HD
BRANCH   4   7
ATOM      7  C   UNL A   1      32.482  26.109  25.277  1.00  0.00     0.202 C 
ATOM      8  C   UNL A   1      33.776  26.855  25.740  1.00  0.00     0.096 C 
BRANCH   7   9
ATOM      9  N   UNL A   1      32.761  24.762  24.644  1.00  0.00    -0.319 N 
ATOM     10  H   UNL A   1      32.397  24.171  25.392  1.00  0.00     0.349 HD
BRANCH   9  11
ATOM     11  C   UNL A   1      34.125  24.232  24.542  1.00  0.00     0.259 C 
ATOM     12  C   UNL A   1      34.560  23.619  23.211  1.00  0.00     0.071 C 
ENDBRANCH   9  11
BRANCH   9  13
ATOM     13  C   UNL A   1      32.019  24.571  23.374  1.00  0.00     0.259 C 
ATOM     14  C   UNL A   1      30.838  23.604  23.462  1.00  0.00     0.071 C 
ENDBRANCH   9  13
ENDBRANCH   7   9
BRANCH   7  15
ATOM     15  C   UNL A   1      31.833  27.100  24.231  1.00  0.00     0.060 A 
ATOM     16  C   UNL A   1      30.421  27.207  24.163  1.00  0.00     0.053 A 
ATOM     17  C   UNL A   1      32.557  27.937  23.367  1.00  0.00     0.133 A 
ATOM     18  C   UNL A   1      29.799  28.152  23.346  1.00  0.00     0.126 A 
ATOM     19  C   UNL A   1      31.929  28.896  22.563  1.00  0.00     0.046 A 
ATOM     20  F   UNL A   1      33.893  27.890  23.283  1.00  0.00    -0.206 F 
ATOM     21  F   UNL A   1      28.460  28.219  23.336  1.00  0.00    -0.207 F 
ATOM     22  C   UNL A   1      30.540  29.037  22.570  1.00  0.00    -0.012 A 
ATOM     23  C   UNL A   1      29.860  30.078  21.739  1.00  0.00     0.047 C 
ENDBRANCH   7  15
ENDBRANCH   4   7
ENDBRANCH   2   3
ENDBRANCH   1   2
BRANCH   1  24
ATOM     24  C   UNL A   1      32.574  30.364  26.247  1.00  0.00     0.118 C 
BRANCH  24  25
ATOM     25  N   UNL A   1      32.518  31.767  26.653  1.00  0.00    -0.352 N 
ATOM     26  C   UNL A   1      33.370  32.508  27.445  1.00  0.00     0.251 C 
ATOM     27  H   UNL A   1      31.744  32.266  26.303  1.00  0.00     0.163 HD
ATOM     28  O   UNL A   1      33.057  33.635  27.794  1.00  0.00    -0.269 OA
BRANCH  26  29
ATOM     29  C   UNL A   1      34.647  31.912  27.892  1.00  0.00     0.039 A 
ATOM     30  C   UNL A   1      35.764  32.731  28.071  1.00  0.00     0.014 A 
ATOM     31  C   UNL A   1      34.721  30.551  28.179  1.00  0.00     0.014 A 
ATOM     32  C   UNL A   1      36.922  32.196  28.643  1.00  0.00     0.010 A 
ATOM     33  C   UNL A   1      35.817  30.057  28.867  1.00  0.00     0.010 A 
ATOM     34  C   UNL A   1      36.936  30.869  29.101  1.00  0.00    -0.014 A 
BRANCH  34  35
ATOM     35  C   UNL A   1      38.096  30.290  29.827  1.00  0.00     0.031 A 
ATOM     36  C   UNL A   1      38.371  30.705  31.248  1.00  0.00     0.074 A 
ATOM     37  C   UNL A   1      38.970  29.498  29.173  1.00  0.00     0.049 A 
ATOM     38  N   UNL A   1      39.401  30.429  32.006  1.00  0.00    -0.248 NA
ATOM     39  C   UNL A   1      37.382  31.592  31.886  1.00  0.00     0.031 C 
ATOM     40  C   UNL A   1      38.868  29.097  27.767  1.00  0.00     0.029 A 
ATOM     41  N   UNL A   1      40.132  28.906  29.600  1.00  0.00    -0.354 N 
ATOM     42  C   UNL A   1      39.211  31.151  33.177  1.00  0.00     0.074 A 
ATOM     43  C   UNL A   1      37.998  31.920  33.011  1.00  0.00     0.031 C 
ATOM     44  C   UNL A   1      39.906  28.303  27.458  1.00  0.00     0.029 A 
ATOM     45  C   UNL A   1      40.766  28.166  28.628  1.00  0.00     0.049 A 
ATOM     46  H   UNL A   1      40.480  29.002  30.516  1.00  0.00     0.167 HD
ATOM     47  C   UNL A   1      39.951  31.144  34.312  1.00  0.00     0.034 A 
ATOM     48  C   UNL A   1      41.909  27.454  28.679  1.00  0.00     0.034 A 
ATOM     49  C   UNL A   1      41.107  30.313  34.503  1.00  0.00     0.049 A 
ATOM     50  C   UNL A   1      42.673  27.399  29.975  1.00  0.00     0.074 A 
ATOM     51  C   UNL A   1      41.872  30.150  35.644  1.00  0.00     0.029 A 
ATOM     52  N   UNL A   1      41.656  29.492  33.531  1.00  0.00    -0.354 N 
ATOM     53  N   UNL A   1      42.399  27.974  31.120  1.00  0.00    -0.248 NA
ATOM     54  C   UNL A   1      43.886  26.568  29.994  1.00  0.00     0.031 C 
ATOM     55  C   UNL A   1      42.886  29.229  35.360  1.00  0.00     0.029 A 
ATOM     56  C   UNL A   1      42.746  28.813  34.044  1.00  0.00     0.049 A 
ATOM     57  H   UNL A   1      41.319  29.405  32.610  1.00  0.00     0.167 HD
ATOM     58  C   UNL A   1      43.379  27.545  32.007  1.00  0.00     0.074 A 
ATOM     59  C   UNL A   1      44.245  26.648  31.268  1.00  0.00     0.031 C 
ATOM     60  C   UNL A   1      43.556  27.874  33.311  1.00  0.00     0.034 A 
BRANCH  47  61
ATOM     61  C   UNL A   1      39.475  32.005  35.453  1.00  0.00     0.023 A 
ATOM     62  C   UNL A   1      38.557  31.473  36.384  1.00  0.00     0.012 A 
ATOM     63  C   UNL A   1      39.934  33.325  35.619  1.00  0.00     0.148 A 
ATOM     64  C   UNL A   1      38.064  32.255  37.427  1.00  0.00     0.002 A 
ATOM     65  C   UNL A   1      39.475  34.084  36.690  1.00  0.00     0.091 A 
ATOM     66  F   UNL A   1      40.787  33.828  34.713  1.00  0.00    -0.205 F 
ATOM     67  C   UNL A   1      38.530  33.556  37.585  1.00  0.00     0.022 A 
BRANCH  65  68
ATOM     68  S   UNL A   1      40.081  35.743  37.020  1.00  0.00     0.127 S 
ATOM     69  O   UNL A   1      39.657  36.457  35.816  1.00  0.00    -0.237 OA
ATOM     70  O   UNL A   1      39.346  36.108  38.233  1.00  0.00    -0.237 OA
ATOM     71  O   UNL A   1      41.518  35.608  37.204  1.00  0.00    -0.744 OA
ENDBRANCH  65  68
ENDBRANCH  47  61
BRANCH  48  72
ATOM     72  C   UNL A   1      42.333  26.644  27.503  1.00  0.00     0.023 A 
ATOM     73  C   UNL A   1      43.107  27.260  26.499  1.00  0.00     0.012 A 
ATOM     74  C   UNL A   1      42.022  25.276  27.386  1.00  0.00     0.148 A 
ATOM     75  C   UNL A   1      43.541  26.538  25.387  1.00  0.00     0.002 A 
ATOM     76  C   UNL A   1      42.500  24.549  26.299  1.00  0.00     0.091 A 
ATOM     77  F   UNL A   1      41.279  24.708  28.346  1.00  0.00    -0.205 F 
ATOM     78  C   UNL A   1      43.246  25.181  25.292  1.00  0.00     0.022 A 
BRANCH  76  79
ATOM     79  S   UNL A   1      42.279  22.772  26.154  1.00  0.00     0.127 S 
ATOM     80  O   UNL A   1      42.855  22.505  24.838  1.00  0.00    -0.237 OA
ATOM     81  O   UNL A   1      43.066  22.276  27.283  1.00  0.00    -0.237 OA
ATOM     82  O   UNL A   1      40.846  22.542  26.277  1.00  0.00    -0.744 OA
ENDBRANCH  76  79
ENDBRANCH  48  72
BRANCH  60  83
ATOM     83  C   UNL A   1      44.707  27.236  34.041  1.00  0.00     0.023 A 
ATOM     84  C   UNL A   1      45.966  27.866  34.044  1.00  0.00     0.012 A 
ATOM     85  C   UNL A   1      44.518  26.058  34.790  1.00  0.00     0.148 A 
ATOM     86  C   UNL A   1      47.028  27.319  34.763  1.00  0.00     0.002 A 
ATOM     87  C   UNL A   1      45.567  25.544  35.540  1.00  0.00     0.091 A 
ATOM     88  F   UNL A   1      43.316  25.463  34.754  1.00  0.00    -0.205 F 
ATOM     89  C   UNL A   1      46.827  26.167  35.519  1.00  0.00     0.022 A 
BRANCH  87  90
ATOM     90  S   UNL A   1      45.367  24.120  36.616  1.00  0.00     0.127 S 
ATOM     91  O   UNL A   1      46.728  23.927  37.112  1.00  0.00    -0.237 OA
ATOM     92  O   UNL A   1      44.418  24.614  37.615  1.00  0.00    -0.237 OA
ATOM     93  O   UNL A   1      44.848  23.052  35.771  1.00  0.00    -0.744 OA
ENDBRANCH  87  90
ENDBRANCH  60  83
ENDBRANCH  34  35
ENDBRANCH  26  29
ENDBRANCH  24  25
ENDBRANCH   1  24
TORSDOF 17
ENDMDL
MODEL 3
REMARK VINA RESULT:     -11.7      5.287     10.418
REMARK SMILES CC[NH+](CC)[C@](C)(C(=O)NCCCNC(=O)c1ccc(-c2c3nc(c(-c4cccc(S(=O)(=O)[O-])c4F)c4ccc([nH]4)c(-c4cccc(S(=O)(=O)[O-])c4F)c4nc(c(-c5cccc(S(=O)(=O)[O-])c5F)c5ccc2[nH]5)C=C4)C=C3)cc1)c1cc(F)c(C)cc1F
REMARK SMILES IDX 12 1 11 2 10 3 8 4 9 5 6 7 7 8 3 9 2 11 1 12 4 13 5 14 80 15
REMARK SMILES IDX 81 16 87 17 82 18 86 19 88 20 83 21 84 22 85 23 13 24 14 25
REMARK SMILES IDX 15 26 16 28 17 29 18 30 79 31 19 32 78 33 20 34 21 35 22 36
REMARK SMILES IDX 72 37 23 38 77 39 71 40 73 41 24 42 76 43 70 44 69 45 25 47
REMARK SMILES IDX 57 48 37 49 56 50 38 51 41 52 55 53 74 54 39 55 40 56 54 58
REMARK SMILES IDX 75 59 42 60 26 61 27 62 35 63 28 64 30 65 36 66 29 67 31 68
REMARK SMILES IDX 32 69 33 70 34 71 58 72 59 73 67 74 60 75 62 76 68 77 61 78
REMARK SMILES IDX 63 79 64 80 65 81 66 82 43 83 44 84 52 85 45 86 47 87 53 88
REMARK SMILES IDX 46 89 48 90 49 91 50 92 51 93
REMARK H PARENT 10 6 3 10 14 27 73 46 41 57
REMARK Flexibility Score: inf
ROOT
ATOM      1  C   UNL A   1      35.929  21.394  25.536  1.00  0.00     0.042 C 
ENDROOT
BRANCH   1   2
ATOM      2  C   UNL A   1      35.109  22.667  25.556  1.00  0.00     0.118 C 
BRANCH   2   3
ATOM      3  N   UNL A   1      34.355  22.854  26.781  1.00  0.00    -0.350 N 
ATOM      4  C   UNL A   1      33.010  22.786  27.025  1.00  0.00     0.286 C 
ATOM      5  O   UNL A   1      32.716  22.606  28.216  1.00  0.00    -0.267 OA
ATOM      6  H   UNL A   1      34.904  23.066  27.570  1.00  0.00     0.163 HD
BRANCH   4   7
ATOM      7  C   UNL A   1      31.910  22.963  25.900  1.00  0.00     0.202 C 
ATOM      8  C   UNL A   1      30.509  22.644  26.518  1.00  0.00     0.096 C 
BRANCH   7   9
ATOM      9  N   UNL A   1      31.968  24.311  25.211  1.00  0.00    -0.319 N 
ATOM     10  H   UNL A   1      32.372  24.005  24.325  1.00  0.00     0.349 HD
BRANCH   9  11
ATOM     11  C   UNL A   1      32.951  25.328  25.600  1.00  0.00     0.259 C 
ATOM     12  C   UNL A   1      33.915  25.842  24.532  1.00  0.00     0.071 C 
ENDBRANCH   9  11
BRANCH   9  13
ATOM     13  C   UNL A   1      30.623  24.911  25.033  1.00  0.00     0.259 C 
ATOM     14  C   UNL A   1      30.448  26.288  25.675  1.00  0.00     0.071 C 
ENDBRANCH   9  13
ENDBRANCH   7   9
BRANCH   7  15
ATOM     15  C   UNL A   1      32.139  21.790  24.866  1.00  0.00     0.060 A 
ATOM     16  C   UNL A   1      32.332  20.471  25.347  1.00  0.00     0.053 A 
ATOM     17  C   UNL A   1      32.127  21.942  23.470  1.00  0.00     0.133 A 
ATOM     18  C   UNL A   1      32.417  19.382  24.479  1.00  0.00     0.126 A 
ATOM     19  C   UNL A   1      32.193  20.844  22.604  1.00  0.00     0.046 A 
ATOM     20  F   UNL A   1      32.019  23.142  22.884  1.00  0.00    -0.206 F 
ATOM     21  F   UNL A   1      32.583  18.155  24.993  1.00  0.00    -0.207 F 
ATOM     22  C   UNL A   1      32.306  19.545  23.101  1.00  0.00    -0.012 A 
ATOM     23  C   UNL A   1      32.347  18.363  22.187  1.00  0.00     0.047 C 
ENDBRANCH   7  15
ENDBRANCH   4   7
ENDBRANCH   2   3
ENDBRANCH   1   2
BRANCH   1  24
ATOM     24  C   UNL A   1      37.325  21.589  24.961  1.00  0.00     0.118 C 
BRANCH  24  25
ATOM     25  N   UNL A   1      38.288  20.590  25.419  1.00  0.00    -0.352 N 
ATOM     26  C   UNL A   1      39.473  20.735  26.110  1.00  0.00     0.251 C 
ATOM     27  H   UNL A   1      38.053  19.659  25.198  1.00  0.00     0.163 HD
ATOM     28  O   UNL A   1      40.215  19.778  26.260  1.00  0.00    -0.269 OA
BRANCH  26  29
ATOM     29  C   UNL A   1      39.847  22.065  26.637  1.00  0.00     0.039 A 
ATOM     30  C   UNL A   1      40.841  22.165  27.612  1.00  0.00     0.014 A 
ATOM     31  C   UNL A   1      39.245  23.213  26.128  1.00  0.00     0.014 A 
ATOM     32  C   UNL A   1      41.305  23.427  27.993  1.00  0.00     0.010 A 
ATOM     33  C   UNL A   1      39.796  24.453  26.406  1.00  0.00     0.010 A 
ATOM     34  C   UNL A   1      40.827  24.580  27.348  1.00  0.00    -0.014 A 
BRANCH  34  35
ATOM     35  C   UNL A   1      41.375  25.932  27.627  1.00  0.00     0.031 A 
ATOM     36  C   UNL A   1      42.761  26.288  27.159  1.00  0.00     0.074 A 
ATOM     37  C   UNL A   1      40.684  26.788  28.407  1.00  0.00     0.049 A 
ATOM     38  N   UNL A   1      43.473  27.355  27.419  1.00  0.00    -0.248 NA
ATOM     39  C   UNL A   1      43.462  25.290  26.332  1.00  0.00     0.031 C 
ATOM     40  C   UNL A   1      39.370  26.528  29.002  1.00  0.00     0.029 A 
ATOM     41  N   UNL A   1      41.002  28.047  28.854  1.00  0.00    -0.354 N 
ATOM     42  C   UNL A   1      44.716  27.128  26.840  1.00  0.00     0.074 A 
ATOM     43  C   UNL A   1      44.680  25.803  26.263  1.00  0.00     0.031 C 
ATOM     44  C   UNL A   1      38.984  27.602  29.709  1.00  0.00     0.029 A 
ATOM     45  C   UNL A   1      40.034  28.613  29.650  1.00  0.00     0.049 A 
ATOM     46  H   UNL A   1      41.846  28.500  28.627  1.00  0.00     0.167 HD
ATOM     47  C   UNL A   1      45.779  27.962  26.751  1.00  0.00     0.034 A 
ATOM     48  C   UNL A   1      39.995  29.815  30.257  1.00  0.00     0.034 A 
ATOM     49  C   UNL A   1      45.778  29.309  27.251  1.00  0.00     0.049 A 
ATOM     50  C   UNL A   1      41.157  30.756  30.080  1.00  0.00     0.074 A 
ATOM     51  C   UNL A   1      46.762  30.274  27.128  1.00  0.00     0.029 A 
ATOM     52  N   UNL A   1      44.735  29.886  27.957  1.00  0.00    -0.354 N 
ATOM     53  N   UNL A   1      42.267  30.579  29.405  1.00  0.00    -0.248 NA
ATOM     54  C   UNL A   1      41.047  32.074  30.721  1.00  0.00     0.031 C 
ATOM     55  C   UNL A   1      46.311  31.437  27.761  1.00  0.00     0.029 A 
ATOM     56  C   UNL A   1      45.043  31.197  28.271  1.00  0.00     0.049 A 
ATOM     57  H   UNL A   1      43.897  29.430  28.198  1.00  0.00     0.167 HD
ATOM     58  C   UNL A   1      42.968  31.774  29.504  1.00  0.00     0.074 A 
ATOM     59  C   UNL A   1      42.150  32.673  30.292  1.00  0.00     0.031 C 
ATOM     60  C   UNL A   1      44.186  32.096  29.001  1.00  0.00     0.034 A 
BRANCH  47  61
ATOM     61  C   UNL A   1      46.994  27.457  26.017  1.00  0.00     0.023 A 
ATOM     62  C   UNL A   1      47.945  26.676  26.708  1.00  0.00     0.012 A 
ATOM     63  C   UNL A   1      47.196  27.737  24.652  1.00  0.00     0.148 A 
ATOM     64  C   UNL A   1      49.100  26.228  26.070  1.00  0.00     0.002 A 
ATOM     65  C   UNL A   1      48.328  27.246  24.009  1.00  0.00     0.091 A 
ATOM     66  F   UNL A   1      46.299  28.501  24.012  1.00  0.00    -0.205 F 
ATOM     67  C   UNL A   1      49.287  26.505  24.720  1.00  0.00     0.022 A 
BRANCH  65  68
ATOM     68  S   UNL A   1      48.612  27.484  22.252  1.00  0.00     0.127 S 
ATOM     69  O   UNL A   1      48.821  26.111  21.797  1.00  0.00    -0.237 OA
ATOM     70  O   UNL A   1      47.353  28.087  21.810  1.00  0.00    -0.237 OA
ATOM     71  O   UNL A   1      49.767  28.366  22.156  1.00  0.00    -0.744 OA
ENDBRANCH  65  68
ENDBRANCH  47  61
BRANCH  48  72
ATOM     72  C   UNL A   1      38.769  30.240  30.988  1.00  0.00     0.023 A 
ATOM     73  C   UNL A   1      38.673  29.966  32.367  1.00  0.00     0.012 A 
ATOM     74  C   UNL A   1      37.727  30.943  30.355  1.00  0.00     0.148 A 
ATOM     75  C   UNL A   1      37.551  30.359  33.097  1.00  0.00     0.002 A 
ATOM     76  C   UNL A   1      36.632  31.375  31.099  1.00  0.00     0.091 A 
ATOM     77  F   UNL A   1      37.832  31.188  29.041  1.00  0.00    -0.205 F 
ATOM     78  C   UNL A   1      36.536  31.071  32.466  1.00  0.00     0.022 A 
BRANCH  76  79
ATOM     79  S   UNL A   1      35.338  32.407  30.401  1.00  0.00     0.127 S 
ATOM     80  O   UNL A   1      34.395  32.498  31.513  1.00  0.00    -0.237 OA
ATOM     81  O   UNL A   1      36.062  33.643  30.105  1.00  0.00    -0.237 OA
ATOM     82  O   UNL A   1      34.861  31.697  29.222  1.00  0.00    -0.744 OA
ENDBRANCH  76  79
ENDBRANCH  48  72
BRANCH  60  83
ATOM     83  C   UNL A   1      44.698  33.489  29.252  1.00  0.00     0.023 A 
ATOM     84  C   UNL A   1      45.356  33.783  30.462  1.00  0.00     0.012 A 
ATOM     85  C   UNL A   1      44.601  34.479  28.256  1.00  0.00     0.148 A 
ATOM     86  C   UNL A   1      45.888  35.051  30.687  1.00  0.00     0.002 A 
ATOM     87  C   UNL A   1      45.174  35.727  28.469  1.00  0.00     0.091 A 
ATOM     88  F   UNL A   1      43.951  34.185  27.120  1.00  0.00    -0.205 F 
ATOM     89  C   UNL A   1      45.808  36.019  29.688  1.00  0.00     0.022 A 
BRANCH  87  90
ATOM     90  S   UNL A   1      45.199  36.998  27.200  1.00  0.00     0.127 S 
ATOM     91  O   UNL A   1      45.993  36.359  26.153  1.00  0.00    -0.237 OA
ATOM     92  O   UNL A   1      43.778  37.150  26.881  1.00  0.00    -0.237 OA
ATOM     93  O   UNL A   1      45.804  38.169  27.821  1.00  0.00    -0.744 OA
ENDBRANCH  87  90
ENDBRANCH  60  83
ENDBRANCH  34  35
ENDBRANCH  26  29
ENDBRANCH  24  25
ENDBRANCH   1  24
TORSDOF 17
ENDMDL
