MODEL 1
REMARK VINA RESULT:     -11.5      0.000      0.000
REMARK SMILES O=C(C[C@H]1CN(C(=O)c2sccc2Br)CCO1)NCCCNC(=O)c1ccc(-c2c3nc(c(-c4cccc(S(=O)(=O)[O-])c4F)c4ccc([nH]4)c(-c4cccc(S(=O)(=O)[O-])c4F)c4nc(c(-c5cccc(S(=O)(=O)[O-])c5F)c5ccc2[nH]5)C=C4)C=C3)cc1
REMARK SMILES IDX 20 1 19 2 18 3 1 4 2 5 3 7 4 8 5 9 17 10 6 11 16 12 15 13
REMARK SMILES IDX 7 14 8 15 9 16 10 17 13 18 11 19 12 20 14 21 21 22 22 23
REMARK SMILES IDX 23 24 24 26 25 27 26 28 87 29 27 30 86 31 28 32 29 33 30 34
REMARK SMILES IDX 80 35 31 36 85 37 79 38 81 39 32 40 84 41 78 42 77 43 33 45
REMARK SMILES IDX 65 46 45 47 64 48 46 49 49 50 63 51 82 52 47 53 48 54 62 56
REMARK SMILES IDX 83 57 50 58 34 59 35 60 43 61 36 62 38 63 44 64 37 65 39 66
REMARK SMILES IDX 40 67 41 68 42 69 66 70 67 71 75 72 68 73 70 74 76 75 69 76
REMARK SMILES IDX 71 77 72 78 73 79 74 80 51 81 52 82 60 83 53 84 55 85 61 86
REMARK SMILES IDX 54 87 56 88 57 89 58 90 59 91
REMARK H PARENT 18 6 22 25 81 44 49 55
REMARK Flexibility Score: inf
ROOT
ATOM      1  C   UNL A   1      34.897  21.578  26.528  1.00  0.00     0.042 C 
ENDROOT
BRANCH   1   2
ATOM      2  C   UNL A   1      34.100  22.699  27.183  1.00  0.00     0.117 C 
BRANCH   2   3
ATOM      3  N   UNL A   1      33.395  23.546  26.245  1.00  0.00    -0.356 N 
ATOM      4  O   UNL A   1      31.446  23.578  27.433  1.00  0.00    -0.275 OA
ATOM      5  C   UNL A   1      32.121  23.989  26.491  1.00  0.00     0.222 C 
ATOM      6  H   UNL A   1      33.841  23.812  25.410  1.00  0.00     0.163 HD
BRANCH   5   7
ATOM      7  C   UNL A   1      31.546  24.994  25.515  1.00  0.00     0.133 C 
BRANCH   7   8
ATOM      8  C   UNL A   1      30.974  24.514  24.170  1.00  0.00     0.147 C 
ATOM      9  C   UNL A   1      30.920  25.662  23.127  1.00  0.00     0.152 C 
ATOM     10  O   UNL A   1      31.619  23.350  23.618  1.00  0.00    -0.374 OA
ATOM     11  N   UNL A   1      32.251  25.907  22.558  1.00  0.00    -0.333 N 
ATOM     12  C   UNL A   1      32.934  23.618  23.099  1.00  0.00     0.182 C 
ATOM     13  C   UNL A   1      32.901  24.709  22.035  1.00  0.00     0.148 C 
BRANCH  11  14
ATOM     14  C   UNL A   1      32.930  27.124  22.534  1.00  0.00     0.265 C 
ATOM     15  O   UNL A   1      33.720  27.394  21.628  1.00  0.00    -0.268 OA
BRANCH  14  16
ATOM     16  C   UNL A   1      32.640  28.074  23.582  1.00  0.00     0.106 A 
ATOM     17  S   UNL A   1      33.607  28.047  25.000  1.00  0.00    -0.137 S 
ATOM     18  C   UNL A   1      31.614  28.982  23.699  1.00  0.00     0.041 A 
ATOM     19  C   UNL A   1      32.657  29.259  25.746  1.00  0.00     0.067 A 
ATOM     20  C   UNL A   1      31.628  29.685  24.933  1.00  0.00     0.028 A 
ATOM     21  Br  UNL A   1      30.275  29.322  22.412  1.00  0.00    -0.049 Br
ENDBRANCH  14  16
ENDBRANCH  11  14
ENDBRANCH   7   8
ENDBRANCH   5   7
ENDBRANCH   2   3
ENDBRANCH   1   2
BRANCH   1  22
ATOM     22  C   UNL A   1      36.156  22.034  25.797  1.00  0.00     0.118 C 
BRANCH  22  23
ATOM     23  N   UNL A   1      37.203  21.023  25.772  1.00  0.00    -0.352 N 
ATOM     24  C   UNL A   1      38.560  21.135  25.935  1.00  0.00     0.251 C 
ATOM     25  H   UNL A   1      36.884  20.105  25.611  1.00  0.00     0.163 HD
ATOM     26  O   UNL A   1      39.265  20.145  25.749  1.00  0.00    -0.269 OA
BRANCH  24  27
ATOM     27  C   UNL A   1      39.187  22.422  26.318  1.00  0.00     0.039 A 
ATOM     28  C   UNL A   1      40.236  22.399  27.243  1.00  0.00     0.014 A 
ATOM     29  C   UNL A   1      38.724  23.645  25.825  1.00  0.00     0.014 A 
ATOM     30  C   UNL A   1      40.849  23.593  27.637  1.00  0.00     0.010 A 
ATOM     31  C   UNL A   1      39.376  24.828  26.170  1.00  0.00     0.010 A 
ATOM     32  C   UNL A   1      40.436  24.816  27.087  1.00  0.00    -0.014 A 
BRANCH  32  33
ATOM     33  C   UNL A   1      41.101  26.088  27.471  1.00  0.00     0.031 A 
ATOM     34  C   UNL A   1      42.523  26.357  27.065  1.00  0.00     0.074 A 
ATOM     35  C   UNL A   1      40.443  26.973  28.247  1.00  0.00     0.049 A 
ATOM     36  N   UNL A   1      43.269  27.402  27.320  1.00  0.00    -0.248 NA
ATOM     37  C   UNL A   1      43.210  25.307  26.295  1.00  0.00     0.031 C 
ATOM     38  C   UNL A   1      39.093  26.787  28.783  1.00  0.00     0.029 A 
ATOM     39  N   UNL A   1      40.830  28.195  28.736  1.00  0.00    -0.354 N 
ATOM     40  C   UNL A   1      44.516  27.123  26.777  1.00  0.00     0.074 A 
ATOM     41  C   UNL A   1      44.438  25.798  26.200  1.00  0.00     0.031 C 
ATOM     42  C   UNL A   1      38.762  27.861  29.520  1.00  0.00     0.029 A 
ATOM     43  C   UNL A   1      39.876  28.805  29.515  1.00  0.00     0.049 A 
ATOM     44  H   UNL A   1      41.709  28.596  28.546  1.00  0.00     0.167 HD
ATOM     45  C   UNL A   1      45.618  27.908  26.729  1.00  0.00     0.034 A 
ATOM     46  C   UNL A   1      39.891  29.998  30.141  1.00  0.00     0.034 A 
ATOM     47  C   UNL A   1      45.676  29.251  27.240  1.00  0.00     0.049 A 
ATOM     48  C   UNL A   1      41.087  30.895  29.981  1.00  0.00     0.074 A 
ATOM     49  C   UNL A   1      46.719  30.158  27.168  1.00  0.00     0.029 A 
ATOM     50  N   UNL A   1      44.640  29.886  27.908  1.00  0.00    -0.354 N 
ATOM     51  N   UNL A   1      42.199  30.677  29.319  1.00  0.00    -0.248 NA
ATOM     52  C   UNL A   1      41.016  32.220  30.614  1.00  0.00     0.031 C 
ATOM     53  C   UNL A   1      46.308  31.346  27.783  1.00  0.00     0.029 A 
ATOM     54  C   UNL A   1      45.013  31.176  28.242  1.00  0.00     0.049 A 
ATOM     55  H   UNL A   1      43.768  29.478  28.114  1.00  0.00     0.167 HD
ATOM     56  C   UNL A   1      42.941  31.846  29.426  1.00  0.00     0.074 A 
ATOM     57  C   UNL A   1      42.146  32.778  30.198  1.00  0.00     0.031 C 
ATOM     58  C   UNL A   1      44.181  32.116  28.947  1.00  0.00     0.034 A 
BRANCH  45  59
ATOM     59  C   UNL A   1      46.829  27.363  26.021  1.00  0.00     0.023 A 
ATOM     60  C   UNL A   1      46.926  27.508  24.622  1.00  0.00     0.012 A 
ATOM     61  C   UNL A   1      47.883  26.754  26.728  1.00  0.00     0.148 A 
ATOM     62  C   UNL A   1      48.039  27.032  23.933  1.00  0.00     0.002 A 
ATOM     63  C   UNL A   1      49.006  26.310  26.038  1.00  0.00     0.091 A 
ATOM     64  F   UNL A   1      47.762  26.596  28.054  1.00  0.00    -0.205 F 
ATOM     65  C   UNL A   1      49.084  26.443  24.641  1.00  0.00     0.022 A 
BRANCH  63  66
ATOM     66  S   UNL A   1      50.425  25.596  26.879  1.00  0.00     0.127 S 
ATOM     67  O   UNL A   1      51.307  25.281  25.757  1.00  0.00    -0.237 OA
ATOM     68  O   UNL A   1      50.882  26.700  27.722  1.00  0.00    -0.237 OA
ATOM     69  O   UNL A   1      49.906  24.453  27.618  1.00  0.00    -0.744 OA
ENDBRANCH  63  66
ENDBRANCH  45  59
BRANCH  46  70
ATOM     70  C   UNL A   1      38.679  30.460  30.874  1.00  0.00     0.023 A 
ATOM     71  C   UNL A   1      38.593  30.233  32.262  1.00  0.00     0.012 A 
ATOM     72  C   UNL A   1      37.642  31.157  30.226  1.00  0.00     0.148 A 
ATOM     73  C   UNL A   1      37.486  30.669  32.987  1.00  0.00     0.002 A 
ATOM     74  C   UNL A   1      36.562  31.629  30.964  1.00  0.00     0.091 A 
ATOM     75  F   UNL A   1      37.731  31.348  28.902  1.00  0.00    -0.205 F 
ATOM     76  C   UNL A   1      36.475  31.377  32.341  1.00  0.00     0.022 A 
BRANCH  74  77
ATOM     77  S   UNL A   1      35.289  32.657  30.222  1.00  0.00     0.127 S 
ATOM     78  O   UNL A   1      34.391  32.886  31.350  1.00  0.00    -0.237 OA
ATOM     79  O   UNL A   1      36.047  33.833  29.791  1.00  0.00    -0.237 OA
ATOM     80  O   UNL A   1      34.754  31.863  29.125  1.00  0.00    -0.744 OA
ENDBRANCH  74  77
ENDBRANCH  46  70
BRANCH  58  81
ATOM     81  C   UNL A   1      44.749  33.481  29.221  1.00  0.00     0.023 A 
ATOM     82  C   UNL A   1      45.425  33.718  30.434  1.00  0.00     0.012 A 
ATOM     83  C   UNL A   1      44.681  34.504  28.256  1.00  0.00     0.148 A 
ATOM     84  C   UNL A   1      46.001  34.962  30.692  1.00  0.00     0.002 A 
ATOM     85  C   UNL A   1      45.289  35.730  28.506  1.00  0.00     0.091 A 
ATOM     86  F   UNL A   1      44.014  34.272  27.116  1.00  0.00    -0.205 F 
ATOM     87  C   UNL A   1      45.943  35.963  29.726  1.00  0.00     0.022 A 
BRANCH  85  88
ATOM     88  S   UNL A   1      45.318  37.025  27.262  1.00  0.00     0.127 S 
ATOM     89  O   UNL A   1      46.058  36.387  26.176  1.00  0.00    -0.237 OA
ATOM     90  O   UNL A   1      43.897  37.240  26.983  1.00  0.00    -0.237 OA
ATOM     91  O   UNL A   1      45.975  38.155  27.906  1.00  0.00    -0.744 OA
ENDBRANCH  85  88
ENDBRANCH  58  81
ENDBRANCH  32  33
ENDBRANCH  24  27
ENDBRANCH  22  23
ENDBRANCH   1  22
TORSDOF 16
ENDMDL
MODEL 2
REMARK VINA RESULT:     -11.4      5.212     10.239
REMARK SMILES O=C(C[C@H]1CN(C(=O)c2sccc2Br)CCO1)NCCCNC(=O)c1ccc(-c2c3nc(c(-c4cccc(S(=O)(=O)[O-])c4F)c4ccc([nH]4)c(-c4cccc(S(=O)(=O)[O-])c4F)c4nc(c(-c5cccc(S(=O)(=O)[O-])c5F)c5ccc2[nH]5)C=C4)C=C3)cc1
REMARK SMILES IDX 20 1 19 2 18 3 1 4 2 5 3 7 4 8 5 9 17 10 6 11 16 12 15 13
REMARK SMILES IDX 7 14 8 15 9 16 10 17 13 18 11 19 12 20 14 21 21 22 22 23
REMARK SMILES IDX 23 24 24 26 25 27 26 28 87 29 27 30 86 31 28 32 29 33 30 34
REMARK SMILES IDX 80 35 31 36 85 37 79 38 81 39 32 40 84 41 78 42 77 43 33 45
REMARK SMILES IDX 65 46 45 47 64 48 46 49 49 50 63 51 82 52 47 53 48 54 62 56
REMARK SMILES IDX 83 57 50 58 34 59 35 60 43 61 36 62 38 63 44 64 37 65 39 66
REMARK SMILES IDX 40 67 41 68 42 69 66 70 67 71 75 72 68 73 70 74 76 75 69 76
REMARK SMILES IDX 71 77 72 78 73 79 74 80 51 81 52 82 60 83 53 84 55 85 61 86
REMARK SMILES IDX 54 87 56 88 57 89 58 90 59 91
REMARK H PARENT 18 6 22 25 81 44 49 55
REMARK Flexibility Score: inf
ROOT
ATOM      1  C   UNL A   1      31.414  29.516  25.744  1.00  0.00     0.042 C 
ENDROOT
BRANCH   1   2
ATOM      2  C   UNL A   1      31.230  29.126  24.282  1.00  0.00     0.117 C 
BRANCH   2   3
ATOM      3  N   UNL A   1      31.421  27.715  24.021  1.00  0.00    -0.356 N 
ATOM      4  O   UNL A   1      30.332  27.735  22.015  1.00  0.00    -0.275 OA
ATOM      5  C   UNL A   1      31.014  27.138  22.846  1.00  0.00     0.222 C 
ATOM      6  H   UNL A   1      31.857  27.156  24.703  1.00  0.00     0.163 HD
BRANCH   5   7
ATOM      7  C   UNL A   1      31.408  25.693  22.621  1.00  0.00     0.133 C 
BRANCH   7   8
ATOM      8  C   UNL A   1      30.877  24.600  23.565  1.00  0.00     0.147 C 
ATOM      9  C   UNL A   1      31.601  23.246  23.339  1.00  0.00     0.152 C 
ATOM     10  O   UNL A   1      30.874  24.953  24.962  1.00  0.00    -0.374 OA
ATOM     11  N   UNL A   1      32.925  23.255  23.974  1.00  0.00    -0.333 N 
ATOM     12  C   UNL A   1      32.189  24.985  25.545  1.00  0.00     0.182 C 
ATOM     13  C   UNL A   1      32.903  23.649  25.381  1.00  0.00     0.148 C 
BRANCH  11  14
ATOM     14  C   UNL A   1      34.143  22.987  23.354  1.00  0.00     0.265 C 
ATOM     15  O   UNL A   1      34.344  23.305  22.181  1.00  0.00    -0.268 OA
BRANCH  14  16
ATOM     16  C   UNL A   1      35.177  22.367  24.149  1.00  0.00     0.106 A 
ATOM     17  S   UNL A   1      36.665  23.201  24.349  1.00  0.00    -0.137 S 
ATOM     18  C   UNL A   1      35.228  21.119  24.725  1.00  0.00     0.041 A 
ATOM     19  C   UNL A   1      37.351  21.896  25.218  1.00  0.00     0.067 A 
ATOM     20  C   UNL A   1      36.467  20.848  25.362  1.00  0.00     0.028 A 
ATOM     21  Br  UNL A   1      33.847  19.832  24.715  1.00  0.00    -0.049 Br
ENDBRANCH  14  16
ENDBRANCH  11  14
ENDBRANCH   7   8
ENDBRANCH   5   7
ENDBRANCH   2   3
ENDBRANCH   1   2
BRANCH   1  22
ATOM     22  C   UNL A   1      32.753  30.171  26.065  1.00  0.00     0.118 C 
BRANCH  22  23
ATOM     23  N   UNL A   1      32.627  31.567  26.463  1.00  0.00    -0.352 N 
ATOM     24  C   UNL A   1      33.354  32.312  27.356  1.00  0.00     0.251 C 
ATOM     25  H   UNL A   1      31.899  32.057  26.017  1.00  0.00     0.163 HD
ATOM     26  O   UNL A   1      32.980  33.453  27.621  1.00  0.00    -0.269 OA
BRANCH  24  27
ATOM     27  C   UNL A   1      34.565  31.765  28.011  1.00  0.00     0.039 A 
ATOM     28  C   UNL A   1      35.667  32.610  28.179  1.00  0.00     0.014 A 
ATOM     29  C   UNL A   1      34.650  30.428  28.410  1.00  0.00     0.014 A 
ATOM     30  C   UNL A   1      36.832  32.130  28.785  1.00  0.00     0.010 A 
ATOM     31  C   UNL A   1      35.789  29.968  29.071  1.00  0.00     0.010 A 
ATOM     32  C   UNL A   1      36.894  30.809  29.254  1.00  0.00    -0.014 A 
BRANCH  32  33
ATOM     33  C   UNL A   1      38.114  30.296  29.930  1.00  0.00     0.031 A 
ATOM     34  C   UNL A   1      38.451  30.734  31.329  1.00  0.00     0.074 A 
ATOM     35  C   UNL A   1      38.956  29.488  29.256  1.00  0.00     0.049 A 
ATOM     36  N   UNL A   1      39.476  30.402  32.071  1.00  0.00    -0.248 NA
ATOM     37  C   UNL A   1      37.532  31.689  31.971  1.00  0.00     0.031 C 
ATOM     38  C   UNL A   1      38.789  29.065  27.865  1.00  0.00     0.029 A 
ATOM     39  N   UNL A   1      40.131  28.896  29.645  1.00  0.00    -0.354 N 
ATOM     40  C   UNL A   1      39.348  31.129  33.247  1.00  0.00     0.074 A 
ATOM     41  C   UNL A   1      38.158  31.943  33.112  1.00  0.00     0.031 C 
ATOM     42  C   UNL A   1      39.820  28.275  27.519  1.00  0.00     0.029 A 
ATOM     43  C   UNL A   1      40.722  28.142  28.660  1.00  0.00     0.049 A 
ATOM     44  H   UNL A   1      40.514  29.001  30.546  1.00  0.00     0.167 HD
ATOM     45  C   UNL A   1      40.126  31.101  34.354  1.00  0.00     0.034 A 
ATOM     46  C   UNL A   1      41.855  27.412  28.678  1.00  0.00     0.034 A 
ATOM     47  C   UNL A   1      41.269  30.242  34.516  1.00  0.00     0.049 A 
ATOM     48  C   UNL A   1      42.642  27.313  29.955  1.00  0.00     0.074 A 
ATOM     49  C   UNL A   1      42.075  30.079  35.630  1.00  0.00     0.029 A 
ATOM     50  N   UNL A   1      41.760  29.390  33.539  1.00  0.00    -0.354 N 
ATOM     51  N   UNL A   1      42.409  27.882  31.114  1.00  0.00    -0.248 NA
ATOM     52  C   UNL A   1      43.821  26.436  29.944  1.00  0.00     0.031 C 
ATOM     53  C   UNL A   1      43.047  29.118  35.328  1.00  0.00     0.029 A 
ATOM     54  C   UNL A   1      42.848  28.689  34.026  1.00  0.00     0.049 A 
ATOM     55  H   UNL A   1      41.388  29.298  32.633  1.00  0.00     0.167 HD
ATOM     56  C   UNL A   1      43.389  27.406  31.976  1.00  0.00     0.074 A 
ATOM     57  C   UNL A   1      44.206  26.485  31.213  1.00  0.00     0.031 C 
ATOM     58  C   UNL A   1      43.607  27.721  33.277  1.00  0.00     0.034 A 
BRANCH  45  59
ATOM     59  C   UNL A   1      39.715  31.965  35.515  1.00  0.00     0.023 A 
ATOM     60  C   UNL A   1      40.180  33.295  35.575  1.00  0.00     0.012 A 
ATOM     61  C   UNL A   1      38.844  31.492  36.514  1.00  0.00     0.148 A 
ATOM     62  C   UNL A   1      39.808  34.132  36.625  1.00  0.00     0.002 A 
ATOM     63  C   UNL A   1      38.450  32.343  37.542  1.00  0.00     0.091 A 
ATOM     64  F   UNL A   1      38.434  30.216  36.459  1.00  0.00    -0.205 F 
ATOM     65  C   UNL A   1      38.935  33.660  37.602  1.00  0.00     0.022 A 
BRANCH  63  66
ATOM     66  S   UNL A   1      37.279  31.836  38.807  1.00  0.00     0.127 S 
ATOM     67  O   UNL A   1      38.068  32.006  40.025  1.00  0.00    -0.237 OA
ATOM     68  O   UNL A   1      36.195  32.805  38.643  1.00  0.00    -0.237 OA
ATOM     69  O   UNL A   1      36.913  30.465  38.474  1.00  0.00    -0.744 OA
ENDBRANCH  63  66
ENDBRANCH  45  59
BRANCH  46  70
ATOM     70  C   UNL A   1      42.239  26.619  27.477  1.00  0.00     0.023 A 
ATOM     71  C   UNL A   1      42.942  27.257  26.435  1.00  0.00     0.012 A 
ATOM     72  C   UNL A   1      41.960  25.244  27.376  1.00  0.00     0.148 A 
ATOM     73  C   UNL A   1      43.339  26.545  25.305  1.00  0.00     0.002 A 
ATOM     74  C   UNL A   1      42.399  24.529  26.266  1.00  0.00     0.091 A 
ATOM     75  F   UNL A   1      41.274  24.657  28.367  1.00  0.00    -0.205 F 
ATOM     76  C   UNL A   1      43.078  25.180  25.224  1.00  0.00     0.022 A 
BRANCH  74  77
ATOM     77  S   UNL A   1      42.210  22.746  26.156  1.00  0.00     0.127 S 
ATOM     78  O   UNL A   1      40.758  22.595  26.197  1.00  0.00    -0.237 OA
ATOM     79  O   UNL A   1      42.823  22.446  24.860  1.00  0.00    -0.237 OA
ATOM     80  O   UNL A   1      42.944  22.217  27.296  1.00  0.00    -0.744 OA
ENDBRANCH  74  77
ENDBRANCH  46  70
BRANCH  58  81
ATOM     81  C   UNL A   1      44.759  27.049  33.971  1.00  0.00     0.023 A 
ATOM     82  C   UNL A   1      46.051  27.599  33.857  1.00  0.00     0.012 A 
ATOM     83  C   UNL A   1      44.557  25.922  34.790  1.00  0.00     0.148 A 
ATOM     84  C   UNL A   1      47.128  27.021  34.528  1.00  0.00     0.002 A 
ATOM     85  C   UNL A   1      45.630  25.373  35.485  1.00  0.00     0.091 A 
ATOM     86  F   UNL A   1      43.326  25.394  34.870  1.00  0.00    -0.205 F 
ATOM     87  C   UNL A   1      46.917  25.917  35.350  1.00  0.00     0.022 A 
BRANCH  85  88
ATOM     88  S   UNL A   1      45.399  24.002  36.622  1.00  0.00     0.127 S 
ATOM     89  O   UNL A   1      46.724  23.882  37.226  1.00  0.00    -0.237 OA
ATOM     90  O   UNL A   1      44.363  24.502  37.528  1.00  0.00    -0.237 OA
ATOM     91  O   UNL A   1      44.972  22.886  35.789  1.00  0.00    -0.744 OA
ENDBRANCH  85  88
ENDBRANCH  58  81
ENDBRANCH  32  33
ENDBRANCH  24  27
ENDBRANCH  22  23
ENDBRANCH   1  22
TORSDOF 16
ENDMDL
MODEL 3
REMARK VINA RESULT:     -11.4      4.849      9.991
REMARK SMILES O=C(C[C@H]1CN(C(=O)c2sccc2Br)CCO1)NCCCNC(=O)c1ccc(-c2c3nc(c(-c4cccc(S(=O)(=O)[O-])c4F)c4ccc([nH]4)c(-c4cccc(S(=O)(=O)[O-])c4F)c4nc(c(-c5cccc(S(=O)(=O)[O-])c5F)c5ccc2[nH]5)C=C4)C=C3)cc1
REMARK SMILES IDX 20 1 19 2 18 3 1 4 2 5 3 7 4 8 5 9 17 10 6 11 16 12 15 13
REMARK SMILES IDX 7 14 8 15 9 16 10 17 13 18 11 19 12 20 14 21 21 22 22 23
REMARK SMILES IDX 23 24 24 26 25 27 26 28 87 29 27 30 86 31 28 32 29 33 30 34
REMARK SMILES IDX 80 35 31 36 85 37 79 38 81 39 32 40 84 41 78 42 77 43 33 45
REMARK SMILES IDX 65 46 45 47 64 48 46 49 49 50 63 51 82 52 47 53 48 54 62 56
REMARK SMILES IDX 83 57 50 58 34 59 35 60 43 61 36 62 38 63 44 64 37 65 39 66
REMARK SMILES IDX 40 67 41 68 42 69 66 70 67 71 75 72 68 73 70 74 76 75 69 76
REMARK SMILES IDX 71 77 72 78 73 79 74 80 51 81 52 82 60 83 53 84 55 85 61 86
REMARK SMILES IDX 54 87 56 88 57 89 58 90 59 91
REMARK H PARENT 18 6 22 25 81 44 49 55
REMARK Flexibility Score: inf
ROOT
ATOM      1  C   UNL A   1      33.113  29.091  23.843  1.00  0.00     0.042 C 
ENDROOT
BRANCH   1   2
ATOM      2  C   UNL A   1      31.902  28.318  23.336  1.00  0.00     0.117 C 
BRANCH   2   3
ATOM      3  N   UNL A   1      31.801  26.972  23.860  1.00  0.00    -0.356 N 
ATOM      4  O   UNL A   1      29.523  26.885  23.745  1.00  0.00    -0.275 OA
ATOM      5  C   UNL A   1      30.597  26.323  23.952  1.00  0.00     0.222 C 
ATOM      6  H   UNL A   1      32.617  26.511  24.157  1.00  0.00     0.163 HD
BRANCH   5   7
ATOM      7  C   UNL A   1      30.635  24.867  24.366  1.00  0.00     0.133 C 
BRANCH   7   8
ATOM      8  C   UNL A   1      30.644  24.496  25.859  1.00  0.00     0.147 C 
ATOM      9  C   UNL A   1      30.891  22.980  26.072  1.00  0.00     0.152 C 
ATOM     10  O   UNL A   1      31.538  25.281  26.673  1.00  0.00    -0.374 OA
ATOM     11  N   UNL A   1      32.314  22.658  25.909  1.00  0.00    -0.333 N 
ATOM     12  C   UNL A   1      32.925  24.964  26.464  1.00  0.00     0.182 C 
ATOM     13  C   UNL A   1      33.204  23.487  26.717  1.00  0.00     0.148 C 
BRANCH  11  14
ATOM     14  C   UNL A   1      32.855  21.712  25.041  1.00  0.00     0.265 C 
ATOM     15  O   UNL A   1      32.194  20.745  24.660  1.00  0.00    -0.268 OA
BRANCH  14  16
ATOM     16  C   UNL A   1      34.202  21.930  24.568  1.00  0.00     0.106 A 
ATOM     17  S   UNL A   1      35.483  21.077  25.329  1.00  0.00    -0.137 S 
ATOM     18  C   UNL A   1      34.683  22.816  23.633  1.00  0.00     0.041 A 
ATOM     19  C   UNL A   1      36.663  21.887  24.389  1.00  0.00     0.067 A 
ATOM     20  C   UNL A   1      36.097  22.783  23.507  1.00  0.00     0.028 A 
ATOM     21  Br  UNL A   1      33.650  23.998  22.584  1.00  0.00    -0.049 Br
ENDBRANCH  14  16
ENDBRANCH  11  14
ENDBRANCH   7   8
ENDBRANCH   5   7
ENDBRANCH   2   3
ENDBRANCH   1   2
BRANCH   1  22
ATOM     22  C   UNL A   1      33.197  29.221  25.361  1.00  0.00     0.118 C 
BRANCH  22  23
ATOM     23  N   UNL A   1      32.724  30.507  25.853  1.00  0.00    -0.352 N 
ATOM     24  C   UNL A   1      33.175  31.292  26.883  1.00  0.00     0.251 C 
ATOM     25  H   UNL A   1      31.951  30.875  25.366  1.00  0.00     0.163 HD
ATOM     26  O   UNL A   1      32.532  32.293  27.194  1.00  0.00    -0.269 OA
BRANCH  24  27
ATOM     27  C   UNL A   1      34.409  30.951  27.629  1.00  0.00     0.039 A 
ATOM     28  C   UNL A   1      34.500  29.684  28.216  1.00  0.00     0.014 A 
ATOM     29  C   UNL A   1      35.446  31.871  27.802  1.00  0.00     0.014 A 
ATOM     30  C   UNL A   1      35.645  29.327  28.936  1.00  0.00     0.010 A 
ATOM     31  C   UNL A   1      36.613  31.492  28.466  1.00  0.00     0.010 A 
ATOM     32  C   UNL A   1      36.719  30.222  29.049  1.00  0.00    -0.014 A 
BRANCH  32  33
ATOM     33  C   UNL A   1      37.954  29.843  29.782  1.00  0.00     0.031 A 
ATOM     34  C   UNL A   1      38.225  30.394  31.155  1.00  0.00     0.074 A 
ATOM     35  C   UNL A   1      38.868  29.054  29.181  1.00  0.00     0.049 A 
ATOM     36  N   UNL A   1      39.252  30.185  31.938  1.00  0.00    -0.248 NA
ATOM     37  C   UNL A   1      37.226  31.321  31.713  1.00  0.00     0.031 C 
ATOM     38  C   UNL A   1      38.766  28.530  27.818  1.00  0.00     0.029 A 
ATOM     39  N   UNL A   1      40.071  28.574  29.633  1.00  0.00    -0.354 N 
ATOM     40  C   UNL A   1      39.043  30.977  33.060  1.00  0.00     0.074 A 
ATOM     41  C   UNL A   1      37.804  31.693  32.846  1.00  0.00     0.031 C 
ATOM     42  C   UNL A   1      39.857  27.795  27.548  1.00  0.00     0.029 A 
ATOM     43  C   UNL A   1      40.738  27.801  28.713  1.00  0.00     0.049 A 
ATOM     44  H   UNL A   1      40.423  28.765  30.533  1.00  0.00     0.167 HD
ATOM     45  C   UNL A   1      39.794  31.077  34.183  1.00  0.00     0.034 A 
ATOM     46  C   UNL A   1      41.918  27.157  28.803  1.00  0.00     0.034 A 
ATOM     47  C   UNL A   1      40.989  30.314  34.426  1.00  0.00     0.049 A 
ATOM     48  C   UNL A   1      42.678  27.198  30.100  1.00  0.00     0.074 A 
ATOM     49  C   UNL A   1      41.776  30.282  35.563  1.00  0.00     0.029 A 
ATOM     50  N   UNL A   1      41.563  29.437  33.518  1.00  0.00    -0.354 N 
ATOM     51  N   UNL A   1      42.377  27.824  31.213  1.00  0.00    -0.248 NA
ATOM     52  C   UNL A   1      43.915  26.408  30.172  1.00  0.00     0.031 C 
ATOM     53  C   UNL A   1      42.820  29.375  35.347  1.00  0.00     0.029 A 
ATOM     54  C   UNL A   1      42.685  28.849  34.073  1.00  0.00     0.049 A 
ATOM     55  H   UNL A   1      41.222  29.260  32.612  1.00  0.00     0.167 HD
ATOM     56  C   UNL A   1      43.365  27.477  32.125  1.00  0.00     0.074 A 
ATOM     57  C   UNL A   1      44.264  26.568  31.443  1.00  0.00     0.031 C 
ATOM     58  C   UNL A   1      43.528  27.891  33.406  1.00  0.00     0.034 A 
BRANCH  45  59
ATOM     59  C   UNL A   1      39.294  31.984  35.274  1.00  0.00     0.023 A 
ATOM     60  C   UNL A   1      38.299  31.511  36.153  1.00  0.00     0.012 A 
ATOM     61  C   UNL A   1      39.829  33.272  35.463  1.00  0.00     0.148 A 
ATOM     62  C   UNL A   1      37.823  32.315  37.187  1.00  0.00     0.002 A 
ATOM     63  C   UNL A   1      39.372  34.058  36.517  1.00  0.00     0.091 A 
ATOM     64  F   UNL A   1      40.753  33.719  34.600  1.00  0.00    -0.205 F 
ATOM     65  C   UNL A   1      38.366  33.583  37.375  1.00  0.00     0.022 A 
BRANCH  63  66
ATOM     66  S   UNL A   1      40.062  35.679  36.869  1.00  0.00     0.127 S 
ATOM     67  O   UNL A   1      39.653  36.438  35.689  1.00  0.00    -0.237 OA
ATOM     68  O   UNL A   1      39.372  36.055  38.104  1.00  0.00    -0.237 OA
ATOM     69  O   UNL A   1      41.495  35.469  37.023  1.00  0.00    -0.744 OA
ENDBRANCH  63  66
ENDBRANCH  45  59
BRANCH  46  70
ATOM     70  C   UNL A   1      42.387  26.317  27.666  1.00  0.00     0.023 A 
ATOM     71  C   UNL A   1      43.315  26.859  26.755  1.00  0.00     0.012 A 
ATOM     72  C   UNL A   1      41.964  24.984  27.505  1.00  0.00     0.148 A 
ATOM     73  C   UNL A   1      43.795  26.098  25.691  1.00  0.00     0.002 A 
ATOM     74  C   UNL A   1      42.482  24.216  26.468  1.00  0.00     0.091 A 
ATOM     75  F   UNL A   1      41.066  24.490  28.369  1.00  0.00    -0.205 F 
ATOM     76  C   UNL A   1      43.388  24.773  25.552  1.00  0.00     0.022 A 
BRANCH  74  77
ATOM     77  S   UNL A   1      42.100  22.468  26.305  1.00  0.00     0.127 S 
ATOM     78  O   UNL A   1      42.830  22.112  25.092  1.00  0.00    -0.237 OA
ATOM     79  O   UNL A   1      42.651  21.911  27.542  1.00  0.00    -0.237 OA
ATOM     80  O   UNL A   1      40.647  22.405  26.223  1.00  0.00    -0.744 OA
ENDBRANCH  74  77
ENDBRANCH  46  70
BRANCH  58  81
ATOM     81  C   UNL A   1      44.706  27.349  34.167  1.00  0.00     0.023 A 
ATOM     82  C   UNL A   1      45.931  28.043  34.129  1.00  0.00     0.012 A 
ATOM     83  C   UNL A   1      44.586  26.201  34.974  1.00  0.00     0.148 A 
ATOM     84  C   UNL A   1      47.026  27.587  34.863  1.00  0.00     0.002 A 
ATOM     85  C   UNL A   1      45.671  25.774  35.731  1.00  0.00     0.091 A 
ATOM     86  F   UNL A   1      43.420  25.538  34.981  1.00  0.00    -0.205 F 
ATOM     87  C   UNL A   1      46.894  26.461  35.671  1.00  0.00     0.022 A 
BRANCH  85  88
ATOM     88  S   UNL A   1      45.531  24.379  36.854  1.00  0.00     0.127 S 
ATOM     89  O   UNL A   1      44.484  24.829  37.768  1.00  0.00    -0.237 OA
ATOM     90  O   UNL A   1      45.133  23.286  35.967  1.00  0.00    -0.237 OA
ATOM     91  O   UNL A   1      46.860  24.222  37.431  1.00  0.00    -0.744 OA
ENDBRANCH  85  88
ENDBRANCH  58  81
ENDBRANCH  32  33
ENDBRANCH  24  27
ENDBRANCH  22  23
ENDBRANCH   1  22
TORSDOF 16
ENDMDL
