MODEL 1
REMARK VINA RESULT:     -12.3      0.000      0.000
REMARK SMILES CC(C)COc1cccc(N2C[C@@H](C(=O)NCCCNC(=O)c3ccc(-c4c5nc(c(-c6cccc(S(=O)(=O)[O-])c6F)c6ccc([nH]6)c(-c6cccc(S(=O)(=O)[O-])c6F)c6nc(c(-c7cccc(S(=O)(=O)[O-])c7F)c7ccc4[nH]7)C=C6)C=C5)cc3)CC2=O)c1
REMARK SMILES IDX 17 1 16 2 14 3 15 4 13 6 11 7 12 8 87 9 86 10 88 11 10 12
REMARK SMILES IDX 6 13 7 14 89 15 8 16 9 17 5 18 4 19 2 20 1 21 3 22 18 23
REMARK SMILES IDX 19 24 20 25 21 26 22 28 23 29 24 30 85 31 25 32 84 33 26 34
REMARK SMILES IDX 27 35 28 36 78 37 29 38 83 39 77 40 79 41 30 42 82 43 76 44
REMARK SMILES IDX 75 45 31 47 63 48 43 49 62 50 44 51 47 52 61 53 80 54 45 55
REMARK SMILES IDX 46 56 60 58 81 59 48 60 32 61 33 62 41 63 34 64 36 65 42 66
REMARK SMILES IDX 35 67 37 68 38 69 39 70 40 71 64 72 65 73 73 74 66 75 68 76
REMARK SMILES IDX 74 77 67 78 69 79 70 80 71 81 72 82 49 83 50 84 58 85 51 86
REMARK SMILES IDX 53 87 59 88 52 89 54 90 55 91 56 92 57 93
REMARK H PARENT 16 5 20 27 79 46 47 57
REMARK Flexibility Score: inf
ROOT
ATOM      1  C   UNL A   1      31.376  29.041  24.091  1.00  0.00     0.117 C 
ENDROOT
BRANCH   1   2
ATOM      2  N   UNL A   1      32.572  28.993  23.267  1.00  0.00    -0.356 N 
ATOM      3  C   UNL A   1      33.225  27.968  22.662  1.00  0.00     0.225 C 
ATOM      4  O   UNL A   1      34.179  28.267  21.936  1.00  0.00    -0.275 OA
ATOM      5  H   UNL A   1      32.989  29.872  23.119  1.00  0.00     0.163 HD
BRANCH   3   6
ATOM      6  C   UNL A   1      32.833  26.511  22.804  1.00  0.00     0.107 C 
ATOM      7  N   UNL A   1      33.798  24.410  23.230  1.00  0.00    -0.311 N 
ATOM      8  C   UNL A   1      33.704  25.743  23.779  1.00  0.00     0.139 C 
ATOM      9  C   UNL A   1      33.324  24.347  21.920  1.00  0.00     0.227 C 
ATOM     10  C   UNL A   1      32.823  25.706  21.517  1.00  0.00     0.116 C 
ATOM     11  O   UNL A   1      33.301  23.380  21.170  1.00  0.00    -0.274 OA
BRANCH   7  12
ATOM     12  C   UNL A   1      34.584  23.411  23.860  1.00  0.00     0.047 A 
ATOM     13  C   UNL A   1      34.639  21.242  24.914  1.00  0.00     0.121 A 
ATOM     14  C   UNL A   1      36.009  21.140  24.709  1.00  0.00     0.046 A 
ATOM     15  C   UNL A   1      33.959  22.419  24.616  1.00  0.00     0.072 A 
ATOM     16  C   UNL A   1      36.677  22.190  24.081  1.00  0.00     0.006 A 
ATOM     17  C   UNL A   1      35.958  23.294  23.609  1.00  0.00     0.026 A 
BRANCH  13  18
ATOM     18  O   UNL A   1      33.921  20.170  25.369  1.00  0.00    -0.493 OA
BRANCH  18  19
ATOM     19  C   UNL A   1      33.551  19.279  24.288  1.00  0.00     0.232 C 
BRANCH  19  20
ATOM     20  C   UNL A   1      33.921  17.800  24.554  1.00  0.00     0.020 C 
ATOM     21  C   UNL A   1      32.899  17.093  25.455  1.00  0.00     0.011 C 
ATOM     22  C   UNL A   1      33.992  17.001  23.250  1.00  0.00     0.011 C 
ENDBRANCH  19  20
ENDBRANCH  18  19
ENDBRANCH  13  18
ENDBRANCH   7  12
ENDBRANCH   3   6
ENDBRANCH   1   2
BRANCH   1  23
ATOM     23  C   UNL A   1      31.673  29.011  25.588  1.00  0.00     0.042 C 
BRANCH  23  24
ATOM     24  C   UNL A   1      32.999  29.644  26.005  1.00  0.00     0.118 C 
BRANCH  24  25
ATOM     25  N   UNL A   1      32.856  31.010  26.487  1.00  0.00    -0.352 N 
ATOM     26  C   UNL A   1      33.598  31.723  27.399  1.00  0.00     0.251 C 
ATOM     27  H   UNL A   1      32.102  31.507  26.095  1.00  0.00     0.163 HD
ATOM     28  O   UNL A   1      33.184  32.819  27.770  1.00  0.00    -0.269 OA
BRANCH  26  29
ATOM     29  C   UNL A   1      34.867  31.191  27.953  1.00  0.00     0.039 A 
ATOM     30  C   UNL A   1      35.974  32.043  28.022  1.00  0.00     0.014 A 
ATOM     31  C   UNL A   1      34.994  29.863  28.367  1.00  0.00     0.014 A 
ATOM     32  C   UNL A   1      37.178  31.584  28.567  1.00  0.00     0.010 A 
ATOM     33  C   UNL A   1      36.168  29.432  28.988  1.00  0.00     0.010 A 
ATOM     34  C   UNL A   1      37.274  30.285  29.095  1.00  0.00    -0.014 A 
BRANCH  34  35
ATOM     35  C   UNL A   1      38.513  29.833  29.788  1.00  0.00     0.031 A 
ATOM     36  C   UNL A   1      38.878  30.359  31.151  1.00  0.00     0.074 A 
ATOM     37  C   UNL A   1      39.350  28.988  29.153  1.00  0.00     0.049 A 
ATOM     38  N   UNL A   1      39.919  30.072  31.892  1.00  0.00    -0.248 NA
ATOM     39  C   UNL A   1      37.973  31.351  31.753  1.00  0.00     0.031 C 
ATOM     40  C   UNL A   1      39.158  28.469  27.796  1.00  0.00     0.029 A 
ATOM     41  N   UNL A   1      40.538  28.429  29.554  1.00  0.00    -0.354 N 
ATOM     42  C   UNL A   1      39.811  30.865  33.029  1.00  0.00     0.074 A 
ATOM     43  C   UNL A   1      38.620  31.672  32.864  1.00  0.00     0.031 C 
ATOM     44  C   UNL A   1      40.180  27.657  27.485  1.00  0.00     0.029 A 
ATOM     45  C   UNL A   1      41.118  27.622  28.602  1.00  0.00     0.049 A 
ATOM     46  H   UNL A   1      40.937  28.589  30.440  1.00  0.00     0.167 HD
ATOM     47  C   UNL A   1      40.611  30.900  34.123  1.00  0.00     0.034 A 
ATOM     48  C   UNL A   1      42.278  26.937  28.619  1.00  0.00     0.034 A 
ATOM     49  C   UNL A   1      41.779  30.079  34.297  1.00  0.00     0.049 A 
ATOM     50  C   UNL A   1      43.132  26.972  29.857  1.00  0.00     0.074 A 
ATOM     51  C   UNL A   1      42.605  29.982  35.404  1.00  0.00     0.029 A 
ATOM     52  N   UNL A   1      42.301  29.227  33.337  1.00  0.00    -0.354 N 
ATOM     53  N   UNL A   1      42.924  27.603  30.986  1.00  0.00    -0.248 NA
ATOM     54  C   UNL A   1      44.364  26.170  29.834  1.00  0.00     0.031 C 
ATOM     55  C   UNL A   1      43.646  29.099  35.098  1.00  0.00     0.029 A 
ATOM     56  C   UNL A   1      43.447  28.613  33.818  1.00  0.00     0.049 A 
ATOM     57  H   UNL A   1      41.914  29.079  32.443  1.00  0.00     0.167 HD
ATOM     58  C   UNL A   1      43.979  27.250  31.820  1.00  0.00     0.074 A 
ATOM     59  C   UNL A   1      44.807  26.324  31.074  1.00  0.00     0.031 C 
ATOM     60  C   UNL A   1      44.246  27.665  33.083  1.00  0.00     0.034 A 
BRANCH  47  61
ATOM     61  C   UNL A   1      40.224  31.833  35.244  1.00  0.00     0.023 A 
ATOM     62  C   UNL A   1      40.792  33.123  35.308  1.00  0.00     0.012 A 
ATOM     63  C   UNL A   1      39.251  31.461  36.194  1.00  0.00     0.148 A 
ATOM     64  C   UNL A   1      40.431  34.010  36.321  1.00  0.00     0.002 A 
ATOM     65  C   UNL A   1      38.860  32.370  37.171  1.00  0.00     0.091 A 
ATOM     66  F   UNL A   1      38.732  30.227  36.129  1.00  0.00    -0.205 F 
ATOM     67  C   UNL A   1      39.458  33.639  37.244  1.00  0.00     0.022 A 
BRANCH  65  68
ATOM     68  S   UNL A   1      37.557  32.020  38.357  1.00  0.00     0.127 S 
ATOM     69  O   UNL A   1      38.215  32.347  39.622  1.00  0.00    -0.237 OA
ATOM     70  O   UNL A   1      36.513  32.964  37.953  1.00  0.00    -0.237 OA
ATOM     71  O   UNL A   1      37.213  30.617  38.177  1.00  0.00    -0.744 OA
ENDBRANCH  65  68
ENDBRANCH  47  61
BRANCH  48  72
ATOM     72  C   UNL A   1      42.675  26.112  27.442  1.00  0.00     0.023 A 
ATOM     73  C   UNL A   1      43.493  26.676  26.442  1.00  0.00     0.012 A 
ATOM     74  C   UNL A   1      42.262  24.773  27.316  1.00  0.00     0.148 A 
ATOM     75  C   UNL A   1      43.860  25.932  25.321  1.00  0.00     0.002 A 
ATOM     76  C   UNL A   1      42.681  24.018  26.228  1.00  0.00     0.091 A 
ATOM     77  F   UNL A   1      41.476  24.259  28.274  1.00  0.00    -0.205 F 
ATOM     78  C   UNL A   1      43.464  24.601  25.219  1.00  0.00     0.022 A 
BRANCH  76  79
ATOM     79  S   UNL A   1      42.332  22.263  26.080  1.00  0.00     0.127 S 
ATOM     80  O   UNL A   1      43.056  21.916  24.861  1.00  0.00    -0.237 OA
ATOM     81  O   UNL A   1      42.914  21.738  27.315  1.00  0.00    -0.237 OA
ATOM     82  O   UNL A   1      40.881  22.156  26.007  1.00  0.00    -0.744 OA
ENDBRANCH  76  79
ENDBRANCH  48  72
BRANCH  60  83
ATOM     83  C   UNL A   1      45.470  27.097  33.756  1.00  0.00     0.023 A 
ATOM     84  C   UNL A   1      46.706  27.766  33.653  1.00  0.00     0.012 A 
ATOM     85  C   UNL A   1      45.386  25.919  34.525  1.00  0.00     0.148 A 
ATOM     86  C   UNL A   1      47.848  27.247  34.263  1.00  0.00     0.002 A 
ATOM     87  C   UNL A   1      46.516  25.437  35.175  1.00  0.00     0.091 A 
ATOM     88  F   UNL A   1      44.207  25.285  34.599  1.00  0.00    -0.205 F 
ATOM     89  C   UNL A   1      47.751  26.091  35.032  1.00  0.00     0.022 A 
BRANCH  87  90
ATOM     90  S   UNL A   1      46.466  24.011  36.265  1.00  0.00     0.127 S 
ATOM     91  O   UNL A   1      46.403  22.907  35.309  1.00  0.00    -0.237 OA
ATOM     92  O   UNL A   1      47.735  24.124  36.983  1.00  0.00    -0.237 OA
ATOM     93  O   UNL A   1      45.283  24.184  37.099  1.00  0.00    -0.744 OA
ENDBRANCH  87  90
ENDBRANCH  60  83
ENDBRANCH  34  35
ENDBRANCH  26  29
ENDBRANCH  24  25
ENDBRANCH  23  24
ENDBRANCH   1  23
TORSDOF 17
ENDMDL
MODEL 2
REMARK VINA RESULT:     -11.9      1.371      1.541
REMARK SMILES CC(C)COc1cccc(N2C[C@@H](C(=O)NCCCNC(=O)c3ccc(-c4c5nc(c(-c6cccc(S(=O)(=O)[O-])c6F)c6ccc([nH]6)c(-c6cccc(S(=O)(=O)[O-])c6F)c6nc(c(-c7cccc(S(=O)(=O)[O-])c7F)c7ccc4[nH]7)C=C6)C=C5)cc3)CC2=O)c1
REMARK SMILES IDX 17 1 16 2 14 3 15 4 13 6 11 7 12 8 87 9 86 10 88 11 10 12
REMARK SMILES IDX 6 13 7 14 89 15 8 16 9 17 5 18 4 19 2 20 1 21 3 22 18 23
REMARK SMILES IDX 19 24 20 25 21 26 22 28 23 29 24 30 85 31 25 32 84 33 26 34
REMARK SMILES IDX 27 35 28 36 78 37 29 38 83 39 77 40 79 41 30 42 82 43 76 44
REMARK SMILES IDX 75 45 31 47 63 48 43 49 62 50 44 51 47 52 61 53 80 54 45 55
REMARK SMILES IDX 46 56 60 58 81 59 48 60 32 61 33 62 41 63 34 64 36 65 42 66
REMARK SMILES IDX 35 67 37 68 38 69 39 70 40 71 64 72 65 73 73 74 66 75 68 76
REMARK SMILES IDX 74 77 67 78 69 79 70 80 71 81 72 82 49 83 50 84 58 85 51 86
REMARK SMILES IDX 53 87 59 88 52 89 54 90 55 91 56 92 57 93
REMARK H PARENT 16 5 20 27 79 46 47 57
REMARK Flexibility Score: inf
ROOT
ATOM      1  C   UNL A   1      31.805  29.401  24.601  1.00  0.00     0.117 C 
ENDROOT
BRANCH   1   2
ATOM      2  N   UNL A   1      32.944  29.319  23.702  1.00  0.00    -0.356 N 
ATOM      3  C   UNL A   1      33.465  28.296  22.978  1.00  0.00     0.225 C 
ATOM      4  O   UNL A   1      34.400  28.571  22.219  1.00  0.00    -0.275 OA
ATOM      5  H   UNL A   1      33.430  30.168  23.598  1.00  0.00     0.163 HD
BRANCH   3   6
ATOM      6  C   UNL A   1      32.950  26.871  23.030  1.00  0.00     0.107 C 
ATOM      7  N   UNL A   1      33.722  24.680  23.393  1.00  0.00    -0.311 N 
ATOM      8  C   UNL A   1      33.709  25.989  24.003  1.00  0.00     0.139 C 
ATOM      9  C   UNL A   1      33.307  24.718  22.061  1.00  0.00     0.227 C 
ATOM     10  C   UNL A   1      32.937  26.130  21.706  1.00  0.00     0.116 C 
ATOM     11  O   UNL A   1      33.241  23.792  21.264  1.00  0.00    -0.274 OA
BRANCH   7  12
ATOM     12  C   UNL A   1      34.393  23.591  24.006  1.00  0.00     0.047 A 
ATOM     13  C   UNL A   1      34.204  21.441  25.081  1.00  0.00     0.121 A 
ATOM     14  C   UNL A   1      35.541  21.160  24.830  1.00  0.00     0.046 A 
ATOM     15  C   UNL A   1      33.672  22.694  24.794  1.00  0.00     0.072 A 
ATOM     16  C   UNL A   1      36.317  22.110  24.167  1.00  0.00     0.006 A 
ATOM     17  C   UNL A   1      35.730  23.295  23.708  1.00  0.00     0.026 A 
BRANCH  13  18
ATOM     18  O   UNL A   1      33.370  20.474  25.573  1.00  0.00    -0.493 OA
BRANCH  18  19
ATOM     19  C   UNL A   1      32.554  19.892  24.527  1.00  0.00     0.232 C 
BRANCH  19  20
ATOM     20  C   UNL A   1      33.008  18.473  24.109  1.00  0.00     0.020 C 
ATOM     21  C   UNL A   1      32.501  17.388  25.069  1.00  0.00     0.011 C 
ATOM     22  C   UNL A   1      32.487  18.111  22.715  1.00  0.00     0.011 C 
ENDBRANCH  19  20
ENDBRANCH  18  19
ENDBRANCH  13  18
ENDBRANCH   7  12
ENDBRANCH   3   6
ENDBRANCH   1   2
BRANCH   1  23
ATOM     23  C   UNL A   1      32.050  28.725  25.949  1.00  0.00     0.042 C 
BRANCH  23  24
ATOM     24  C   UNL A   1      31.799  29.600  27.174  1.00  0.00     0.118 C 
BRANCH  24  25
ATOM     25  N   UNL A   1      31.955  31.023  26.906  1.00  0.00    -0.352 N 
ATOM     26  C   UNL A   1      32.969  31.893  27.229  1.00  0.00     0.251 C 
ATOM     27  H   UNL A   1      31.209  31.430  26.409  1.00  0.00     0.163 HD
ATOM     28  O   UNL A   1      32.800  33.095  27.036  1.00  0.00    -0.269 OA
BRANCH  26  29
ATOM     29  C   UNL A   1      34.242  31.415  27.819  1.00  0.00     0.039 A 
ATOM     30  C   UNL A   1      35.217  32.360  28.157  1.00  0.00     0.014 A 
ATOM     31  C   UNL A   1      34.507  30.057  28.009  1.00  0.00     0.014 A 
ATOM     32  C   UNL A   1      36.418  31.948  28.745  1.00  0.00     0.010 A 
ATOM     33  C   UNL A   1      35.667  29.655  28.673  1.00  0.00     0.010 A 
ATOM     34  C   UNL A   1      36.638  30.594  29.048  1.00  0.00    -0.014 A 
BRANCH  34  35
ATOM     35  C   UNL A   1      37.859  30.165  29.784  1.00  0.00     0.031 A 
ATOM     36  C   UNL A   1      38.143  30.663  31.177  1.00  0.00     0.074 A 
ATOM     37  C   UNL A   1      38.755  29.369  29.166  1.00  0.00     0.049 A 
ATOM     38  N   UNL A   1      39.158  30.391  31.957  1.00  0.00    -0.248 NA
ATOM     39  C   UNL A   1      37.175  31.604  31.764  1.00  0.00     0.031 C 
ATOM     40  C   UNL A   1      38.644  28.885  27.787  1.00  0.00     0.029 A 
ATOM     41  N   UNL A   1      39.943  28.840  29.606  1.00  0.00    -0.354 N 
ATOM     42  C   UNL A   1      38.969  31.145  33.110  1.00  0.00     0.074 A 
ATOM     43  C   UNL A   1      37.759  31.915  32.912  1.00  0.00     0.031 C 
ATOM     44  C   UNL A   1      39.709  28.119  27.502  1.00  0.00     0.029 A 
ATOM     45  C   UNL A   1      40.595  28.084  28.660  1.00  0.00     0.049 A 
ATOM     46  H   UNL A   1      40.295  28.988  30.514  1.00  0.00     0.167 HD
ATOM     47  C   UNL A   1      39.716  31.176  34.241  1.00  0.00     0.034 A 
ATOM     48  C   UNL A   1      41.777  27.439  28.712  1.00  0.00     0.034 A 
ATOM     49  C   UNL A   1      40.905  30.391  34.447  1.00  0.00     0.049 A 
ATOM     50  C   UNL A   1      42.572  27.468  29.989  1.00  0.00     0.074 A 
ATOM     51  C   UNL A   1      41.682  30.291  35.587  1.00  0.00     0.029 A 
ATOM     52  N   UNL A   1      41.501  29.587  33.488  1.00  0.00    -0.354 N 
ATOM     53  N   UNL A   1      42.290  28.057  31.124  1.00  0.00    -0.248 NA
ATOM     54  C   UNL A   1      43.832  26.711  30.001  1.00  0.00     0.031 C 
ATOM     55  C   UNL A   1      42.768  29.454  35.306  1.00  0.00     0.029 A 
ATOM     56  C   UNL A   1      42.645  29.000  34.004  1.00  0.00     0.049 A 
ATOM     57  H   UNL A   1      41.161  29.452  32.573  1.00  0.00     0.167 HD
ATOM     58  C   UNL A   1      43.317  27.717  31.996  1.00  0.00     0.074 A 
ATOM     59  C   UNL A   1      44.212  26.843  31.264  1.00  0.00     0.031 C 
ATOM     60  C   UNL A   1      43.511  28.103  33.282  1.00  0.00     0.034 A 
BRANCH  47  61
ATOM     61  C   UNL A   1      39.245  32.061  35.368  1.00  0.00     0.023 A 
ATOM     62  C   UNL A   1      38.317  31.563  36.307  1.00  0.00     0.012 A 
ATOM     63  C   UNL A   1      39.766  33.360  35.537  1.00  0.00     0.148 A 
ATOM     64  C   UNL A   1      37.887  32.354  37.371  1.00  0.00     0.002 A 
ATOM     65  C   UNL A   1      39.368  34.124  36.629  1.00  0.00     0.091 A 
ATOM     66  F   UNL A   1      40.634  33.824  34.628  1.00  0.00    -0.205 F 
ATOM     67  C   UNL A   1      38.419  33.629  37.538  1.00  0.00     0.022 A 
BRANCH  65  68
ATOM     68  S   UNL A   1      40.056  35.747  36.980  1.00  0.00     0.127 S 
ATOM     69  O   UNL A   1      41.479  35.440  37.116  1.00  0.00    -0.237 OA
ATOM     70  O   UNL A   1      39.707  36.495  35.771  1.00  0.00    -0.237 OA
ATOM     71  O   UNL A   1      39.398  36.210  38.194  1.00  0.00    -0.744 OA
ENDBRANCH  65  68
ENDBRANCH  47  61
BRANCH  48  72
ATOM     72  C   UNL A   1      42.258  26.665  27.531  1.00  0.00     0.023 A 
ATOM     73  C   UNL A   1      43.024  27.311  26.541  1.00  0.00     0.012 A 
ATOM     74  C   UNL A   1      41.974  25.293  27.394  1.00  0.00     0.148 A 
ATOM     75  C   UNL A   1      43.467  26.613  25.418  1.00  0.00     0.002 A 
ATOM     76  C   UNL A   1      42.469  24.589  26.304  1.00  0.00     0.091 A 
ATOM     77  F   UNL A   1      41.235  24.700  28.343  1.00  0.00    -0.205 F 
ATOM     78  C   UNL A   1      43.199  25.251  25.304  1.00  0.00     0.022 A 
BRANCH  76  79
ATOM     79  S   UNL A   1      42.288  22.811  26.142  1.00  0.00     0.127 S 
ATOM     80  O   UNL A   1      42.953  22.558  24.867  1.00  0.00    -0.237 OA
ATOM     81  O   UNL A   1      43.009  22.328  27.320  1.00  0.00    -0.237 OA
ATOM     82  O   UNL A   1      40.854  22.557  26.169  1.00  0.00    -0.744 OA
ENDBRANCH  76  79
ENDBRANCH  48  72
BRANCH  60  83
ATOM     83  C   UNL A   1      44.723  27.559  33.994  1.00  0.00     0.023 A 
ATOM     84  C   UNL A   1      45.958  28.232  33.902  1.00  0.00     0.012 A 
ATOM     85  C   UNL A   1      44.629  26.400  34.791  1.00  0.00     0.148 A 
ATOM     86  C   UNL A   1      47.089  27.735  34.549  1.00  0.00     0.002 A 
ATOM     87  C   UNL A   1      45.746  25.941  35.477  1.00  0.00     0.091 A 
ATOM     88  F   UNL A   1      43.451  25.762  34.855  1.00  0.00    -0.205 F 
ATOM     89  C   UNL A   1      46.981  26.597  35.344  1.00  0.00     0.022 A 
BRANCH  87  90
ATOM     90  S   UNL A   1      45.680  24.542  36.601  1.00  0.00     0.127 S 
ATOM     91  O   UNL A   1      45.617  23.415  35.671  1.00  0.00    -0.237 OA
ATOM     92  O   UNL A   1      46.945  24.665  37.325  1.00  0.00    -0.237 OA
ATOM     93  O   UNL A   1      44.492  24.743  37.422  1.00  0.00    -0.744 OA
ENDBRANCH  87  90
ENDBRANCH  60  83
ENDBRANCH  34  35
ENDBRANCH  26  29
ENDBRANCH  24  25
ENDBRANCH  23  24
ENDBRANCH   1  23
TORSDOF 17
ENDMDL
MODEL 3
REMARK VINA RESULT:     -11.8      5.036     10.512
REMARK SMILES CC(C)COc1cccc(N2C[C@@H](C(=O)NCCCNC(=O)c3ccc(-c4c5nc(c(-c6cccc(S(=O)(=O)[O-])c6F)c6ccc([nH]6)c(-c6cccc(S(=O)(=O)[O-])c6F)c6nc(c(-c7cccc(S(=O)(=O)[O-])c7F)c7ccc4[nH]7)C=C6)C=C5)cc3)CC2=O)c1
REMARK SMILES IDX 17 1 16 2 14 3 15 4 13 6 11 7 12 8 87 9 86 10 88 11 10 12
REMARK SMILES IDX 6 13 7 14 89 15 8 16 9 17 5 18 4 19 2 20 1 21 3 22 18 23
REMARK SMILES IDX 19 24 20 25 21 26 22 28 23 29 24 30 85 31 25 32 84 33 26 34
REMARK SMILES IDX 27 35 28 36 78 37 29 38 83 39 77 40 79 41 30 42 82 43 76 44
REMARK SMILES IDX 75 45 31 47 63 48 43 49 62 50 44 51 47 52 61 53 80 54 45 55
REMARK SMILES IDX 46 56 60 58 81 59 48 60 32 61 33 62 41 63 34 64 36 65 42 66
REMARK SMILES IDX 35 67 37 68 38 69 39 70 40 71 64 72 65 73 73 74 66 75 68 76
REMARK SMILES IDX 74 77 67 78 69 79 70 80 71 81 72 82 49 83 50 84 58 85 51 86
REMARK SMILES IDX 53 87 59 88 52 89 54 90 55 91 56 92 57 93
REMARK H PARENT 16 5 20 27 79 46 47 57
REMARK Flexibility Score: inf
ROOT
ATOM      1  C   UNL A   1      34.878  21.576  26.070  1.00  0.00     0.117 C 
ENDROOT
BRANCH   1   2
ATOM      2  N   UNL A   1      33.556  21.780  25.502  1.00  0.00    -0.356 N 
ATOM      3  C   UNL A   1      33.022  22.790  24.767  1.00  0.00     0.225 C 
ATOM      4  O   UNL A   1      31.874  22.623  24.343  1.00  0.00    -0.275 OA
ATOM      5  H   UNL A   1      32.927  21.046  25.685  1.00  0.00     0.163 HD
BRANCH   3   6
ATOM      6  C   UNL A   1      33.759  24.069  24.423  1.00  0.00     0.107 C 
ATOM      7  N   UNL A   1      33.401  26.390  24.317  1.00  0.00    -0.311 N 
ATOM      8  C   UNL A   1      33.289  25.270  25.222  1.00  0.00     0.139 C 
ATOM      9  C   UNL A   1      33.617  25.982  23.000  1.00  0.00     0.227 C 
ATOM     10  C   UNL A   1      33.707  24.482  22.963  1.00  0.00     0.116 C 
ATOM     11  O   UNL A   1      33.719  26.680  22.000  1.00  0.00    -0.274 OA
BRANCH   7  12
ATOM     12  C   UNL A   1      33.001  27.693  24.710  1.00  0.00     0.047 A 
ATOM     13  C   UNL A   1      31.373  29.460  24.508  1.00  0.00     0.121 A 
ATOM     14  C   UNL A   1      31.805  30.039  25.695  1.00  0.00     0.046 A 
ATOM     15  C   UNL A   1      32.052  28.380  23.953  1.00  0.00     0.072 A 
ATOM     16  C   UNL A   1      32.854  29.445  26.393  1.00  0.00     0.006 A 
ATOM     17  C   UNL A   1      33.411  28.246  25.931  1.00  0.00     0.026 A 
BRANCH  13  18
ATOM     18  O   UNL A   1      30.242  29.911  23.885  1.00  0.00    -0.493 OA
BRANCH  18  19
ATOM     19  C   UNL A   1      29.499  28.826  23.277  1.00  0.00     0.232 C 
BRANCH  19  20
ATOM     20  C   UNL A   1      28.079  29.233  22.816  1.00  0.00     0.020 C 
ATOM     21  C   UNL A   1      26.985  28.354  23.438  1.00  0.00     0.011 C 
ATOM     22  C   UNL A   1      27.761  30.680  23.206  1.00  0.00     0.011 C 
ENDBRANCH  19  20
ENDBRANCH  18  19
ENDBRANCH  13  18
ENDBRANCH   7  12
ENDBRANCH   3   6
ENDBRANCH   1   2
BRANCH   1  23
ATOM     23  C   UNL A   1      35.940  21.249  25.022  1.00  0.00     0.042 C 
BRANCH  23  24
ATOM     24  C   UNL A   1      37.300  21.907  25.242  1.00  0.00     0.118 C 
BRANCH  24  25
ATOM     25  N   UNL A   1      38.321  20.976  25.699  1.00  0.00    -0.352 N 
ATOM     26  C   UNL A   1      39.545  21.201  26.283  1.00  0.00     0.251 C 
ATOM     27  H   UNL A   1      38.097  20.026  25.570  1.00  0.00     0.163 HD
ATOM     28  O   UNL A   1      40.311  20.251  26.435  1.00  0.00    -0.269 OA
BRANCH  26  29
ATOM     29  C   UNL A   1      39.964  22.558  26.710  1.00  0.00     0.039 A 
ATOM     30  C   UNL A   1      40.912  22.673  27.733  1.00  0.00     0.014 A 
ATOM     31  C   UNL A   1      39.414  23.713  26.149  1.00  0.00     0.014 A 
ATOM     32  C   UNL A   1      41.353  23.937  28.139  1.00  0.00     0.010 A 
ATOM     33  C   UNL A   1      39.917  24.968  26.496  1.00  0.00     0.010 A 
ATOM     34  C   UNL A   1      40.891  25.097  27.495  1.00  0.00    -0.014 A 
BRANCH  34  35
ATOM     35  C   UNL A   1      41.449  26.434  27.839  1.00  0.00     0.031 A 
ATOM     36  C   UNL A   1      42.875  26.790  27.511  1.00  0.00     0.074 A 
ATOM     37  C   UNL A   1      40.680  27.314  28.512  1.00  0.00     0.049 A 
ATOM     38  N   UNL A   1      43.518  27.907  27.742  1.00  0.00    -0.248 NA
ATOM     39  C   UNL A   1      43.693  25.755  26.860  1.00  0.00     0.031 C 
ATOM     40  C   UNL A   1      39.310  27.063  28.967  1.00  0.00     0.029 A 
ATOM     41  N   UNL A   1      40.944  28.589  28.948  1.00  0.00    -0.354 N 
ATOM     42  C   UNL A   1      44.818  27.701  27.294  1.00  0.00     0.074 A 
ATOM     43  C   UNL A   1      44.882  26.338  26.809  1.00  0.00     0.031 C 
ATOM     44  C   UNL A   1      38.849  28.153  29.601  1.00  0.00     0.029 A 
ATOM     45  C   UNL A   1      39.898  29.167  29.631  1.00  0.00     0.049 A 
ATOM     46  H   UNL A   1      41.800  29.047  28.788  1.00  0.00     0.167 HD
ATOM     47  C   UNL A   1      45.857  28.571  27.261  1.00  0.00     0.034 A 
ATOM     48  C   UNL A   1      39.793  30.373  30.222  1.00  0.00     0.034 A 
ATOM     49  C   UNL A   1      45.786  29.934  27.719  1.00  0.00     0.049 A 
ATOM     50  C   UNL A   1      40.952  31.328  30.146  1.00  0.00     0.074 A 
ATOM     51  C   UNL A   1      46.758  30.916  27.650  1.00  0.00     0.029 A 
ATOM     52  N   UNL A   1      44.689  30.503  28.347  1.00  0.00    -0.354 N 
ATOM     53  N   UNL A   1      42.119  31.169  29.571  1.00  0.00    -0.248 NA
ATOM     54  C   UNL A   1      40.766  32.646  30.771  1.00  0.00     0.031 C 
ATOM     55  C   UNL A   1      46.262  32.068  28.269  1.00  0.00     0.029 A 
ATOM     56  C   UNL A   1      44.965  31.818  28.686  1.00  0.00     0.049 A 
ATOM     57  H   UNL A   1      43.838  30.042  28.525  1.00  0.00     0.167 HD
ATOM     58  C   UNL A   1      42.793  32.374  29.735  1.00  0.00     0.074 A 
ATOM     59  C   UNL A   1      41.889  33.264  30.436  1.00  0.00     0.031 C 
ATOM     60  C   UNL A   1      44.049  32.709  29.352  1.00  0.00     0.034 A 
BRANCH  47  61
ATOM     61  C   UNL A   1      47.158  28.087  26.669  1.00  0.00     0.023 A 
ATOM     62  C   UNL A   1      48.187  27.632  27.519  1.00  0.00     0.012 A 
ATOM     63  C   UNL A   1      47.339  28.022  25.273  1.00  0.00     0.148 A 
ATOM     64  C   UNL A   1      49.388  27.157  26.993  1.00  0.00     0.002 A 
ATOM     65  C   UNL A   1      48.520  27.501  24.755  1.00  0.00     0.091 A 
ATOM     66  F   UNL A   1      46.358  28.473  24.478  1.00  0.00    -0.205 F 
ATOM     67  C   UNL A   1      49.550  27.082  25.613  1.00  0.00     0.022 A 
BRANCH  65  68
ATOM     68  S   UNL A   1      48.796  27.284  22.993  1.00  0.00     0.127 S 
ATOM     69  O   UNL A   1      50.255  27.353  22.913  1.00  0.00    -0.237 OA
ATOM     70  O   UNL A   1      48.235  25.953  22.757  1.00  0.00    -0.237 OA
ATOM     71  O   UNL A   1      48.083  28.370  22.336  1.00  0.00    -0.744 OA
ENDBRANCH  65  68
ENDBRANCH  47  61
BRANCH  48  72
ATOM     72  C   UNL A   1      38.522  30.767  30.894  1.00  0.00     0.023 A 
ATOM     73  C   UNL A   1      38.339  30.480  32.261  1.00  0.00     0.012 A 
ATOM     74  C   UNL A   1      37.503  31.437  30.191  1.00  0.00     0.148 A 
ATOM     75  C   UNL A   1      37.151  30.821  32.906  1.00  0.00     0.002 A 
ATOM     76  C   UNL A   1      36.346  31.827  30.854  1.00  0.00     0.091 A 
ATOM     77  F   UNL A   1      37.692  31.691  28.888  1.00  0.00    -0.205 F 
ATOM     78  C   UNL A   1      36.159  31.502  32.206  1.00  0.00     0.022 A 
BRANCH  76  79
ATOM     79  S   UNL A   1      35.076  32.824  30.069  1.00  0.00     0.127 S 
ATOM     80  O   UNL A   1      34.567  31.911  29.049  1.00  0.00    -0.237 OA
ATOM     81  O   UNL A   1      34.162  33.076  31.183  1.00  0.00    -0.237 OA
ATOM     82  O   UNL A   1      35.759  34.011  29.572  1.00  0.00    -0.744 OA
ENDBRANCH  76  79
ENDBRANCH  48  72
BRANCH  60  83
ATOM     83  C   UNL A   1      44.516  34.110  29.655  1.00  0.00     0.023 A 
ATOM     84  C   UNL A   1      45.201  34.382  30.856  1.00  0.00     0.012 A 
ATOM     85  C   UNL A   1      44.311  35.153  28.729  1.00  0.00     0.148 A 
ATOM     86  C   UNL A   1      45.631  35.675  31.153  1.00  0.00     0.002 A 
ATOM     87  C   UNL A   1      44.790  36.427  29.006  1.00  0.00     0.091 A 
ATOM     88  F   UNL A   1      43.643  34.882  27.598  1.00  0.00    -0.205 F 
ATOM     89  C   UNL A   1      45.435  36.694  30.225  1.00  0.00     0.022 A 
BRANCH  87  90
ATOM     90  S   UNL A   1      44.671  37.779  27.829  1.00  0.00     0.127 S 
ATOM     91  O   UNL A   1      44.665  38.943  28.713  1.00  0.00    -0.237 OA
ATOM     92  O   UNL A   1      45.895  37.615  27.044  1.00  0.00    -0.237 OA
ATOM     93  O   UNL A   1      43.440  37.553  27.082  1.00  0.00    -0.744 OA
ENDBRANCH  87  90
ENDBRANCH  60  83
ENDBRANCH  34  35
ENDBRANCH  26  29
ENDBRANCH  24  25
ENDBRANCH  23  24
ENDBRANCH   1  23
TORSDOF 17
ENDMDL
