MODEL 1
REMARK VINA RESULT:     -13.2      0.000      0.000
REMARK SMILES O=C(NCCCNC(=O)c1ccccc1Nc1cccc(S(F)(F)(F)(F)F)c1)c1ccc(-c2c3nc(c(-c4cccc(S(=O)(=O)[O-])c4F)c4ccc([nH]4)c(-c4cccc(S(=O)(=O)[O-])c4F)c4nc(c(-c5cccc(S(=O)(=O)[O-])c5F)c5ccc2[nH]5)C=C4)C=C3)cc1
REMARK SMILES IDX 5 1 4 2 3 3 1 4 2 5 29 7 30 8 91 9 31 10 90 11 32 12 33 13
REMARK SMILES IDX 34 14 84 15 35 16 89 17 83 18 85 19 36 20 88 21 82 22 81 23
REMARK SMILES IDX 37 25 69 26 49 27 68 28 50 29 53 30 67 31 86 32 51 33 52 34
REMARK SMILES IDX 66 36 87 37 54 38 38 39 39 40 47 41 40 42 42 43 48 44 41 45
REMARK SMILES IDX 43 46 44 47 45 48 46 49 70 50 71 51 79 52 72 53 74 54 80 55
REMARK SMILES IDX 73 56 75 57 76 58 77 59 78 60 55 61 56 62 64 63 57 64 59 65
REMARK SMILES IDX 65 66 58 67 60 68 61 69 62 70 63 71 6 72 7 73 8 74 9 76
REMARK SMILES IDX 10 77 11 78 15 79 12 80 14 81 13 82 16 83 17 85 18 86 28 87
REMARK SMILES IDX 19 88 21 89 20 90 22 91 23 92 24 93 25 94 26 95 27 96
REMARK H PARENT 3 6 85 24 53 35 7 75 16 84
REMARK Flexibility Score: inf
ROOT
ATOM      1  C   UNL A   1      31.701  31.272  26.665  1.00  0.00     0.042 C 
ENDROOT
BRANCH   1   2
ATOM      2  C   UNL A   1      32.904  32.080  27.125  1.00  0.00     0.118 C 
BRANCH   2   3
ATOM      3  N   UNL A   1      32.498  33.474  27.356  1.00  0.00    -0.352 N 
ATOM      4  O   UNL A   1      32.828  35.483  28.581  1.00  0.00    -0.269 OA
ATOM      5  C   UNL A   1      33.179  34.278  28.381  1.00  0.00     0.251 C 
ATOM      6  H   UNL A   1      31.770  33.869  26.824  1.00  0.00     0.163 HD
BRANCH   5   7
ATOM      7  C   UNL A   1      34.303  33.667  29.202  1.00  0.00     0.039 A 
ATOM      8  C   UNL A   1      35.598  33.975  28.822  1.00  0.00     0.014 A 
ATOM      9  C   UNL A   1      34.059  32.776  30.156  1.00  0.00     0.014 A 
ATOM     10  C   UNL A   1      36.570  33.071  29.312  1.00  0.00     0.010 A 
ATOM     11  C   UNL A   1      35.078  32.021  30.686  1.00  0.00     0.010 A 
ATOM     12  C   UNL A   1      36.376  32.231  30.312  1.00  0.00    -0.014 A 
BRANCH  12  13
ATOM     13  C   UNL A   1      37.533  31.537  31.012  1.00  0.00     0.031 A 
ATOM     14  C   UNL A   1      38.274  30.547  30.365  1.00  0.00     0.074 A 
ATOM     15  C   UNL A   1      37.835  32.036  32.267  1.00  0.00     0.049 A 
ATOM     16  N   UNL A   1      39.383  29.946  30.799  1.00  0.00    -0.248 NA
ATOM     17  C   UNL A   1      37.935  29.992  29.046  1.00  0.00     0.031 C 
ATOM     18  C   UNL A   1      37.097  33.040  32.923  1.00  0.00     0.029 A 
ATOM     19  N   UNL A   1      38.873  31.667  33.095  1.00  0.00    -0.354 N 
ATOM     20  C   UNL A   1      39.817  29.066  29.895  1.00  0.00     0.074 A 
ATOM     21  C   UNL A   1      38.887  29.079  28.757  1.00  0.00     0.031 C 
ATOM     22  C   UNL A   1      37.674  33.265  34.133  1.00  0.00     0.029 A 
ATOM     23  C   UNL A   1      38.783  32.406  34.253  1.00  0.00     0.049 A 
ATOM     24  H   UNL A   1      39.561  30.991  32.894  1.00  0.00     0.167 HD
ATOM     25  C   UNL A   1      40.950  28.256  29.973  1.00  0.00     0.034 A 
ATOM     26  C   UNL A   1      39.610  32.347  35.364  1.00  0.00     0.034 A 
ATOM     27  C   UNL A   1      41.801  28.228  31.066  1.00  0.00     0.049 A 
ATOM     28  C   UNL A   1      40.710  31.494  35.468  1.00  0.00     0.074 A 
ATOM     29  C   UNL A   1      42.951  27.423  31.158  1.00  0.00     0.029 A 
ATOM     30  N   UNL A   1      41.697  28.950  32.234  1.00  0.00    -0.354 N 
ATOM     31  N   UNL A   1      41.166  30.643  34.546  1.00  0.00    -0.248 NA
ATOM     32  C   UNL A   1      41.574  31.400  36.652  1.00  0.00     0.031 C 
ATOM     33  C   UNL A   1      43.529  27.648  32.368  1.00  0.00     0.029 A 
ATOM     34  C   UNL A   1      42.746  28.598  33.053  1.00  0.00     0.049 A 
ATOM     35  H   UNL A   1      40.993  29.605  32.448  1.00  0.00     0.167 HD
ATOM     36  C   UNL A   1      42.250  30.013  34.999  1.00  0.00     0.074 A 
ATOM     37  C   UNL A   1      42.525  30.486  36.363  1.00  0.00     0.031 C 
ATOM     38  C   UNL A   1      43.026  29.065  34.328  1.00  0.00     0.034 A 
BRANCH  25  39
ATOM     39  C   UNL A   1      41.268  27.351  28.793  1.00  0.00     0.023 A 
ATOM     40  C   UNL A   1      40.627  26.123  28.783  1.00  0.00     0.012 A 
ATOM     41  C   UNL A   1      42.044  27.731  27.786  1.00  0.00     0.148 A 
ATOM     42  C   UNL A   1      41.101  25.237  27.787  1.00  0.00     0.002 A 
ATOM     43  C   UNL A   1      42.357  26.856  26.774  1.00  0.00     0.091 A 
ATOM     44  F   UNL A   1      42.524  28.972  27.754  1.00  0.00    -0.205 F 
ATOM     45  C   UNL A   1      41.806  25.605  26.733  1.00  0.00     0.022 A 
BRANCH  43  46
ATOM     46  S   UNL A   1      43.515  27.364  25.479  1.00  0.00     0.127 S 
ATOM     47  O   UNL A   1      44.330  26.153  25.019  1.00  0.00    -0.237 OA
ATOM     48  O   UNL A   1      42.736  27.936  24.293  1.00  0.00    -0.237 OA
ATOM     49  O   UNL A   1      44.571  28.560  26.097  1.00  0.00    -0.744 OA
ENDBRANCH  43  46
ENDBRANCH  25  39
BRANCH  26  50
ATOM     50  C   UNL A   1      39.300  33.264  36.537  1.00  0.00     0.023 A 
ATOM     51  C   UNL A   1      39.924  34.493  36.677  1.00  0.00     0.012 A 
ATOM     52  C   UNL A   1      38.480  32.797  37.471  1.00  0.00     0.148 A 
ATOM     53  C   UNL A   1      39.842  35.033  37.983  1.00  0.00     0.002 A 
ATOM     54  C   UNL A   1      38.346  33.449  38.673  1.00  0.00     0.091 A 
ATOM     55  F   UNL A   1      37.783  31.688  37.241  1.00  0.00    -0.205 F 
ATOM     56  C   UNL A   1      38.980  34.638  38.902  1.00  0.00     0.022 A 
BRANCH  54  57
ATOM     57  S   UNL A   1      37.316  32.722  39.972  1.00  0.00     0.127 S 
ATOM     58  O   UNL A   1      37.850  31.333  40.330  1.00  0.00    -0.237 OA
ATOM     59  O   UNL A   1      37.351  33.618  41.212  1.00  0.00    -0.237 OA
ATOM     60  O   UNL A   1      35.706  32.587  39.412  1.00  0.00    -0.744 OA
ENDBRANCH  54  57
ENDBRANCH  26  50
BRANCH  38  61
ATOM     61  C   UNL A   1      44.249  28.510  35.039  1.00  0.00     0.023 A 
ATOM     62  C   UNL A   1      45.444  29.193  34.883  1.00  0.00     0.012 A 
ATOM     63  C   UNL A   1      44.192  27.368  35.715  1.00  0.00     0.148 A 
ATOM     64  C   UNL A   1      46.587  28.438  35.235  1.00  0.00     0.002 A 
ATOM     65  C   UNL A   1      45.342  26.754  36.147  1.00  0.00     0.091 A 
ATOM     66  F   UNL A   1      43.011  26.815  35.975  1.00  0.00    -0.205 F 
ATOM     67  C   UNL A   1      46.563  27.344  35.974  1.00  0.00     0.022 A 
BRANCH  65  68
ATOM     68  S   UNL A   1      45.239  25.138  36.957  1.00  0.00     0.127 S 
ATOM     69  O   UNL A   1      44.741  24.094  35.955  1.00  0.00    -0.237 OA
ATOM     70  O   UNL A   1      46.625  24.734  37.467  1.00  0.00    -0.237 OA
ATOM     71  O   UNL A   1      44.152  25.229  38.274  1.00  0.00    -0.744 OA
ENDBRANCH  65  68
ENDBRANCH  38  61
ENDBRANCH  12  13
ENDBRANCH   5   7
ENDBRANCH   2   3
ENDBRANCH   1   2
BRANCH   1  72
ATOM     72  C   UNL A   1      32.163  29.905  26.186  1.00  0.00     0.118 C 
BRANCH  72  73
ATOM     73  N   UNL A   1      32.965  30.060  24.964  1.00  0.00    -0.352 N 
ATOM     74  C   UNL A   1      33.346  28.877  24.180  1.00  0.00     0.253 C 
ATOM     75  H   UNL A   1      33.247  30.957  24.671  1.00  0.00     0.163 HD
ATOM     76  O   UNL A   1      34.040  29.011  23.123  1.00  0.00    -0.269 OA
BRANCH  74  77
ATOM     77  C   UNL A   1      32.910  27.493  24.633  1.00  0.00     0.063 A 
ATOM     78  C   UNL A   1      33.490  27.021  25.799  1.00  0.00     0.016 A 
ATOM     79  C   UNL A   1      31.935  26.824  24.028  1.00  0.00     0.051 A 
ATOM     80  C   UNL A   1      33.165  25.676  26.097  1.00  0.00     0.001 A 
ATOM     81  C   UNL A   1      31.578  25.569  24.457  1.00  0.00     0.027 A 
ATOM     82  C   UNL A   1      32.151  25.016  25.568  1.00  0.00     0.002 A 
BRANCH  79  83
ATOM     83  N   UNL A   1      31.232  27.434  22.890  1.00  0.00    -0.355 N 
ATOM     84  H   UNL A   1      31.638  27.415  21.993  1.00  0.00     0.167 HD
BRANCH  83  85
ATOM     85  C   UNL A   1      29.922  28.069  23.091  1.00  0.00     0.040 A 
ATOM     86  C   UNL A   1      28.794  27.326  23.393  1.00  0.00     0.026 A 
ATOM     87  C   UNL A   1      29.878  29.396  23.033  1.00  0.00     0.050 A 
ATOM     88  C   UNL A   1      27.588  28.064  23.333  1.00  0.00     0.004 A 
ATOM     89  C   UNL A   1      28.678  30.060  23.119  1.00  0.00     0.109 A 
ATOM     90  C   UNL A   1      27.515  29.382  23.356  1.00  0.00     0.024 A 
BRANCH  89  91
ATOM     91  S   UNL A   1      28.637  31.857  22.913  1.00  0.00     0.310 S 
ATOM     92  F   UNL A   1      27.201  31.983  23.574  1.00  0.00    -0.094 F 
ATOM     93  F   UNL A   1      27.908  31.677  21.528  1.00  0.00    -0.094 F 
ATOM     94  F   UNL A   1      28.629  33.404  22.749  1.00  0.00    -0.094 F 
ATOM     95  F   UNL A   1      29.239  32.024  24.364  1.00  0.00    -0.094 F 
ATOM     96  F   UNL A   1      28.550  30.296  23.144  1.00  0.00    -0.094 F 
ENDBRANCH  89  91
ENDBRANCH  83  85
ENDBRANCH  79  83
ENDBRANCH  74  77
ENDBRANCH  72  73
ENDBRANCH   1  72
TORSDOF 16
ENDMDL
MODEL 2
REMARK VINA RESULT:     -13.0      1.943      2.234
REMARK SMILES O=C(NCCCNC(=O)c1ccccc1Nc1cccc(S(F)(F)(F)(F)F)c1)c1ccc(-c2c3nc(c(-c4cccc(S(=O)(=O)[O-])c4F)c4ccc([nH]4)c(-c4cccc(S(=O)(=O)[O-])c4F)c4nc(c(-c5cccc(S(=O)(=O)[O-])c5F)c5ccc2[nH]5)C=C4)C=C3)cc1
REMARK SMILES IDX 5 1 4 2 3 3 1 4 2 5 29 7 30 8 91 9 31 10 90 11 32 12 33 13
REMARK SMILES IDX 34 14 84 15 35 16 89 17 83 18 85 19 36 20 88 21 82 22 81 23
REMARK SMILES IDX 37 25 69 26 49 27 68 28 50 29 53 30 67 31 86 32 51 33 52 34
REMARK SMILES IDX 66 36 87 37 54 38 38 39 39 40 47 41 40 42 42 43 48 44 41 45
REMARK SMILES IDX 43 46 44 47 45 48 46 49 70 50 71 51 79 52 72 53 74 54 80 55
REMARK SMILES IDX 73 56 75 57 76 58 77 59 78 60 55 61 56 62 64 63 57 64 59 65
REMARK SMILES IDX 65 66 58 67 60 68 61 69 62 70 63 71 6 72 7 73 8 74 9 76
REMARK SMILES IDX 10 77 11 78 15 79 12 80 14 81 13 82 16 83 17 85 18 86 28 87
REMARK SMILES IDX 19 88 21 89 20 90 22 91 23 92 24 93 25 94 26 95 27 96
REMARK H PARENT 3 6 85 24 53 35 7 75 16 84
REMARK Flexibility Score: inf
ROOT
ATOM      1  C   UNL A   1      31.726  30.853  26.217  1.00  0.00     0.042 C 
ENDROOT
BRANCH   1   2
ATOM      2  C   UNL A   1      32.756  31.498  27.130  1.00  0.00     0.118 C 
BRANCH   2   3
ATOM      3  N   UNL A   1      32.489  32.939  27.231  1.00  0.00    -0.352 N 
ATOM      4  O   UNL A   1      33.129  35.040  28.137  1.00  0.00    -0.269 OA
ATOM      5  C   UNL A   1      33.361  33.793  28.050  1.00  0.00     0.251 C 
ATOM      6  H   UNL A   1      31.725  33.333  26.750  1.00  0.00     0.163 HD
BRANCH   5   7
ATOM      7  C   UNL A   1      34.540  33.186  28.792  1.00  0.00     0.039 A 
ATOM      8  C   UNL A   1      35.740  33.103  28.105  1.00  0.00     0.014 A 
ATOM      9  C   UNL A   1      34.395  32.639  29.994  1.00  0.00     0.014 A 
ATOM     10  C   UNL A   1      36.650  32.167  28.651  1.00  0.00     0.010 A 
ATOM     11  C   UNL A   1      35.382  31.844  30.524  1.00  0.00     0.010 A 
ATOM     12  C   UNL A   1      36.572  31.670  29.872  1.00  0.00    -0.014 A 
BRANCH  12  13
ATOM     13  C   UNL A   1      37.741  30.946  30.519  1.00  0.00     0.031 A 
ATOM     14  C   UNL A   1      38.491  30.010  29.804  1.00  0.00     0.074 A 
ATOM     15  C   UNL A   1      38.044  31.363  31.803  1.00  0.00     0.049 A 
ATOM     16  N   UNL A   1      39.609  29.396  30.193  1.00  0.00    -0.248 NA
ATOM     17  C   UNL A   1      38.152  29.540  28.453  1.00  0.00     0.031 C 
ATOM     18  C   UNL A   1      37.296  32.313  32.528  1.00  0.00     0.029 A 
ATOM     19  N   UNL A   1      39.090  30.953  32.600  1.00  0.00    -0.354 N 
ATOM     20  C   UNL A   1      40.049  28.583  29.230  1.00  0.00     0.074 A 
ATOM     21  C   UNL A   1      39.113  28.660  28.099  1.00  0.00     0.031 C 
ATOM     22  C   UNL A   1      37.877  32.464  33.747  1.00  0.00     0.029 A 
ATOM     23  C   UNL A   1      38.997  31.613  33.805  1.00  0.00     0.049 A 
ATOM     24  H   UNL A   1      39.785  30.301  32.351  1.00  0.00     0.167 HD
ATOM     25  C   UNL A   1      41.192  27.784  29.249  1.00  0.00     0.034 A 
ATOM     26  C   UNL A   1      39.830  31.491  34.906  1.00  0.00     0.034 A 
ATOM     27  C   UNL A   1      42.049  27.695  30.334  1.00  0.00     0.049 A 
ATOM     28  C   UNL A   1      40.942  30.646  34.948  1.00  0.00     0.074 A 
ATOM     29  C   UNL A   1      43.210  26.900  30.367  1.00  0.00     0.029 A 
ATOM     30  N   UNL A   1      41.942  28.336  31.548  1.00  0.00    -0.354 N 
ATOM     31  N   UNL A   1      41.403  29.864  33.969  1.00  0.00    -0.248 NA
ATOM     32  C   UNL A   1      41.813  30.485  36.119  1.00  0.00     0.031 C 
ATOM     33  C   UNL A   1      43.791  27.051  31.587  1.00  0.00     0.029 A 
ATOM     34  C   UNL A   1      43.001  27.944  32.336  1.00  0.00     0.049 A 
ATOM     35  H   UNL A   1      41.232  28.966  31.807  1.00  0.00     0.167 HD
ATOM     36  C   UNL A   1      42.497  29.219  34.375  1.00  0.00     0.074 A 
ATOM     37  C   UNL A   1      42.774  29.604  35.766  1.00  0.00     0.031 C 
ATOM     38  C   UNL A   1      43.281  28.328  33.639  1.00  0.00     0.034 A 
BRANCH  25  39
ATOM     39  C   UNL A   1      41.515  26.964  28.010  1.00  0.00     0.023 A 
ATOM     40  C   UNL A   1      42.099  27.657  26.962  1.00  0.00     0.012 A 
ATOM     41  C   UNL A   1      41.331  25.651  27.950  1.00  0.00     0.148 A 
ATOM     42  C   UNL A   1      42.195  26.910  25.764  1.00  0.00     0.002 A 
ATOM     43  C   UNL A   1      41.574  24.962  26.786  1.00  0.00     0.091 A 
ATOM     44  F   UNL A   1      40.908  24.994  29.027  1.00  0.00    -0.205 F 
ATOM     45  C   UNL A   1      42.096  25.595  25.692  1.00  0.00     0.022 A 
BRANCH  43  46
ATOM     46  S   UNL A   1      41.198  23.194  26.699  1.00  0.00     0.127 S 
ATOM     47  O   UNL A   1      41.678  22.507  27.979  1.00  0.00    -0.237 OA
ATOM     48  O   UNL A   1      39.688  23.000  26.549  1.00  0.00    -0.237 OA
ATOM     49  O   UNL A   1      41.997  22.508  25.351  1.00  0.00    -0.744 OA
ENDBRANCH  43  46
ENDBRANCH  25  39
BRANCH  26  50
ATOM     50  C   UNL A   1      39.516  32.324  36.138  1.00  0.00     0.023 A 
ATOM     51  C   UNL A   1      38.648  31.866  37.117  1.00  0.00     0.012 A 
ATOM     52  C   UNL A   1      40.031  33.546  36.192  1.00  0.00     0.148 A 
ATOM     53  C   UNL A   1      38.155  32.884  37.968  1.00  0.00     0.002 A 
ATOM     54  C   UNL A   1      39.600  34.447  37.136  1.00  0.00     0.091 A 
ATOM     55  F   UNL A   1      40.974  33.901  35.324  1.00  0.00    -0.205 F 
ATOM     56  C   UNL A   1      38.700  34.080  38.097  1.00  0.00     0.022 A 
BRANCH  54  57
ATOM     57  S   UNL A   1      40.233  36.142  37.106  1.00  0.00     0.127 S 
ATOM     58  O   UNL A   1      39.520  36.972  38.176  1.00  0.00    -0.237 OA
ATOM     59  O   UNL A   1      41.738  36.130  37.388  1.00  0.00    -0.237 OA
ATOM     60  O   UNL A   1      39.948  36.830  35.567  1.00  0.00    -0.744 OA
ENDBRANCH  54  57
ENDBRANCH  26  50
BRANCH  38  61
ATOM     61  C   UNL A   1      44.515  27.743  34.306  1.00  0.00     0.023 A 
ATOM     62  C   UNL A   1      45.699  28.453  34.196  1.00  0.00     0.012 A 
ATOM     63  C   UNL A   1      44.477  26.555  34.899  1.00  0.00     0.148 A 
ATOM     64  C   UNL A   1      46.854  27.692  34.490  1.00  0.00     0.002 A 
ATOM     65  C   UNL A   1      45.637  25.929  35.285  1.00  0.00     0.091 A 
ATOM     66  F   UNL A   1      43.305  25.968  35.123  1.00  0.00    -0.205 F 
ATOM     67  C   UNL A   1      46.848  26.548  35.151  1.00  0.00     0.022 A 
BRANCH  65  68
ATOM     68  S   UNL A   1      45.561  24.259  35.978  1.00  0.00     0.127 S 
ATOM     69  O   UNL A   1      46.961  23.640  35.977  1.00  0.00    -0.237 OA
ATOM     70  O   UNL A   1      45.035  24.326  37.415  1.00  0.00    -0.237 OA
ATOM     71  O   UNL A   1      44.511  23.296  35.032  1.00  0.00    -0.744 OA
ENDBRANCH  65  68
ENDBRANCH  38  61
ENDBRANCH  12  13
ENDBRANCH   5   7
ENDBRANCH   2   3
ENDBRANCH   1   2
BRANCH   1  72
ATOM     72  C   UNL A   1      32.253  29.516  25.722  1.00  0.00     0.118 C 
BRANCH  72  73
ATOM     73  N   UNL A   1      33.110  29.731  24.549  1.00  0.00    -0.352 N 
ATOM     74  C   UNL A   1      33.531  28.587  23.726  1.00  0.00     0.253 C 
ATOM     75  H   UNL A   1      33.403  30.641  24.312  1.00  0.00     0.163 HD
ATOM     76  O   UNL A   1      34.272  28.773  22.710  1.00  0.00    -0.269 OA
BRANCH  74  77
ATOM     77  C   UNL A   1      33.079  27.183  24.090  1.00  0.00     0.063 A 
ATOM     78  C   UNL A   1      33.725  26.592  25.164  1.00  0.00     0.016 A 
ATOM     79  C   UNL A   1      32.038  26.600  23.507  1.00  0.00     0.051 A 
ATOM     80  C   UNL A   1      33.374  25.236  25.368  1.00  0.00     0.001 A 
ATOM     81  C   UNL A   1      31.667  25.323  23.852  1.00  0.00     0.027 A 
ATOM     82  C   UNL A   1      32.300  24.657  24.864  1.00  0.00     0.002 A 
BRANCH  79  83
ATOM     83  N   UNL A   1      31.275  27.329  22.483  1.00  0.00    -0.355 N 
ATOM     84  H   UNL A   1      31.606  27.365  21.556  1.00  0.00     0.167 HD
BRANCH  83  85
ATOM     85  C   UNL A   1      30.020  28.003  22.843  1.00  0.00     0.040 A 
ATOM     86  C   UNL A   1      28.931  27.298  23.327  1.00  0.00     0.026 A 
ATOM     87  C   UNL A   1      29.994  29.328  22.743  1.00  0.00     0.050 A 
ATOM     88  C   UNL A   1      27.743  28.062  23.410  1.00  0.00     0.004 A 
ATOM     89  C   UNL A   1      28.830  30.023  22.973  1.00  0.00     0.109 A 
ATOM     90  C   UNL A   1      27.700  29.381  23.396  1.00  0.00     0.024 A 
BRANCH  89  91
ATOM     91  S   UNL A   1      28.796  31.813  22.710  1.00  0.00     0.310 S 
ATOM     92  F   UNL A   1      27.278  31.932  23.155  1.00  0.00    -0.094 F 
ATOM     93  F   UNL A   1      28.276  31.582  21.241  1.00  0.00    -0.094 F 
ATOM     94  F   UNL A   1      28.791  33.354  22.500  1.00  0.00    -0.094 F 
ATOM     95  F   UNL A   1      29.182  32.030  24.226  1.00  0.00    -0.094 F 
ATOM     96  F   UNL A   1      28.697  30.257  22.973  1.00  0.00    -0.094 F 
ENDBRANCH  89  91
ENDBRANCH  83  85
ENDBRANCH  79  83
ENDBRANCH  74  77
ENDBRANCH  72  73
ENDBRANCH   1  72
TORSDOF 16
ENDMDL
MODEL 3
REMARK VINA RESULT:     -13.0      6.742     11.983
REMARK SMILES O=C(NCCCNC(=O)c1ccccc1Nc1cccc(S(F)(F)(F)(F)F)c1)c1ccc(-c2c3nc(c(-c4cccc(S(=O)(=O)[O-])c4F)c4ccc([nH]4)c(-c4cccc(S(=O)(=O)[O-])c4F)c4nc(c(-c5cccc(S(=O)(=O)[O-])c5F)c5ccc2[nH]5)C=C4)C=C3)cc1
REMARK SMILES IDX 5 1 4 2 3 3 1 4 2 5 29 7 30 8 91 9 31 10 90 11 32 12 33 13
REMARK SMILES IDX 34 14 84 15 35 16 89 17 83 18 85 19 36 20 88 21 82 22 81 23
REMARK SMILES IDX 37 25 69 26 49 27 68 28 50 29 53 30 67 31 86 32 51 33 52 34
REMARK SMILES IDX 66 36 87 37 54 38 38 39 39 40 47 41 40 42 42 43 48 44 41 45
REMARK SMILES IDX 43 46 44 47 45 48 46 49 70 50 71 51 79 52 72 53 74 54 80 55
REMARK SMILES IDX 73 56 75 57 76 58 77 59 78 60 55 61 56 62 64 63 57 64 59 65
REMARK SMILES IDX 65 66 58 67 60 68 61 69 62 70 63 71 6 72 7 73 8 74 9 76
REMARK SMILES IDX 10 77 11 78 15 79 12 80 14 81 13 82 16 83 17 85 18 86 28 87
REMARK SMILES IDX 19 88 21 89 20 90 22 91 23 92 24 93 25 94 26 95 27 96
REMARK H PARENT 3 6 85 24 53 35 7 75 16 84
REMARK Flexibility Score: inf
ROOT
ATOM      1  C   UNL A   1      37.417  20.158  24.862  1.00  0.00     0.042 C 
ENDROOT
BRANCH   1   2
ATOM      2  C   UNL A   1      38.614  20.516  25.728  1.00  0.00     0.118 C 
BRANCH   2   3
ATOM      3  N   UNL A   1      39.502  19.350  25.844  1.00  0.00    -0.352 N 
ATOM      4  O   UNL A   1      41.682  18.526  26.307  1.00  0.00    -0.269 OA
ATOM      5  C   UNL A   1      40.915  19.535  26.206  1.00  0.00     0.251 C 
ATOM      6  H   UNL A   1      39.149  18.446  25.680  1.00  0.00     0.163 HD
BRANCH   5   7
ATOM      7  C   UNL A   1      41.458  20.932  26.459  1.00  0.00     0.039 A 
ATOM      8  C   UNL A   1      41.315  21.439  27.740  1.00  0.00     0.014 A 
ATOM      9  C   UNL A   1      41.928  21.682  25.469  1.00  0.00     0.014 A 
ATOM     10  C   UNL A   1      41.426  22.848  27.814  1.00  0.00     0.010 A 
ATOM     11  C   UNL A   1      42.142  23.027  25.652  1.00  0.00     0.010 A 
ATOM     12  C   UNL A   1      41.963  23.607  26.877  1.00  0.00    -0.014 A 
BRANCH  12  13
ATOM     13  C   UNL A   1      42.363  25.049  27.145  1.00  0.00     0.031 A 
ATOM     14  C   UNL A   1      41.488  25.931  27.782  1.00  0.00     0.074 A 
ATOM     15  C   UNL A   1      43.668  25.362  26.805  1.00  0.00     0.049 A 
ATOM     16  N   UNL A   1      41.743  27.174  28.194  1.00  0.00    -0.248 NA
ATOM     17  C   UNL A   1      40.092  25.612  28.113  1.00  0.00     0.031 C 
ATOM     18  C   UNL A   1      44.559  24.475  26.170  1.00  0.00     0.029 A 
ATOM     19  N   UNL A   1      44.331  26.553  27.008  1.00  0.00    -0.354 N 
ATOM     20  C   UNL A   1      40.663  27.698  28.777  1.00  0.00     0.074 A 
ATOM     21  C   UNL A   1      39.584  26.702  28.728  1.00  0.00     0.031 C 
ATOM     22  C   UNL A   1      45.738  25.125  25.983  1.00  0.00     0.029 A 
ATOM     23  C   UNL A   1      45.604  26.428  26.498  1.00  0.00     0.049 A 
ATOM     24  H   UNL A   1      43.959  27.355  27.442  1.00  0.00     0.167 HD
ATOM     25  C   UNL A   1      40.537  28.964  29.350  1.00  0.00     0.034 A 
ATOM     26  C   UNL A   1      46.605  27.386  26.471  1.00  0.00     0.034 A 
ATOM     27  C   UNL A   1      41.551  29.906  29.361  1.00  0.00     0.049 A 
ATOM     28  C   UNL A   1      46.460  28.675  26.991  1.00  0.00     0.074 A 
ATOM     29  C   UNL A   1      41.443  31.184  29.941  1.00  0.00     0.029 A 
ATOM     30  N   UNL A   1      42.817  29.790  28.830  1.00  0.00    -0.354 N 
ATOM     31  N   UNL A   1      45.392  29.183  27.609  1.00  0.00    -0.248 NA
ATOM     32  C   UNL A   1      47.502  29.708  26.940  1.00  0.00     0.031 C 
ATOM     33  C   UNL A   1      42.622  31.835  29.753  1.00  0.00     0.029 A 
ATOM     34  C   UNL A   1      43.487  30.972  29.052  1.00  0.00     0.049 A 
ATOM     35  H   UNL A   1      43.179  28.999  28.369  1.00  0.00     0.167 HD
ATOM     36  C   UNL A   1      45.635  30.440  27.984  1.00  0.00     0.074 A 
ATOM     37  C   UNL A   1      46.993  30.798  27.553  1.00  0.00     0.031 C 
ATOM     38  C   UNL A   1      44.780  31.303  28.673  1.00  0.00     0.034 A 
BRANCH  25  39
ATOM     39  C   UNL A   1      39.210  29.329  29.996  1.00  0.00     0.023 A 
ATOM     40  C   UNL A   1      39.022  28.874  31.290  1.00  0.00     0.012 A 
ATOM     41  C   UNL A   1      38.311  30.105  29.402  1.00  0.00     0.148 A 
ATOM     42  C   UNL A   1      37.706  29.057  31.777  1.00  0.00     0.002 A 
ATOM     43  C   UNL A   1      37.098  30.354  29.996  1.00  0.00     0.091 A 
ATOM     44  F   UNL A   1      38.587  30.648  28.219  1.00  0.00    -0.205 F 
ATOM     45  C   UNL A   1      36.822  29.884  31.251  1.00  0.00     0.022 A 
BRANCH  43  46
ATOM     46  S   UNL A   1      35.847  31.314  29.108  1.00  0.00     0.127 S 
ATOM     47  O   UNL A   1      36.524  32.465  28.361  1.00  0.00    -0.237 OA
ATOM     48  O   UNL A   1      35.125  30.410  28.107  1.00  0.00    -0.237 OA
ATOM     49  O   UNL A   1      34.716  31.947  30.224  1.00  0.00    -0.744 OA
ENDBRANCH  43  46
ENDBRANCH  25  39
BRANCH  26  50
ATOM     50  C   UNL A   1      47.937  27.014  25.839  1.00  0.00     0.023 A 
ATOM     51  C   UNL A   1      49.029  26.658  26.614  1.00  0.00     0.012 A 
ATOM     52  C   UNL A   1      48.038  27.137  24.521  1.00  0.00     0.148 A 
ATOM     53  C   UNL A   1      50.266  26.733  25.929  1.00  0.00     0.002 A 
ATOM     54  C   UNL A   1      49.263  27.065  23.903  1.00  0.00     0.091 A 
ATOM     55  F   UNL A   1      46.942  27.331  23.792  1.00  0.00    -0.205 F 
ATOM     56  C   UNL A   1      50.393  26.775  24.616  1.00  0.00     0.022 A 
BRANCH  54  57
ATOM     57  S   UNL A   1      49.382  27.357  22.121  1.00  0.00     0.127 S 
ATOM     58  O   UNL A   1      50.852  27.520  21.728  1.00  0.00    -0.237 OA
ATOM     59  O   UNL A   1      48.781  26.169  21.368  1.00  0.00    -0.237 OA
ATOM     60  O   UNL A   1      48.523  28.780  21.718  1.00  0.00    -0.744 OA
ENDBRANCH  54  57
ENDBRANCH  26  50
BRANCH  38  61
ATOM     61  C   UNL A   1      45.295  32.688  29.028  1.00  0.00     0.023 A 
ATOM     62  C   UNL A   1      45.858  32.858  30.282  1.00  0.00     0.012 A 
ATOM     63  C   UNL A   1      45.134  33.713  28.199  1.00  0.00     0.148 A 
ATOM     64  C   UNL A   1      45.959  34.210  30.687  1.00  0.00     0.002 A 
ATOM     65  C   UNL A   1      45.382  34.997  28.621  1.00  0.00     0.091 A 
ATOM     66  F   UNL A   1      44.732  33.495  26.951  1.00  0.00    -0.205 F 
ATOM     67  C   UNL A   1      45.884  35.244  29.868  1.00  0.00     0.022 A 
BRANCH  65  68
ATOM     68  S   UNL A   1      45.038  36.383  27.508  1.00  0.00     0.127 S 
ATOM     69  O   UNL A   1      45.999  36.335  26.319  1.00  0.00    -0.237 OA
ATOM     70  O   UNL A   1      43.596  36.285  27.002  1.00  0.00    -0.237 OA
ATOM     71  O   UNL A   1      45.246  37.856  28.351  1.00  0.00    -0.744 OA
ENDBRANCH  65  68
ENDBRANCH  38  61
ENDBRANCH  12  13
ENDBRANCH   5   7
ENDBRANCH   2   3
ENDBRANCH   1   2
BRANCH   1  72
ATOM     72  C   UNL A   1      36.383  21.269  24.943  1.00  0.00     0.118 C 
BRANCH  72  73
ATOM     73  N   UNL A   1      35.829  21.325  26.303  1.00  0.00    -0.352 N 
ATOM     74  C   UNL A   1      34.700  22.218  26.600  1.00  0.00     0.253 C 
ATOM     75  H   UNL A   1      36.214  20.764  27.015  1.00  0.00     0.163 HD
ATOM     76  O   UNL A   1      34.220  22.266  27.777  1.00  0.00    -0.269 OA
BRANCH  74  77
ATOM     77  C   UNL A   1      34.105  23.083  25.501  1.00  0.00     0.063 A 
ATOM     78  C   UNL A   1      34.840  24.199  25.138  1.00  0.00     0.016 A 
ATOM     79  C   UNL A   1      33.016  22.727  24.831  1.00  0.00     0.051 A 
ATOM     80  C   UNL A   1      34.177  25.049  24.221  1.00  0.00     0.001 A 
ATOM     81  C   UNL A   1      32.499  23.542  23.853  1.00  0.00     0.027 A 
ATOM     82  C   UNL A   1      33.141  24.691  23.483  1.00  0.00     0.002 A 
BRANCH  79  83
ATOM     83  N   UNL A   1      32.357  21.449  25.139  1.00  0.00    -0.355 N 
ATOM     84  H   UNL A   1      31.788  21.369  25.938  1.00  0.00     0.167 HD
BRANCH  83  85
ATOM     85  C   UNL A   1      32.547  20.293  24.251  1.00  0.00     0.040 A 
ATOM     86  C   UNL A   1      32.123  20.313  22.933  1.00  0.00     0.026 A 
ATOM     87  C   UNL A   1      33.200  19.249  24.749  1.00  0.00     0.050 A 
ATOM     88  C   UNL A   1      32.180  19.053  22.293  1.00  0.00     0.004 A 
ATOM     89  C   UNL A   1      33.337  18.095  24.015  1.00  0.00     0.109 A 
ATOM     90  C   UNL A   1      32.887  18.025  22.725  1.00  0.00     0.024 A 
BRANCH  89  91
ATOM     91  S   UNL A   1      34.123  16.648  24.766  1.00  0.00     0.310 S 
ATOM     92  F   UNL A   1      34.407  15.970  23.361  1.00  0.00    -0.094 F 
ATOM     93  F   UNL A   1      32.736  15.903  24.769  1.00  0.00    -0.094 F 
ATOM     94  F   UNL A   1      34.816  15.424  25.428  1.00  0.00    -0.094 F 
ATOM     95  F   UNL A   1      35.528  17.356  24.626  1.00  0.00    -0.094 F 
ATOM     96  F   UNL A   1      33.455  17.854  23.991  1.00  0.00    -0.094 F 
ENDBRANCH  89  91
ENDBRANCH  83  85
ENDBRANCH  79  83
ENDBRANCH  74  77
ENDBRANCH  72  73
ENDBRANCH   1  72
TORSDOF 16
ENDMDL
