MODEL 1
REMARK VINA RESULT:     -12.0      0.000      0.000
REMARK SMILES Cc1ccc(C(N)=O)c(NCc2ccc(C(=O)NCCCNC(=O)c3ccc(-c4c5nc(c(-c6cccc(S(=O)(=O)[O-])c6F)c6ccc([nH]6)c(-c6cccc(S(=O)(=O)[O-])c6F)c6nc(c(-c7cccc(S(=O)(=O)[O-])c7F)c7ccc4[nH]7)C=C6)C=C5)cc3)o2)n1
REMARK SMILES IDX 19 1 18 2 16 3 17 4 15 6 12 7 13 8 88 9 14 10 11 11 10 12
REMARK SMILES IDX 9 14 1 15 2 16 3 17 89 18 4 19 5 20 6 21 7 22 8 23 20 26
REMARK SMILES IDX 21 27 22 28 23 29 24 31 25 32 26 33 87 34 27 35 86 36 28 37
REMARK SMILES IDX 29 38 30 39 80 40 31 41 85 42 79 43 81 44 32 45 84 46 78 47
REMARK SMILES IDX 77 48 33 50 65 51 45 52 64 53 46 54 49 55 63 56 82 57 47 58
REMARK SMILES IDX 48 59 62 61 83 62 50 63 34 64 35 65 43 66 36 67 38 68 44 69
REMARK SMILES IDX 37 70 39 71 40 72 41 73 42 74 66 75 67 76 75 77 68 78 70 79
REMARK SMILES IDX 76 80 69 81 71 82 72 83 73 84 74 85 51 86 52 87 60 88 53 89
REMARK SMILES IDX 55 90 61 91 54 92 56 93 57 94 58 95 59 96
REMARK H PARENT 18 5 10 13 7 24 7 25 22 30 81 49 49 60
REMARK Flexibility Score: inf
ROOT
ATOM      1  C   UNL A   1      31.779  30.484  26.992  1.00  0.00     0.118 C 
ENDROOT
BRANCH   1   2
ATOM      2  N   UNL A   1      33.052  30.130  27.587  1.00  0.00    -0.349 N 
ATOM      3  C   UNL A   1      34.021  29.241  27.180  1.00  0.00     0.286 C 
ATOM      4  O   UNL A   1      35.074  29.267  27.822  1.00  0.00    -0.266 OA
ATOM      5  H   UNL A   1      33.259  30.605  28.424  1.00  0.00     0.163 HD
BRANCH   3   6
ATOM      6  C   UNL A   1      33.807  28.356  26.050  1.00  0.00     0.191 A 
ATOM      7  C   UNL A   1      33.175  27.958  23.962  1.00  0.00     0.124 A 
ATOM      8  C   UNL A   1      33.567  26.747  24.486  1.00  0.00     0.048 A 
ATOM      9  O   UNL A   1      33.307  28.931  24.904  1.00  0.00    -0.454 OA
ATOM     10  C   UNL A   1      34.016  27.010  25.802  1.00  0.00     0.056 A 
BRANCH   7  11
ATOM     11  C   UNL A   1      32.691  28.389  22.619  1.00  0.00     0.190 C 
BRANCH  11  12
ATOM     12  N   UNL A   1      31.532  27.641  22.158  1.00  0.00    -0.362 N 
ATOM     13  H   UNL A   1      31.666  26.814  21.639  1.00  0.00     0.162 HD
BRANCH  12  14
ATOM     14  C   UNL A   1      30.246  28.067  22.434  1.00  0.00     0.139 A 
ATOM     15  C   UNL A   1      28.111  30.809  21.202  1.00  0.00     0.067 C 
ATOM     16  C   UNL A   1      28.537  29.607  21.987  1.00  0.00     0.040 A 
ATOM     17  C   UNL A   1      27.673  28.990  22.877  1.00  0.00     0.024 A 
ATOM     18  N   UNL A   1      29.802  29.169  21.780  1.00  0.00    -0.236 NA
ATOM     19  C   UNL A   1      28.129  27.878  23.572  1.00  0.00     0.019 A 
ATOM     20  C   UNL A   1      29.431  27.407  23.362  1.00  0.00     0.081 A 
BRANCH  20  21
ATOM     21  C   UNL A   1      29.855  26.233  24.169  1.00  0.00     0.252 C 
ATOM     22  N   UNL A   1      29.809  25.001  23.583  1.00  0.00    -0.365 N 
ATOM     23  O   UNL A   1      30.271  26.369  25.313  1.00  0.00    -0.269 OA
ATOM     24  H   UNL A   1      29.473  24.905  22.662  1.00  0.00     0.159 HD
ATOM     25  H   UNL A   1      30.113  24.207  24.080  1.00  0.00     0.159 HD
ENDBRANCH  20  21
ENDBRANCH  12  14
ENDBRANCH  11  12
ENDBRANCH   7  11
ENDBRANCH   3   6
ENDBRANCH   1   2
BRANCH   1  26
ATOM     26  C   UNL A   1      31.602  31.995  26.879  1.00  0.00     0.042 C 
BRANCH  26  27
ATOM     27  C   UNL A   1      32.900  32.774  27.097  1.00  0.00     0.118 C 
BRANCH  27  28
ATOM     28  N   UNL A   1      32.652  34.104  27.642  1.00  0.00    -0.352 N 
ATOM     29  C   UNL A   1      33.169  34.720  28.754  1.00  0.00     0.251 C 
ATOM     30  H   UNL A   1      32.012  34.648  27.129  1.00  0.00     0.163 HD
ATOM     31  O   UNL A   1      32.647  35.757  29.159  1.00  0.00    -0.269 OA
BRANCH  29  32
ATOM     32  C   UNL A   1      34.335  34.153  29.466  1.00  0.00     0.039 A 
ATOM     33  C   UNL A   1      34.113  33.284  30.539  1.00  0.00     0.014 A 
ATOM     34  C   UNL A   1      35.638  34.514  29.119  1.00  0.00     0.014 A 
ATOM     35  C   UNL A   1      35.198  32.738  31.228  1.00  0.00     0.010 A 
ATOM     36  C   UNL A   1      36.719  33.915  29.761  1.00  0.00     0.010 A 
ATOM     37  C   UNL A   1      36.512  33.026  30.827  1.00  0.00    -0.014 A 
BRANCH  37  38
ATOM     38  C   UNL A   1      37.681  32.401  31.498  1.00  0.00     0.031 A 
ATOM     39  C   UNL A   1      38.425  31.273  30.836  1.00  0.00     0.074 A 
ATOM     40  C   UNL A   1      38.009  32.786  32.747  1.00  0.00     0.049 A 
ATOM     41  N   UNL A   1      39.419  30.559  31.298  1.00  0.00    -0.248 NA
ATOM     42  C   UNL A   1      37.978  30.876  29.491  1.00  0.00     0.031 C 
ATOM     43  C   UNL A   1      37.313  33.811  33.526  1.00  0.00     0.029 A 
ATOM     44  N   UNL A   1      38.992  32.336  33.594  1.00  0.00    -0.354 N 
ATOM     45  C   UNL A   1      39.688  29.605  30.324  1.00  0.00     0.074 A 
ATOM     46  C   UNL A   1      38.735  29.813  29.256  1.00  0.00     0.031 C 
ATOM     47  C   UNL A   1      37.887  33.912  34.736  1.00  0.00     0.029 A 
ATOM     48  C   UNL A   1      38.971  32.939  34.831  1.00  0.00     0.049 A 
ATOM     49  H   UNL A   1      39.648  31.649  33.341  1.00  0.00     0.167 HD
ATOM     50  C   UNL A   1      40.656  28.657  30.308  1.00  0.00     0.034 A 
ATOM     51  C   UNL A   1      39.732  32.726  35.922  1.00  0.00     0.034 A 
ATOM     52  C   UNL A   1      41.634  28.488  31.349  1.00  0.00     0.049 A 
ATOM     53  C   UNL A   1      40.833  31.704  35.857  1.00  0.00     0.074 A 
ATOM     54  C   UNL A   1      42.717  27.628  31.380  1.00  0.00     0.029 A 
ATOM     55  N   UNL A   1      41.643  29.186  32.547  1.00  0.00    -0.354 N 
ATOM     56  N   UNL A   1      41.179  30.928  34.858  1.00  0.00    -0.248 NA
ATOM     57  C   UNL A   1      41.674  31.554  37.054  1.00  0.00     0.031 C 
ATOM     58  C   UNL A   1      43.369  27.789  32.607  1.00  0.00     0.029 A 
ATOM     59  C   UNL A   1      42.706  28.768  33.330  1.00  0.00     0.049 A 
ATOM     60  H   UNL A   1      40.990  29.876  32.804  1.00  0.00     0.167 HD
ATOM     61  C   UNL A   1      42.297  30.224  35.292  1.00  0.00     0.074 A 
ATOM     62  C   UNL A   1      42.583  30.683  36.636  1.00  0.00     0.031 C 
ATOM     63  C   UNL A   1      43.013  29.273  34.643  1.00  0.00     0.034 A 
BRANCH  50  64
ATOM     64  C   UNL A   1      40.742  27.759  29.101  1.00  0.00     0.023 A 
ATOM     65  C   UNL A   1      39.791  26.734  28.926  1.00  0.00     0.012 A 
ATOM     66  C   UNL A   1      41.719  27.970  28.108  1.00  0.00     0.148 A 
ATOM     67  C   UNL A   1      39.830  25.911  27.801  1.00  0.00     0.002 A 
ATOM     68  C   UNL A   1      41.724  27.175  26.967  1.00  0.00     0.091 A 
ATOM     69  F   UNL A   1      42.628  28.936  28.299  1.00  0.00    -0.205 F 
ATOM     70  C   UNL A   1      40.788  26.139  26.817  1.00  0.00     0.022 A 
BRANCH  68  71
ATOM     71  S   UNL A   1      42.867  27.439  25.606  1.00  0.00     0.127 S 
ATOM     72  O   UNL A   1      44.024  28.005  26.298  1.00  0.00    -0.237 OA
ATOM     73  O   UNL A   1      43.064  26.080  25.101  1.00  0.00    -0.237 OA
ATOM     74  O   UNL A   1      42.191  28.337  24.681  1.00  0.00    -0.744 OA
ENDBRANCH  68  71
ENDBRANCH  50  64
BRANCH  51  75
ATOM     75  C   UNL A   1      39.520  33.547  37.148  1.00  0.00     0.023 A 
ATOM     76  C   UNL A   1      40.043  34.853  37.205  1.00  0.00     0.012 A 
ATOM     77  C   UNL A   1      38.781  33.056  38.242  1.00  0.00     0.148 A 
ATOM     78  C   UNL A   1      39.864  35.644  38.340  1.00  0.00     0.002 A 
ATOM     79  C   UNL A   1      38.557  33.869  39.347  1.00  0.00     0.091 A 
ATOM     80  F   UNL A   1      38.301  31.806  38.175  1.00  0.00    -0.205 F 
ATOM     81  C   UNL A   1      39.113  35.157  39.405  1.00  0.00     0.022 A 
BRANCH  79  82
ATOM     82  S   UNL A   1      37.488  33.374  40.703  1.00  0.00     0.127 S 
ATOM     83  O   UNL A   1      37.367  34.617  41.459  1.00  0.00    -0.237 OA
ATOM     84  O   UNL A   1      36.275  32.960  39.996  1.00  0.00    -0.237 OA
ATOM     85  O   UNL A   1      38.187  32.286  41.374  1.00  0.00    -0.744 OA
ENDBRANCH  79  82
ENDBRANCH  51  75
BRANCH  63  86
ATOM     86  C   UNL A   1      44.201  28.683  35.357  1.00  0.00     0.023 A 
ATOM     87  C   UNL A   1      45.484  29.225  35.148  1.00  0.00     0.012 A 
ATOM     88  C   UNL A   1      44.031  27.644  36.293  1.00  0.00     0.148 A 
ATOM     89  C   UNL A   1      46.586  28.718  35.838  1.00  0.00     0.002 A 
ATOM     90  C   UNL A   1      45.125  27.178  37.011  1.00  0.00     0.091 A 
ATOM     91  F   UNL A   1      42.804  27.129  36.462  1.00  0.00    -0.205 F 
ATOM     92  C   UNL A   1      46.405  27.706  36.776  1.00  0.00     0.022 A 
BRANCH  90  93
ATOM     93  S   UNL A   1      44.969  25.944  38.308  1.00  0.00     0.127 S 
ATOM     94  O   UNL A   1      44.029  26.590  39.223  1.00  0.00    -0.237 OA
ATOM     95  O   UNL A   1      44.422  24.797  37.581  1.00  0.00    -0.237 OA
ATOM     96  O   UNL A   1      46.313  25.740  38.831  1.00  0.00    -0.744 OA
ENDBRANCH  90  93
ENDBRANCH  63  86
ENDBRANCH  37  38
ENDBRANCH  29  32
ENDBRANCH  27  28
ENDBRANCH  26  27
ENDBRANCH   1  26
TORSDOF 17
ENDMDL
MODEL 2
REMARK VINA RESULT:     -11.7      5.611      8.378
REMARK SMILES Cc1ccc(C(N)=O)c(NCc2ccc(C(=O)NCCCNC(=O)c3ccc(-c4c5nc(c(-c6cccc(S(=O)(=O)[O-])c6F)c6ccc([nH]6)c(-c6cccc(S(=O)(=O)[O-])c6F)c6nc(c(-c7cccc(S(=O)(=O)[O-])c7F)c7ccc4[nH]7)C=C6)C=C5)cc3)o2)n1
REMARK SMILES IDX 19 1 18 2 16 3 17 4 15 6 12 7 13 8 88 9 14 10 11 11 10 12
REMARK SMILES IDX 9 14 1 15 2 16 3 17 89 18 4 19 5 20 6 21 7 22 8 23 20 26
REMARK SMILES IDX 21 27 22 28 23 29 24 31 25 32 26 33 87 34 27 35 86 36 28 37
REMARK SMILES IDX 29 38 30 39 80 40 31 41 85 42 79 43 81 44 32 45 84 46 78 47
REMARK SMILES IDX 77 48 33 50 65 51 45 52 64 53 46 54 49 55 63 56 82 57 47 58
REMARK SMILES IDX 48 59 62 61 83 62 50 63 34 64 35 65 43 66 36 67 38 68 44 69
REMARK SMILES IDX 37 70 39 71 40 72 41 73 42 74 66 75 67 76 75 77 68 78 70 79
REMARK SMILES IDX 76 80 69 81 71 82 72 83 73 84 74 85 51 86 52 87 60 88 53 89
REMARK SMILES IDX 55 90 61 91 54 92 56 93 57 94 58 95 59 96
REMARK H PARENT 18 5 10 13 7 24 7 25 22 30 81 49 49 60
REMARK Flexibility Score: inf
ROOT
ATOM      1  C   UNL A   1      34.688  22.792  26.226  1.00  0.00     0.118 C 
ENDROOT
BRANCH   1   2
ATOM      2  N   UNL A   1      33.486  23.155  26.950  1.00  0.00    -0.349 N 
ATOM      3  C   UNL A   1      32.279  23.645  26.505  1.00  0.00     0.286 C 
ATOM      4  O   UNL A   1      31.386  23.716  27.354  1.00  0.00    -0.266 OA
ATOM      5  H   UNL A   1      33.542  23.029  27.925  1.00  0.00     0.163 HD
BRANCH   3   6
ATOM      6  C   UNL A   1      32.083  24.024  25.119  1.00  0.00     0.191 A 
ATOM      7  C   UNL A   1      32.563  25.247  23.333  1.00  0.00     0.124 A 
ATOM      8  C   UNL A   1      31.541  24.402  22.961  1.00  0.00     0.048 A 
ATOM      9  O   UNL A   1      32.887  25.031  24.636  1.00  0.00    -0.454 OA
ATOM     10  C   UNL A   1      31.269  23.590  24.087  1.00  0.00     0.056 A 
BRANCH   7  11
ATOM     11  C   UNL A   1      33.363  26.275  22.606  1.00  0.00     0.190 C 
BRANCH  11  12
ATOM     12  N   UNL A   1      32.659  27.536  22.436  1.00  0.00    -0.362 N 
ATOM     13  H   UNL A   1      32.359  27.804  21.537  1.00  0.00     0.162 HD
BRANCH  12  14
ATOM     14  C   UNL A   1      32.406  28.367  23.511  1.00  0.00     0.139 A 
ATOM     15  C   UNL A   1      34.123  29.072  26.697  1.00  0.00     0.067 C 
ATOM     16  C   UNL A   1      33.096  29.150  25.609  1.00  0.00     0.040 A 
ATOM     17  C   UNL A   1      32.020  30.017  25.702  1.00  0.00     0.024 A 
ATOM     18  N   UNL A   1      33.279  28.328  24.547  1.00  0.00    -0.236 NA
ATOM     19  C   UNL A   1      31.105  30.043  24.658  1.00  0.00     0.019 A 
ATOM     20  C   UNL A   1      31.285  29.207  23.548  1.00  0.00     0.081 A 
BRANCH  20  21
ATOM     21  C   UNL A   1      30.244  29.268  22.490  1.00  0.00     0.252 C 
ATOM     22  N   UNL A   1      30.038  30.463  21.861  1.00  0.00    -0.365 N 
ATOM     23  O   UNL A   1      29.616  28.269  22.161  1.00  0.00    -0.269 OA
ATOM     24  H   UNL A   1      30.550  31.259  22.135  1.00  0.00     0.159 HD
ATOM     25  H   UNL A   1      29.378  30.530  21.134  1.00  0.00     0.159 HD
ENDBRANCH  20  21
ENDBRANCH  12  14
ENDBRANCH  11  12
ENDBRANCH   7  11
ENDBRANCH   3   6
ENDBRANCH   1   2
BRANCH   1  26
ATOM     26  C   UNL A   1      35.656  23.965  26.103  1.00  0.00     0.042 C 
BRANCH  26  27
ATOM     27  C   UNL A   1      36.804  23.701  25.128  1.00  0.00     0.118 C 
BRANCH  27  28
ATOM     28  N   UNL A   1      37.696  22.651  25.608  1.00  0.00    -0.352 N 
ATOM     29  C   UNL A   1      38.914  22.737  26.235  1.00  0.00     0.251 C 
ATOM     30  H   UNL A   1      37.372  21.734  25.458  1.00  0.00     0.163 HD
ATOM     31  O   UNL A   1      39.602  21.724  26.343  1.00  0.00    -0.269 OA
BRANCH  29  32
ATOM     32  C   UNL A   1      39.403  24.024  26.775  1.00  0.00     0.039 A 
ATOM     33  C   UNL A   1      40.065  24.907  25.917  1.00  0.00     0.014 A 
ATOM     34  C   UNL A   1      39.263  24.340  28.128  1.00  0.00     0.014 A 
ATOM     35  C   UNL A   1      40.539  26.128  26.405  1.00  0.00     0.010 A 
ATOM     36  C   UNL A   1      39.672  25.586  28.597  1.00  0.00     0.010 A 
ATOM     37  C   UNL A   1      40.322  26.491  27.743  1.00  0.00    -0.014 A 
BRANCH  37  38
ATOM     38  C   UNL A   1      40.752  27.812  28.266  1.00  0.00     0.031 A 
ATOM     39  C   UNL A   1      42.214  28.120  28.449  1.00  0.00     0.074 A 
ATOM     40  C   UNL A   1      39.820  28.699  28.668  1.00  0.00     0.049 A 
ATOM     41  N   UNL A   1      42.773  29.187  28.958  1.00  0.00    -0.248 NA
ATOM     42  C   UNL A   1      43.172  27.083  28.032  1.00  0.00     0.031 C 
ATOM     43  C   UNL A   1      38.372  28.484  28.618  1.00  0.00     0.029 A 
ATOM     44  N   UNL A   1      39.951  29.945  29.230  1.00  0.00    -0.354 N 
ATOM     45  C   UNL A   1      44.140  28.935  28.963  1.00  0.00     0.074 A 
ATOM     46  C   UNL A   1      44.325  27.603  28.431  1.00  0.00     0.031 C 
ATOM     47  C   UNL A   1      37.749  29.559  29.129  1.00  0.00     0.029 A 
ATOM     48  C   UNL A   1      38.750  30.525  29.570  1.00  0.00     0.049 A 
ATOM     49  H   UNL A   1      40.821  30.382  29.375  1.00  0.00     0.167 HD
ATOM     50  C   UNL A   1      45.152  29.748  29.352  1.00  0.00     0.034 A 
ATOM     51  C   UNL A   1      38.485  31.698  30.177  1.00  0.00     0.034 A 
ATOM     52  C   UNL A   1      44.967  31.091  29.832  1.00  0.00     0.049 A 
ATOM     53  C   UNL A   1      39.628  32.603  30.549  1.00  0.00     0.074 A 
ATOM     54  C   UNL A   1      45.930  32.031  30.151  1.00  0.00     0.029 A 
ATOM     55  N   UNL A   1      43.736  31.683  30.070  1.00  0.00    -0.354 N 
ATOM     56  N   UNL A   1      40.915  32.415  30.387  1.00  0.00    -0.248 NA
ATOM     57  C   UNL A   1      39.282  33.898  31.154  1.00  0.00     0.031 C 
ATOM     58  C   UNL A   1      45.283  33.184  30.606  1.00  0.00     0.029 A 
ATOM     59  C   UNL A   1      43.914  32.971  30.544  1.00  0.00     0.049 A 
ATOM     60  H   UNL A   1      42.864  31.251  29.925  1.00  0.00     0.167 HD
ATOM     61  C   UNL A   1      41.530  33.578  30.834  1.00  0.00     0.074 A 
ATOM     62  C   UNL A   1      40.472  34.475  31.254  1.00  0.00     0.031 C 
ATOM     63  C   UNL A   1      42.852  33.873  30.905  1.00  0.00     0.034 A 
BRANCH  50  64
ATOM     64  C   UNL A   1      46.561  29.228  29.223  1.00  0.00     0.023 A 
ATOM     65  C   UNL A   1      47.162  28.571  30.316  1.00  0.00     0.012 A 
ATOM     66  C   UNL A   1      47.264  29.328  28.007  1.00  0.00     0.148 A 
ATOM     67  C   UNL A   1      48.453  28.053  30.212  1.00  0.00     0.002 A 
ATOM     68  C   UNL A   1      48.532  28.769  27.897  1.00  0.00     0.091 A 
ATOM     69  F   UNL A   1      46.685  29.974  26.984  1.00  0.00    -0.205 F 
ATOM     70  C   UNL A   1      49.132  28.142  29.001  1.00  0.00     0.022 A 
BRANCH  68  71
ATOM     71  S   UNL A   1      49.458  28.761  26.357  1.00  0.00     0.127 S 
ATOM     72  O   UNL A   1      49.907  30.150  26.275  1.00  0.00    -0.237 OA
ATOM     73  O   UNL A   1      50.517  27.793  26.639  1.00  0.00    -0.237 OA
ATOM     74  O   UNL A   1      48.517  28.347  25.325  1.00  0.00    -0.744 OA
ENDBRANCH  68  71
ENDBRANCH  50  64
BRANCH  51  75
ATOM     75  C   UNL A   1      37.072  32.112  30.410  1.00  0.00     0.023 A 
ATOM     76  C   UNL A   1      36.487  31.894  31.672  1.00  0.00     0.012 A 
ATOM     77  C   UNL A   1      36.317  32.745  29.403  1.00  0.00     0.148 A 
ATOM     78  C   UNL A   1      35.166  32.267  31.918  1.00  0.00     0.002 A 
ATOM     79  C   UNL A   1      35.020  33.166  29.673  1.00  0.00     0.091 A 
ATOM     80  F   UNL A   1      36.887  32.932  28.204  1.00  0.00    -0.205 F 
ATOM     81  C   UNL A   1      34.437  32.912  30.924  1.00  0.00     0.022 A 
BRANCH  79  82
ATOM     82  S   UNL A   1      34.058  34.125  28.497  1.00  0.00     0.127 S 
ATOM     83  O   UNL A   1      34.952  35.248  28.225  1.00  0.00    -0.237 OA
ATOM     84  O   UNL A   1      33.900  33.179  27.392  1.00  0.00    -0.237 OA
ATOM     85  O   UNL A   1      32.816  34.453  29.184  1.00  0.00    -0.744 OA
ENDBRANCH  79  82
ENDBRANCH  51  75
BRANCH  63  86
ATOM     86  C   UNL A   1      43.237  35.234  31.424  1.00  0.00     0.023 A 
ATOM     87  C   UNL A   1      43.445  35.425  32.803  1.00  0.00     0.012 A 
ATOM     88  C   UNL A   1      43.469  36.301  30.534  1.00  0.00     0.148 A 
ATOM     89  C   UNL A   1      43.847  36.667  33.293  1.00  0.00     0.002 A 
ATOM     90  C   UNL A   1      43.917  37.522  31.024  1.00  0.00     0.091 A 
ATOM     91  F   UNL A   1      43.247  36.104  29.226  1.00  0.00    -0.205 F 
ATOM     92  C   UNL A   1      44.095  37.710  32.404  1.00  0.00     0.022 A 
BRANCH  90  93
ATOM     93  S   UNL A   1      44.353  38.890  29.944  1.00  0.00     0.127 S 
ATOM     94  O   UNL A   1      45.400  38.293  29.115  1.00  0.00    -0.237 OA
ATOM     95  O   UNL A   1      43.093  39.146  29.243  1.00  0.00    -0.237 OA
ATOM     96  O   UNL A   1      44.786  39.970  30.819  1.00  0.00    -0.744 OA
ENDBRANCH  90  93
ENDBRANCH  63  86
ENDBRANCH  37  38
ENDBRANCH  29  32
ENDBRANCH  27  28
ENDBRANCH  26  27
ENDBRANCH   1  26
TORSDOF 17
ENDMDL
MODEL 3
REMARK VINA RESULT:     -11.7      4.119     10.623
REMARK SMILES Cc1ccc(C(N)=O)c(NCc2ccc(C(=O)NCCCNC(=O)c3ccc(-c4c5nc(c(-c6cccc(S(=O)(=O)[O-])c6F)c6ccc([nH]6)c(-c6cccc(S(=O)(=O)[O-])c6F)c6nc(c(-c7cccc(S(=O)(=O)[O-])c7F)c7ccc4[nH]7)C=C6)C=C5)cc3)o2)n1
REMARK SMILES IDX 19 1 18 2 16 3 17 4 15 6 12 7 13 8 88 9 14 10 11 11 10 12
REMARK SMILES IDX 9 14 1 15 2 16 3 17 89 18 4 19 5 20 6 21 7 22 8 23 20 26
REMARK SMILES IDX 21 27 22 28 23 29 24 31 25 32 26 33 87 34 27 35 86 36 28 37
REMARK SMILES IDX 29 38 30 39 80 40 31 41 85 42 79 43 81 44 32 45 84 46 78 47
REMARK SMILES IDX 77 48 33 50 65 51 45 52 64 53 46 54 49 55 63 56 82 57 47 58
REMARK SMILES IDX 48 59 62 61 83 62 50 63 34 64 35 65 43 66 36 67 38 68 44 69
REMARK SMILES IDX 37 70 39 71 40 72 41 73 42 74 66 75 67 76 75 77 68 78 70 79
REMARK SMILES IDX 76 80 69 81 71 82 72 83 73 84 74 85 51 86 52 87 60 88 53 89
REMARK SMILES IDX 55 90 61 91 54 92 56 93 57 94 58 95 59 96
REMARK H PARENT 18 5 10 13 7 24 7 25 22 30 81 49 49 60
REMARK Flexibility Score: inf
ROOT
ATOM      1  C   UNL A   1      34.809  35.047  28.263  1.00  0.00     0.118 C 
ENDROOT
BRANCH   1   2
ATOM      2  N   UNL A   1      34.129  36.323  28.348  1.00  0.00    -0.349 N 
ATOM      3  C   UNL A   1      33.481  36.931  29.400  1.00  0.00     0.286 C 
ATOM      4  O   UNL A   1      33.126  38.096  29.207  1.00  0.00    -0.266 OA
ATOM      5  H   UNL A   1      34.130  36.845  27.513  1.00  0.00     0.163 HD
BRANCH   3   6
ATOM      6  C   UNL A   1      33.262  36.235  30.655  1.00  0.00     0.191 A 
ATOM      7  C   UNL A   1      33.908  34.878  32.284  1.00  0.00     0.124 A 
ATOM      8  C   UNL A   1      32.629  35.280  32.598  1.00  0.00     0.048 A 
ATOM      9  O   UNL A   1      34.291  35.443  31.107  1.00  0.00    -0.454 OA
ATOM     10  C   UNL A   1      32.236  36.183  31.583  1.00  0.00     0.056 A 
BRANCH   7  11
ATOM     11  C   UNL A   1      34.912  34.014  32.970  1.00  0.00     0.190 C 
BRANCH  11  12
ATOM     12  N   UNL A   1      36.016  34.764  33.547  1.00  0.00    -0.362 N 
ATOM     13  H   UNL A   1      35.837  35.407  34.271  1.00  0.00     0.162 HD
BRANCH  12  14
ATOM     14  C   UNL A   1      37.312  34.593  33.098  1.00  0.00     0.139 A 
ATOM     15  C   UNL A   1      38.932  34.663  29.786  1.00  0.00     0.067 C 
ATOM     16  C   UNL A   1      38.779  34.539  31.271  1.00  0.00     0.040 A 
ATOM     17  C   UNL A   1      39.875  34.305  32.086  1.00  0.00     0.024 A 
ATOM     18  N   UNL A   1      37.521  34.663  31.760  1.00  0.00    -0.236 NA
ATOM     19  C   UNL A   1      39.665  34.204  33.455  1.00  0.00     0.019 A 
ATOM     20  C   UNL A   1      38.372  34.339  33.977  1.00  0.00     0.081 A 
BRANCH  20  21
ATOM     21  C   UNL A   1      38.226  34.183  35.448  1.00  0.00     0.252 C 
ATOM     22  N   UNL A   1      39.109  34.845  36.254  1.00  0.00    -0.365 N 
ATOM     23  O   UNL A   1      37.319  33.514  35.926  1.00  0.00    -0.269 OA
ATOM     24  H   UNL A   1      39.834  35.380  35.857  1.00  0.00     0.159 HD
ATOM     25  H   UNL A   1      39.020  34.787  37.233  1.00  0.00     0.159 HD
ENDBRANCH  20  21
ENDBRANCH  12  14
ENDBRANCH  11  12
ENDBRANCH   7  11
ENDBRANCH   3   6
ENDBRANCH   1   2
BRANCH   1  26
ATOM     26  C   UNL A   1      33.829  33.882  28.166  1.00  0.00     0.042 C 
BRANCH  26  27
ATOM     27  C   UNL A   1      34.408  32.561  28.673  1.00  0.00     0.118 C 
BRANCH  27  28
ATOM     28  N   UNL A   1      33.837  31.413  27.977  1.00  0.00    -0.352 N 
ATOM     29  C   UNL A   1      34.417  30.234  27.580  1.00  0.00     0.251 C 
ATOM     30  H   UNL A   1      32.881  31.497  27.758  1.00  0.00     0.163 HD
ATOM     31  O   UNL A   1      33.810  29.502  26.801  1.00  0.00    -0.269 OA
BRANCH  29  32
ATOM     32  C   UNL A   1      35.756  29.841  28.072  1.00  0.00     0.039 A 
ATOM     33  C   UNL A   1      35.873  29.328  29.367  1.00  0.00     0.014 A 
ATOM     34  C   UNL A   1      36.897  30.025  27.288  1.00  0.00     0.014 A 
ATOM     35  C   UNL A   1      37.127  28.952  29.856  1.00  0.00     0.010 A 
ATOM     36  C   UNL A   1      38.135  29.585  27.750  1.00  0.00     0.010 A 
ATOM     37  C   UNL A   1      38.266  29.050  29.041  1.00  0.00    -0.014 A 
BRANCH  37  38
ATOM     38  C   UNL A   1      39.596  28.589  29.512  1.00  0.00     0.031 A 
ATOM     39  C   UNL A   1      40.318  29.334  30.603  1.00  0.00     0.074 A 
ATOM     40  C   UNL A   1      40.197  27.557  28.888  1.00  0.00     0.049 A 
ATOM     41  N   UNL A   1      41.512  29.124  31.092  1.00  0.00    -0.248 NA
ATOM     42  C   UNL A   1      39.618  30.481  31.205  1.00  0.00     0.031 C 
ATOM     43  C   UNL A   1      39.635  26.807  27.763  1.00  0.00     0.029 A 
ATOM     44  N   UNL A   1      41.428  26.982  29.088  1.00  0.00    -0.354 N 
ATOM     45  C   UNL A   1      41.725  30.133  32.025  1.00  0.00     0.074 A 
ATOM     46  C   UNL A   1      40.546  30.971  32.014  1.00  0.00     0.031 C 
ATOM     47  C   UNL A   1      40.518  25.873  27.371  1.00  0.00     0.029 A 
ATOM     48  C   UNL A   1      41.718  25.976  28.194  1.00  0.00     0.049 A 
ATOM     49  H   UNL A   1      42.043  27.262  29.803  1.00  0.00     0.167 HD
ATOM     50  C   UNL A   1      42.794  30.330  32.835  1.00  0.00     0.034 A 
ATOM     51  C   UNL A   1      42.829  25.229  28.048  1.00  0.00     0.034 A 
ATOM     52  C   UNL A   1      43.941  29.463  32.878  1.00  0.00     0.049 A 
ATOM     53  C   UNL A   1      43.979  25.434  28.996  1.00  0.00     0.074 A 
ATOM     54  C   UNL A   1      45.026  29.516  33.734  1.00  0.00     0.029 A 
ATOM     55  N   UNL A   1      44.156  28.392  32.024  1.00  0.00    -0.354 N 
ATOM     56  N   UNL A   1      44.088  26.287  29.986  1.00  0.00    -0.248 NA
ATOM     57  C   UNL A   1      45.142  24.551  28.832  1.00  0.00     0.031 C 
ATOM     58  C   UNL A   1      45.910  28.491  33.383  1.00  0.00     0.029 A 
ATOM     59  C   UNL A   1      45.363  27.783  32.324  1.00  0.00     0.049 A 
ATOM     60  H   UNL A   1      43.543  28.107  31.309  1.00  0.00     0.167 HD
ATOM     61  C   UNL A   1      45.314  26.020  30.585  1.00  0.00     0.074 A 
ATOM     62  C   UNL A   1      45.900  24.911  29.859  1.00  0.00     0.031 C 
ATOM     63  C   UNL A   1      45.908  26.645  31.631  1.00  0.00     0.034 A 
BRANCH  50  64
ATOM     64  C   UNL A   1      42.752  31.500  33.783  1.00  0.00     0.023 A 
ATOM     65  C   UNL A   1      43.185  32.767  33.344  1.00  0.00     0.012 A 
ATOM     66  C   UNL A   1      42.224  31.364  35.082  1.00  0.00     0.148 A 
ATOM     67  C   UNL A   1      43.127  33.873  34.192  1.00  0.00     0.002 A 
ATOM     68  C   UNL A   1      42.126  32.479  35.905  1.00  0.00     0.091 A 
ATOM     69  F   UNL A   1      41.835  30.147  35.490  1.00  0.00    -0.205 F 
ATOM     70  C   UNL A   1      42.587  33.731  35.467  1.00  0.00     0.022 A 
BRANCH  68  71
ATOM     71  S   UNL A   1      41.374  32.417  37.536  1.00  0.00     0.127 S 
ATOM     72  O   UNL A   1      40.048  31.883  37.229  1.00  0.00    -0.237 OA
ATOM     73  O   UNL A   1      42.254  31.491  38.247  1.00  0.00    -0.237 OA
ATOM     74  O   UNL A   1      41.395  33.783  38.041  1.00  0.00    -0.744 OA
ENDBRANCH  68  71
ENDBRANCH  50  64
BRANCH  51  75
ATOM     75  C   UNL A   1      42.879  24.169  27.001  1.00  0.00     0.023 A 
ATOM     76  C   UNL A   1      43.588  24.409  25.808  1.00  0.00     0.012 A 
ATOM     77  C   UNL A   1      42.256  22.920  27.190  1.00  0.00     0.148 A 
ATOM     78  C   UNL A   1      43.649  23.438  24.809  1.00  0.00     0.002 A 
ATOM     79  C   UNL A   1      42.369  21.936  26.214  1.00  0.00     0.091 A 
ATOM     80  F   UNL A   1      41.575  22.715  28.326  1.00  0.00    -0.205 F 
ATOM     81  C   UNL A   1      43.050  22.199  25.016  1.00  0.00     0.022 A 
BRANCH  79  82
ATOM     82  S   UNL A   1      41.746  20.268  26.456  1.00  0.00     0.127 S 
ATOM     83  O   UNL A   1      42.298  19.930  27.765  1.00  0.00    -0.237 OA
ATOM     84  O   UNL A   1      40.298  20.479  26.432  1.00  0.00    -0.237 OA
ATOM     85  O   UNL A   1      42.255  19.494  25.331  1.00  0.00    -0.744 OA
ENDBRANCH  79  82
ENDBRANCH  51  75
BRANCH  63  86
ATOM     86  C   UNL A   1      47.248  26.129  32.084  1.00  0.00     0.023 A 
ATOM     87  C   UNL A   1      48.427  26.630  31.500  1.00  0.00     0.012 A 
ATOM     88  C   UNL A   1      47.339  25.204  33.144  1.00  0.00     0.148 A 
ATOM     89  C   UNL A   1      49.676  26.195  31.942  1.00  0.00     0.002 A 
ATOM     90  C   UNL A   1      48.587  24.812  33.611  1.00  0.00     0.091 A 
ATOM     91  F   UNL A   1      46.205  24.723  33.673  1.00  0.00    -0.205 F 
ATOM     92  C   UNL A   1      49.757  25.297  33.004  1.00  0.00     0.022 A 
BRANCH  90  93
ATOM     93  S   UNL A   1      48.786  23.735  35.036  1.00  0.00     0.127 S 
ATOM     94  O   UNL A   1      48.124  24.506  36.087  1.00  0.00    -0.237 OA
ATOM     95  O   UNL A   1      48.066  22.531  34.617  1.00  0.00    -0.237 OA
ATOM     96  O   UNL A   1      50.221  23.551  35.202  1.00  0.00    -0.744 OA
ENDBRANCH  90  93
ENDBRANCH  63  86
ENDBRANCH  37  38
ENDBRANCH  29  32
ENDBRANCH  27  28
ENDBRANCH  26  27
ENDBRANCH   1  26
TORSDOF 17
ENDMDL
