MODEL 1
REMARK VINA RESULT:     -12.2      0.000      0.000
REMARK SMILES CC(C)CCN1C(=O)/C(=C2/SC(=S)N(CCC(=O)NCCCNC(=O)c3ccc(-c4c5nc(c(-c6cccc(S(=O)(=O)[O-])c6F)c6ccc([nH]6)c(-c6cccc(S(=O)(=O)[O-])c6F)c6nc(c(-c7cccc(S(=O)(=O)[O-])c7F)c7ccc4[nH]7)C=C6)C=C5)cc3)C2=O)c2ccccc21
REMARK SMILES IDX 20 1 19 2 17 3 18 4 16 6 15 7 14 8 6 9 7 10 96 11 8 12 9 13
REMARK SMILES IDX 91 14 95 15 10 16 92 17 94 18 11 19 89 20 93 21 12 22 90 23
REMARK SMILES IDX 13 24 5 25 4 26 2 27 1 28 3 29 21 30 22 31 23 32 24 33 25 35
REMARK SMILES IDX 26 36 27 37 88 38 28 39 87 40 29 41 30 42 31 43 81 44 32 45
REMARK SMILES IDX 86 46 80 47 82 48 33 49 85 50 79 51 78 52 34 54 66 55 46 56
REMARK SMILES IDX 65 57 47 58 50 59 64 60 83 61 48 62 49 63 63 65 84 66 51 67
REMARK SMILES IDX 35 68 36 69 44 70 37 71 39 72 45 73 38 74 40 75 41 76 42 77
REMARK SMILES IDX 43 78 67 79 68 80 76 81 69 82 71 83 77 84 70 85 72 86 73 87
REMARK SMILES IDX 74 88 75 89 52 90 53 91 61 92 54 93 56 94 62 95 55 96 57 97
REMARK SMILES IDX 58 98 59 99 60 100
REMARK H PARENT 19 5 23 34 82 53 50 64
REMARK Flexibility Score: inf
ROOT
ATOM      1  C   UNL A   1      33.727  29.603  26.566  1.00  0.00     0.117 C 
ENDROOT
BRANCH   1   2
ATOM      2  N   UNL A   1      32.884  28.517  27.050  1.00  0.00    -0.356 N 
ATOM      3  C   UNL A   1      31.742  27.973  26.540  1.00  0.00     0.221 C 
ATOM      4  O   UNL A   1      31.181  27.087  27.186  1.00  0.00    -0.275 OA
ATOM      5  H   UNL A   1      33.192  28.105  27.889  1.00  0.00     0.163 HD
BRANCH   3   6
ATOM      6  C   UNL A   1      31.201  28.412  25.199  1.00  0.00     0.122 C 
BRANCH   6   7
ATOM      7  C   UNL A   1      30.700  27.238  24.342  1.00  0.00     0.137 C 
BRANCH   7   8
ATOM      8  N   UNL A   1      31.783  26.397  23.809  1.00  0.00    -0.292 N 
ATOM      9  N   UNL A   1      33.211  20.989  24.851  1.00  0.00    -0.308 N 
ATOM     10  C   UNL A   1      32.442  22.056  24.385  1.00  0.00     0.260 C 
ATOM     11  C   UNL A   1      34.584  21.283  24.733  1.00  0.00     0.052 A 
ATOM     12  O   UNL A   1      31.256  22.052  24.117  1.00  0.00    -0.269 OA
ATOM     13  C   UNL A   1      33.425  23.150  24.042  1.00  0.00     0.069 C 
ATOM     14  C   UNL A   1      34.765  22.560  24.184  1.00  0.00     0.012 A 
ATOM     15  C   UNL A   1      35.657  20.463  25.060  1.00  0.00     0.027 A 
ATOM     16  C   UNL A   1      33.048  24.386  23.675  1.00  0.00     0.093 C 
ATOM     17  C   UNL A   1      36.046  23.027  23.952  1.00  0.00     0.011 A 
ATOM     18  C   UNL A   1      36.942  20.924  24.798  1.00  0.00     0.002 A 
ATOM     19  S   UNL A   1      34.020  25.561  22.863  1.00  0.00    -0.053 SA
ATOM     20  C   UNL A   1      31.781  25.043  24.133  1.00  0.00     0.267 C 
ATOM     21  C   UNL A   1      37.129  22.188  24.236  1.00  0.00     0.001 A 
ATOM     22  C   UNL A   1      32.863  26.861  23.090  1.00  0.00     0.148 C 
ATOM     23  O   UNL A   1      30.963  24.540  24.892  1.00  0.00    -0.268 OA
ATOM     24  S   UNL A   1      33.158  28.405  22.538  1.00  0.00    -0.052 S 
BRANCH   9  25
ATOM     25  C   UNL A   1      32.702  19.643  25.046  1.00  0.00     0.126 C 
BRANCH  25  26
ATOM     26  C   UNL A   1      32.727  18.750  23.801  1.00  0.00     0.025 C 
BRANCH  26  27
ATOM     27  C   UNL A   1      32.973  17.247  24.038  1.00  0.00    -0.016 C 
ATOM     28  C   UNL A   1      34.097  16.680  23.166  1.00  0.00     0.007 C 
ATOM     29  C   UNL A   1      33.311  17.007  25.513  1.00  0.00     0.007 C 
ENDBRANCH  26  27
ENDBRANCH  25  26
ENDBRANCH   9  25
ENDBRANCH   7   8
ENDBRANCH   6   7
ENDBRANCH   3   6
ENDBRANCH   1   2
BRANCH   1  30
ATOM     30  C   UNL A   1      32.911  30.842  26.220  1.00  0.00     0.042 C 
BRANCH  30  31
ATOM     31  C   UNL A   1      32.434  31.654  27.424  1.00  0.00     0.118 C 
BRANCH  31  32
ATOM     32  N   UNL A   1      32.848  33.044  27.355  1.00  0.00    -0.352 N 
ATOM     33  C   UNL A   1      33.967  33.693  27.826  1.00  0.00     0.251 C 
ATOM     34  H   UNL A   1      32.212  33.631  26.886  1.00  0.00     0.163 HD
ATOM     35  O   UNL A   1      33.985  34.921  27.747  1.00  0.00    -0.269 OA
BRANCH  33  36
ATOM     36  C   UNL A   1      35.118  32.984  28.454  1.00  0.00     0.039 A 
ATOM     37  C   UNL A   1      36.446  33.391  28.315  1.00  0.00     0.014 A 
ATOM     38  C   UNL A   1      34.839  31.887  29.283  1.00  0.00     0.014 A 
ATOM     39  C   UNL A   1      37.485  32.626  28.860  1.00  0.00     0.010 A 
ATOM     40  C   UNL A   1      35.875  31.154  29.881  1.00  0.00     0.010 A 
ATOM     41  C   UNL A   1      37.209  31.491  29.637  1.00  0.00    -0.014 A 
BRANCH  41  42
ATOM     42  C   UNL A   1      38.317  30.764  30.306  1.00  0.00     0.031 A 
ATOM     43  C   UNL A   1      39.126  29.709  29.603  1.00  0.00     0.074 A 
ATOM     44  C   UNL A   1      38.590  31.070  31.586  1.00  0.00     0.049 A 
ATOM     45  N   UNL A   1      40.176  29.056  30.029  1.00  0.00    -0.248 NA
ATOM     46  C   UNL A   1      38.704  29.333  28.249  1.00  0.00     0.031 C 
ATOM     47  C   UNL A   1      37.843  32.038  32.390  1.00  0.00     0.029 A 
ATOM     48  N   UNL A   1      39.561  30.604  32.433  1.00  0.00    -0.354 N 
ATOM     49  C   UNL A   1      40.536  28.191  29.001  1.00  0.00     0.074 A 
ATOM     50  C   UNL A   1      39.580  28.388  27.933  1.00  0.00     0.031 C 
ATOM     51  C   UNL A   1      38.392  32.105  33.612  1.00  0.00     0.029 A 
ATOM     52  C   UNL A   1      39.520  31.180  33.678  1.00  0.00     0.049 A 
ATOM     53  H   UNL A   1      40.224  29.923  32.172  1.00  0.00     0.167 HD
ATOM     54  C   UNL A   1      41.582  27.333  28.944  1.00  0.00     0.034 A 
ATOM     55  C   UNL A   1      40.309  30.996  34.754  1.00  0.00     0.034 A 
ATOM     56  C   UNL A   1      42.548  27.164  29.998  1.00  0.00     0.049 A 
ATOM     57  C   UNL A   1      41.475  30.057  34.661  1.00  0.00     0.074 A 
ATOM     58  C   UNL A   1      43.686  26.376  30.000  1.00  0.00     0.029 A 
ATOM     59  N   UNL A   1      42.488  27.786  31.234  1.00  0.00    -0.354 N 
ATOM     60  N   UNL A   1      41.882  29.356  33.631  1.00  0.00    -0.248 NA
ATOM     61  C   UNL A   1      42.306  29.904  35.862  1.00  0.00     0.031 C 
ATOM     62  C   UNL A   1      44.313  26.518  31.242  1.00  0.00     0.029 A 
ATOM     63  C   UNL A   1      43.563  27.394  32.011  1.00  0.00     0.049 A 
ATOM     64  H   UNL A   1      41.785  28.414  31.517  1.00  0.00     0.167 HD
ATOM     65  C   UNL A   1      43.025  28.691  34.053  1.00  0.00     0.074 A 
ATOM     66  C   UNL A   1      43.256  29.083  35.429  1.00  0.00     0.031 C 
ATOM     67  C   UNL A   1      43.803  27.822  33.363  1.00  0.00     0.034 A 
BRANCH  54  68
ATOM     68  C   UNL A   1      41.806  26.556  27.675  1.00  0.00     0.023 A 
ATOM     69  C   UNL A   1      42.382  27.216  26.571  1.00  0.00     0.012 A 
ATOM     70  C   UNL A   1      41.584  25.167  27.615  1.00  0.00     0.148 A 
ATOM     71  C   UNL A   1      42.736  26.505  25.426  1.00  0.00     0.002 A 
ATOM     72  C   UNL A   1      41.961  24.460  26.478  1.00  0.00     0.091 A 
ATOM     73  F   UNL A   1      41.024  24.564  28.674  1.00  0.00    -0.205 F 
ATOM     74  C   UNL A   1      42.535  25.128  25.383  1.00  0.00     0.022 A 
BRANCH  72  75
ATOM     75  S   UNL A   1      41.795  22.676  26.338  1.00  0.00     0.127 S 
ATOM     76  O   UNL A   1      40.343  22.518  26.290  1.00  0.00    -0.237 OA
ATOM     77  O   UNL A   1      42.481  22.401  25.076  1.00  0.00    -0.237 OA
ATOM     78  O   UNL A   1      42.441  22.117  27.519  1.00  0.00    -0.744 OA
ENDBRANCH  72  75
ENDBRANCH  54  68
BRANCH  55  79
ATOM     79  C   UNL A   1      40.048  31.807  35.970  1.00  0.00     0.023 A 
ATOM     80  C   UNL A   1      40.852  32.932  36.226  1.00  0.00     0.012 A 
ATOM     81  C   UNL A   1      38.934  31.546  36.791  1.00  0.00     0.148 A 
ATOM     82  C   UNL A   1      40.549  33.790  37.281  1.00  0.00     0.002 A 
ATOM     83  C   UNL A   1      38.613  32.428  37.813  1.00  0.00     0.091 A 
ATOM     84  F   UNL A   1      38.191  30.463  36.522  1.00  0.00    -0.205 F 
ATOM     85  C   UNL A   1      39.422  33.547  38.065  1.00  0.00     0.022 A 
BRANCH  83  86
ATOM     86  S   UNL A   1      37.113  32.268  38.789  1.00  0.00     0.127 S 
ATOM     87  O   UNL A   1      36.986  30.818  38.905  1.00  0.00    -0.237 OA
ATOM     88  O   UNL A   1      37.485  32.956  40.026  1.00  0.00    -0.237 OA
ATOM     89  O   UNL A   1      36.070  32.933  38.022  1.00  0.00    -0.744 OA
ENDBRANCH  83  86
ENDBRANCH  55  79
BRANCH  67  90
ATOM     90  C   UNL A   1      44.980  27.215  34.073  1.00  0.00     0.023 A 
ATOM     91  C   UNL A   1      46.213  27.893  34.049  1.00  0.00     0.012 A 
ATOM     92  C   UNL A   1      44.835  26.055  34.857  1.00  0.00     0.148 A 
ATOM     93  C   UNL A   1      47.293  27.419  34.793  1.00  0.00     0.002 A 
ATOM     94  C   UNL A   1      45.907  25.605  35.618  1.00  0.00     0.091 A 
ATOM     95  F   UNL A   1      43.649  25.429  34.856  1.00  0.00    -0.205 F 
ATOM     96  C   UNL A   1      47.137  26.283  35.584  1.00  0.00     0.022 A 
BRANCH  94  97
ATOM     97  S   UNL A   1      45.789  24.191  36.720  1.00  0.00     0.127 S 
ATOM     98  O   UNL A   1      45.495  23.107  35.785  1.00  0.00    -0.237 OA
ATOM     99  O   UNL A   1      47.130  24.146  37.306  1.00  0.00    -0.237 OA
ATOM    100  O   UNL A   1      44.724  24.501  37.664  1.00  0.00    -0.744 OA
ENDBRANCH  94  97
ENDBRANCH  67  90
ENDBRANCH  41  42
ENDBRANCH  33  36
ENDBRANCH  31  32
ENDBRANCH  30  31
ENDBRANCH   1  30
TORSDOF 18
ENDMDL
MODEL 2
REMARK VINA RESULT:     -12.1      1.836      7.627
REMARK SMILES CC(C)CCN1C(=O)/C(=C2/SC(=S)N(CCC(=O)NCCCNC(=O)c3ccc(-c4c5nc(c(-c6cccc(S(=O)(=O)[O-])c6F)c6ccc([nH]6)c(-c6cccc(S(=O)(=O)[O-])c6F)c6nc(c(-c7cccc(S(=O)(=O)[O-])c7F)c7ccc4[nH]7)C=C6)C=C5)cc3)C2=O)c2ccccc21
REMARK SMILES IDX 20 1 19 2 17 3 18 4 16 6 15 7 14 8 6 9 7 10 96 11 8 12 9 13
REMARK SMILES IDX 91 14 95 15 10 16 92 17 94 18 11 19 89 20 93 21 12 22 90 23
REMARK SMILES IDX 13 24 5 25 4 26 2 27 1 28 3 29 21 30 22 31 23 32 24 33 25 35
REMARK SMILES IDX 26 36 27 37 88 38 28 39 87 40 29 41 30 42 31 43 81 44 32 45
REMARK SMILES IDX 86 46 80 47 82 48 33 49 85 50 79 51 78 52 34 54 66 55 46 56
REMARK SMILES IDX 65 57 47 58 50 59 64 60 83 61 48 62 49 63 63 65 84 66 51 67
REMARK SMILES IDX 35 68 36 69 44 70 37 71 39 72 45 73 38 74 40 75 41 76 42 77
REMARK SMILES IDX 43 78 67 79 68 80 76 81 69 82 71 83 77 84 70 85 72 86 73 87
REMARK SMILES IDX 74 88 75 89 52 90 53 91 61 92 54 93 56 94 62 95 55 96 57 97
REMARK SMILES IDX 58 98 59 99 60 100
REMARK H PARENT 19 5 23 34 82 53 50 64
REMARK Flexibility Score: inf
ROOT
ATOM      1  C   UNL A   1      33.362  30.498  27.121  1.00  0.00     0.117 C 
ENDROOT
BRANCH   1   2
ATOM      2  N   UNL A   1      32.705  29.296  27.620  1.00  0.00    -0.356 N 
ATOM      3  C   UNL A   1      31.804  28.458  27.034  1.00  0.00     0.221 C 
ATOM      4  O   UNL A   1      31.350  27.530  27.705  1.00  0.00    -0.275 OA
ATOM      5  H   UNL A   1      32.957  29.046  28.539  1.00  0.00     0.163 HD
BRANCH   3   6
ATOM      6  C   UNL A   1      31.403  28.632  25.588  1.00  0.00     0.122 C 
BRANCH   6   7
ATOM      7  C   UNL A   1      30.826  27.350  24.967  1.00  0.00     0.137 C 
BRANCH   7   8
ATOM      8  N   UNL A   1      31.837  26.514  24.301  1.00  0.00    -0.292 N 
ATOM      9  N   UNL A   1      33.388  21.102  25.130  1.00  0.00    -0.308 N 
ATOM     10  C   UNL A   1      32.567  22.171  24.767  1.00  0.00     0.260 C 
ATOM     11  C   UNL A   1      34.736  21.400  24.849  1.00  0.00     0.052 A 
ATOM     12  O   UNL A   1      31.357  22.166  24.645  1.00  0.00    -0.269 OA
ATOM     13  C   UNL A   1      33.499  23.269  24.315  1.00  0.00     0.069 C 
ATOM     14  C   UNL A   1      34.848  22.680  24.289  1.00  0.00     0.012 A 
ATOM     15  C   UNL A   1      35.842  20.580  25.038  1.00  0.00     0.027 A 
ATOM     16  C   UNL A   1      33.079  24.506  24.003  1.00  0.00     0.093 C 
ATOM     17  C   UNL A   1      36.091  23.152  23.906  1.00  0.00     0.011 A 
ATOM     18  C   UNL A   1      37.085  21.045  24.625  1.00  0.00     0.002 A 
ATOM     19  S   UNL A   1      33.945  25.687  23.087  1.00  0.00    -0.053 SA
ATOM     20  C   UNL A   1      31.877  25.157  24.615  1.00  0.00     0.267 C 
ATOM     21  C   UNL A   1      37.201  22.313  24.052  1.00  0.00     0.001 A 
ATOM     22  C   UNL A   1      32.822  26.984  23.460  1.00  0.00     0.148 C 
ATOM     23  O   UNL A   1      31.157  24.649  25.464  1.00  0.00    -0.268 OA
ATOM     24  S   UNL A   1      33.045  28.532  22.886  1.00  0.00    -0.052 S 
BRANCH   9  25
ATOM     25  C   UNL A   1      32.909  19.755  25.377  1.00  0.00     0.126 C 
BRANCH  25  26
ATOM     26  C   UNL A   1      33.746  18.638  24.745  1.00  0.00     0.025 C 
BRANCH  26  27
ATOM     27  C   UNL A   1      33.024  17.721  23.739  1.00  0.00    -0.016 C 
ATOM     28  C   UNL A   1      32.329  18.494  22.615  1.00  0.00     0.007 C 
ATOM     29  C   UNL A   1      34.028  16.739  23.127  1.00  0.00     0.007 C 
ENDBRANCH  26  27
ENDBRANCH  25  26
ENDBRANCH   9  25
ENDBRANCH   7   8
ENDBRANCH   6   7
ENDBRANCH   3   6
ENDBRANCH   1   2
BRANCH   1  30
ATOM     30  C   UNL A   1      32.510  31.741  27.340  1.00  0.00     0.042 C 
BRANCH  30  31
ATOM     31  C   UNL A   1      33.188  33.059  26.967  1.00  0.00     0.118 C 
BRANCH  31  32
ATOM     32  N   UNL A   1      32.787  34.154  27.833  1.00  0.00    -0.352 N 
ATOM     33  C   UNL A   1      33.240  34.562  29.067  1.00  0.00     0.251 C 
ATOM     34  H   UNL A   1      32.058  34.707  27.470  1.00  0.00     0.163 HD
ATOM     35  O   UNL A   1      32.608  35.451  29.637  1.00  0.00    -0.269 OA
BRANCH  33  36
ATOM     36  C   UNL A   1      34.418  33.952  29.747  1.00  0.00     0.039 A 
ATOM     37  C   UNL A   1      34.318  32.971  30.736  1.00  0.00     0.014 A 
ATOM     38  C   UNL A   1      35.697  34.341  29.319  1.00  0.00     0.014 A 
ATOM     39  C   UNL A   1      35.463  32.507  31.395  1.00  0.00     0.010 A 
ATOM     40  C   UNL A   1      36.849  33.831  29.936  1.00  0.00     0.010 A 
ATOM     41  C   UNL A   1      36.740  32.944  31.011  1.00  0.00    -0.014 A 
BRANCH  41  42
ATOM     42  C   UNL A   1      37.946  32.350  31.639  1.00  0.00     0.031 A 
ATOM     43  C   UNL A   1      38.478  32.821  32.964  1.00  0.00     0.074 A 
ATOM     44  C   UNL A   1      38.575  31.359  30.983  1.00  0.00     0.049 A 
ATOM     45  N   UNL A   1      39.465  32.340  33.674  1.00  0.00    -0.248 NA
ATOM     46  C   UNL A   1      37.821  33.984  33.572  1.00  0.00     0.031 C 
ATOM     47  C   UNL A   1      38.186  30.850  29.667  1.00  0.00     0.029 A 
ATOM     48  N   UNL A   1      39.667  30.606  31.328  1.00  0.00    -0.354 N 
ATOM     49  C   UNL A   1      39.551  33.142  34.807  1.00  0.00     0.074 A 
ATOM     50  C   UNL A   1      38.527  34.155  34.684  1.00  0.00     0.031 C 
ATOM     51  C   UNL A   1      39.019  29.858  29.320  1.00  0.00     0.029 A 
ATOM     52  C   UNL A   1      40.003  29.669  30.383  1.00  0.00     0.049 A 
ATOM     53  H   UNL A   1      40.161  30.726  32.171  1.00  0.00     0.167 HD
ATOM     54  C   UNL A   1      40.390  33.025  35.864  1.00  0.00     0.034 A 
ATOM     55  C   UNL A   1      40.986  28.748  30.374  1.00  0.00     0.034 A 
ATOM     56  C   UNL A   1      41.387  31.995  35.996  1.00  0.00     0.049 A 
ATOM     57  C   UNL A   1      41.889  28.623  31.564  1.00  0.00     0.074 A 
ATOM     58  C   UNL A   1      42.230  31.750  37.066  1.00  0.00     0.029 A 
ATOM     59  N   UNL A   1      41.678  31.047  35.030  1.00  0.00    -0.354 N 
ATOM     60  N   UNL A   1      41.862  29.298  32.687  1.00  0.00    -0.248 NA
ATOM     61  C   UNL A   1      42.936  27.595  31.502  1.00  0.00     0.031 C 
ATOM     62  C   UNL A   1      43.036  30.654  36.744  1.00  0.00     0.029 A 
ATOM     63  C   UNL A   1      42.694  30.220  35.473  1.00  0.00     0.049 A 
ATOM     64  H   UNL A   1      41.229  30.973  34.157  1.00  0.00     0.167 HD
ATOM     65  C   UNL A   1      42.876  28.767  33.474  1.00  0.00     0.074 A 
ATOM     66  C   UNL A   1      43.491  27.704  32.704  1.00  0.00     0.031 C 
ATOM     67  C   UNL A   1      43.270  29.140  34.715  1.00  0.00     0.034 A 
BRANCH  54  68
ATOM     68  C   UNL A   1      40.231  33.979  37.017  1.00  0.00     0.023 A 
ATOM     69  C   UNL A   1      40.651  35.314  36.852  1.00  0.00     0.012 A 
ATOM     70  C   UNL A   1      39.551  33.605  38.192  1.00  0.00     0.148 A 
ATOM     71  C   UNL A   1      40.397  36.264  37.839  1.00  0.00     0.002 A 
ATOM     72  C   UNL A   1      39.280  34.563  39.163  1.00  0.00     0.091 A 
ATOM     73  F   UNL A   1      39.172  32.326  38.330  1.00  0.00    -0.205 F 
ATOM     74  C   UNL A   1      39.703  35.892  38.988  1.00  0.00     0.022 A 
BRANCH  72  75
ATOM     75  S   UNL A   1      38.348  34.204  40.657  1.00  0.00     0.127 S 
ATOM     76  O   UNL A   1      39.317  33.427  41.428  1.00  0.00    -0.237 OA
ATOM     77  O   UNL A   1      38.081  35.542  41.183  1.00  0.00    -0.237 OA
ATOM     78  O   UNL A   1      37.166  33.468  40.227  1.00  0.00    -0.744 OA
ENDBRANCH  72  75
ENDBRANCH  54  68
BRANCH  55  79
ATOM     79  C   UNL A   1      41.078  27.823  29.216  1.00  0.00     0.023 A 
ATOM     80  C   UNL A   1      40.250  26.688  29.181  1.00  0.00     0.012 A 
ATOM     81  C   UNL A   1      41.880  28.135  28.101  1.00  0.00     0.148 A 
ATOM     82  C   UNL A   1      40.214  25.875  28.049  1.00  0.00     0.002 A 
ATOM     83  C   UNL A   1      41.807  27.346  26.961  1.00  0.00     0.091 A 
ATOM     84  F   UNL A   1      42.662  29.222  28.168  1.00  0.00    -0.205 F 
ATOM     85  C   UNL A   1      40.980  26.211  26.935  1.00  0.00     0.022 A 
BRANCH  83  86
ATOM     86  S   UNL A   1      42.656  27.772  25.437  1.00  0.00     0.127 S 
ATOM     87  O   UNL A   1      42.432  26.578  24.626  1.00  0.00    -0.237 OA
ATOM     88  O   UNL A   1      41.919  28.960  25.004  1.00  0.00    -0.237 OA
ATOM     89  O   UNL A   1      44.039  28.027  25.814  1.00  0.00    -0.744 OA
ENDBRANCH  83  86
ENDBRANCH  55  79
BRANCH  67  90
ATOM     90  C   UNL A   1      44.427  28.411  35.335  1.00  0.00     0.023 A 
ATOM     91  C   UNL A   1      45.727  28.921  35.161  1.00  0.00     0.012 A 
ATOM     92  C   UNL A   1      44.218  27.306  36.182  1.00  0.00     0.148 A 
ATOM     93  C   UNL A   1      46.808  28.337  35.818  1.00  0.00     0.002 A 
ATOM     94  C   UNL A   1      45.296  26.746  36.856  1.00  0.00     0.091 A 
ATOM     95  F   UNL A   1      42.969  26.838  36.324  1.00  0.00    -0.205 F 
ATOM     96  C   UNL A   1      46.592  27.258  36.672  1.00  0.00     0.022 A 
BRANCH  94  97
ATOM     97  S   UNL A   1      45.115  25.397  38.028  1.00  0.00     0.127 S 
ATOM     98  O   UNL A   1      44.248  25.997  39.042  1.00  0.00    -0.237 OA
ATOM     99  O   UNL A   1      44.476  24.364  37.211  1.00  0.00    -0.237 OA
ATOM    100  O   UNL A   1      46.460  25.069  38.480  1.00  0.00    -0.744 OA
ENDBRANCH  94  97
ENDBRANCH  67  90
ENDBRANCH  41  42
ENDBRANCH  33  36
ENDBRANCH  31  32
ENDBRANCH  30  31
ENDBRANCH   1  30
TORSDOF 18
ENDMDL
MODEL 3
REMARK VINA RESULT:     -11.8      2.711      7.623
REMARK SMILES CC(C)CCN1C(=O)/C(=C2/SC(=S)N(CCC(=O)NCCCNC(=O)c3ccc(-c4c5nc(c(-c6cccc(S(=O)(=O)[O-])c6F)c6ccc([nH]6)c(-c6cccc(S(=O)(=O)[O-])c6F)c6nc(c(-c7cccc(S(=O)(=O)[O-])c7F)c7ccc4[nH]7)C=C6)C=C5)cc3)C2=O)c2ccccc21
REMARK SMILES IDX 20 1 19 2 17 3 18 4 16 6 15 7 14 8 6 9 7 10 96 11 8 12 9 13
REMARK SMILES IDX 91 14 95 15 10 16 92 17 94 18 11 19 89 20 93 21 12 22 90 23
REMARK SMILES IDX 13 24 5 25 4 26 2 27 1 28 3 29 21 30 22 31 23 32 24 33 25 35
REMARK SMILES IDX 26 36 27 37 88 38 28 39 87 40 29 41 30 42 31 43 81 44 32 45
REMARK SMILES IDX 86 46 80 47 82 48 33 49 85 50 79 51 78 52 34 54 66 55 46 56
REMARK SMILES IDX 65 57 47 58 50 59 64 60 83 61 48 62 49 63 63 65 84 66 51 67
REMARK SMILES IDX 35 68 36 69 44 70 37 71 39 72 45 73 38 74 40 75 41 76 42 77
REMARK SMILES IDX 43 78 67 79 68 80 76 81 69 82 71 83 77 84 70 85 72 86 73 87
REMARK SMILES IDX 74 88 75 89 52 90 53 91 61 92 54 93 56 94 62 95 55 96 57 97
REMARK SMILES IDX 58 98 59 99 60 100
REMARK H PARENT 19 5 23 34 82 53 50 64
REMARK Flexibility Score: inf
ROOT
ATOM      1  C   UNL A   1      33.941  29.765  27.026  1.00  0.00     0.117 C 
ENDROOT
BRANCH   1   2
ATOM      2  N   UNL A   1      32.964  28.850  27.604  1.00  0.00    -0.356 N 
ATOM      3  C   UNL A   1      31.809  28.335  27.096  1.00  0.00     0.221 C 
ATOM      4  O   UNL A   1      31.122  27.618  27.825  1.00  0.00    -0.275 OA
ATOM      5  H   UNL A   1      33.175  28.553  28.519  1.00  0.00     0.163 HD
BRANCH   3   6
ATOM      6  C   UNL A   1      31.401  28.597  25.665  1.00  0.00     0.122 C 
BRANCH   6   7
ATOM      7  C   UNL A   1      30.789  27.363  24.981  1.00  0.00     0.137 C 
BRANCH   7   8
ATOM      8  N   UNL A   1      31.782  26.517  24.301  1.00  0.00    -0.292 N 
ATOM      9  N   UNL A   1      33.425  21.150  25.237  1.00  0.00    -0.308 N 
ATOM     10  C   UNL A   1      32.578  22.198  24.875  1.00  0.00     0.260 C 
ATOM     11  C   UNL A   1      34.757  21.451  24.893  1.00  0.00     0.052 A 
ATOM     12  O   UNL A   1      31.364  22.177  24.802  1.00  0.00    -0.269 OA
ATOM     13  C   UNL A   1      33.479  23.290  24.350  1.00  0.00     0.069 C 
ATOM     14  C   UNL A   1      34.832  22.714  24.288  1.00  0.00     0.012 A 
ATOM     15  C   UNL A   1      35.878  20.649  25.062  1.00  0.00     0.027 A 
ATOM     16  C   UNL A   1      33.033  24.512  24.017  1.00  0.00     0.093 C 
ATOM     17  C   UNL A   1      36.053  23.185  23.841  1.00  0.00     0.011 A 
ATOM     18  C   UNL A   1      37.099  21.113  24.584  1.00  0.00     0.002 A 
ATOM     19  S   UNL A   1      33.847  25.672  23.029  1.00  0.00    -0.053 SA
ATOM     20  C   UNL A   1      31.849  25.171  24.656  1.00  0.00     0.267 C 
ATOM     21  C   UNL A   1      37.177  22.362  23.967  1.00  0.00     0.001 A 
ATOM     22  C   UNL A   1      32.726  26.969  23.406  1.00  0.00     0.148 C 
ATOM     23  O   UNL A   1      31.170  24.684  25.550  1.00  0.00    -0.268 OA
ATOM     24  S   UNL A   1      32.909  28.500  22.774  1.00  0.00    -0.052 S 
BRANCH   9  25
ATOM     25  C   UNL A   1      32.971  19.806  25.547  1.00  0.00     0.126 C 
BRANCH  25  26
ATOM     26  C   UNL A   1      32.550  18.966  24.337  1.00  0.00     0.025 C 
BRANCH  26  27
ATOM     27  C   UNL A   1      33.079  17.519  24.286  1.00  0.00    -0.016 C 
ATOM     28  C   UNL A   1      34.600  17.443  24.127  1.00  0.00     0.007 C 
ATOM     29  C   UNL A   1      32.669  16.777  25.562  1.00  0.00     0.007 C 
ENDBRANCH  26  27
ENDBRANCH  25  26
ENDBRANCH   9  25
ENDBRANCH   7   8
ENDBRANCH   6   7
ENDBRANCH   3   6
ENDBRANCH   1   2
BRANCH   1  30
ATOM     30  C   UNL A   1      33.613  31.219  27.344  1.00  0.00     0.042 C 
BRANCH  30  31
ATOM     31  C   UNL A   1      34.727  31.988  28.053  1.00  0.00     0.118 C 
BRANCH  31  32
ATOM     32  N   UNL A   1      34.340  32.427  29.382  1.00  0.00    -0.352 N 
ATOM     33  C   UNL A   1      34.963  32.314  30.604  1.00  0.00     0.251 C 
ATOM     34  H   UNL A   1      33.472  32.891  29.416  1.00  0.00     0.163 HD
ATOM     35  O   UNL A   1      34.324  32.657  31.600  1.00  0.00    -0.269 OA
BRANCH  33  36
ATOM     36  C   UNL A   1      36.337  31.762  30.772  1.00  0.00     0.039 A 
ATOM     37  C   UNL A   1      37.492  32.415  30.337  1.00  0.00     0.014 A 
ATOM     38  C   UNL A   1      36.477  30.549  31.464  1.00  0.00     0.014 A 
ATOM     39  C   UNL A   1      38.743  31.797  30.448  1.00  0.00     0.010 A 
ATOM     40  C   UNL A   1      37.737  29.956  31.631  1.00  0.00     0.010 A 
ATOM     41  C   UNL A   1      38.876  30.553  31.083  1.00  0.00    -0.014 A 
BRANCH  41  42
ATOM     42  C   UNL A   1      40.224  29.971  31.298  1.00  0.00     0.031 A 
ATOM     43  C   UNL A   1      41.094  30.364  32.460  1.00  0.00     0.074 A 
ATOM     44  C   UNL A   1      40.669  29.065  30.409  1.00  0.00     0.049 A 
ATOM     45  N   UNL A   1      42.252  29.878  32.824  1.00  0.00    -0.248 NA
ATOM     46  C   UNL A   1      40.606  31.444  33.326  1.00  0.00     0.031 C 
ATOM     47  C   UNL A   1      39.939  28.642  29.214  1.00  0.00     0.029 A 
ATOM     48  N   UNL A   1      41.832  28.342  30.371  1.00  0.00    -0.354 N 
ATOM     49  C   UNL A   1      42.633  30.593  33.954  1.00  0.00     0.074 A 
ATOM     50  C   UNL A   1      41.590  31.563  34.209  1.00  0.00     0.031 C 
ATOM     51  C   UNL A   1      40.665  27.720  28.564  1.00  0.00     0.029 A 
ATOM     52  C   UNL A   1      41.912  27.498  29.292  1.00  0.00     0.049 A 
ATOM     53  H   UNL A   1      42.539  28.420  31.052  1.00  0.00     0.167 HD
ATOM     54  C   UNL A   1      43.737  30.436  34.723  1.00  0.00     0.034 A 
ATOM     55  C   UNL A   1      42.876  26.629  28.930  1.00  0.00     0.034 A 
ATOM     56  C   UNL A   1      44.756  29.448  34.483  1.00  0.00     0.049 A 
ATOM     57  C   UNL A   1      44.080  26.456  29.808  1.00  0.00     0.074 A 
ATOM     58  C   UNL A   1      45.871  29.162  35.251  1.00  0.00     0.029 A 
ATOM     59  N   UNL A   1      44.788  28.593  33.394  1.00  0.00    -0.354 N 
ATOM     60  N   UNL A   1      44.351  27.040  30.949  1.00  0.00    -0.248 NA
ATOM     61  C   UNL A   1      45.093  25.487  29.368  1.00  0.00     0.031 C 
ATOM     62  C   UNL A   1      46.582  28.134  34.624  1.00  0.00     0.029 A 
ATOM     63  C   UNL A   1      45.908  27.784  33.465  1.00  0.00     0.049 A 
ATOM     64  H   UNL A   1      44.114  28.564  32.678  1.00  0.00     0.167 HD
ATOM     65  C   UNL A   1      45.558  26.500  31.374  1.00  0.00     0.074 A 
ATOM     66  C   UNL A   1      45.959  25.530  30.374  1.00  0.00     0.031 C 
ATOM     67  C   UNL A   1      46.275  26.795  32.485  1.00  0.00     0.034 A 
BRANCH  54  68
ATOM     68  C   UNL A   1      43.883  31.289  35.953  1.00  0.00     0.023 A 
ATOM     69  C   UNL A   1      43.358  30.815  37.172  1.00  0.00     0.012 A 
ATOM     70  C   UNL A   1      44.647  32.472  35.940  1.00  0.00     0.148 A 
ATOM     71  C   UNL A   1      43.591  31.504  38.361  1.00  0.00     0.002 A 
ATOM     72  C   UNL A   1      44.895  33.142  37.133  1.00  0.00     0.091 A 
ATOM     73  F   UNL A   1      45.126  32.910  34.766  1.00  0.00    -0.205 F 
ATOM     74  C   UNL A   1      44.368  32.660  38.343  1.00  0.00     0.022 A 
BRANCH  72  75
ATOM     75  S   UNL A   1      45.926  34.612  37.232  1.00  0.00     0.127 S 
ATOM     76  O   UNL A   1      45.150  35.568  36.445  1.00  0.00    -0.237 OA
ATOM     77  O   UNL A   1      45.945  34.878  38.670  1.00  0.00    -0.237 OA
ATOM     78  O   UNL A   1      47.214  34.240  36.662  1.00  0.00    -0.744 OA
ENDBRANCH  72  75
ENDBRANCH  54  68
BRANCH  55  79
ATOM     79  C   UNL A   1      42.663  25.802  27.716  1.00  0.00     0.023 A 
ATOM     80  C   UNL A   1      43.132  26.273  26.477  1.00  0.00     0.012 A 
ATOM     81  C   UNL A   1      42.123  24.505  27.807  1.00  0.00     0.148 A 
ATOM     82  C   UNL A   1      43.071  25.463  25.344  1.00  0.00     0.002 A 
ATOM     83  C   UNL A   1      42.105  23.688  26.685  1.00  0.00     0.091 A 
ATOM     84  F   UNL A   1      41.681  24.086  29.002  1.00  0.00    -0.205 F 
ATOM     85  C   UNL A   1      42.571  24.167  25.451  1.00  0.00     0.022 A 
BRANCH  83  86
ATOM     86  S   UNL A   1      41.601  21.965  26.754  1.00  0.00     0.127 S 
ATOM     87  O   UNL A   1      40.158  22.084  26.949  1.00  0.00    -0.237 OA
ATOM     88  O   UNL A   1      42.008  21.479  25.436  1.00  0.00    -0.237 OA
ATOM     89  O   UNL A   1      42.340  21.381  27.865  1.00  0.00    -0.744 OA
ENDBRANCH  83  86
ENDBRANCH  55  79
BRANCH  67  90
ATOM     90  C   UNL A   1      47.577  26.076  32.694  1.00  0.00     0.023 A 
ATOM     91  C   UNL A   1      48.748  26.608  32.122  1.00  0.00     0.012 A 
ATOM     92  C   UNL A   1      47.661  24.960  33.547  1.00  0.00     0.148 A 
ATOM     93  C   UNL A   1      49.989  26.033  32.392  1.00  0.00     0.002 A 
ATOM     94  C   UNL A   1      48.904  24.409  33.834  1.00  0.00     0.091 A 
ATOM     95  F   UNL A   1      46.527  24.472  34.072  1.00  0.00    -0.205 F 
ATOM     96  C   UNL A   1      50.068  24.943  33.255  1.00  0.00     0.022 A 
BRANCH  94  97
ATOM     97  S   UNL A   1      49.120  23.046  34.983  1.00  0.00     0.127 S 
ATOM     98  O   UNL A   1      50.564  22.828  34.920  1.00  0.00    -0.237 OA
ATOM     99  O   UNL A   1      48.643  23.625  36.240  1.00  0.00    -0.237 OA
ATOM    100  O   UNL A   1      48.306  21.952  34.471  1.00  0.00    -0.744 OA
ENDBRANCH  94  97
ENDBRANCH  67  90
ENDBRANCH  41  42
ENDBRANCH  33  36
ENDBRANCH  31  32
ENDBRANCH  30  31
ENDBRANCH   1  30
TORSDOF 18
ENDMDL
