MODEL 1
REMARK VINA RESULT:     -11.8      0.000      0.000
REMARK SMILES O=C(NCCCNC(=O)c1cc(OC[C@@H]2Cc3cc(F)ccc3O2)cs1)c1ccc(-c2c3nc(c(-c4cccc(S(=O)(=O)[O-])c4F)c4ccc([nH]4)c(-c4cccc(S(=O)(=O)[O-])c4F)c4nc(c(-c5cccc(S(=O)(=O)[O-])c5F)c5ccc2[nH]5)C=C4)C=C3)cc1
REMARK SMILES IDX 5 1 4 2 3 3 1 4 2 5 27 7 28 8 89 9 29 10 88 11 30 12 31 13
REMARK SMILES IDX 32 14 82 15 33 16 87 17 81 18 83 19 34 20 86 21 80 22 79 23
REMARK SMILES IDX 35 25 67 26 47 27 66 28 48 29 51 30 65 31 84 32 49 33 50 34
REMARK SMILES IDX 64 36 85 37 52 38 36 39 37 40 45 41 38 42 40 43 46 44 39 45
REMARK SMILES IDX 41 46 42 47 43 48 44 49 68 50 69 51 77 52 70 53 72 54 78 55
REMARK SMILES IDX 71 56 73 57 74 58 75 59 76 60 53 61 54 62 62 63 55 64 57 65
REMARK SMILES IDX 63 66 56 67 58 68 59 69 60 70 61 71 6 72 7 73 8 74 9 76
REMARK SMILES IDX 10 77 11 78 26 79 12 80 25 81 13 82 14 83 15 84 16 85 24 86
REMARK SMILES IDX 17 87 23 88 18 89 22 90 19 91 21 92 20 93
REMARK H PARENT 3 6 83 24 51 35 7 75
REMARK Flexibility Score: inf
ROOT
ATOM      1  C   UNL A   1      31.767  28.454  26.337  1.00  0.00     0.042 C 
ENDROOT
BRANCH   1   2
ATOM      2  C   UNL A   1      32.671  29.432  25.600  1.00  0.00     0.118 C 
BRANCH   2   3
ATOM      3  N   UNL A   1      32.381  30.819  25.943  1.00  0.00    -0.352 N 
ATOM      4  O   UNL A   1      32.396  32.721  27.123  1.00  0.00    -0.269 OA
ATOM      5  C   UNL A   1      32.936  31.641  26.890  1.00  0.00     0.251 C 
ATOM      6  H   UNL A   1      31.669  31.235  25.405  1.00  0.00     0.163 HD
BRANCH   5   7
ATOM      7  C   UNL A   1      34.158  31.247  27.626  1.00  0.00     0.039 A 
ATOM      8  C   UNL A   1      35.121  32.224  27.897  1.00  0.00     0.014 A 
ATOM      9  C   UNL A   1      34.391  29.922  28.000  1.00  0.00     0.014 A 
ATOM     10  C   UNL A   1      36.296  31.873  28.564  1.00  0.00     0.010 A 
ATOM     11  C   UNL A   1      35.513  29.596  28.757  1.00  0.00     0.010 A 
ATOM     12  C   UNL A   1      36.496  30.559  29.017  1.00  0.00    -0.014 A 
BRANCH  12  13
ATOM     13  C   UNL A   1      37.751  30.172  29.712  1.00  0.00     0.031 A 
ATOM     14  C   UNL A   1      38.038  30.687  31.100  1.00  0.00     0.074 A 
ATOM     15  C   UNL A   1      38.643  29.375  29.090  1.00  0.00     0.049 A 
ATOM     16  N   UNL A   1      39.078  30.459  31.859  1.00  0.00    -0.248 NA
ATOM     17  C   UNL A   1      37.048  31.592  31.711  1.00  0.00     0.031 C 
ATOM     18  C   UNL A   1      38.519  28.875  27.719  1.00  0.00     0.029 A 
ATOM     19  N   UNL A   1      39.834  28.849  29.527  1.00  0.00    -0.354 N 
ATOM     20  C   UNL A   1      38.879  31.206  33.013  1.00  0.00     0.074 A 
ATOM     21  C   UNL A   1      37.643  31.932  32.845  1.00  0.00     0.031 C 
ATOM     22  C   UNL A   1      39.574  28.093  27.438  1.00  0.00     0.029 A 
ATOM     23  C   UNL A   1      40.464  28.057  28.595  1.00  0.00     0.049 A 
ATOM     24  H   UNL A   1      40.202  29.022  30.424  1.00  0.00     0.167 HD
ATOM     25  C   UNL A   1      39.633  31.247  34.134  1.00  0.00     0.034 A 
ATOM     26  C   UNL A   1      41.623  27.374  28.663  1.00  0.00     0.034 A 
ATOM     27  C   UNL A   1      40.820  30.467  34.334  1.00  0.00     0.049 A 
ATOM     28  C   UNL A   1      42.418  27.398  29.938  1.00  0.00     0.074 A 
ATOM     29  C   UNL A   1      41.603  30.385  35.470  1.00  0.00     0.029 A 
ATOM     30  N   UNL A   1      41.384  29.630  33.387  1.00  0.00    -0.354 N 
ATOM     31  N   UNL A   1      42.147  28.022  31.058  1.00  0.00    -0.248 NA
ATOM     32  C   UNL A   1      43.658  26.608  29.977  1.00  0.00     0.031 C 
ATOM     33  C   UNL A   1      42.648  29.500  35.210  1.00  0.00     0.029 A 
ATOM     34  C   UNL A   1      42.506  29.023  33.916  1.00  0.00     0.049 A 
ATOM     35  H   UNL A   1      41.038  29.489  32.477  1.00  0.00     0.167 HD
ATOM     36  C   UNL A   1      43.167  27.684  31.939  1.00  0.00     0.074 A 
ATOM     37  C   UNL A   1      44.059  26.792  31.229  1.00  0.00     0.031 C 
ATOM     38  C   UNL A   1      43.350  28.091  33.217  1.00  0.00     0.034 A 
BRANCH  25  39
ATOM     39  C   UNL A   1      39.157  32.086  35.286  1.00  0.00     0.023 A 
ATOM     40  C   UNL A   1      38.289  31.510  36.233  1.00  0.00     0.012 A 
ATOM     41  C   UNL A   1      39.678  33.375  35.509  1.00  0.00     0.148 A 
ATOM     42  C   UNL A   1      37.943  32.204  37.390  1.00  0.00     0.002 A 
ATOM     43  C   UNL A   1      39.353  34.050  36.679  1.00  0.00     0.091 A 
ATOM     44  F   UNL A   1      40.497  33.900  34.588  1.00  0.00    -0.205 F 
ATOM     45  C   UNL A   1      38.485  33.466  37.619  1.00  0.00     0.022 A 
BRANCH  43  46
ATOM     46  S   UNL A   1      40.036  35.655  37.102  1.00  0.00     0.127 S 
ATOM     47  O   UNL A   1      39.652  36.455  35.938  1.00  0.00    -0.237 OA
ATOM     48  O   UNL A   1      39.315  35.980  38.331  1.00  0.00    -0.237 OA
ATOM     49  O   UNL A   1      41.470  35.456  37.261  1.00  0.00    -0.744 OA
ENDBRANCH  43  46
ENDBRANCH  25  39
BRANCH  26  50
ATOM     50  C   UNL A   1      42.061  26.562  27.496  1.00  0.00     0.023 A 
ATOM     51  C   UNL A   1      42.790  27.174  26.459  1.00  0.00     0.012 A 
ATOM     52  C   UNL A   1      41.818  25.176  27.445  1.00  0.00     0.148 A 
ATOM     53  C   UNL A   1      43.264  26.419  25.385  1.00  0.00     0.002 A 
ATOM     54  C   UNL A   1      42.325  24.424  26.393  1.00  0.00     0.091 A 
ATOM     55  F   UNL A   1      41.118  24.620  28.444  1.00  0.00    -0.205 F 
ATOM     56  C   UNL A   1      43.040  25.045  25.357  1.00  0.00     0.022 A 
BRANCH  54  57
ATOM     57  S   UNL A   1      42.174  22.636  26.320  1.00  0.00     0.127 S 
ATOM     58  O   UNL A   1      43.007  22.220  27.445  1.00  0.00    -0.237 OA
ATOM     59  O   UNL A   1      40.736  22.450  26.515  1.00  0.00    -0.237 OA
ATOM     60  O   UNL A   1      42.661  22.251  25.002  1.00  0.00    -0.744 OA
ENDBRANCH  54  57
ENDBRANCH  26  50
BRANCH  38  61
ATOM     61  C   UNL A   1      44.538  27.580  33.978  1.00  0.00     0.023 A 
ATOM     62  C   UNL A   1      45.696  28.377  34.057  1.00  0.00     0.012 A 
ATOM     63  C   UNL A   1      44.425  26.426  34.778  1.00  0.00     0.148 A 
ATOM     64  C   UNL A   1      46.722  28.038  34.937  1.00  0.00     0.002 A 
ATOM     65  C   UNL A   1      45.436  26.114  35.676  1.00  0.00     0.091 A 
ATOM     66  F   UNL A   1      43.306  25.693  34.682  1.00  0.00    -0.205 F 
ATOM     67  C   UNL A   1      46.586  26.919  35.756  1.00  0.00     0.022 A 
BRANCH  65  68
ATOM     68  S   UNL A   1      45.320  24.744  36.832  1.00  0.00     0.127 S 
ATOM     69  O   UNL A   1      46.488  24.974  37.683  1.00  0.00    -0.237 OA
ATOM     70  O   UNL A   1      44.034  24.997  37.479  1.00  0.00    -0.237 OA
ATOM     71  O   UNL A   1      45.377  23.529  36.029  1.00  0.00    -0.744 OA
ENDBRANCH  65  68
ENDBRANCH  38  61
ENDBRANCH  12  13
ENDBRANCH   5   7
ENDBRANCH   2   3
ENDBRANCH   1   2
BRANCH   1  72
ATOM     72  C   UNL A   1      31.279  27.300  25.472  1.00  0.00     0.118 C 
BRANCH  72  73
ATOM     73  N   UNL A   1      30.738  27.731  24.195  1.00  0.00    -0.351 N 
ATOM     74  C   UNL A   1      30.799  27.134  22.956  1.00  0.00     0.261 C 
ATOM     75  H   UNL A   1      30.250  28.587  24.219  1.00  0.00     0.163 HD
ATOM     76  O   UNL A   1      30.355  27.774  22.000  1.00  0.00    -0.268 OA
BRANCH  74  77
ATOM     77  C   UNL A   1      31.387  25.813  22.835  1.00  0.00     0.096 A 
ATOM     78  C   UNL A   1      30.857  24.572  23.143  1.00  0.00     0.072 A 
ATOM     79  S   UNL A   1      32.970  25.669  22.196  1.00  0.00    -0.135 S 
ATOM     80  C   UNL A   1      31.841  23.548  23.090  1.00  0.00     0.131 A 
ATOM     81  C   UNL A   1      33.014  23.993  22.525  1.00  0.00     0.112 A 
BRANCH  80  82
ATOM     82  O   UNL A   1      31.777  22.272  23.546  1.00  0.00    -0.489 OA
BRANCH  82  83
ATOM     83  C   UNL A   1      31.735  22.111  24.967  1.00  0.00     0.275 C 
BRANCH  83  84
ATOM     84  C   UNL A   1      33.089  22.120  25.718  1.00  0.00     0.215 C 
ATOM     85  C   UNL A   1      33.670  23.490  26.097  1.00  0.00     0.088 C 
ATOM     86  O   UNL A   1      34.086  21.394  24.928  1.00  0.00    -0.486 OA
ATOM     87  C   UNL A   1      35.102  23.248  25.850  1.00  0.00     0.001 A 
ATOM     88  C   UNL A   1      35.263  22.058  25.160  1.00  0.00     0.123 A 
ATOM     89  C   UNL A   1      36.176  24.072  26.131  1.00  0.00     0.047 A 
ATOM     90  C   UNL A   1      36.504  21.640  24.725  1.00  0.00     0.050 A 
ATOM     91  C   UNL A   1      37.430  23.663  25.694  1.00  0.00     0.123 A 
ATOM     92  C   UNL A   1      37.603  22.460  24.999  1.00  0.00     0.043 A 
ATOM     93  F   UNL A   1      38.488  24.449  25.922  1.00  0.00    -0.207 F 
ENDBRANCH  83  84
ENDBRANCH  82  83
ENDBRANCH  80  82
ENDBRANCH  74  77
ENDBRANCH  72  73
ENDBRANCH   1  72
TORSDOF 16
ENDMDL
MODEL 2
REMARK VINA RESULT:     -11.8      2.021      2.624
REMARK SMILES O=C(NCCCNC(=O)c1cc(OC[C@@H]2Cc3cc(F)ccc3O2)cs1)c1ccc(-c2c3nc(c(-c4cccc(S(=O)(=O)[O-])c4F)c4ccc([nH]4)c(-c4cccc(S(=O)(=O)[O-])c4F)c4nc(c(-c5cccc(S(=O)(=O)[O-])c5F)c5ccc2[nH]5)C=C4)C=C3)cc1
REMARK SMILES IDX 5 1 4 2 3 3 1 4 2 5 27 7 28 8 89 9 29 10 88 11 30 12 31 13
REMARK SMILES IDX 32 14 82 15 33 16 87 17 81 18 83 19 34 20 86 21 80 22 79 23
REMARK SMILES IDX 35 25 67 26 47 27 66 28 48 29 51 30 65 31 84 32 49 33 50 34
REMARK SMILES IDX 64 36 85 37 52 38 36 39 37 40 45 41 38 42 40 43 46 44 39 45
REMARK SMILES IDX 41 46 42 47 43 48 44 49 68 50 69 51 77 52 70 53 72 54 78 55
REMARK SMILES IDX 71 56 73 57 74 58 75 59 76 60 53 61 54 62 62 63 55 64 57 65
REMARK SMILES IDX 63 66 56 67 58 68 59 69 60 70 61 71 6 72 7 73 8 74 9 76
REMARK SMILES IDX 10 77 11 78 26 79 12 80 25 81 13 82 14 83 15 84 16 85 24 86
REMARK SMILES IDX 17 87 23 88 18 89 22 90 19 91 21 92 20 93
REMARK H PARENT 3 6 83 24 51 35 7 75
REMARK Flexibility Score: inf
ROOT
ATOM      1  C   UNL A   1      31.517  30.700  26.091  1.00  0.00     0.042 C 
ENDROOT
BRANCH   1   2
ATOM      2  C   UNL A   1      32.769  31.082  26.869  1.00  0.00     0.118 C 
BRANCH   2   3
ATOM      3  N   UNL A   1      32.845  32.515  27.125  1.00  0.00    -0.352 N 
ATOM      4  O   UNL A   1      33.471  34.426  28.108  1.00  0.00    -0.269 OA
ATOM      5  C   UNL A   1      33.720  33.242  27.892  1.00  0.00     0.251 C 
ATOM      6  H   UNL A   1      32.155  33.051  26.671  1.00  0.00     0.163 HD
BRANCH   5   7
ATOM      7  C   UNL A   1      34.940  32.624  28.457  1.00  0.00     0.039 A 
ATOM      8  C   UNL A   1      34.803  31.488  29.262  1.00  0.00     0.014 A 
ATOM      9  C   UNL A   1      36.204  33.180  28.253  1.00  0.00     0.014 A 
ATOM     10  C   UNL A   1      35.935  30.902  29.832  1.00  0.00     0.010 A 
ATOM     11  C   UNL A   1      37.339  32.533  28.734  1.00  0.00     0.010 A 
ATOM     12  C   UNL A   1      37.217  31.408  29.559  1.00  0.00    -0.014 A 
BRANCH  12  13
ATOM     13  C   UNL A   1      38.425  30.802  30.174  1.00  0.00     0.031 A 
ATOM     14  C   UNL A   1      38.854  31.207  31.561  1.00  0.00     0.074 A 
ATOM     15  C   UNL A   1      39.152  29.903  29.479  1.00  0.00     0.049 A 
ATOM     16  N   UNL A   1      39.880  30.789  32.256  1.00  0.00    -0.248 NA
ATOM     17  C   UNL A   1      38.048  32.229  32.254  1.00  0.00     0.031 C 
ATOM     18  C   UNL A   1      38.887  29.486  28.099  1.00  0.00     0.029 A 
ATOM     19  N   UNL A   1      40.264  29.181  29.835  1.00  0.00    -0.354 N 
ATOM     20  C   UNL A   1      39.854  31.509  33.444  1.00  0.00     0.074 A 
ATOM     21  C   UNL A   1      38.742  32.425  33.366  1.00  0.00     0.031 C 
ATOM     22  C   UNL A   1      39.792  28.562  27.738  1.00  0.00     0.029 A 
ATOM     23  C   UNL A   1      40.718  28.340  28.845  1.00  0.00     0.049 A 
ATOM     24  H   UNL A   1      40.696  29.257  30.716  1.00  0.00     0.167 HD
ATOM     25  C   UNL A   1      40.656  31.386  34.525  1.00  0.00     0.034 A 
ATOM     26  C   UNL A   1      41.758  27.483  28.829  1.00  0.00     0.034 A 
ATOM     27  C   UNL A   1      41.714  30.424  34.635  1.00  0.00     0.049 A 
ATOM     28  C   UNL A   1      42.604  27.330  30.060  1.00  0.00     0.074 A 
ATOM     29  C   UNL A   1      42.527  30.173  35.725  1.00  0.00     0.029 A 
ATOM     30  N   UNL A   1      42.095  29.549  33.633  1.00  0.00    -0.354 N 
ATOM     31  N   UNL A   1      42.487  27.940  31.214  1.00  0.00    -0.248 NA
ATOM     32  C   UNL A   1      43.706  26.356  30.007  1.00  0.00     0.031 C 
ATOM     33  C   UNL A   1      43.407  29.148  35.381  1.00  0.00     0.029 A 
ATOM     34  C   UNL A   1      43.131  28.754  34.081  1.00  0.00     0.049 A 
ATOM     35  H   UNL A   1      41.690  29.502  32.737  1.00  0.00     0.167 HD
ATOM     36  C   UNL A   1      43.481  27.412  32.028  1.00  0.00     0.074 A 
ATOM     37  C   UNL A   1      44.187  26.423  31.242  1.00  0.00     0.031 C 
ATOM     38  C   UNL A   1      43.785  27.732  33.307  1.00  0.00     0.034 A 
BRANCH  25  39
ATOM     39  C   UNL A   1      40.373  32.240  35.728  1.00  0.00     0.023 A 
ATOM     40  C   UNL A   1      41.092  33.440  35.893  1.00  0.00     0.012 A 
ATOM     41  C   UNL A   1      39.311  31.937  36.600  1.00  0.00     0.148 A 
ATOM     42  C   UNL A   1      40.759  34.329  36.912  1.00  0.00     0.002 A 
ATOM     43  C   UNL A   1      38.964  32.842  37.595  1.00  0.00     0.091 A 
ATOM     44  F   UNL A   1      38.648  30.785  36.422  1.00  0.00    -0.205 F 
ATOM     45  C   UNL A   1      39.688  34.037  37.753  1.00  0.00     0.022 A 
BRANCH  43  46
ATOM     46  S   UNL A   1      37.569  32.594  38.697  1.00  0.00     0.127 S 
ATOM     47  O   UNL A   1      37.836  33.586  39.739  1.00  0.00    -0.237 OA
ATOM     48  O   UNL A   1      36.435  32.910  37.831  1.00  0.00    -0.237 OA
ATOM     49  O   UNL A   1      37.643  31.209  39.139  1.00  0.00    -0.744 OA
ENDBRANCH  43  46
ENDBRANCH  25  39
BRANCH  26  50
ATOM     50  C   UNL A   1      42.007  26.662  27.613  1.00  0.00     0.023 A 
ATOM     51  C   UNL A   1      42.645  27.245  26.502  1.00  0.00     0.012 A 
ATOM     52  C   UNL A   1      41.679  25.294  27.583  1.00  0.00     0.148 A 
ATOM     53  C   UNL A   1      42.945  26.478  25.375  1.00  0.00     0.002 A 
ATOM     54  C   UNL A   1      42.015  24.527  26.473  1.00  0.00     0.091 A 
ATOM     55  F   UNL A   1      41.069  24.766  28.653  1.00  0.00    -0.205 F 
ATOM     56  C   UNL A   1      42.639  25.119  25.365  1.00  0.00     0.022 A 
BRANCH  54  57
ATOM     57  S   UNL A   1      41.751  22.752  26.407  1.00  0.00     0.127 S 
ATOM     58  O   UNL A   1      42.406  22.308  27.634  1.00  0.00    -0.237 OA
ATOM     59  O   UNL A   1      40.290  22.666  26.421  1.00  0.00    -0.237 OA
ATOM     60  O   UNL A   1      42.372  22.305  25.167  1.00  0.00    -0.744 OA
ENDBRANCH  54  57
ENDBRANCH  26  50
BRANCH  38  61
ATOM     61  C   UNL A   1      44.912  27.011  33.987  1.00  0.00     0.023 A 
ATOM     62  C   UNL A   1      46.205  27.564  33.942  1.00  0.00     0.012 A 
ATOM     63  C   UNL A   1      44.645  25.919  34.836  1.00  0.00     0.148 A 
ATOM     64  C   UNL A   1      47.219  27.047  34.747  1.00  0.00     0.002 A 
ATOM     65  C   UNL A   1      45.651  25.431  35.659  1.00  0.00     0.091 A 
ATOM     66  F   UNL A   1      43.400  25.421  34.859  1.00  0.00    -0.205 F 
ATOM     67  C   UNL A   1      46.938  25.993  35.615  1.00  0.00     0.022 A 
BRANCH  65  68
ATOM     68  S   UNL A   1      45.370  24.135  36.871  1.00  0.00     0.127 S 
ATOM     69  O   UNL A   1      44.794  23.075  36.043  1.00  0.00    -0.237 OA
ATOM     70  O   UNL A   1      46.723  23.866  37.353  1.00  0.00    -0.237 OA
ATOM     71  O   UNL A   1      44.463  24.697  37.864  1.00  0.00    -0.744 OA
ENDBRANCH  65  68
ENDBRANCH  38  61
ENDBRANCH  12  13
ENDBRANCH   5   7
ENDBRANCH   2   3
ENDBRANCH   1   2
BRANCH   1  72
ATOM     72  C   UNL A   1      31.714  29.511  25.161  1.00  0.00     0.118 C 
BRANCH  72  73
ATOM     73  N   UNL A   1      31.013  29.652  23.897  1.00  0.00    -0.351 N 
ATOM     74  C   UNL A   1      30.656  28.700  22.968  1.00  0.00     0.261 C 
ATOM     75  H   UNL A   1      30.752  30.574  23.668  1.00  0.00     0.163 HD
ATOM     76  O   UNL A   1      30.165  29.103  21.909  1.00  0.00    -0.268 OA
BRANCH  74  77
ATOM     77  C   UNL A   1      30.883  27.299  23.265  1.00  0.00     0.096 A 
ATOM     78  C   UNL A   1      31.976  26.496  22.986  1.00  0.00     0.072 A 
ATOM     79  S   UNL A   1      29.675  26.428  24.114  1.00  0.00    -0.135 S 
ATOM     80  C   UNL A   1      31.705  25.125  23.245  1.00  0.00     0.131 A 
ATOM     81  C   UNL A   1      30.520  24.956  23.922  1.00  0.00     0.112 A 
BRANCH  80  82
ATOM     82  O   UNL A   1      32.416  24.027  22.884  1.00  0.00    -0.489 OA
BRANCH  82  83
ATOM     83  C   UNL A   1      33.242  23.449  23.899  1.00  0.00     0.275 C 
BRANCH  83  84
ATOM     84  C   UNL A   1      32.886  22.016  24.365  1.00  0.00     0.215 C 
ATOM     85  C   UNL A   1      34.034  21.153  24.909  1.00  0.00     0.088 C 
ATOM     86  O   UNL A   1      32.243  21.294  23.265  1.00  0.00    -0.486 OA
ATOM     87  C   UNL A   1      33.666  19.841  24.351  1.00  0.00     0.001 A 
ATOM     88  C   UNL A   1      32.666  19.998  23.407  1.00  0.00     0.123 A 
ATOM     89  C   UNL A   1      34.246  18.608  24.593  1.00  0.00     0.047 A 
ATOM     90  C   UNL A   1      32.200  18.930  22.666  1.00  0.00     0.050 A 
ATOM     91  C   UNL A   1      33.787  17.528  23.850  1.00  0.00     0.123 A 
ATOM     92  C   UNL A   1      32.774  17.676  22.896  1.00  0.00     0.043 A 
ATOM     93  F   UNL A   1      34.345  16.326  24.036  1.00  0.00    -0.207 F 
ENDBRANCH  83  84
ENDBRANCH  82  83
ENDBRANCH  80  82
ENDBRANCH  74  77
ENDBRANCH  72  73
ENDBRANCH   1  72
TORSDOF 16
ENDMDL
MODEL 3
REMARK VINA RESULT:     -11.8      5.110     10.077
REMARK SMILES O=C(NCCCNC(=O)c1cc(OC[C@@H]2Cc3cc(F)ccc3O2)cs1)c1ccc(-c2c3nc(c(-c4cccc(S(=O)(=O)[O-])c4F)c4ccc([nH]4)c(-c4cccc(S(=O)(=O)[O-])c4F)c4nc(c(-c5cccc(S(=O)(=O)[O-])c5F)c5ccc2[nH]5)C=C4)C=C3)cc1
REMARK SMILES IDX 5 1 4 2 3 3 1 4 2 5 27 7 28 8 89 9 29 10 88 11 30 12 31 13
REMARK SMILES IDX 32 14 82 15 33 16 87 17 81 18 83 19 34 20 86 21 80 22 79 23
REMARK SMILES IDX 35 25 67 26 47 27 66 28 48 29 51 30 65 31 84 32 49 33 50 34
REMARK SMILES IDX 64 36 85 37 52 38 36 39 37 40 45 41 38 42 40 43 46 44 39 45
REMARK SMILES IDX 41 46 42 47 43 48 44 49 68 50 69 51 77 52 70 53 72 54 78 55
REMARK SMILES IDX 71 56 73 57 74 58 75 59 76 60 53 61 54 62 62 63 55 64 57 65
REMARK SMILES IDX 63 66 56 67 58 68 59 69 60 70 61 71 6 72 7 73 8 74 9 76
REMARK SMILES IDX 10 77 11 78 26 79 12 80 25 81 13 82 14 83 15 84 16 85 24 86
REMARK SMILES IDX 17 87 23 88 18 89 22 90 19 91 21 92 20 93
REMARK H PARENT 3 6 83 24 51 35 7 75
REMARK Flexibility Score: inf
ROOT
ATOM      1  C   UNL A   1      36.300  21.224  24.794  1.00  0.00     0.042 C 
ENDROOT
BRANCH   1   2
ATOM      2  C   UNL A   1      37.555  21.872  25.364  1.00  0.00     0.118 C 
BRANCH   2   3
ATOM      3  N   UNL A   1      38.517  20.888  25.844  1.00  0.00    -0.352 N 
ATOM      4  O   UNL A   1      40.466  20.062  26.570  1.00  0.00    -0.269 OA
ATOM      5  C   UNL A   1      39.752  21.050  26.418  1.00  0.00     0.251 C 
ATOM      6  H   UNL A   1      38.233  19.951  25.740  1.00  0.00     0.163 HD
BRANCH   5   7
ATOM      7  C   UNL A   1      40.228  22.385  26.847  1.00  0.00     0.039 A 
ATOM      8  C   UNL A   1      39.815  23.507  26.123  1.00  0.00     0.014 A 
ATOM      9  C   UNL A   1      41.118  22.536  27.912  1.00  0.00     0.014 A 
ATOM     10  C   UNL A   1      40.274  24.775  26.488  1.00  0.00     0.010 A 
ATOM     11  C   UNL A   1      41.488  23.809  28.339  1.00  0.00     0.010 A 
ATOM     12  C   UNL A   1      41.100  24.940  27.611  1.00  0.00    -0.014 A 
BRANCH  12  13
ATOM     13  C   UNL A   1      41.606  26.282  27.997  1.00  0.00     0.031 A 
ATOM     14  C   UNL A   1      43.012  26.694  27.638  1.00  0.00     0.074 A 
ATOM     15  C   UNL A   1      40.812  27.124  28.689  1.00  0.00     0.049 A 
ATOM     16  N   UNL A   1      43.625  27.820  27.894  1.00  0.00    -0.248 NA
ATOM     17  C   UNL A   1      43.849  25.714  26.923  1.00  0.00     0.031 C 
ATOM     18  C   UNL A   1      39.462  26.815  29.165  1.00  0.00     0.029 A 
ATOM     19  N   UNL A   1      41.027  28.411  29.118  1.00  0.00    -0.354 N 
ATOM     20  C   UNL A   1      44.915  27.673  27.398  1.00  0.00     0.074 A 
ATOM     21  C   UNL A   1      45.018  26.336  26.864  1.00  0.00     0.031 C 
ATOM     22  C   UNL A   1      38.959  27.890  29.793  1.00  0.00     0.029 A 
ATOM     23  C   UNL A   1      39.957  28.955  29.790  1.00  0.00     0.049 A 
ATOM     24  H   UNL A   1      41.867  28.898  28.958  1.00  0.00     0.167 HD
ATOM     25  C   UNL A   1      45.910  28.586  27.345  1.00  0.00     0.034 A 
ATOM     26  C   UNL A   1      39.794  30.175  30.340  1.00  0.00     0.034 A 
ATOM     27  C   UNL A   1      45.785  29.939  27.805  1.00  0.00     0.049 A 
ATOM     28  C   UNL A   1      40.899  31.187  30.226  1.00  0.00     0.074 A 
ATOM     29  C   UNL A   1      46.716  30.957  27.719  1.00  0.00     0.029 A 
ATOM     30  N   UNL A   1      44.662  30.464  28.419  1.00  0.00    -0.354 N 
ATOM     31  N   UNL A   1      42.067  31.060  29.647  1.00  0.00    -0.248 NA
ATOM     32  C   UNL A   1      40.660  32.517  30.810  1.00  0.00     0.031 C 
ATOM     33  C   UNL A   1      46.158  32.101  28.288  1.00  0.00     0.029 A 
ATOM     34  C   UNL A   1      44.876  31.796  28.716  1.00  0.00     0.049 A 
ATOM     35  H   UNL A   1      43.836  29.965  28.616  1.00  0.00     0.167 HD
ATOM     36  C   UNL A   1      42.694  32.293  29.778  1.00  0.00     0.074 A 
ATOM     37  C   UNL A   1      41.773  33.161  30.481  1.00  0.00     0.031 C 
ATOM     38  C   UNL A   1      43.927  32.664  29.362  1.00  0.00     0.034 A 
BRANCH  25  39
ATOM     39  C   UNL A   1      47.202  28.200  26.683  1.00  0.00     0.023 A 
ATOM     40  C   UNL A   1      48.269  27.751  27.486  1.00  0.00     0.012 A 
ATOM     41  C   UNL A   1      47.309  28.139  25.281  1.00  0.00     0.148 A 
ATOM     42  C   UNL A   1      49.429  27.247  26.903  1.00  0.00     0.002 A 
ATOM     43  C   UNL A   1      48.457  27.607  24.707  1.00  0.00     0.091 A 
ATOM     44  F   UNL A   1      46.281  28.578  24.542  1.00  0.00    -0.205 F 
ATOM     45  C   UNL A   1      49.517  27.162  25.516  1.00  0.00     0.022 A 
BRANCH  43  46
ATOM     46  S   UNL A   1      48.655  27.399  22.934  1.00  0.00     0.127 S 
ATOM     47  O   UNL A   1      48.513  25.950  22.790  1.00  0.00    -0.237 OA
ATOM     48  O   UNL A   1      47.535  28.177  22.409  1.00  0.00    -0.237 OA
ATOM     49  O   UNL A   1      49.975  27.920  22.610  1.00  0.00    -0.744 OA
ENDBRANCH  43  46
ENDBRANCH  25  39
BRANCH  26  50
ATOM     50  C   UNL A   1      38.501  30.513  30.994  1.00  0.00     0.023 A 
ATOM     51  C   UNL A   1      38.288  30.151  32.337  1.00  0.00     0.012 A 
ATOM     52  C   UNL A   1      37.515  31.251  30.312  1.00  0.00     0.148 A 
ATOM     53  C   UNL A   1      37.107  30.512  32.989  1.00  0.00     0.002 A 
ATOM     54  C   UNL A   1      36.360  31.641  30.978  1.00  0.00     0.091 A 
ATOM     55  F   UNL A   1      37.744  31.580  29.033  1.00  0.00    -0.205 F 
ATOM     56  C   UNL A   1      36.150  31.264  32.313  1.00  0.00     0.022 A 
BRANCH  54  57
ATOM     57  S   UNL A   1      35.115  32.693  30.223  1.00  0.00     0.127 S 
ATOM     58  O   UNL A   1      34.654  31.860  29.116  1.00  0.00    -0.237 OA
ATOM     59  O   UNL A   1      34.156  32.852  31.317  1.00  0.00    -0.237 OA
ATOM     60  O   UNL A   1      35.808  33.917  29.843  1.00  0.00    -0.744 OA
ENDBRANCH  54  57
ENDBRANCH  26  50
BRANCH  38  61
ATOM     61  C   UNL A   1      44.387  34.070  29.615  1.00  0.00     0.023 A 
ATOM     62  C   UNL A   1      45.067  34.364  30.811  1.00  0.00     0.012 A 
ATOM     63  C   UNL A   1      44.333  35.029  28.584  1.00  0.00     0.148 A 
ATOM     64  C   UNL A   1      45.702  35.593  30.974  1.00  0.00     0.002 A 
ATOM     65  C   UNL A   1      44.996  36.238  28.741  1.00  0.00     0.091 A 
ATOM     66  F   UNL A   1      43.682  34.713  27.455  1.00  0.00    -0.205 F 
ATOM     67  C   UNL A   1      45.680  36.522  29.935  1.00  0.00     0.022 A 
BRANCH  65  68
ATOM     68  S   UNL A   1      45.099  37.465  27.433  1.00  0.00     0.127 S 
ATOM     69  O   UNL A   1      45.760  38.575  28.119  1.00  0.00    -0.237 OA
ATOM     70  O   UNL A   1      45.924  36.784  26.437  1.00  0.00    -0.237 OA
ATOM     71  O   UNL A   1      43.728  37.732  27.017  1.00  0.00    -0.744 OA
ENDBRANCH  65  68
ENDBRANCH  38  61
ENDBRANCH  12  13
ENDBRANCH   5   7
ENDBRANCH   2   3
ENDBRANCH   1   2
BRANCH   1  72
ATOM     72  C   UNL A   1      35.139  21.169  25.778  1.00  0.00     0.118 C 
BRANCH  72  73
ATOM     73  N   UNL A   1      34.210  20.086  25.506  1.00  0.00    -0.351 N 
ATOM     74  C   UNL A   1      32.922  20.122  25.019  1.00  0.00     0.261 C 
ATOM     75  H   UNL A   1      34.556  19.184  25.699  1.00  0.00     0.163 HD
ATOM     76  O   UNL A   1      32.302  19.055  24.992  1.00  0.00    -0.268 OA
BRANCH  74  77
ATOM     77  C   UNL A   1      32.363  21.387  24.586  1.00  0.00     0.096 A 
ATOM     78  C   UNL A   1      32.531  22.073  23.395  1.00  0.00     0.072 A 
ATOM     79  S   UNL A   1      31.298  22.224  25.636  1.00  0.00    -0.135 S 
ATOM     80  C   UNL A   1      31.990  23.386  23.459  1.00  0.00     0.131 A 
ATOM     81  C   UNL A   1      31.234  23.574  24.593  1.00  0.00     0.112 A 
BRANCH  80  82
ATOM     82  O   UNL A   1      32.160  24.427  22.606  1.00  0.00    -0.489 OA
BRANCH  82  83
ATOM     83  C   UNL A   1      31.203  25.486  22.704  1.00  0.00     0.275 C 
BRANCH  83  84
ATOM     84  C   UNL A   1      31.658  26.782  23.417  1.00  0.00     0.215 C 
ATOM     85  C   UNL A   1      33.151  26.908  23.754  1.00  0.00     0.088 C 
ATOM     86  O   UNL A   1      30.887  26.954  24.650  1.00  0.00    -0.486 OA
ATOM     87  C   UNL A   1      33.071  27.563  25.071  1.00  0.00     0.001 A 
ATOM     88  C   UNL A   1      31.766  27.528  25.531  1.00  0.00     0.123 A 
ATOM     89  C   UNL A   1      34.099  28.065  25.848  1.00  0.00     0.047 A 
ATOM     90  C   UNL A   1      31.432  27.997  26.786  1.00  0.00     0.050 A 
ATOM     91  C   UNL A   1      33.775  28.535  27.114  1.00  0.00     0.123 A 
ATOM     92  C   UNL A   1      32.458  28.508  27.587  1.00  0.00     0.043 A 
ATOM     93  F   UNL A   1      34.748  29.000  27.905  1.00  0.00    -0.207 F 
ENDBRANCH  83  84
ENDBRANCH  82  83
ENDBRANCH  80  82
ENDBRANCH  74  77
ENDBRANCH  72  73
ENDBRANCH   1  72
TORSDOF 16
ENDMDL
