MODEL 1
REMARK VINA RESULT:     -12.9      0.000      0.000
REMARK SMILES Cc1ccc(S(=O)(=O)N[C@H]2C=C[C@@H](C(=O)NCCCNC(=O)c3ccc(-c4c5nc(c(-c6cccc(S(=O)(=O)[O-])c6F)c6ccc([nH]6)c(-c6cccc(S(=O)(=O)[O-])c6F)c6nc(c(-c7cccc(S(=O)(=O)[O-])c7F)c7ccc4[nH]7)C=C6)C=C5)cc3)C2)cc1F
REMARK SMILES IDX 18 1 17 2 16 3 14 4 15 5 13 7 10 8 11 9 86 10 12 11 9 12
REMARK SMILES IDX 6 14 7 15 8 16 5 17 1 18 2 19 3 20 88 21 4 22 87 23 89 24
REMARK SMILES IDX 19 25 20 26 21 27 22 29 23 30 24 31 85 32 25 33 84 34 26 35
REMARK SMILES IDX 27 36 28 37 78 38 29 39 83 40 77 41 79 42 30 43 82 44 76 45
REMARK SMILES IDX 75 46 31 48 63 49 43 50 62 51 44 52 47 53 61 54 80 55 45 56
REMARK SMILES IDX 46 57 60 59 81 60 48 61 32 62 33 63 41 64 34 65 36 66 42 67
REMARK SMILES IDX 35 68 37 69 38 70 39 71 40 72 64 73 65 74 73 75 66 76 68 77
REMARK SMILES IDX 74 78 67 79 69 80 70 81 71 82 72 83 49 84 50 85 58 86 51 87
REMARK SMILES IDX 53 88 59 89 52 90 54 91 55 92 56 93 57 94
REMARK H PARENT 16 6 9 13 20 28 79 47 47 58
REMARK Flexibility Score: inf
ROOT
ATOM      1  C   UNL A   1      36.743  22.538  24.689  1.00  0.00     0.042 C 
ENDROOT
BRANCH   1   2
ATOM      2  C   UNL A   1      36.147  21.240  25.186  1.00  0.00     0.117 C 
BRANCH   2   3
ATOM      3  N   UNL A   1      35.493  21.442  26.472  1.00  0.00    -0.356 N 
ATOM      4  C   UNL A   1      34.185  21.586  26.817  1.00  0.00     0.226 C 
ATOM      5  O   UNL A   1      33.936  21.855  27.998  1.00  0.00    -0.274 OA
ATOM      6  H   UNL A   1      36.115  21.482  27.236  1.00  0.00     0.163 HD
BRANCH   4   7
ATOM      7  C   UNL A   1      33.027  21.512  25.810  1.00  0.00     0.103 C 
ATOM      8  C   UNL A   1      32.562  22.843  23.763  1.00  0.00     0.093 C 
ATOM      9  C   UNL A   1      33.036  21.452  23.462  1.00  0.00    -0.011 C 
ATOM     10  C   UNL A   1      32.620  22.899  25.295  1.00  0.00     0.042 C 
ATOM     11  C   UNL A   1      33.250  20.724  24.565  1.00  0.00    -0.016 C 
BRANCH   8  12
ATOM     12  N   UNL A   1      33.468  23.804  23.134  1.00  0.00    -0.204 NA
ATOM     13  H   UNL A   1      34.228  23.968  23.795  1.00  0.00     0.142 HD
BRANCH  12  14
ATOM     14  S   UNL A   1      32.901  25.329  22.661  1.00  0.00     0.241 S 
ATOM     15  O   UNL A   1      31.615  25.152  22.034  1.00  0.00    -0.207 OA
ATOM     16  O   UNL A   1      34.010  25.961  21.968  1.00  0.00    -0.207 OA
BRANCH  14  17
ATOM     17  C   UNL A   1      32.662  26.240  24.164  1.00  0.00     0.085 A 
ATOM     18  C   UNL A   1      31.950  29.031  27.354  1.00  0.00     0.047 C 
ATOM     19  C   UNL A   1      32.202  28.022  26.277  1.00  0.00    -0.015 A 
ATOM     20  C   UNL A   1      31.129  27.451  25.598  1.00  0.00     0.008 A 
ATOM     21  C   UNL A   1      33.499  27.602  25.951  1.00  0.00     0.127 A 
ATOM     22  C   UNL A   1      31.373  26.534  24.583  1.00  0.00     0.022 A 
ATOM     23  C   UNL A   1      33.745  26.736  24.882  1.00  0.00     0.061 A 
ATOM     24  F   UNL A   1      34.540  28.064  26.656  1.00  0.00    -0.207 F 
ENDBRANCH  14  17
ENDBRANCH  12  14
ENDBRANCH   8  12
ENDBRANCH   4   7
ENDBRANCH   2   3
ENDBRANCH   1   2
BRANCH   1  25
ATOM     25  C   UNL A   1      37.526  23.235  25.759  1.00  0.00     0.118 C 
BRANCH  25  26
ATOM     26  N   UNL A   1      38.735  22.524  26.155  1.00  0.00    -0.352 N 
ATOM     27  C   UNL A   1      39.939  23.068  26.561  1.00  0.00     0.251 C 
ATOM     28  H   UNL A   1      38.687  21.541  26.132  1.00  0.00     0.163 HD
ATOM     29  O   UNL A   1      40.974  22.409  26.550  1.00  0.00    -0.269 OA
BRANCH  27  30
ATOM     30  C   UNL A   1      39.954  24.469  27.024  1.00  0.00     0.039 A 
ATOM     31  C   UNL A   1      40.498  25.512  26.267  1.00  0.00     0.014 A 
ATOM     32  C   UNL A   1      39.487  24.718  28.308  1.00  0.00     0.014 A 
ATOM     33  C   UNL A   1      40.598  26.773  26.849  1.00  0.00     0.010 A 
ATOM     34  C   UNL A   1      39.256  25.978  28.723  1.00  0.00     0.010 A 
ATOM     35  C   UNL A   1      39.994  26.962  28.093  1.00  0.00    -0.014 A 
BRANCH  35  36
ATOM     36  C   UNL A   1      40.157  28.096  28.973  1.00  0.00     0.031 A 
ATOM     37  C   UNL A   1      39.210  29.193  28.844  1.00  0.00     0.074 A 
ATOM     38  C   UNL A   1      41.017  27.881  29.998  1.00  0.00     0.049 A 
ATOM     39  N   UNL A   1      39.466  30.409  29.146  1.00  0.00    -0.248 NA
ATOM     40  C   UNL A   1      37.869  29.007  28.290  1.00  0.00     0.031 C 
ATOM     41  C   UNL A   1      41.190  28.550  31.274  1.00  0.00     0.029 A 
ATOM     42  N   UNL A   1      42.037  26.922  30.002  1.00  0.00    -0.354 N 
ATOM     43  C   UNL A   1      38.247  31.037  29.252  1.00  0.00     0.074 A 
ATOM     44  C   UNL A   1      37.325  30.208  28.514  1.00  0.00     0.031 C 
ATOM     45  C   UNL A   1      42.400  28.221  31.775  1.00  0.00     0.029 A 
ATOM     46  C   UNL A   1      43.088  27.401  30.783  1.00  0.00     0.049 A 
ATOM     47  H   UNL A   1      42.016  26.057  29.533  1.00  0.00     0.167 HD
ATOM     48  C   UNL A   1      38.117  32.047  30.160  1.00  0.00     0.034 A 
ATOM     49  C   UNL A   1      44.246  27.718  30.126  1.00  0.00     0.034 A 
ATOM     50  C   UNL A   1      39.374  32.204  30.893  1.00  0.00     0.049 A 
ATOM     51  C   UNL A   1      44.372  29.223  30.046  1.00  0.00     0.074 A 
ATOM     52  C   UNL A   1      39.785  31.747  32.135  1.00  0.00     0.029 A 
ATOM     53  N   UNL A   1      40.530  32.533  30.197  1.00  0.00    -0.354 N 
ATOM     54  N   UNL A   1      43.352  30.043  30.060  1.00  0.00    -0.248 NA
ATOM     55  C   UNL A   1      45.653  29.918  30.050  1.00  0.00     0.031 C 
ATOM     56  C   UNL A   1      41.207  31.712  32.140  1.00  0.00     0.029 A 
ATOM     57  C   UNL A   1      41.654  32.147  30.902  1.00  0.00     0.049 A 
ATOM     58  H   UNL A   1      40.546  32.978  29.319  1.00  0.00     0.167 HD
ATOM     59  C   UNL A   1      43.806  31.328  30.182  1.00  0.00     0.074 A 
ATOM     60  C   UNL A   1      45.252  31.199  30.137  1.00  0.00     0.031 C 
ATOM     61  C   UNL A   1      42.979  32.401  30.350  1.00  0.00     0.034 A 
BRANCH  48  62
ATOM     62  C   UNL A   1      36.803  32.653  30.596  1.00  0.00     0.023 A 
ATOM     63  C   UNL A   1      36.352  32.621  31.934  1.00  0.00     0.012 A 
ATOM     64  C   UNL A   1      35.939  33.272  29.667  1.00  0.00     0.148 A 
ATOM     65  C   UNL A   1      35.163  33.243  32.344  1.00  0.00     0.002 A 
ATOM     66  C   UNL A   1      34.740  33.863  30.070  1.00  0.00     0.091 A 
ATOM     67  F   UNL A   1      36.256  33.301  28.366  1.00  0.00    -0.205 F 
ATOM     68  C   UNL A   1      34.352  33.866  31.409  1.00  0.00     0.022 A 
BRANCH  66  69
ATOM     69  S   UNL A   1      33.680  34.604  28.825  1.00  0.00     0.127 S 
ATOM     70  O   UNL A   1      33.429  33.494  27.911  1.00  0.00    -0.237 OA
ATOM     71  O   UNL A   1      32.545  35.089  29.602  1.00  0.00    -0.237 OA
ATOM     72  O   UNL A   1      34.519  35.666  28.264  1.00  0.00    -0.744 OA
ENDBRANCH  66  69
ENDBRANCH  48  62
BRANCH  49  73
ATOM     73  C   UNL A   1      44.536  26.714  29.033  1.00  0.00     0.023 A 
ATOM     74  C   UNL A   1      45.405  25.628  29.253  1.00  0.00     0.012 A 
ATOM     75  C   UNL A   1      44.377  27.181  27.702  1.00  0.00     0.148 A 
ATOM     76  C   UNL A   1      46.185  25.123  28.197  1.00  0.00     0.002 A 
ATOM     77  C   UNL A   1      45.229  26.745  26.686  1.00  0.00     0.091 A 
ATOM     78  F   UNL A   1      43.486  28.161  27.473  1.00  0.00    -0.205 F 
ATOM     79  C   UNL A   1      46.140  25.715  26.930  1.00  0.00     0.022 A 
BRANCH  77  80
ATOM     80  S   UNL A   1      45.385  27.725  25.178  1.00  0.00     0.127 S 
ATOM     81  O   UNL A   1      44.018  27.747  24.668  1.00  0.00    -0.237 OA
ATOM     82  O   UNL A   1      45.927  29.000  25.640  1.00  0.00    -0.237 OA
ATOM     83  O   UNL A   1      46.336  26.965  24.362  1.00  0.00    -0.744 OA
ENDBRANCH  77  80
ENDBRANCH  49  73
BRANCH  61  84
ATOM     84  C   UNL A   1      43.360  33.840  30.113  1.00  0.00     0.023 A 
ATOM     85  C   UNL A   1      43.552  34.687  31.236  1.00  0.00     0.012 A 
ATOM     86  C   UNL A   1      43.408  34.447  28.855  1.00  0.00     0.148 A 
ATOM     87  C   UNL A   1      43.752  36.061  31.115  1.00  0.00     0.002 A 
ATOM     88  C   UNL A   1      43.755  35.788  28.733  1.00  0.00     0.091 A 
ATOM     89  F   UNL A   1      43.059  33.767  27.756  1.00  0.00    -0.205 F 
ATOM     90  C   UNL A   1      43.885  36.612  29.853  1.00  0.00     0.022 A 
BRANCH  88  91
ATOM     91  S   UNL A   1      44.200  36.389  27.106  1.00  0.00     0.127 S 
ATOM     92  O   UNL A   1      42.920  36.346  26.401  1.00  0.00    -0.237 OA
ATOM     93  O   UNL A   1      44.751  37.713  27.368  1.00  0.00    -0.237 OA
ATOM     94  O   UNL A   1      45.177  35.406  26.640  1.00  0.00    -0.744 OA
ENDBRANCH  88  91
ENDBRANCH  61  84
ENDBRANCH  35  36
ENDBRANCH  27  30
ENDBRANCH  25  26
ENDBRANCH   1  25
TORSDOF 16
ENDMDL
MODEL 2
REMARK VINA RESULT:     -12.9      1.553      2.082
REMARK SMILES Cc1ccc(S(=O)(=O)N[C@H]2C=C[C@@H](C(=O)NCCCNC(=O)c3ccc(-c4c5nc(c(-c6cccc(S(=O)(=O)[O-])c6F)c6ccc([nH]6)c(-c6cccc(S(=O)(=O)[O-])c6F)c6nc(c(-c7cccc(S(=O)(=O)[O-])c7F)c7ccc4[nH]7)C=C6)C=C5)cc3)C2)cc1F
REMARK SMILES IDX 18 1 17 2 16 3 14 4 15 5 13 7 10 8 11 9 86 10 12 11 9 12
REMARK SMILES IDX 6 14 7 15 8 16 5 17 1 18 2 19 3 20 88 21 4 22 87 23 89 24
REMARK SMILES IDX 19 25 20 26 21 27 22 29 23 30 24 31 85 32 25 33 84 34 26 35
REMARK SMILES IDX 27 36 28 37 78 38 29 39 83 40 77 41 79 42 30 43 82 44 76 45
REMARK SMILES IDX 75 46 31 48 63 49 43 50 62 51 44 52 47 53 61 54 80 55 45 56
REMARK SMILES IDX 46 57 60 59 81 60 48 61 32 62 33 63 41 64 34 65 36 66 42 67
REMARK SMILES IDX 35 68 37 69 38 70 39 71 40 72 64 73 65 74 73 75 66 76 68 77
REMARK SMILES IDX 74 78 67 79 69 80 70 81 71 82 72 83 49 84 50 85 58 86 51 87
REMARK SMILES IDX 53 88 59 89 52 90 54 91 55 92 56 93 57 94
REMARK H PARENT 16 6 9 13 20 28 79 47 47 58
REMARK Flexibility Score: inf
ROOT
ATOM      1  C   UNL A   1      37.083  22.294  24.717  1.00  0.00     0.042 C 
ENDROOT
BRANCH   1   2
ATOM      2  C   UNL A   1      36.055  21.436  25.418  1.00  0.00     0.117 C 
BRANCH   2   3
ATOM      3  N   UNL A   1      34.761  21.552  24.757  1.00  0.00    -0.356 N 
ATOM      4  C   UNL A   1      33.727  22.420  24.924  1.00  0.00     0.226 C 
ATOM      5  O   UNL A   1      32.694  22.203  24.280  1.00  0.00    -0.274 OA
ATOM      6  H   UNL A   1      34.605  20.873  24.060  1.00  0.00     0.163 HD
BRANCH   4   7
ATOM      7  C   UNL A   1      33.754  23.593  25.917  1.00  0.00     0.103 C 
ATOM      8  C   UNL A   1      33.670  26.048  25.538  1.00  0.00     0.093 C 
ATOM      9  C   UNL A   1      32.386  25.495  26.082  1.00  0.00    -0.011 C 
ATOM     10  C   UNL A   1      34.538  24.794  25.370  1.00  0.00     0.042 C 
ATOM     11  C   UNL A   1      32.445  24.179  26.321  1.00  0.00    -0.016 C 
BRANCH   8  12
ATOM     12  N   UNL A   1      33.402  26.717  24.265  1.00  0.00    -0.204 NA
ATOM     13  H   UNL A   1      34.174  26.479  23.641  1.00  0.00     0.142 HD
BRANCH  12  14
ATOM     14  S   UNL A   1      33.230  28.401  24.203  1.00  0.00     0.241 S 
ATOM     15  O   UNL A   1      33.933  28.879  23.040  1.00  0.00    -0.207 OA
ATOM     16  O   UNL A   1      33.545  28.875  25.538  1.00  0.00    -0.207 OA
BRANCH  14  17
ATOM     17  C   UNL A   1      31.498  28.697  23.961  1.00  0.00     0.085 A 
ATOM     18  C   UNL A   1      27.481  29.485  22.646  1.00  0.00     0.047 C 
ATOM     19  C   UNL A   1      28.863  29.203  23.151  1.00  0.00    -0.015 A 
ATOM     20  C   UNL A   1      29.407  27.930  23.003  1.00  0.00     0.008 A 
ATOM     21  C   UNL A   1      29.621  30.182  23.807  1.00  0.00     0.127 A 
ATOM     22  C   UNL A   1      30.700  27.683  23.451  1.00  0.00     0.022 A 
ATOM     23  C   UNL A   1      30.945  29.952  24.191  1.00  0.00     0.061 A 
ATOM     24  F   UNL A   1      29.081  31.384  24.048  1.00  0.00    -0.207 F 
ENDBRANCH  14  17
ENDBRANCH  12  14
ENDBRANCH   8  12
ENDBRANCH   4   7
ENDBRANCH   2   3
ENDBRANCH   1   2
BRANCH   1  25
ATOM     25  C   UNL A   1      37.892  23.096  25.689  1.00  0.00     0.118 C 
BRANCH  25  26
ATOM     26  N   UNL A   1      39.132  22.446  26.094  1.00  0.00    -0.352 N 
ATOM     27  C   UNL A   1      40.300  23.048  26.521  1.00  0.00     0.251 C 
ATOM     28  H   UNL A   1      39.136  21.462  26.061  1.00  0.00     0.163 HD
ATOM     29  O   UNL A   1      41.369  22.444  26.518  1.00  0.00    -0.269 OA
BRANCH  27  30
ATOM     30  C   UNL A   1      40.236  24.442  26.998  1.00  0.00     0.039 A 
ATOM     31  C   UNL A   1      40.643  25.531  26.219  1.00  0.00     0.014 A 
ATOM     32  C   UNL A   1      39.838  24.646  28.314  1.00  0.00     0.014 A 
ATOM     33  C   UNL A   1      40.681  26.792  26.808  1.00  0.00     0.010 A 
ATOM     34  C   UNL A   1      39.537  25.881  28.758  1.00  0.00     0.010 A 
ATOM     35  C   UNL A   1      40.150  26.925  28.091  1.00  0.00    -0.014 A 
BRANCH  35  36
ATOM     36  C   UNL A   1      40.282  28.062  28.971  1.00  0.00     0.031 A 
ATOM     37  C   UNL A   1      39.313  29.138  28.835  1.00  0.00     0.074 A 
ATOM     38  C   UNL A   1      41.140  27.867  30.002  1.00  0.00     0.049 A 
ATOM     39  N   UNL A   1      39.540  30.359  29.138  1.00  0.00    -0.248 NA
ATOM     40  C   UNL A   1      37.980  28.922  28.272  1.00  0.00     0.031 C 
ATOM     41  C   UNL A   1      41.289  28.541  31.279  1.00  0.00     0.029 A 
ATOM     42  N   UNL A   1      42.180  26.931  30.014  1.00  0.00    -0.354 N 
ATOM     43  C   UNL A   1      38.307  30.961  29.234  1.00  0.00     0.074 A 
ATOM     44  C   UNL A   1      37.408  30.111  28.491  1.00  0.00     0.031 C 
ATOM     45  C   UNL A   1      42.502  28.238  31.789  1.00  0.00     0.029 A 
ATOM     46  C   UNL A   1      43.215  27.433  30.803  1.00  0.00     0.049 A 
ATOM     47  H   UNL A   1      42.181  26.065  29.546  1.00  0.00     0.167 HD
ATOM     48  C   UNL A   1      38.148  31.968  30.141  1.00  0.00     0.034 A 
ATOM     49  C   UNL A   1      44.371  27.775  30.153  1.00  0.00     0.034 A 
ATOM     50  C   UNL A   1      39.396  32.153  30.882  1.00  0.00     0.049 A 
ATOM     51  C   UNL A   1      44.464  29.282  30.073  1.00  0.00     0.074 A 
ATOM     52  C   UNL A   1      39.808  31.706  32.127  1.00  0.00     0.029 A 
ATOM     53  N   UNL A   1      40.549  32.507  30.194  1.00  0.00    -0.354 N 
ATOM     54  N   UNL A   1      43.426  30.079  30.079  1.00  0.00    -0.248 NA
ATOM     55  C   UNL A   1      45.729  30.006  30.085  1.00  0.00     0.031 C 
ATOM     56  C   UNL A   1      41.230  31.703  32.142  1.00  0.00     0.029 A 
ATOM     57  C   UNL A   1      41.677  32.146  30.907  1.00  0.00     0.049 A 
ATOM     58  H   UNL A   1      40.562  32.952  29.316  1.00  0.00     0.167 HD
ATOM     59  C   UNL A   1      43.851  31.374  30.203  1.00  0.00     0.074 A 
ATOM     60  C   UNL A   1      45.300  31.277  30.169  1.00  0.00     0.031 C 
ATOM     61  C   UNL A   1      42.999  32.429  30.365  1.00  0.00     0.034 A 
BRANCH  48  62
ATOM     62  C   UNL A   1      36.818  32.545  30.567  1.00  0.00     0.023 A 
ATOM     63  C   UNL A   1      36.331  32.452  31.889  1.00  0.00     0.012 A 
ATOM     64  C   UNL A   1      35.974  33.200  29.643  1.00  0.00     0.148 A 
ATOM     65  C   UNL A   1      35.127  33.047  32.294  1.00  0.00     0.002 A 
ATOM     66  C   UNL A   1      34.760  33.764  30.039  1.00  0.00     0.091 A 
ATOM     67  F   UNL A   1      36.325  33.287  28.354  1.00  0.00    -0.205 F 
ATOM     68  C   UNL A   1      34.336  33.705  31.365  1.00  0.00     0.022 A 
BRANCH  66  69
ATOM     69  S   UNL A   1      33.728  34.552  28.799  1.00  0.00     0.127 S 
ATOM     70  O   UNL A   1      34.583  35.626  28.302  1.00  0.00    -0.237 OA
ATOM     71  O   UNL A   1      33.431  33.464  27.875  1.00  0.00    -0.237 OA
ATOM     72  O   UNL A   1      32.572  35.012  29.572  1.00  0.00    -0.744 OA
ENDBRANCH  66  69
ENDBRANCH  48  62
BRANCH  49  73
ATOM     73  C   UNL A   1      44.690  26.777  29.063  1.00  0.00     0.023 A 
ATOM     74  C   UNL A   1      45.606  25.730  29.279  1.00  0.00     0.012 A 
ATOM     75  C   UNL A   1      44.496  27.228  27.731  1.00  0.00     0.148 A 
ATOM     76  C   UNL A   1      46.395  25.251  28.218  1.00  0.00     0.002 A 
ATOM     77  C   UNL A   1      45.355  26.821  26.708  1.00  0.00     0.091 A 
ATOM     78  F   UNL A   1      43.562  28.167  27.506  1.00  0.00    -0.205 F 
ATOM     79  C   UNL A   1      46.310  25.832  26.948  1.00  0.00     0.022 A 
BRANCH  77  80
ATOM     80  S   UNL A   1      45.451  27.797  25.193  1.00  0.00     0.127 S 
ATOM     81  O   UNL A   1      45.955  29.080  25.669  1.00  0.00    -0.237 OA
ATOM     82  O   UNL A   1      46.346  27.026  24.333  1.00  0.00    -0.237 OA
ATOM     83  O   UNL A   1      44.070  27.819  24.701  1.00  0.00    -0.744 OA
ENDBRANCH  77  80
ENDBRANCH  49  73
BRANCH  61  84
ATOM     84  C   UNL A   1      43.350  33.876  30.129  1.00  0.00     0.023 A 
ATOM     85  C   UNL A   1      43.530  34.724  31.253  1.00  0.00     0.012 A 
ATOM     86  C   UNL A   1      43.381  34.486  28.872  1.00  0.00     0.148 A 
ATOM     87  C   UNL A   1      43.701  36.103  31.134  1.00  0.00     0.002 A 
ATOM     88  C   UNL A   1      43.701  35.835  28.751  1.00  0.00     0.091 A 
ATOM     89  F   UNL A   1      43.042  33.801  27.772  1.00  0.00    -0.205 F 
ATOM     90  C   UNL A   1      43.819  36.659  29.872  1.00  0.00     0.022 A 
BRANCH  88  91
ATOM     91  S   UNL A   1      44.127  36.447  27.124  1.00  0.00     0.127 S 
ATOM     92  O   UNL A   1      44.441  37.849  27.394  1.00  0.00    -0.237 OA
ATOM     93  O   UNL A   1      45.242  35.600  26.719  1.00  0.00    -0.237 OA
ATOM     94  O   UNL A   1      42.900  36.242  26.355  1.00  0.00    -0.744 OA
ENDBRANCH  88  91
ENDBRANCH  61  84
ENDBRANCH  35  36
ENDBRANCH  27  30
ENDBRANCH  25  26
ENDBRANCH   1  25
TORSDOF 16
ENDMDL
MODEL 3
REMARK VINA RESULT:     -12.6      4.261      9.451
REMARK SMILES Cc1ccc(S(=O)(=O)N[C@H]2C=C[C@@H](C(=O)NCCCNC(=O)c3ccc(-c4c5nc(c(-c6cccc(S(=O)(=O)[O-])c6F)c6ccc([nH]6)c(-c6cccc(S(=O)(=O)[O-])c6F)c6nc(c(-c7cccc(S(=O)(=O)[O-])c7F)c7ccc4[nH]7)C=C6)C=C5)cc3)C2)cc1F
REMARK SMILES IDX 18 1 17 2 16 3 14 4 15 5 13 7 10 8 11 9 86 10 12 11 9 12
REMARK SMILES IDX 6 14 7 15 8 16 5 17 1 18 2 19 3 20 88 21 4 22 87 23 89 24
REMARK SMILES IDX 19 25 20 26 21 27 22 29 23 30 24 31 85 32 25 33 84 34 26 35
REMARK SMILES IDX 27 36 28 37 78 38 29 39 83 40 77 41 79 42 30 43 82 44 76 45
REMARK SMILES IDX 75 46 31 48 63 49 43 50 62 51 44 52 47 53 61 54 80 55 45 56
REMARK SMILES IDX 46 57 60 59 81 60 48 61 32 62 33 63 41 64 34 65 36 66 42 67
REMARK SMILES IDX 35 68 37 69 38 70 39 71 40 72 64 73 65 74 73 75 66 76 68 77
REMARK SMILES IDX 74 78 67 79 69 80 70 81 71 82 72 83 49 84 50 85 58 86 51 87
REMARK SMILES IDX 53 88 59 89 52 90 54 91 55 92 56 93 57 94
REMARK H PARENT 16 6 9 13 20 28 79 47 47 58
REMARK Flexibility Score: inf
ROOT
ATOM      1  C   UNL A   1      33.664  29.159  26.003  1.00  0.00     0.042 C 
ENDROOT
BRANCH   1   2
ATOM      2  C   UNL A   1      32.209  29.169  25.592  1.00  0.00     0.117 C 
BRANCH   2   3
ATOM      3  N   UNL A   1      31.488  28.088  26.250  1.00  0.00    -0.356 N 
ATOM      4  C   UNL A   1      31.146  26.837  25.839  1.00  0.00     0.226 C 
ATOM      5  O   UNL A   1      30.427  26.169  26.591  1.00  0.00    -0.274 OA
ATOM      6  H   UNL A   1      31.191  28.303  27.164  1.00  0.00     0.163 HD
BRANCH   4   7
ATOM      7  C   UNL A   1      31.538  26.255  24.472  1.00  0.00     0.103 C 
ATOM      8  C   UNL A   1      32.567  24.075  23.866  1.00  0.00     0.093 C 
ATOM      9  C   UNL A   1      31.110  24.152  23.520  1.00  0.00    -0.011 C 
ATOM     10  C   UNL A   1      32.827  25.426  24.547  1.00  0.00     0.042 C 
ATOM     11  C   UNL A   1      30.566  25.339  23.811  1.00  0.00    -0.016 C 
BRANCH   8  12
ATOM     12  N   UNL A   1      32.788  22.944  24.767  1.00  0.00    -0.204 NA
ATOM     13  H   UNL A   1      32.413  23.216  25.676  1.00  0.00     0.142 HD
BRANCH  12  14
ATOM     14  S   UNL A   1      34.355  22.363  25.042  1.00  0.00     0.241 S 
ATOM     15  O   UNL A   1      34.716  22.678  26.401  1.00  0.00    -0.207 OA
ATOM     16  O   UNL A   1      35.145  22.820  23.913  1.00  0.00    -0.207 OA
BRANCH  14  17
ATOM     17  C   UNL A   1      34.244  20.598  24.896  1.00  0.00     0.085 A 
ATOM     18  C   UNL A   1      34.185  16.435  23.829  1.00  0.00     0.047 C 
ATOM     19  C   UNL A   1      34.195  17.872  24.248  1.00  0.00    -0.015 A 
ATOM     20  C   UNL A   1      35.403  18.500  24.539  1.00  0.00     0.008 A 
ATOM     21  C   UNL A   1      33.009  18.605  24.394  1.00  0.00     0.127 A 
ATOM     22  C   UNL A   1      35.407  19.841  24.902  1.00  0.00     0.022 A 
ATOM     23  C   UNL A   1      33.020  19.971  24.689  1.00  0.00     0.061 A 
ATOM     24  F   UNL A   1      31.829  17.996  24.217  1.00  0.00    -0.207 F 
ENDBRANCH  14  17
ENDBRANCH  12  14
ENDBRANCH   8  12
ENDBRANCH   4   7
ENDBRANCH   2   3
ENDBRANCH   1   2
BRANCH   1  25
ATOM     25  C   UNL A   1      33.828  29.411  27.470  1.00  0.00     0.118 C 
BRANCH  25  26
ATOM     26  N   UNL A   1      34.128  30.799  27.794  1.00  0.00    -0.352 N 
ATOM     27  C   UNL A   1      35.179  31.281  28.552  1.00  0.00     0.251 C 
ATOM     28  H   UNL A   1      33.510  31.474  27.430  1.00  0.00     0.163 HD
ATOM     29  O   UNL A   1      35.156  32.409  29.034  1.00  0.00    -0.269 OA
BRANCH  27  30
ATOM     30  C   UNL A   1      36.350  30.407  28.761  1.00  0.00     0.039 A 
ATOM     31  C   UNL A   1      36.551  29.677  29.938  1.00  0.00     0.014 A 
ATOM     32  C   UNL A   1      37.322  30.400  27.769  1.00  0.00     0.014 A 
ATOM     33  C   UNL A   1      37.756  28.997  30.099  1.00  0.00     0.010 A 
ATOM     34  C   UNL A   1      38.300  29.473  27.771  1.00  0.00     0.010 A 
ATOM     35  C   UNL A   1      38.621  28.943  29.006  1.00  0.00    -0.014 A 
BRANCH  35  36
ATOM     36  C   UNL A   1      39.995  28.496  29.009  1.00  0.00     0.031 A 
ATOM     37  C   UNL A   1      40.249  27.092  28.728  1.00  0.00     0.074 A 
ATOM     38  C   UNL A   1      40.903  29.503  29.011  1.00  0.00     0.049 A 
ATOM     39  N   UNL A   1      41.265  26.442  29.154  1.00  0.00    -0.248 NA
ATOM     40  C   UNL A   1      39.315  26.266  27.964  1.00  0.00     0.031 C 
ATOM     41  C   UNL A   1      42.306  29.541  28.644  1.00  0.00     0.029 A 
ATOM     42  N   UNL A   1      40.657  30.804  29.463  1.00  0.00    -0.354 N 
ATOM     43  C   UNL A   1      41.339  25.307  28.380  1.00  0.00     0.074 A 
ATOM     44  C   UNL A   1      40.019  25.137  27.823  1.00  0.00     0.031 C 
ATOM     45  C   UNL A   1      42.860  30.656  29.168  1.00  0.00     0.029 A 
ATOM     46  C   UNL A   1      41.845  31.324  29.977  1.00  0.00     0.049 A 
ATOM     47  H   UNL A   1      39.793  31.273  29.426  1.00  0.00     0.167 HD
ATOM     48  C   UNL A   1      42.572  24.793  28.104  1.00  0.00     0.034 A 
ATOM     49  C   UNL A   1      41.890  31.534  31.329  1.00  0.00     0.034 A 
ATOM     50  C   UNL A   1      43.599  25.653  28.694  1.00  0.00     0.049 A 
ATOM     51  C   UNL A   1      42.746  30.463  31.967  1.00  0.00     0.074 A 
ATOM     52  C   UNL A   1      44.392  26.652  28.153  1.00  0.00     0.029 A 
ATOM     53  N   UNL A   1      43.619  25.840  30.070  1.00  0.00    -0.354 N 
ATOM     54  N   UNL A   1      42.924  29.271  31.458  1.00  0.00    -0.248 NA
ATOM     55  C   UNL A   1      43.545  30.690  33.164  1.00  0.00     0.031 C 
ATOM     56  C   UNL A   1      44.809  27.502  29.216  1.00  0.00     0.029 A 
ATOM     57  C   UNL A   1      44.268  27.016  30.395  1.00  0.00     0.049 A 
ATOM     58  H   UNL A   1      43.224  25.221  30.724  1.00  0.00     0.167 HD
ATOM     59  C   UNL A   1      43.904  28.622  32.159  1.00  0.00     0.074 A 
ATOM     60  C   UNL A   1      44.237  29.539  33.236  1.00  0.00     0.031 C 
ATOM     61  C   UNL A   1      44.406  27.406  31.793  1.00  0.00     0.034 A 
BRANCH  48  62
ATOM     62  C   UNL A   1      42.854  23.733  27.064  1.00  0.00     0.023 A 
ATOM     63  C   UNL A   1      43.674  23.963  25.938  1.00  0.00     0.012 A 
ATOM     64  C   UNL A   1      42.282  22.444  27.160  1.00  0.00     0.148 A 
ATOM     65  C   UNL A   1      43.984  22.956  25.012  1.00  0.00     0.002 A 
ATOM     66  C   UNL A   1      42.566  21.452  26.220  1.00  0.00     0.091 A 
ATOM     67  F   UNL A   1      41.446  22.151  28.163  1.00  0.00    -0.205 F 
ATOM     68  C   UNL A   1      43.428  21.694  25.152  1.00  0.00     0.022 A 
BRANCH  66  69
ATOM     69  S   UNL A   1      41.777  19.849  26.393  1.00  0.00     0.127 S 
ATOM     70  O   UNL A   1      40.356  20.181  26.357  1.00  0.00    -0.237 OA
ATOM     71  O   UNL A   1      42.308  19.095  25.262  1.00  0.00    -0.237 OA
ATOM     72  O   UNL A   1      42.253  19.383  27.698  1.00  0.00    -0.744 OA
ENDBRANCH  66  69
ENDBRANCH  48  62
BRANCH  49  73
ATOM     73  C   UNL A   1      40.569  32.073  31.831  1.00  0.00     0.023 A 
ATOM     74  C   UNL A   1      40.364  33.455  32.001  1.00  0.00     0.012 A 
ATOM     75  C   UNL A   1      39.794  31.183  32.620  1.00  0.00     0.148 A 
ATOM     76  C   UNL A   1      39.513  33.924  33.019  1.00  0.00     0.002 A 
ATOM     77  C   UNL A   1      39.036  31.656  33.693  1.00  0.00     0.091 A 
ATOM     78  F   UNL A   1      39.923  29.863  32.404  1.00  0.00    -0.205 F 
ATOM     79  C   UNL A   1      38.894  33.030  33.899  1.00  0.00     0.022 A 
BRANCH  77  80
ATOM     80  S   UNL A   1      38.524  30.509  34.990  1.00  0.00     0.127 S 
ATOM     81  O   UNL A   1      37.760  31.364  35.891  1.00  0.00    -0.237 OA
ATOM     82  O   UNL A   1      37.773  29.481  34.275  1.00  0.00    -0.237 OA
ATOM     83  O   UNL A   1      39.790  30.011  35.537  1.00  0.00    -0.744 OA
ENDBRANCH  77  80
ENDBRANCH  49  73
BRANCH  61  84
ATOM     84  C   UNL A   1      45.183  26.479  32.692  1.00  0.00     0.023 A 
ATOM     85  C   UNL A   1      46.580  26.338  32.478  1.00  0.00     0.012 A 
ATOM     86  C   UNL A   1      44.606  25.634  33.644  1.00  0.00     0.148 A 
ATOM     87  C   UNL A   1      47.351  25.392  33.153  1.00  0.00     0.002 A 
ATOM     88  C   UNL A   1      45.403  24.798  34.419  1.00  0.00     0.091 A 
ATOM     89  F   UNL A   1      43.276  25.568  33.780  1.00  0.00    -0.205 F 
ATOM     90  C   UNL A   1      46.764  24.637  34.153  1.00  0.00     0.022 A 
BRANCH  88  91
ATOM     91  S   UNL A   1      44.669  24.064  35.877  1.00  0.00     0.127 S 
ATOM     92  O   UNL A   1      43.813  23.027  35.304  1.00  0.00    -0.237 OA
ATOM     93  O   UNL A   1      45.819  23.603  36.646  1.00  0.00    -0.237 OA
ATOM     94  O   UNL A   1      43.940  25.178  36.485  1.00  0.00    -0.744 OA
ENDBRANCH  88  91
ENDBRANCH  61  84
ENDBRANCH  35  36
ENDBRANCH  27  30
ENDBRANCH  25  26
ENDBRANCH   1  25
TORSDOF 16
ENDMDL
