MODEL 1
REMARK VINA RESULT:     -11.1      0.000      0.000
REMARK SMILES C[C@@H]([NH+]1CCC(CCC(=O)NCCCNC(=O)c2ccc(-c3c4nc(c(-c5cccc(S(=O)(=O)[O-])c5F)c5ccc([nH]5)c(-c5cccc(S(=O)(=O)[O-])c5F)c5nc(c(-c6cccc(S(=O)(=O)[O-])c6F)c6ccc3[nH]6)C=C5)C=C4)cc2)CC1)C1(C)CC1
REMARK SMILES IDX 12 1 11 2 9 3 10 4 8 6 7 7 6 8 3 9 4 10 82 11 5 13 81 14
REMARK SMILES IDX 2 15 1 16 83 17 84 18 85 19 86 20 13 21 14 22 15 23 16 24
REMARK SMILES IDX 17 26 18 27 19 28 80 29 20 30 79 31 21 32 22 33 23 34 73 35
REMARK SMILES IDX 24 36 78 37 72 38 74 39 25 40 77 41 71 42 70 43 26 45 58 46
REMARK SMILES IDX 38 47 57 48 39 49 42 50 56 51 75 52 40 53 41 54 55 56 76 57
REMARK SMILES IDX 43 58 27 59 28 60 36 61 29 62 31 63 37 64 30 65 32 66 33 67
REMARK SMILES IDX 34 68 35 69 59 70 60 71 68 72 61 73 63 74 69 75 62 76 64 77
REMARK SMILES IDX 65 78 66 79 67 80 44 81 45 82 53 83 46 84 48 85 54 86 47 87
REMARK SMILES IDX 49 88 50 89 51 90 52 91
REMARK H PARENT 11 5 3 12 15 25 74 44 42 55
REMARK Flexibility Score: inf
ROOT
ATOM      1  C   UNL A   1      31.551  29.246  24.949  1.00  0.00     0.117 C 
ENDROOT
BRANCH   1   2
ATOM      2  N   UNL A   1      30.920  29.691  23.717  1.00  0.00    -0.356 N 
ATOM      3  C   UNL A   1      30.365  28.982  22.693  1.00  0.00     0.220 C 
ATOM      4  O   UNL A   1      29.960  29.612  21.713  1.00  0.00    -0.275 OA
ATOM      5  H   UNL A   1      30.888  30.668  23.603  1.00  0.00     0.163 HD
BRANCH   3   6
ATOM      6  C   UNL A   1      30.193  27.473  22.765  1.00  0.00     0.100 C 
BRANCH   6   7
ATOM      7  C   UNL A   1      31.300  26.655  22.084  1.00  0.00     0.014 C 
BRANCH   7   8
ATOM      8  C   UNL A   1      32.099  25.747  23.027  1.00  0.00     0.000 C 
ATOM      9  N   UNL A   1      33.839  23.665  24.099  1.00  0.00    -0.332 N 
ATOM     10  C   UNL A   1      32.394  23.505  24.085  1.00  0.00     0.262 C 
ATOM     11  C   UNL A   1      34.358  25.022  23.879  1.00  0.00     0.262 C 
ATOM     12  H   UNL A   1      34.099  23.180  23.241  1.00  0.00     0.348 HD
ATOM     13  C   UNL A   1      31.731  24.266  22.935  1.00  0.00     0.065 C 
ATOM     14  C   UNL A   1      33.614  25.839  22.810  1.00  0.00     0.065 C 
BRANCH   9  15
ATOM     15  C   UNL A   1      34.527  22.946  25.192  1.00  0.00     0.186 C 
ATOM     16  C   UNL A   1      34.090  23.561  26.534  1.00  0.00     0.076 C 
BRANCH  15  17
ATOM     17  C   UNL A   1      36.068  22.811  25.088  1.00  0.00     0.019 C 
ATOM     18  C   UNL A   1      36.908  23.777  25.903  1.00  0.00     0.018 C 
ATOM     19  C   UNL A   1      36.583  21.384  25.060  1.00  0.00     0.013 C 
ATOM     20  C   UNL A   1      36.769  22.249  23.859  1.00  0.00     0.013 C 
ENDBRANCH  15  17
ENDBRANCH   9  15
ENDBRANCH   7   8
ENDBRANCH   6   7
ENDBRANCH   3   6
ENDBRANCH   1   2
BRANCH   1  21
ATOM     21  C   UNL A   1      33.048  29.004  24.756  1.00  0.00     0.042 C 
BRANCH  21  22
ATOM     22  C   UNL A   1      33.885  29.032  26.029  1.00  0.00     0.118 C 
BRANCH  22  23
ATOM     23  N   UNL A   1      33.826  30.314  26.719  1.00  0.00    -0.352 N 
ATOM     24  C   UNL A   1      34.622  30.883  27.691  1.00  0.00     0.251 C 
ATOM     25  H   UNL A   1      33.074  30.883  26.437  1.00  0.00     0.163 HD
ATOM     26  O   UNL A   1      34.242  31.934  28.201  1.00  0.00    -0.269 OA
BRANCH  24  27
ATOM     27  C   UNL A   1      35.889  30.261  28.172  1.00  0.00     0.039 A 
ATOM     28  C   UNL A   1      37.020  30.336  27.343  1.00  0.00     0.014 A 
ATOM     29  C   UNL A   1      35.992  29.585  29.387  1.00  0.00     0.014 A 
ATOM     30  C   UNL A   1      38.253  29.814  27.763  1.00  0.00     0.010 A 
ATOM     31  C   UNL A   1      37.233  29.120  29.834  1.00  0.00     0.010 A 
ATOM     32  C   UNL A   1      38.376  29.226  29.028  1.00  0.00    -0.014 A 
BRANCH  32  33
ATOM     33  C   UNL A   1      39.671  28.683  29.526  1.00  0.00     0.031 A 
ATOM     34  C   UNL A   1      40.414  29.404  30.613  1.00  0.00     0.074 A 
ATOM     35  C   UNL A   1      40.235  27.608  28.941  1.00  0.00     0.049 A 
ATOM     36  N   UNL A   1      41.605  29.164  31.095  1.00  0.00    -0.248 NA
ATOM     37  C   UNL A   1      39.736  30.559  31.222  1.00  0.00     0.031 C 
ATOM     38  C   UNL A   1      39.643  26.853  27.844  1.00  0.00     0.029 A 
ATOM     39  N   UNL A   1      41.444  26.988  29.151  1.00  0.00    -0.354 N 
ATOM     40  C   UNL A   1      41.838  30.158  32.035  1.00  0.00     0.074 A 
ATOM     41  C   UNL A   1      40.673  31.017  32.041  1.00  0.00     0.031 C 
ATOM     42  C   UNL A   1      40.485  25.881  27.460  1.00  0.00     0.029 A 
ATOM     43  C   UNL A   1      41.702  25.967  28.262  1.00  0.00     0.049 A 
ATOM     44  H   UNL A   1      42.066  27.247  29.868  1.00  0.00     0.167 HD
ATOM     45  C   UNL A   1      42.913  30.327  32.840  1.00  0.00     0.034 A 
ATOM     46  C   UNL A   1      42.800  25.205  28.091  1.00  0.00     0.034 A 
ATOM     47  C   UNL A   1      44.054  29.453  32.864  1.00  0.00     0.049 A 
ATOM     48  C   UNL A   1      43.983  25.416  28.997  1.00  0.00     0.074 A 
ATOM     49  C   UNL A   1      45.148  29.491  33.708  1.00  0.00     0.029 A 
ATOM     50  N   UNL A   1      44.253  28.388  31.998  1.00  0.00    -0.354 N 
ATOM     51  N   UNL A   1      44.121  26.265  29.985  1.00  0.00    -0.248 NA
ATOM     52  C   UNL A   1      45.152  24.550  28.780  1.00  0.00     0.031 C 
ATOM     53  C   UNL A   1      46.020  28.460  33.341  1.00  0.00     0.029 A 
ATOM     54  C   UNL A   1      45.461  27.771  32.277  1.00  0.00     0.049 A 
ATOM     55  H   UNL A   1      43.629  28.112  31.289  1.00  0.00     0.167 HD
ATOM     56  C   UNL A   1      45.377  26.018  30.528  1.00  0.00     0.074 A 
ATOM     57  C   UNL A   1      45.952  24.924  29.772  1.00  0.00     0.031 C 
ATOM     58  C   UNL A   1      46.004  26.652  31.549  1.00  0.00     0.034 A 
BRANCH  45  59
ATOM     59  C   UNL A   1      42.877  31.480  33.803  1.00  0.00     0.023 A 
ATOM     60  C   UNL A   1      43.354  32.740  33.389  1.00  0.00     0.012 A 
ATOM     61  C   UNL A   1      42.344  31.332  35.098  1.00  0.00     0.148 A 
ATOM     62  C   UNL A   1      43.331  33.829  34.259  1.00  0.00     0.002 A 
ATOM     63  C   UNL A   1      42.289  32.431  35.946  1.00  0.00     0.091 A 
ATOM     64  F   UNL A   1      41.921  30.118  35.481  1.00  0.00    -0.205 F 
ATOM     65  C   UNL A   1      42.791  33.676  35.532  1.00  0.00     0.022 A 
BRANCH  63  66
ATOM     66  S   UNL A   1      41.556  32.353  37.583  1.00  0.00     0.127 S 
ATOM     67  O   UNL A   1      40.194  31.925  37.278  1.00  0.00    -0.237 OA
ATOM     68  O   UNL A   1      42.381  31.342  38.245  1.00  0.00    -0.237 OA
ATOM     69  O   UNL A   1      41.683  33.695  38.141  1.00  0.00    -0.744 OA
ENDBRANCH  63  66
ENDBRANCH  45  59
BRANCH  46  70
ATOM     70  C   UNL A   1      42.819  24.139  27.047  1.00  0.00     0.023 A 
ATOM     71  C   UNL A   1      43.524  24.362  25.849  1.00  0.00     0.012 A 
ATOM     72  C   UNL A   1      42.169  22.905  27.241  1.00  0.00     0.148 A 
ATOM     73  C   UNL A   1      43.560  23.387  24.852  1.00  0.00     0.002 A 
ATOM     74  C   UNL A   1      42.253  21.917  26.265  1.00  0.00     0.091 A 
ATOM     75  F   UNL A   1      41.485  22.717  28.378  1.00  0.00    -0.205 F 
ATOM     76  C   UNL A   1      42.935  22.161  25.063  1.00  0.00     0.022 A 
BRANCH  74  77
ATOM     77  S   UNL A   1      41.585  20.267  26.511  1.00  0.00     0.127 S 
ATOM     78  O   UNL A   1      42.140  19.908  27.810  1.00  0.00    -0.237 OA
ATOM     79  O   UNL A   1      40.144  20.516  26.500  1.00  0.00    -0.237 OA
ATOM     80  O   UNL A   1      42.062  19.484  25.374  1.00  0.00    -0.744 OA
ENDBRANCH  74  77
ENDBRANCH  46  70
BRANCH  58  81
ATOM     81  C   UNL A   1      47.379  26.174  31.929  1.00  0.00     0.023 A 
ATOM     82  C   UNL A   1      48.504  26.686  31.253  1.00  0.00     0.012 A 
ATOM     83  C   UNL A   1      47.564  25.284  33.005  1.00  0.00     0.148 A 
ATOM     84  C   UNL A   1      49.791  26.303  31.626  1.00  0.00     0.002 A 
ATOM     85  C   UNL A   1      48.852  24.940  33.400  1.00  0.00     0.091 A 
ATOM     86  F   UNL A   1      46.481  24.792  33.622  1.00  0.00    -0.205 F 
ATOM     87  C   UNL A   1      49.965  25.441  32.706  1.00  0.00     0.022 A 
BRANCH  85  88
ATOM     88  S   UNL A   1      49.176  23.908  34.836  1.00  0.00     0.127 S 
ATOM     89  O   UNL A   1      48.543  22.650  34.447  1.00  0.00    -0.237 OA
ATOM     90  O   UNL A   1      50.638  23.872  34.870  1.00  0.00    -0.237 OA
ATOM     91  O   UNL A   1      48.564  24.594  35.966  1.00  0.00    -0.744 OA
ENDBRANCH  85  88
ENDBRANCH  58  81
ENDBRANCH  32  33
ENDBRANCH  24  27
ENDBRANCH  22  23
ENDBRANCH  21  22
ENDBRANCH   1  21
TORSDOF 17
ENDMDL
MODEL 2
REMARK VINA RESULT:     -10.7      5.450      8.630
REMARK SMILES C[C@@H]([NH+]1CCC(CCC(=O)NCCCNC(=O)c2ccc(-c3c4nc(c(-c5cccc(S(=O)(=O)[O-])c5F)c5ccc([nH]5)c(-c5cccc(S(=O)(=O)[O-])c5F)c5nc(c(-c6cccc(S(=O)(=O)[O-])c6F)c6ccc3[nH]6)C=C5)C=C4)cc2)CC1)C1(C)CC1
REMARK SMILES IDX 12 1 11 2 9 3 10 4 8 6 7 7 6 8 3 9 4 10 82 11 5 13 81 14
REMARK SMILES IDX 2 15 1 16 83 17 84 18 85 19 86 20 13 21 14 22 15 23 16 24
REMARK SMILES IDX 17 26 18 27 19 28 80 29 20 30 79 31 21 32 22 33 23 34 73 35
REMARK SMILES IDX 24 36 78 37 72 38 74 39 25 40 77 41 71 42 70 43 26 45 58 46
REMARK SMILES IDX 38 47 57 48 39 49 42 50 56 51 75 52 40 53 41 54 55 56 76 57
REMARK SMILES IDX 43 58 27 59 28 60 36 61 29 62 31 63 37 64 30 65 32 66 33 67
REMARK SMILES IDX 34 68 35 69 59 70 60 71 68 72 61 73 63 74 69 75 62 76 64 77
REMARK SMILES IDX 65 78 66 79 67 80 44 81 45 82 53 83 46 84 48 85 54 86 47 87
REMARK SMILES IDX 49 88 50 89 51 90 52 91
REMARK H PARENT 11 5 3 12 15 25 74 44 42 55
REMARK Flexibility Score: inf
ROOT
ATOM      1  C   UNL A   1      36.793  20.754  24.645  1.00  0.00     0.117 C 
ENDROOT
BRANCH   1   2
ATOM      2  N   UNL A   1      35.633  20.621  25.511  1.00  0.00    -0.356 N 
ATOM      3  C   UNL A   1      34.612  21.487  25.773  1.00  0.00     0.220 C 
ATOM      4  O   UNL A   1      33.780  21.152  26.619  1.00  0.00    -0.275 OA
ATOM      5  H   UNL A   1      35.574  19.762  25.988  1.00  0.00     0.163 HD
BRANCH   3   6
ATOM      6  C   UNL A   1      34.459  22.796  25.016  1.00  0.00     0.100 C 
BRANCH   6   7
ATOM      7  C   UNL A   1      34.989  24.039  25.746  1.00  0.00     0.014 C 
BRANCH   7   8
ATOM      8  C   UNL A   1      34.249  25.341  25.416  1.00  0.00     0.000 C 
ATOM      9  N   UNL A   1      32.283  27.282  24.477  1.00  0.00    -0.332 N 
ATOM     10  C   UNL A   1      33.467  26.970  23.694  1.00  0.00     0.262 C 
ATOM     11  C   UNL A   1      32.287  26.853  25.883  1.00  0.00     0.262 C 
ATOM     12  H   UNL A   1      31.597  26.660  24.052  1.00  0.00     0.348 HD
ATOM     13  C   UNL A   1      33.967  25.544  23.927  1.00  0.00     0.065 C 
ATOM     14  C   UNL A   1      32.905  25.469  26.141  1.00  0.00     0.065 C 
BRANCH   9  15
ATOM     15  C   UNL A   1      31.761  28.651  24.285  1.00  0.00     0.186 C 
ATOM     16  C   UNL A   1      31.839  29.398  25.629  1.00  0.00     0.076 C 
BRANCH  15  17
ATOM     17  C   UNL A   1      30.365  28.787  23.623  1.00  0.00     0.019 C 
ATOM     18  C   UNL A   1      29.671  30.132  23.732  1.00  0.00     0.018 C 
ATOM     19  C   UNL A   1      30.229  28.106  22.273  1.00  0.00     0.013 C 
ATOM     20  C   UNL A   1      29.424  27.607  23.426  1.00  0.00     0.013 C 
ENDBRANCH  15  17
ENDBRANCH   9  15
ENDBRANCH   7   8
ENDBRANCH   6   7
ENDBRANCH   3   6
ENDBRANCH   1   2
BRANCH   1  21
ATOM     21  C   UNL A   1      37.856  19.704  24.969  1.00  0.00     0.042 C 
BRANCH  21  22
ATOM     22  C   UNL A   1      39.021  20.192  25.822  1.00  0.00     0.118 C 
BRANCH  22  23
ATOM     23  N   UNL A   1      40.127  19.244  25.867  1.00  0.00    -0.352 N 
ATOM     24  C   UNL A   1      41.481  19.407  26.075  1.00  0.00     0.251 C 
ATOM     25  H   UNL A   1      39.856  18.309  25.722  1.00  0.00     0.163 HD
ATOM     26  O   UNL A   1      42.207  18.430  25.910  1.00  0.00    -0.269 OA
BRANCH  24  27
ATOM     27  C   UNL A   1      42.096  20.713  26.445  1.00  0.00     0.039 A 
ATOM     28  C   UNL A   1      42.421  21.609  25.413  1.00  0.00     0.014 A 
ATOM     29  C   UNL A   1      42.391  21.071  27.760  1.00  0.00     0.014 A 
ATOM     30  C   UNL A   1      42.955  22.874  25.702  1.00  0.00     0.010 A 
ATOM     31  C   UNL A   1      42.864  22.354  28.054  1.00  0.00     0.010 A 
ATOM     32  C   UNL A   1      43.154  23.269  27.030  1.00  0.00    -0.014 A 
BRANCH  32  33
ATOM     33  C   UNL A   1      43.693  24.611  27.385  1.00  0.00     0.031 A 
ATOM     34  C   UNL A   1      42.762  25.687  27.862  1.00  0.00     0.074 A 
ATOM     35  C   UNL A   1      44.993  24.904  27.184  1.00  0.00     0.049 A 
ATOM     36  N   UNL A   1      43.013  26.947  28.101  1.00  0.00    -0.248 NA
ATOM     37  C   UNL A   1      41.359  25.299  28.077  1.00  0.00     0.031 C 
ATOM     38  C   UNL A   1      45.987  23.966  26.676  1.00  0.00     0.029 A 
ATOM     39  N   UNL A   1      45.696  26.075  27.338  1.00  0.00    -0.354 N 
ATOM     40  C   UNL A   1      41.797  27.513  28.457  1.00  0.00     0.074 A 
ATOM     41  C   UNL A   1      40.803  26.463  28.382  1.00  0.00     0.031 C 
ATOM     42  C   UNL A   1      47.168  24.590  26.544  1.00  0.00     0.029 A 
ATOM     43  C   UNL A   1      47.007  25.990  26.921  1.00  0.00     0.049 A 
ATOM     44  H   UNL A   1      45.302  26.896  27.712  1.00  0.00     0.167 HD
ATOM     45  C   UNL A   1      41.534  28.786  28.837  1.00  0.00     0.034 A 
ATOM     46  C   UNL A   1      47.963  26.936  26.827  1.00  0.00     0.034 A 
ATOM     47  C   UNL A   1      42.526  29.820  28.950  1.00  0.00     0.049 A 
ATOM     48  C   UNL A   1      47.643  28.343  27.252  1.00  0.00     0.074 A 
ATOM     49  C   UNL A   1      42.369  31.113  29.414  1.00  0.00     0.029 A 
ATOM     50  N   UNL A   1      43.856  29.684  28.585  1.00  0.00    -0.354 N 
ATOM     51  N   UNL A   1      46.523  28.823  27.734  1.00  0.00    -0.248 NA
ATOM     52  C   UNL A   1      48.724  29.335  27.144  1.00  0.00     0.031 C 
ATOM     53  C   UNL A   1      43.603  31.765  29.314  1.00  0.00     0.029 A 
ATOM     54  C   UNL A   1      44.531  30.874  28.799  1.00  0.00     0.049 A 
ATOM     55  H   UNL A   1      44.262  28.861  28.226  1.00  0.00     0.167 HD
ATOM     56  C   UNL A   1      46.769  30.162  28.013  1.00  0.00     0.074 A 
ATOM     57  C   UNL A   1      48.154  30.413  27.668  1.00  0.00     0.031 C 
ATOM     58  C   UNL A   1      45.920  31.102  28.497  1.00  0.00     0.034 A 
BRANCH  45  59
ATOM     59  C   UNL A   1      40.115  29.112  29.212  1.00  0.00     0.023 A 
ATOM     60  C   UNL A   1      39.186  29.414  28.195  1.00  0.00     0.012 A 
ATOM     61  C   UNL A   1      39.692  29.089  30.554  1.00  0.00     0.148 A 
ATOM     62  C   UNL A   1      37.863  29.718  28.511  1.00  0.00     0.002 A 
ATOM     63  C   UNL A   1      38.362  29.356  30.858  1.00  0.00     0.091 A 
ATOM     64  F   UNL A   1      40.599  28.828  31.507  1.00  0.00    -0.205 F 
ATOM     65  C   UNL A   1      37.450  29.680  29.840  1.00  0.00     0.022 A 
BRANCH  63  66
ATOM     66  S   UNL A   1      37.718  29.272  32.531  1.00  0.00     0.127 S 
ATOM     67  O   UNL A   1      38.610  30.187  33.238  1.00  0.00    -0.237 OA
ATOM     68  O   UNL A   1      36.350  29.760  32.362  1.00  0.00    -0.237 OA
ATOM     69  O   UNL A   1      37.816  27.871  32.926  1.00  0.00    -0.744 OA
ENDBRANCH  63  66
ENDBRANCH  45  59
BRANCH  46  70
ATOM     70  C   UNL A   1      49.330  26.575  26.349  1.00  0.00     0.023 A 
ATOM     71  C   UNL A   1      50.131  25.725  27.135  1.00  0.00     0.012 A 
ATOM     72  C   UNL A   1      49.830  27.044  25.119  1.00  0.00     0.148 A 
ATOM     73  C   UNL A   1      51.415  25.370  26.718  1.00  0.00     0.002 A 
ATOM     74  C   UNL A   1      51.089  26.644  24.685  1.00  0.00     0.091 A 
ATOM     75  F   UNL A   1      49.062  27.869  24.393  1.00  0.00    -0.205 F 
ATOM     76  C   UNL A   1      51.890  25.819  25.490  1.00  0.00     0.022 A 
BRANCH  74  77
ATOM     77  S   UNL A   1      51.725  27.073  23.060  1.00  0.00     0.127 S 
ATOM     78  O   UNL A   1      52.891  26.204  22.953  1.00  0.00    -0.237 OA
ATOM     79  O   UNL A   1      50.605  26.715  22.189  1.00  0.00    -0.237 OA
ATOM     80  O   UNL A   1      51.998  28.506  23.118  1.00  0.00    -0.744 OA
ENDBRANCH  74  77
ENDBRANCH  46  70
BRANCH  58  81
ATOM     81  C   UNL A   1      46.461  32.491  28.701  1.00  0.00     0.023 A 
ATOM     82  C   UNL A   1      46.956  32.864  29.966  1.00  0.00     0.012 A 
ATOM     83  C   UNL A   1      46.553  33.398  27.627  1.00  0.00     0.148 A 
ATOM     84  C   UNL A   1      47.516  34.125  30.166  1.00  0.00     0.002 A 
ATOM     85  C   UNL A   1      47.152  34.637  27.822  1.00  0.00     0.091 A 
ATOM     86  F   UNL A   1      46.057  33.031  26.437  1.00  0.00    -0.205 F 
ATOM     87  C   UNL A   1      47.624  35.006  29.091  1.00  0.00     0.022 A 
BRANCH  85  88
ATOM     88  S   UNL A   1      47.417  35.800  26.477  1.00  0.00     0.127 S 
ATOM     89  O   UNL A   1      46.046  36.122  26.088  1.00  0.00    -0.237 OA
ATOM     90  O   UNL A   1      48.135  36.887  27.144  1.00  0.00    -0.237 OA
ATOM     91  O   UNL A   1      48.200  35.083  25.479  1.00  0.00    -0.744 OA
ENDBRANCH  85  88
ENDBRANCH  58  81
ENDBRANCH  32  33
ENDBRANCH  24  27
ENDBRANCH  22  23
ENDBRANCH  21  22
ENDBRANCH   1  21
TORSDOF 17
ENDMDL
MODEL 3
REMARK VINA RESULT:     -10.7      4.425      6.708
REMARK SMILES C[C@@H]([NH+]1CCC(CCC(=O)NCCCNC(=O)c2ccc(-c3c4nc(c(-c5cccc(S(=O)(=O)[O-])c5F)c5ccc([nH]5)c(-c5cccc(S(=O)(=O)[O-])c5F)c5nc(c(-c6cccc(S(=O)(=O)[O-])c6F)c6ccc3[nH]6)C=C5)C=C4)cc2)CC1)C1(C)CC1
REMARK SMILES IDX 12 1 11 2 9 3 10 4 8 6 7 7 6 8 3 9 4 10 82 11 5 13 81 14
REMARK SMILES IDX 2 15 1 16 83 17 84 18 85 19 86 20 13 21 14 22 15 23 16 24
REMARK SMILES IDX 17 26 18 27 19 28 80 29 20 30 79 31 21 32 22 33 23 34 73 35
REMARK SMILES IDX 24 36 78 37 72 38 74 39 25 40 77 41 71 42 70 43 26 45 58 46
REMARK SMILES IDX 38 47 57 48 39 49 42 50 56 51 75 52 40 53 41 54 55 56 76 57
REMARK SMILES IDX 43 58 27 59 28 60 36 61 29 62 31 63 37 64 30 65 32 66 33 67
REMARK SMILES IDX 34 68 35 69 59 70 60 71 68 72 61 73 63 74 69 75 62 76 64 77
REMARK SMILES IDX 65 78 66 79 67 80 44 81 45 82 53 83 46 84 48 85 54 86 47 87
REMARK SMILES IDX 49 88 50 89 51 90 52 91
REMARK H PARENT 11 5 3 12 15 25 74 44 42 55
REMARK Flexibility Score: inf
ROOT
ATOM      1  C   UNL A   1      34.341  34.745  27.912  1.00  0.00     0.117 C 
ENDROOT
BRANCH   1   2
ATOM      2  N   UNL A   1      35.603  34.686  28.633  1.00  0.00    -0.356 N 
ATOM      3  C   UNL A   1      36.462  33.648  28.843  1.00  0.00     0.220 C 
ATOM      4  O   UNL A   1      37.441  33.851  29.566  1.00  0.00    -0.275 OA
ATOM      5  H   UNL A   1      35.884  35.538  29.037  1.00  0.00     0.163 HD
BRANCH   3   6
ATOM      6  C   UNL A   1      36.266  32.298  28.172  1.00  0.00     0.100 C 
BRANCH   6   7
ATOM      7  C   UNL A   1      34.960  31.574  28.530  1.00  0.00     0.014 C 
BRANCH   7   8
ATOM      8  C   UNL A   1      34.382  30.701  27.409  1.00  0.00     0.000 C 
ATOM      9  N   UNL A   1      32.884  28.690  25.918  1.00  0.00    -0.332 N 
ATOM     10  C   UNL A   1      34.276  28.478  26.278  1.00  0.00     0.262 C 
ATOM     11  C   UNL A   1      32.372  30.063  26.028  1.00  0.00     0.262 C 
ATOM     12  H   UNL A   1      32.409  28.209  26.682  1.00  0.00     0.348 HD
ATOM     13  C   UNL A   1      34.667  29.207  27.565  1.00  0.00     0.065 C 
ATOM     14  C   UNL A   1      32.863  30.846  27.256  1.00  0.00     0.065 C 
BRANCH   9  15
ATOM     15  C   UNL A   1      32.456  28.003  24.682  1.00  0.00     0.186 C 
ATOM     16  C   UNL A   1      32.290  29.056  23.570  1.00  0.00     0.076 C 
BRANCH  15  17
ATOM     17  C   UNL A   1      31.226  27.065  24.784  1.00  0.00     0.019 C 
ATOM     18  C   UNL A   1      30.786  26.642  26.174  1.00  0.00     0.018 C 
ATOM     19  C   UNL A   1      30.093  27.391  23.828  1.00  0.00     0.013 C 
ATOM     20  C   UNL A   1      30.826  26.101  23.676  1.00  0.00     0.013 C 
ENDBRANCH  15  17
ENDBRANCH   9  15
ENDBRANCH   7   8
ENDBRANCH   6   7
ENDBRANCH   3   6
ENDBRANCH   1   2
BRANCH   1  21
ATOM     21  C   UNL A   1      33.178  35.081  28.846  1.00  0.00     0.042 C 
BRANCH  21  22
ATOM     22  C   UNL A   1      33.265  36.435  29.540  1.00  0.00     0.118 C 
BRANCH  22  23
ATOM     23  N   UNL A   1      32.435  36.514  30.735  1.00  0.00    -0.352 N 
ATOM     24  C   UNL A   1      32.524  35.903  31.968  1.00  0.00     0.251 C 
ATOM     25  H   UNL A   1      31.664  37.119  30.645  1.00  0.00     0.163 HD
ATOM     26  O   UNL A   1      31.585  36.046  32.748  1.00  0.00    -0.269 OA
BRANCH  24  27
ATOM     27  C   UNL A   1      33.679  35.051  32.373  1.00  0.00     0.039 A 
ATOM     28  C   UNL A   1      34.974  35.560  32.187  1.00  0.00     0.014 A 
ATOM     29  C   UNL A   1      33.531  33.767  32.897  1.00  0.00     0.014 A 
ATOM     30  C   UNL A   1      36.098  34.827  32.595  1.00  0.00     0.010 A 
ATOM     31  C   UNL A   1      34.646  33.062  33.362  1.00  0.00     0.010 A 
ATOM     32  C   UNL A   1      35.942  33.581  33.214  1.00  0.00    -0.014 A 
BRANCH  32  33
ATOM     33  C   UNL A   1      37.104  32.779  33.688  1.00  0.00     0.031 A 
ATOM     34  C   UNL A   1      37.859  33.210  34.913  1.00  0.00     0.074 A 
ATOM     35  C   UNL A   1      37.553  31.730  32.972  1.00  0.00     0.049 A 
ATOM     36  N   UNL A   1      38.964  32.724  35.412  1.00  0.00    -0.248 NA
ATOM     37  C   UNL A   1      37.308  34.352  35.660  1.00  0.00     0.031 C 
ATOM     38  C   UNL A   1      36.944  31.245  31.739  1.00  0.00     0.029 A 
ATOM     39  N   UNL A   1      38.642  30.909  33.144  1.00  0.00    -0.354 N 
ATOM     40  C   UNL A   1      39.264  33.521  36.508  1.00  0.00     0.074 A 
ATOM     41  C   UNL A   1      38.236  34.536  36.588  1.00  0.00     0.031 C 
ATOM     42  C   UNL A   1      37.665  30.223  31.252  1.00  0.00     0.029 A 
ATOM     43  C   UNL A   1      38.818  30.004  32.120  1.00  0.00     0.049 A 
ATOM     44  H   UNL A   1      39.239  30.962  33.925  1.00  0.00     0.167 HD
ATOM     45  C   UNL A   1      40.289  33.402  37.385  1.00  0.00     0.034 A 
ATOM     46  C   UNL A   1      39.807  29.118  31.889  1.00  0.00     0.034 A 
ATOM     47  C   UNL A   1      41.289  32.371  37.330  1.00  0.00     0.049 A 
ATOM     48  C   UNL A   1      40.937  29.010  32.877  1.00  0.00     0.074 A 
ATOM     49  C   UNL A   1      42.311  32.118  38.226  1.00  0.00     0.029 A 
ATOM     50  N   UNL A   1      41.400  31.429  36.319  1.00  0.00    -0.354 N 
ATOM     51  N   UNL A   1      41.119  29.672  33.993  1.00  0.00    -0.248 NA
ATOM     52  C   UNL A   1      41.984  28.018  32.589  1.00  0.00     0.031 C 
ATOM     53  C   UNL A   1      43.052  31.032  37.748  1.00  0.00     0.029 A 
ATOM     54  C   UNL A   1      42.484  30.601  36.560  1.00  0.00     0.049 A 
ATOM     55  H   UNL A   1      40.797  31.359  35.544  1.00  0.00     0.167 HD
ATOM     56  C   UNL A   1      42.283  29.160  34.555  1.00  0.00     0.074 A 
ATOM     57  C   UNL A   1      42.751  28.115  33.667  1.00  0.00     0.031 C 
ATOM     58  C   UNL A   1      42.914  29.533  35.695  1.00  0.00     0.034 A 
BRANCH  45  59
ATOM     59  C   UNL A   1      40.345  34.393  38.515  1.00  0.00     0.023 A 
ATOM     60  C   UNL A   1      41.159  35.537  38.390  1.00  0.00     0.012 A 
ATOM     61  C   UNL A   1      39.573  34.215  39.678  1.00  0.00     0.148 A 
ATOM     62  C   UNL A   1      41.229  36.473  39.420  1.00  0.00     0.002 A 
ATOM     63  C   UNL A   1      39.618  35.172  40.684  1.00  0.00     0.091 A 
ATOM     64  F   UNL A   1      38.827  33.106  39.788  1.00  0.00    -0.205 F 
ATOM     65  C   UNL A   1      40.453  36.295  40.561  1.00  0.00     0.022 A 
BRANCH  63  66
ATOM     66  S   UNL A   1      38.610  35.066  42.166  1.00  0.00     0.127 S 
ATOM     67  O   UNL A   1      37.266  34.967  41.603  1.00  0.00    -0.237 OA
ATOM     68  O   UNL A   1      39.104  33.840  42.791  1.00  0.00    -0.237 OA
ATOM     69  O   UNL A   1      38.885  36.283  42.922  1.00  0.00    -0.744 OA
ENDBRANCH  63  66
ENDBRANCH  45  59
BRANCH  46  70
ATOM     70  C   UNL A   1      39.753  28.228  30.693  1.00  0.00     0.023 A 
ATOM     71  C   UNL A   1      38.952  27.071  30.731  1.00  0.00     0.012 A 
ATOM     72  C   UNL A   1      40.464  28.530  29.516  1.00  0.00     0.148 A 
ATOM     73  C   UNL A   1      38.881  26.216  29.630  1.00  0.00     0.002 A 
ATOM     74  C   UNL A   1      40.347  27.703  28.403  1.00  0.00     0.091 A 
ATOM     75  F   UNL A   1      41.238  29.625  29.502  1.00  0.00    -0.205 F 
ATOM     76  C   UNL A   1      39.568  26.537  28.463  1.00  0.00     0.022 A 
BRANCH  74  77
ATOM     77  S   UNL A   1      41.097  28.109  26.822  1.00  0.00     0.127 S 
ATOM     78  O   UNL A   1      40.920  26.868  26.076  1.00  0.00    -0.237 OA
ATOM     79  O   UNL A   1      40.268  29.226  26.369  1.00  0.00    -0.237 OA
ATOM     80  O   UNL A   1      42.475  28.478  27.131  1.00  0.00    -0.744 OA
ENDBRANCH  74  77
ENDBRANCH  46  70
BRANCH  58  81
ATOM     81  C   UNL A   1      44.176  28.800  36.067  1.00  0.00     0.023 A 
ATOM     82  C   UNL A   1      45.425  29.341  35.704  1.00  0.00     0.012 A 
ATOM     83  C   UNL A   1      44.128  27.625  36.842  1.00  0.00     0.148 A 
ATOM     84  C   UNL A   1      46.608  28.712  36.087  1.00  0.00     0.002 A 
ATOM     85  C   UNL A   1      45.312  27.027  37.258  1.00  0.00     0.091 A 
ATOM     86  F   UNL A   1      42.929  27.116  37.160  1.00  0.00    -0.205 F 
ATOM     87  C   UNL A   1      46.552  27.563  36.874  1.00  0.00     0.022 A 
BRANCH  85  88
ATOM     88  S   UNL A   1      45.337  25.598  38.348  1.00  0.00     0.127 S 
ATOM     89  O   UNL A   1      44.450  26.029  39.426  1.00  0.00    -0.237 OA
ATOM     90  O   UNL A   1      44.791  24.544  37.492  1.00  0.00    -0.237 OA
ATOM     91  O   UNL A   1      46.732  25.407  38.722  1.00  0.00    -0.744 OA
ENDBRANCH  85  88
ENDBRANCH  58  81
ENDBRANCH  32  33
ENDBRANCH  24  27
ENDBRANCH  22  23
ENDBRANCH  21  22
ENDBRANCH   1  21
TORSDOF 17
ENDMDL
