MODEL 1
REMARK VINA RESULT:     -12.6      0.000      0.000
REMARK SMILES CCCc1cc2c(cc1Cl)C=C(C(=O)NCCCNC(=O)c1ccc(-c3c4nc(c(-c5cccc(S(=O)(=O)[O-])c5F)c5ccc([nH]5)c(-c5cccc(S(=O)(=O)[O-])c5F)c5nc(c(-c6cccc(S(=O)(=O)[O-])c6F)c6ccc3[nH]6)C=C5)C=C4)cc1)[C@@H](C(F)(F)F)O2
REMARK SMILES IDX 17 1 16 2 15 3 13 4 14 5 12 7 4 8 5 9 9 10 6 11 8 12 10 13
REMARK SMILES IDX 7 14 90 15 11 16 85 17 3 18 2 19 1 20 86 21 87 22 88 23
REMARK SMILES IDX 89 24 18 25 19 26 20 27 21 29 22 30 23 31 84 32 24 33 83 34
REMARK SMILES IDX 25 35 26 36 27 37 77 38 28 39 82 40 76 41 78 42 29 43 81 44
REMARK SMILES IDX 75 45 74 46 30 48 62 49 42 50 61 51 43 52 46 53 60 54 79 55
REMARK SMILES IDX 44 56 45 57 59 59 80 60 47 61 31 62 32 63 40 64 33 65 35 66
REMARK SMILES IDX 41 67 34 68 36 69 37 70 38 71 39 72 63 73 64 74 72 75 65 76
REMARK SMILES IDX 67 77 73 78 66 79 68 80 69 81 70 82 71 83 48 84 49 85 57 86
REMARK SMILES IDX 50 87 52 88 58 89 51 90 53 91 54 92 55 93 56 94
REMARK H PARENT 15 6 19 28 78 47 46 58
REMARK Flexibility Score: inf
ROOT
ATOM      1  C   UNL A   1      31.120  31.484  25.746  1.00  0.00     0.042 C 
ENDROOT
BRANCH   1   2
ATOM      2  C   UNL A   1      31.285  30.092  25.156  1.00  0.00     0.118 C 
BRANCH   2   3
ATOM      3  N   UNL A   1      30.614  29.969  23.870  1.00  0.00    -0.352 N 
ATOM      4  C   UNL A   1      30.375  28.992  22.966  1.00  0.00     0.251 C 
ATOM      5  O   UNL A   1      29.736  29.346  21.969  1.00  0.00    -0.270 OA
ATOM      6  H   UNL A   1      30.231  30.828  23.581  1.00  0.00     0.163 HD
BRANCH   4   7
ATOM      7  C   UNL A   1      30.810  27.575  23.098  1.00  0.00     0.067 C 
ATOM      8  C   UNL A   1      31.401  22.777  24.603  1.00  0.00    -0.026 A 
ATOM      9  C   UNL A   1      31.627  23.484  23.401  1.00  0.00     0.052 A 
ATOM     10  C   UNL A   1      30.860  23.501  25.682  1.00  0.00     0.045 A 
ATOM     11  C   UNL A   1      31.300  24.831  23.278  1.00  0.00     0.128 A 
ATOM     12  C   UNL A   1      30.464  24.840  25.524  1.00  0.00     0.032 A 
ATOM     13  Cl  UNL A   1      30.683  22.868  27.279  1.00  0.00    -0.084 Cl
ATOM     14  C   UNL A   1      30.680  25.507  24.322  1.00  0.00     0.019 A 
ATOM     15  O   UNL A   1      31.607  25.449  22.096  1.00  0.00    -0.475 OA
ATOM     16  C   UNL A   1      30.274  26.893  24.129  1.00  0.00     0.025 C 
ATOM     17  C   UNL A   1      31.801  26.892  22.198  1.00  0.00     0.314 C 
BRANCH   8  18
ATOM     18  C   UNL A   1      31.865  21.332  24.603  1.00  0.00     0.037 C 
BRANCH  18  19
ATOM     19  C   UNL A   1      33.045  20.866  25.461  1.00  0.00     0.001 C 
ATOM     20  C   UNL A   1      34.130  20.133  24.687  1.00  0.00     0.004 C 
ENDBRANCH  18  19
ENDBRANCH   8  18
BRANCH  17  21
ATOM     21  C   UNL A   1      33.260  27.204  22.598  1.00  0.00     0.429 C 
ATOM     22  F   UNL A   1      33.712  28.301  21.943  1.00  0.00    -0.167 F 
ATOM     23  F   UNL A   1      33.388  27.465  23.922  1.00  0.00    -0.167 F 
ATOM     24  F   UNL A   1      34.112  26.190  22.324  1.00  0.00    -0.167 F 
ENDBRANCH  17  21
ENDBRANCH   4   7
ENDBRANCH   2   3
ENDBRANCH   1   2
BRANCH   1  25
ATOM     25  C   UNL A   1      32.111  31.758  26.868  1.00  0.00     0.118 C 
BRANCH  25  26
ATOM     26  N   UNL A   1      32.179  33.178  27.206  1.00  0.00    -0.352 N 
ATOM     27  C   UNL A   1      33.063  33.860  28.012  1.00  0.00     0.251 C 
ATOM     28  H   UNL A   1      31.482  33.736  26.792  1.00  0.00     0.163 HD
ATOM     29  O   UNL A   1      32.806  35.002  28.364  1.00  0.00    -0.269 OA
BRANCH  27  30
ATOM     30  C   UNL A   1      34.303  33.193  28.461  1.00  0.00     0.039 A 
ATOM     31  C   UNL A   1      34.240  31.941  29.070  1.00  0.00     0.014 A 
ATOM     32  C   UNL A   1      35.536  33.828  28.287  1.00  0.00     0.014 A 
ATOM     33  C   UNL A   1      35.365  31.424  29.691  1.00  0.00     0.010 A 
ATOM     34  C   UNL A   1      36.693  33.245  28.812  1.00  0.00     0.010 A 
ATOM     35  C   UNL A   1      36.608  32.067  29.568  1.00  0.00    -0.014 A 
BRANCH  35  36
ATOM     36  C   UNL A   1      37.792  31.469  30.236  1.00  0.00     0.031 A 
ATOM     37  C   UNL A   1      38.129  31.800  31.664  1.00  0.00     0.074 A 
ATOM     38  C   UNL A   1      38.530  30.565  29.561  1.00  0.00     0.049 A 
ATOM     39  N   UNL A   1      39.104  31.337  32.403  1.00  0.00    -0.248 NA
ATOM     40  C   UNL A   1      37.268  32.774  32.355  1.00  0.00     0.031 C 
ATOM     41  C   UNL A   1      38.305  30.174  28.166  1.00  0.00     0.029 A 
ATOM     42  N   UNL A   1      39.589  29.791  29.957  1.00  0.00    -0.354 N 
ATOM     43  C   UNL A   1      39.003  31.993  33.623  1.00  0.00     0.074 A 
ATOM     44  C   UNL A   1      37.874  32.890  33.529  1.00  0.00     0.031 C 
ATOM     45  C   UNL A   1      39.153  29.187  27.845  1.00  0.00     0.029 A 
ATOM     46  C   UNL A   1      40.026  28.925  28.984  1.00  0.00     0.049 A 
ATOM     47  H   UNL A   1      39.997  29.849  30.851  1.00  0.00     0.167 HD
ATOM     48  C   UNL A   1      39.769  31.843  34.730  1.00  0.00     0.034 A 
ATOM     49  C   UNL A   1      41.024  28.022  28.996  1.00  0.00     0.034 A 
ATOM     50  C   UNL A   1      40.856  30.909  34.839  1.00  0.00     0.049 A 
ATOM     51  C   UNL A   1      41.850  27.864  30.235  1.00  0.00     0.074 A 
ATOM     52  C   UNL A   1      41.673  30.667  35.930  1.00  0.00     0.029 A 
ATOM     53  N   UNL A   1      41.272  30.057  33.828  1.00  0.00    -0.354 N 
ATOM     54  N   UNL A   1      41.710  28.464  31.392  1.00  0.00    -0.248 NA
ATOM     55  C   UNL A   1      42.964  26.908  30.178  1.00  0.00     0.031 C 
ATOM     56  C   UNL A   1      42.584  29.666  35.577  1.00  0.00     0.029 A 
ATOM     57  C   UNL A   1      42.331  29.283  34.270  1.00  0.00     0.049 A 
ATOM     58  H   UNL A   1      40.873  30.009  32.929  1.00  0.00     0.167 HD
ATOM     59  C   UNL A   1      42.717  27.961  32.205  1.00  0.00     0.074 A 
ATOM     60  C   UNL A   1      43.445  26.988  31.414  1.00  0.00     0.031 C 
ATOM     61  C   UNL A   1      43.022  28.294  33.481  1.00  0.00     0.034 A 
BRANCH  48  62
ATOM     62  C   UNL A   1      39.427  32.675  35.935  1.00  0.00     0.023 A 
ATOM     63  C   UNL A   1      39.918  33.992  36.025  1.00  0.00     0.012 A 
ATOM     64  C   UNL A   1      38.571  32.183  36.941  1.00  0.00     0.148 A 
ATOM     65  C   UNL A   1      39.579  34.803  37.107  1.00  0.00     0.002 A 
ATOM     66  C   UNL A   1      38.215  33.007  38.002  1.00  0.00     0.091 A 
ATOM     67  F   UNL A   1      38.133  30.920  36.845  1.00  0.00    -0.205 F 
ATOM     68  C   UNL A   1      38.722  34.315  38.089  1.00  0.00     0.022 A 
BRANCH  66  69
ATOM     69  S   UNL A   1      37.077  32.491  39.293  1.00  0.00     0.127 S 
ATOM     70  O   UNL A   1      37.320  33.502  40.320  1.00  0.00    -0.237 OA
ATOM     71  O   UNL A   1      35.780  32.600  38.623  1.00  0.00    -0.237 OA
ATOM     72  O   UNL A   1      37.464  31.134  39.650  1.00  0.00    -0.744 OA
ENDBRANCH  66  69
ENDBRANCH  48  62
BRANCH  49  73
ATOM     73  C   UNL A   1      41.240  27.181  27.787  1.00  0.00     0.023 A 
ATOM     74  C   UNL A   1      41.938  27.720  26.692  1.00  0.00     0.012 A 
ATOM     75  C   UNL A   1      40.882  25.818  27.783  1.00  0.00     0.148 A 
ATOM     76  C   UNL A   1      42.289  26.909  25.611  1.00  0.00     0.002 A 
ATOM     77  C   UNL A   1      41.276  25.008  26.725  1.00  0.00     0.091 A 
ATOM     78  F   UNL A   1      40.222  25.334  28.843  1.00  0.00    -0.205 F 
ATOM     79  C   UNL A   1      41.972  25.552  25.635  1.00  0.00     0.022 A 
BRANCH  77  80
ATOM     80  S   UNL A   1      41.034  23.228  26.728  1.00  0.00     0.127 S 
ATOM     81  O   UNL A   1      39.597  23.122  26.486  1.00  0.00    -0.237 OA
ATOM     82  O   UNL A   1      41.880  22.814  25.608  1.00  0.00    -0.237 OA
ATOM     83  O   UNL A   1      41.482  22.766  28.034  1.00  0.00    -0.744 OA
ENDBRANCH  77  80
ENDBRANCH  49  73
BRANCH  61  84
ATOM     84  C   UNL A   1      44.198  27.613  34.120  1.00  0.00     0.023 A 
ATOM     85  C   UNL A   1      45.465  28.221  34.046  1.00  0.00     0.012 A 
ATOM     86  C   UNL A   1      44.025  26.447  34.890  1.00  0.00     0.148 A 
ATOM     87  C   UNL A   1      46.551  27.673  34.727  1.00  0.00     0.002 A 
ATOM     88  C   UNL A   1      45.104  25.924  35.592  1.00  0.00     0.091 A 
ATOM     89  F   UNL A   1      42.808  25.886  34.933  1.00  0.00    -0.205 F 
ATOM     90  C   UNL A   1      46.368  26.533  35.509  1.00  0.00     0.022 A 
BRANCH  88  91
ATOM     91  S   UNL A   1      44.955  24.504  36.682  1.00  0.00     0.127 S 
ATOM     92  O   UNL A   1      46.329  24.349  37.156  1.00  0.00    -0.237 OA
ATOM     93  O   UNL A   1      44.012  24.987  37.690  1.00  0.00    -0.237 OA
ATOM     94  O   UNL A   1      44.458  23.412  35.856  1.00  0.00    -0.744 OA
ENDBRANCH  88  91
ENDBRANCH  61  84
ENDBRANCH  35  36
ENDBRANCH  27  30
ENDBRANCH  25  26
ENDBRANCH   1  25
TORSDOF 16
ENDMDL
MODEL 2
REMARK VINA RESULT:     -12.3      5.792     11.034
REMARK SMILES CCCc1cc2c(cc1Cl)C=C(C(=O)NCCCNC(=O)c1ccc(-c3c4nc(c(-c5cccc(S(=O)(=O)[O-])c5F)c5ccc([nH]5)c(-c5cccc(S(=O)(=O)[O-])c5F)c5nc(c(-c6cccc(S(=O)(=O)[O-])c6F)c6ccc3[nH]6)C=C5)C=C4)cc1)[C@@H](C(F)(F)F)O2
REMARK SMILES IDX 17 1 16 2 15 3 13 4 14 5 12 7 4 8 5 9 9 10 6 11 8 12 10 13
REMARK SMILES IDX 7 14 90 15 11 16 85 17 3 18 2 19 1 20 86 21 87 22 88 23
REMARK SMILES IDX 89 24 18 25 19 26 20 27 21 29 22 30 23 31 84 32 24 33 83 34
REMARK SMILES IDX 25 35 26 36 27 37 77 38 28 39 82 40 76 41 78 42 29 43 81 44
REMARK SMILES IDX 75 45 74 46 30 48 62 49 42 50 61 51 43 52 46 53 60 54 79 55
REMARK SMILES IDX 44 56 45 57 59 59 80 60 47 61 31 62 32 63 40 64 33 65 35 66
REMARK SMILES IDX 41 67 34 68 36 69 37 70 38 71 39 72 63 73 64 74 72 75 65 76
REMARK SMILES IDX 67 77 73 78 66 79 68 80 69 81 70 82 71 83 48 84 49 85 57 86
REMARK SMILES IDX 50 87 52 88 58 89 51 90 53 91 54 92 55 93 56 94
REMARK H PARENT 15 6 19 28 78 47 46 58
REMARK Flexibility Score: inf
ROOT
ATOM      1  C   UNL A   1      37.293  19.455  24.948  1.00  0.00     0.042 C 
ENDROOT
BRANCH   1   2
ATOM      2  C   UNL A   1      36.008  20.266  25.021  1.00  0.00     0.118 C 
BRANCH   2   3
ATOM      3  N   UNL A   1      34.833  19.433  24.813  1.00  0.00    -0.352 N 
ATOM      4  C   UNL A   1      33.500  19.613  24.686  1.00  0.00     0.251 C 
ATOM      5  O   UNL A   1      32.844  18.580  24.515  1.00  0.00    -0.270 OA
ATOM      6  H   UNL A   1      35.075  18.481  24.746  1.00  0.00     0.163 HD
BRANCH   4   7
ATOM      7  C   UNL A   1      32.803  20.928  24.732  1.00  0.00     0.067 C 
ATOM      8  C   UNL A   1      30.798  25.426  23.557  1.00  0.00    -0.026 A 
ATOM      9  C   UNL A   1      30.579  24.467  24.571  1.00  0.00     0.052 A 
ATOM     10  C   UNL A   1      31.772  25.125  22.587  1.00  0.00     0.045 A 
ATOM     11  C   UNL A   1      31.274  23.261  24.593  1.00  0.00     0.128 A 
ATOM     12  C   UNL A   1      32.413  23.875  22.576  1.00  0.00     0.032 A 
ATOM     13  Cl  UNL A   1      32.313  26.237  21.383  1.00  0.00    -0.084 Cl
ATOM     14  C   UNL A   1      32.165  22.939  23.576  1.00  0.00     0.019 A 
ATOM     15  O   UNL A   1      31.040  22.418  25.644  1.00  0.00    -0.475 OA
ATOM     16  C   UNL A   1      32.811  21.634  23.585  1.00  0.00     0.025 C 
ATOM     17  C   UNL A   1      32.140  21.508  25.950  1.00  0.00     0.314 C 
BRANCH   8  18
ATOM     18  C   UNL A   1      30.008  26.715  23.702  1.00  0.00     0.037 C 
BRANCH  18  19
ATOM     19  C   UNL A   1      30.683  28.029  24.105  1.00  0.00     0.001 C 
ATOM     20  C   UNL A   1      31.804  27.871  25.121  1.00  0.00     0.004 C 
ENDBRANCH  18  19
ENDBRANCH   8  18
BRANCH  17  21
ATOM     21  C   UNL A   1      33.153  22.199  26.890  1.00  0.00     0.429 C 
ATOM     22  F   UNL A   1      32.524  23.073  27.713  1.00  0.00    -0.167 F 
ATOM     23  F   UNL A   1      33.801  21.316  27.689  1.00  0.00    -0.167 F 
ATOM     24  F   UNL A   1      34.108  22.885  26.225  1.00  0.00    -0.167 F 
ENDBRANCH  17  21
ENDBRANCH   4   7
ENDBRANCH   2   3
ENDBRANCH   1   2
BRANCH   1  25
ATOM     25  C   UNL A   1      38.512  20.263  25.374  1.00  0.00     0.118 C 
BRANCH  25  26
ATOM     26  N   UNL A   1      39.650  19.407  25.702  1.00  0.00    -0.352 N 
ATOM     27  C   UNL A   1      40.914  19.736  26.137  1.00  0.00     0.251 C 
ATOM     28  H   UNL A   1      39.487  18.443  25.594  1.00  0.00     0.163 HD
ATOM     29  O   UNL A   1      41.800  18.893  26.120  1.00  0.00    -0.269 OA
BRANCH  27  30
ATOM     30  C   UNL A   1      41.191  21.112  26.600  1.00  0.00     0.039 A 
ATOM     31  C   UNL A   1      40.887  22.197  25.779  1.00  0.00     0.014 A 
ATOM     32  C   UNL A   1      41.771  21.320  27.854  1.00  0.00     0.014 A 
ATOM     33  C   UNL A   1      41.352  23.459  26.112  1.00  0.00     0.010 A 
ATOM     34  C   UNL A   1      42.133  22.614  28.240  1.00  0.00     0.010 A 
ATOM     35  C   UNL A   1      41.978  23.686  27.348  1.00  0.00    -0.014 A 
BRANCH  35  36
ATOM     36  C   UNL A   1      42.446  25.057  27.673  1.00  0.00     0.031 A 
ATOM     37  C   UNL A   1      43.809  25.534  27.251  1.00  0.00     0.074 A 
ATOM     38  C   UNL A   1      41.600  25.901  28.296  1.00  0.00     0.049 A 
ATOM     39  N   UNL A   1      44.354  26.710  27.424  1.00  0.00    -0.248 NA
ATOM     40  C   UNL A   1      44.676  24.572  26.549  1.00  0.00     0.031 C 
ATOM     41  C   UNL A   1      40.257  25.547  28.764  1.00  0.00     0.029 A 
ATOM     42  N   UNL A   1      41.724  27.228  28.615  1.00  0.00    -0.354 N 
ATOM     43  C   UNL A   1      45.636  26.619  26.897  1.00  0.00     0.074 A 
ATOM     44  C   UNL A   1      45.794  25.271  26.400  1.00  0.00     0.031 C 
ATOM     45  C   UNL A   1      39.657  26.643  29.247  1.00  0.00     0.029 A 
ATOM     46  C   UNL A   1      40.594  27.760  29.188  1.00  0.00     0.049 A 
ATOM     47  H   UNL A   1      42.542  27.750  28.450  1.00  0.00     0.167 HD
ATOM     48  C   UNL A   1      46.588  27.579  26.814  1.00  0.00     0.034 A 
ATOM     49  C   UNL A   1      40.335  29.005  29.630  1.00  0.00     0.034 A 
ATOM     50  C   UNL A   1      46.408  28.934  27.258  1.00  0.00     0.049 A 
ATOM     51  C   UNL A   1      41.398  30.054  29.517  1.00  0.00     0.074 A 
ATOM     52  C   UNL A   1      47.306  29.985  27.191  1.00  0.00     0.029 A 
ATOM     53  N   UNL A   1      45.252  29.429  27.842  1.00  0.00    -0.354 N 
ATOM     54  N   UNL A   1      42.587  29.957  28.975  1.00  0.00    -0.248 NA
ATOM     55  C   UNL A   1      41.087  31.381  30.065  1.00  0.00     0.031 C 
ATOM     56  C   UNL A   1      46.691  31.117  27.735  1.00  0.00     0.029 A 
ATOM     57  C   UNL A   1      45.410  30.772  28.135  1.00  0.00     0.049 A 
ATOM     58  H   UNL A   1      44.439  28.904  28.019  1.00  0.00     0.167 HD
ATOM     59  C   UNL A   1      43.173  31.208  29.118  1.00  0.00     0.074 A 
ATOM     60  C   UNL A   1      42.195  32.054  29.774  1.00  0.00     0.031 C 
ATOM     61  C   UNL A   1      44.414  31.608  28.756  1.00  0.00     0.034 A 
BRANCH  48  62
ATOM     62  C   UNL A   1      47.897  27.212  26.172  1.00  0.00     0.023 A 
ATOM     63  C   UNL A   1      48.903  26.609  26.954  1.00  0.00     0.012 A 
ATOM     64  C   UNL A   1      48.111  27.401  24.793  1.00  0.00     0.148 A 
ATOM     65  C   UNL A   1      50.109  26.215  26.377  1.00  0.00     0.002 A 
ATOM     66  C   UNL A   1      49.305  26.979  24.219  1.00  0.00     0.091 A 
ATOM     67  F   UNL A   1      47.149  27.994  24.073  1.00  0.00    -0.205 F 
ATOM     68  C   UNL A   1      50.306  26.391  25.011  1.00  0.00     0.022 A 
BRANCH  66  69
ATOM     69  S   UNL A   1      49.638  27.114  22.459  1.00  0.00     0.127 S 
ATOM     70  O   UNL A   1      48.753  26.088  21.913  1.00  0.00    -0.237 OA
ATOM     71  O   UNL A   1      49.229  28.489  22.172  1.00  0.00    -0.237 OA
ATOM     72  O   UNL A   1      51.063  26.858  22.300  1.00  0.00    -0.744 OA
ENDBRANCH  66  69
ENDBRANCH  48  62
BRANCH  49  73
ATOM     73  C   UNL A   1      38.983  29.302  30.174  1.00  0.00     0.023 A 
ATOM     74  C   UNL A   1      38.699  28.993  31.517  1.00  0.00     0.012 A 
ATOM     75  C   UNL A   1      38.037  30.014  29.409  1.00  0.00     0.148 A 
ATOM     76  C   UNL A   1      37.496  29.400  32.095  1.00  0.00     0.002 A 
ATOM     77  C   UNL A   1      36.863  30.456  30.006  1.00  0.00     0.091 A 
ATOM     78  F   UNL A   1      38.338  30.297  28.135  1.00  0.00    -0.205 F 
ATOM     79  C   UNL A   1      36.587  30.143  31.345  1.00  0.00     0.022 A 
BRANCH  77  80
ATOM     80  S   UNL A   1      35.695  31.531  29.165  1.00  0.00     0.127 S 
ATOM     81  O   UNL A   1      34.752  31.843  30.236  1.00  0.00    -0.237 OA
ATOM     82  O   UNL A   1      36.557  32.642  28.758  1.00  0.00    -0.237 OA
ATOM     83  O   UNL A   1      35.151  30.746  28.066  1.00  0.00    -0.744 OA
ENDBRANCH  77  80
ENDBRANCH  49  73
BRANCH  61  84
ATOM     84  C   UNL A   1      44.809  33.026  29.062  1.00  0.00     0.023 A 
ATOM     85  C   UNL A   1      45.401  33.319  30.304  1.00  0.00     0.012 A 
ATOM     86  C   UNL A   1      44.706  34.030  28.081  1.00  0.00     0.148 A 
ATOM     87  C   UNL A   1      45.883  34.599  30.570  1.00  0.00     0.002 A 
ATOM     88  C   UNL A   1      45.216  35.295  28.341  1.00  0.00     0.091 A 
ATOM     89  F   UNL A   1      44.128  33.722  26.911  1.00  0.00    -0.205 F 
ATOM     90  C   UNL A   1      45.801  35.583  29.586  1.00  0.00     0.022 A 
BRANCH  88  91
ATOM     91  S   UNL A   1      45.225  36.608  27.115  1.00  0.00     0.127 S 
ATOM     92  O   UNL A   1      43.796  36.780  26.856  1.00  0.00    -0.237 OA
ATOM     93  O   UNL A   1      45.851  37.709  27.846  1.00  0.00    -0.237 OA
ATOM     94  O   UNL A   1      46.001  36.104  25.989  1.00  0.00    -0.744 OA
ENDBRANCH  88  91
ENDBRANCH  61  84
ENDBRANCH  35  36
ENDBRANCH  27  30
ENDBRANCH  25  26
ENDBRANCH   1  25
TORSDOF 16
ENDMDL
MODEL 3
REMARK VINA RESULT:     -11.9      5.866     10.933
REMARK SMILES CCCc1cc2c(cc1Cl)C=C(C(=O)NCCCNC(=O)c1ccc(-c3c4nc(c(-c5cccc(S(=O)(=O)[O-])c5F)c5ccc([nH]5)c(-c5cccc(S(=O)(=O)[O-])c5F)c5nc(c(-c6cccc(S(=O)(=O)[O-])c6F)c6ccc3[nH]6)C=C5)C=C4)cc1)[C@@H](C(F)(F)F)O2
REMARK SMILES IDX 17 1 16 2 15 3 13 4 14 5 12 7 4 8 5 9 9 10 6 11 8 12 10 13
REMARK SMILES IDX 7 14 90 15 11 16 85 17 3 18 2 19 1 20 86 21 87 22 88 23
REMARK SMILES IDX 89 24 18 25 19 26 20 27 21 29 22 30 23 31 84 32 24 33 83 34
REMARK SMILES IDX 25 35 26 36 27 37 77 38 28 39 82 40 76 41 78 42 29 43 81 44
REMARK SMILES IDX 75 45 74 46 30 48 62 49 42 50 61 51 43 52 46 53 60 54 79 55
REMARK SMILES IDX 44 56 45 57 59 59 80 60 47 61 31 62 32 63 40 64 33 65 35 66
REMARK SMILES IDX 41 67 34 68 36 69 37 70 38 71 39 72 63 73 64 74 72 75 65 76
REMARK SMILES IDX 67 77 73 78 66 79 68 80 69 81 70 82 71 83 48 84 49 85 57 86
REMARK SMILES IDX 50 87 52 88 58 89 51 90 53 91 54 92 55 93 56 94
REMARK H PARENT 15 6 19 28 78 47 46 58
REMARK Flexibility Score: inf
ROOT
ATOM      1  C   UNL A   1      37.830  20.043  25.015  1.00  0.00     0.042 C 
ENDROOT
BRANCH   1   2
ATOM      2  C   UNL A   1      36.815  21.147  24.763  1.00  0.00     0.118 C 
BRANCH   2   3
ATOM      3  N   UNL A   1      35.463  20.721  25.092  1.00  0.00    -0.352 N 
ATOM      4  C   UNL A   1      34.232  21.278  25.141  1.00  0.00     0.251 C 
ATOM      5  O   UNL A   1      33.324  20.514  25.487  1.00  0.00    -0.270 OA
ATOM      6  H   UNL A   1      35.438  19.770  25.345  1.00  0.00     0.163 HD
BRANCH   4   7
ATOM      7  C   UNL A   1      33.917  22.695  24.810  1.00  0.00     0.067 C 
ATOM      8  C   UNL A   1      32.787  27.624  25.060  1.00  0.00    -0.026 A 
ATOM      9  C   UNL A   1      33.383  26.781  24.094  1.00  0.00     0.052 A 
ATOM     10  C   UNL A   1      32.413  27.036  26.282  1.00  0.00     0.045 A 
ATOM     11  C   UNL A   1      33.618  25.434  24.352  1.00  0.00     0.128 A 
ATOM     12  C   UNL A   1      32.721  25.694  26.559  1.00  0.00     0.032 A 
ATOM     13  Cl  UNL A   1      31.510  27.849  27.508  1.00  0.00    -0.084 Cl
ATOM     14  C   UNL A   1      33.327  24.891  25.598  1.00  0.00     0.019 A 
ATOM     15  O   UNL A   1      34.145  24.681  23.339  1.00  0.00    -0.475 OA
ATOM     16  C   UNL A   1      33.664  23.498  25.861  1.00  0.00     0.025 C 
ATOM     17  C   UNL A   1      33.838  23.256  23.417  1.00  0.00     0.314 C 
BRANCH   8  18
ATOM     18  C   UNL A   1      32.542  29.053  24.609  1.00  0.00     0.037 C 
BRANCH  18  19
ATOM     19  C   UNL A   1      31.138  29.556  24.261  1.00  0.00     0.001 C 
ATOM     20  C   UNL A   1      30.608  29.055  22.926  1.00  0.00     0.004 C 
ENDBRANCH  18  19
ENDBRANCH   8  18
BRANCH  17  21
ATOM     21  C   UNL A   1      32.474  22.971  22.753  1.00  0.00     0.429 C 
ATOM     22  F   UNL A   1      32.537  21.853  21.988  1.00  0.00    -0.167 F 
ATOM     23  F   UNL A   1      31.490  22.760  23.662  1.00  0.00    -0.167 F 
ATOM     24  F   UNL A   1      32.050  23.980  21.959  1.00  0.00    -0.167 F 
ENDBRANCH  17  21
ENDBRANCH   4   7
ENDBRANCH   2   3
ENDBRANCH   1   2
BRANCH   1  25
ATOM     25  C   UNL A   1      39.000  20.516  25.868  1.00  0.00     0.118 C 
BRANCH  25  26
ATOM     26  N   UNL A   1      40.045  19.501  25.977  1.00  0.00    -0.352 N 
ATOM     27  C   UNL A   1      41.408  19.639  26.123  1.00  0.00     0.251 C 
ATOM     28  H   UNL A   1      39.725  18.571  25.941  1.00  0.00     0.163 HD
ATOM     29  O   UNL A   1      42.137  18.673  25.948  1.00  0.00    -0.269 OA
BRANCH  27  30
ATOM     30  C   UNL A   1      41.974  20.960  26.466  1.00  0.00     0.039 A 
ATOM     31  C   UNL A   1      42.224  21.286  27.798  1.00  0.00     0.014 A 
ATOM     32  C   UNL A   1      42.243  21.885  25.454  1.00  0.00     0.014 A 
ATOM     33  C   UNL A   1      42.536  22.593  28.137  1.00  0.00     0.010 A 
ATOM     34  C   UNL A   1      42.673  23.172  25.792  1.00  0.00     0.010 A 
ATOM     35  C   UNL A   1      42.768  23.553  27.139  1.00  0.00    -0.014 A 
BRANCH  35  36
ATOM     36  C   UNL A   1      43.116  24.938  27.545  1.00  0.00     0.031 A 
ATOM     37  C   UNL A   1      44.487  25.502  27.289  1.00  0.00     0.074 A 
ATOM     38  C   UNL A   1      42.158  25.715  28.089  1.00  0.00     0.049 A 
ATOM     39  N   UNL A   1      44.939  26.702  27.549  1.00  0.00    -0.248 NA
ATOM     40  C   UNL A   1      45.481  24.612  26.667  1.00  0.00     0.031 C 
ATOM     41  C   UNL A   1      40.795  25.273  28.396  1.00  0.00     0.029 A 
ATOM     42  N   UNL A   1      42.168  27.037  28.451  1.00  0.00    -0.354 N 
ATOM     43  C   UNL A   1      46.275  26.697  27.166  1.00  0.00     0.074 A 
ATOM     44  C   UNL A   1      46.565  25.376  26.659  1.00  0.00     0.031 C 
ATOM     45  C   UNL A   1      40.082  26.319  28.834  1.00  0.00     0.029 A 
ATOM     46  C   UNL A   1      40.952  27.487  28.907  1.00  0.00     0.049 A 
ATOM     47  H   UNL A   1      42.967  27.608  28.390  1.00  0.00     0.167 HD
ATOM     48  C   UNL A   1      47.171  27.711  27.212  1.00  0.00     0.034 A 
ATOM     49  C   UNL A   1      40.574  28.703  29.345  1.00  0.00     0.034 A 
ATOM     50  C   UNL A   1      46.865  29.040  27.665  1.00  0.00     0.049 A 
ATOM     51  C   UNL A   1      41.579  29.812  29.376  1.00  0.00     0.074 A 
ATOM     52  C   UNL A   1      47.701  30.142  27.722  1.00  0.00     0.029 A 
ATOM     53  N   UNL A   1      45.625  29.453  28.127  1.00  0.00    -0.354 N 
ATOM     54  N   UNL A   1      42.825  29.797  28.968  1.00  0.00    -0.248 NA
ATOM     55  C   UNL A   1      41.133  31.102  29.917  1.00  0.00     0.031 C 
ATOM     56  C   UNL A   1      46.965  31.221  28.221  1.00  0.00     0.029 A 
ATOM     57  C   UNL A   1      45.670  30.794  28.468  1.00  0.00     0.049 A 
ATOM     58  H   UNL A   1      44.829  28.878  28.201  1.00  0.00     0.167 HD
ATOM     59  C   UNL A   1      43.316  31.074  29.204  1.00  0.00     0.074 A 
ATOM     60  C   UNL A   1      42.225  31.845  29.766  1.00  0.00     0.031 C 
ATOM     61  C   UNL A   1      44.565  31.554  28.993  1.00  0.00     0.034 A 
BRANCH  48  62
ATOM     62  C   UNL A   1      48.563  27.437  26.712  1.00  0.00     0.023 A 
ATOM     63  C   UNL A   1      49.531  26.940  27.607  1.00  0.00     0.012 A 
ATOM     64  C   UNL A   1      48.896  27.607  25.354  1.00  0.00     0.148 A 
ATOM     65  C   UNL A   1      50.815  26.631  27.163  1.00  0.00     0.002 A 
ATOM     66  C   UNL A   1      50.170  27.271  24.913  1.00  0.00     0.091 A 
ATOM     67  F   UNL A   1      47.965  28.101  24.525  1.00  0.00    -0.205 F 
ATOM     68  C   UNL A   1      51.132  26.788  25.816  1.00  0.00     0.022 A 
BRANCH  66  69
ATOM     69  S   UNL A   1      50.664  27.388  23.189  1.00  0.00     0.127 S 
ATOM     70  O   UNL A   1      50.716  28.836  22.996  1.00  0.00    -0.237 OA
ATOM     71  O   UNL A   1      51.968  26.725  23.196  1.00  0.00    -0.237 OA
ATOM     72  O   UNL A   1      49.634  26.694  22.429  1.00  0.00    -0.744 OA
ENDBRANCH  66  69
ENDBRANCH  48  62
BRANCH  49  73
ATOM     73  C   UNL A   1      39.155  28.907  29.742  1.00  0.00     0.023 A 
ATOM     74  C   UNL A   1      38.758  28.604  31.057  1.00  0.00     0.012 A 
ATOM     75  C   UNL A   1      38.243  29.531  28.867  1.00  0.00     0.148 A 
ATOM     76  C   UNL A   1      37.476  28.930  31.500  1.00  0.00     0.002 A 
ATOM     77  C   UNL A   1      36.985  29.895  29.330  1.00  0.00     0.091 A 
ATOM     78  F   UNL A   1      38.652  29.812  27.623  1.00  0.00    -0.205 F 
ATOM     79  C   UNL A   1      36.596  29.588  30.643  1.00  0.00     0.022 A 
BRANCH  77  80
ATOM     80  S   UNL A   1      35.835  30.864  28.347  1.00  0.00     0.127 S 
ATOM     81  O   UNL A   1      36.721  31.855  27.742  1.00  0.00    -0.237 OA
ATOM     82  O   UNL A   1      35.314  29.855  27.424  1.00  0.00    -0.237 OA
ATOM     83  O   UNL A   1      34.856  31.394  29.286  1.00  0.00    -0.744 OA
ENDBRANCH  77  80
ENDBRANCH  49  73
BRANCH  61  84
ATOM     84  C   UNL A   1      44.839  32.981  29.373  1.00  0.00     0.023 A 
ATOM     85  C   UNL A   1      45.333  33.264  30.660  1.00  0.00     0.012 A 
ATOM     86  C   UNL A   1      44.725  34.015  28.425  1.00  0.00     0.148 A 
ATOM     87  C   UNL A   1      45.706  34.563  31.002  1.00  0.00     0.002 A 
ATOM     88  C   UNL A   1      45.129  35.301  28.761  1.00  0.00     0.091 A 
ATOM     89  F   UNL A   1      44.242  33.715  27.210  1.00  0.00    -0.205 F 
ATOM     90  C   UNL A   1      45.616  35.577  30.050  1.00  0.00     0.022 A 
BRANCH  88  91
ATOM     91  S   UNL A   1      45.119  36.659  27.586  1.00  0.00     0.127 S 
ATOM     92  O   UNL A   1      46.044  36.172  26.563  1.00  0.00    -0.237 OA
ATOM     93  O   UNL A   1      43.716  36.697  27.172  1.00  0.00    -0.237 OA
ATOM     94  O   UNL A   1      45.570  37.832  28.320  1.00  0.00    -0.744 OA
ENDBRANCH  88  91
ENDBRANCH  61  84
ENDBRANCH  35  36
ENDBRANCH  27  30
ENDBRANCH  25  26
ENDBRANCH   1  25
TORSDOF 16
ENDMDL
