MODEL 1
REMARK VINA RESULT:     -12.3      0.000      0.000
REMARK SMILES CC[C@@](C)(NC(=O)Nc1c(C)cccc1Cl)C(=O)NCCCNC(=O)c1ccc(-c2c3nc(c(-c4cccc(S(=O)(=O)[O-])c4F)c4ccc([nH]4)c(-c4cccc(S(=O)(=O)[O-])c4F)c4nc(c(-c5cccc(S(=O)(=O)[O-])c5F)c5ccc2[nH]5)C=C4)C=C3)cc1
REMARK SMILES IDX 21 1 20 2 19 3 17 4 18 5 3 7 4 8 2 9 1 10 5 11 6 12 7 14
REMARK SMILES IDX 8 15 9 17 10 18 15 19 11 20 12 21 14 22 16 23 13 24 22 25
REMARK SMILES IDX 23 26 24 27 25 29 26 30 27 31 88 32 28 33 87 34 29 35 30 36
REMARK SMILES IDX 31 37 81 38 32 39 86 40 80 41 82 42 33 43 85 44 79 45 78 46
REMARK SMILES IDX 34 48 66 49 46 50 65 51 47 52 50 53 64 54 83 55 48 56 49 57
REMARK SMILES IDX 63 59 84 60 51 61 35 62 36 63 44 64 37 65 39 66 45 67 38 68
REMARK SMILES IDX 40 69 41 70 42 71 43 72 67 73 68 74 76 75 69 76 71 77 77 78
REMARK SMILES IDX 70 79 72 80 73 81 74 82 75 83 52 84 53 85 61 86 54 87 56 88
REMARK SMILES IDX 62 89 55 90 57 91 58 92 59 93 60 94
REMARK H PARENT 19 6 5 13 8 16 23 28 82 47 50 58
REMARK Flexibility Score: inf
ROOT
ATOM      1  C   UNL A   1      31.054  31.195  25.625  1.00  0.00     0.042 C 
ENDROOT
BRANCH   1   2
ATOM      2  C   UNL A   1      30.993  29.776  25.011  1.00  0.00     0.117 C 
BRANCH   2   3
ATOM      3  N   UNL A   1      31.163  29.729  23.564  1.00  0.00    -0.354 N 
ATOM      4  C   UNL A   1      31.377  28.638  22.722  1.00  0.00     0.245 C 
ATOM      5  O   UNL A   1      30.508  28.230  21.954  1.00  0.00    -0.272 OA
ATOM      6  H   UNL A   1      31.121  30.601  23.111  1.00  0.00     0.163 HD
BRANCH   4   7
ATOM      7  C   UNL A   1      32.744  27.934  22.872  1.00  0.00     0.117 C 
ATOM      8  C   UNL A   1      33.691  29.170  22.771  1.00  0.00     0.045 C 
BRANCH   7   9
ATOM      9  C   UNL A   1      33.189  27.151  24.133  1.00  0.00     0.035 C 
ATOM     10  C   UNL A   1      34.042  27.836  25.173  1.00  0.00     0.007 C 
ENDBRANCH   7   9
BRANCH   7  11
ATOM     11  N   UNL A   1      32.889  27.010  21.739  1.00  0.00    -0.324 N 
ATOM     12  C   UNL A   1      32.580  25.716  21.544  1.00  0.00     0.320 C 
ATOM     13  H   UNL A   1      33.303  27.430  20.951  1.00  0.00     0.166 HD
ATOM     14  O   UNL A   1      33.049  25.210  20.518  1.00  0.00    -0.248 OA
ATOM     15  N   UNL A   1      31.619  24.987  22.190  1.00  0.00    -0.306 N 
ATOM     16  H   UNL A   1      30.958  24.616  21.562  1.00  0.00     0.171 HD
BRANCH  15  17
ATOM     17  C   UNL A   1      31.328  24.622  23.557  1.00  0.00     0.064 A 
ATOM     18  C   UNL A   1      30.365  25.226  24.417  1.00  0.00    -0.026 A 
ATOM     19  C   UNL A   1      31.700  23.305  23.934  1.00  0.00     0.064 A 
ATOM     20  C   UNL A   1      29.229  26.166  24.060  1.00  0.00     0.046 C 
ATOM     21  C   UNL A   1      30.199  24.747  25.738  1.00  0.00     0.005 A 
ATOM     22  C   UNL A   1      31.351  22.746  25.173  1.00  0.00     0.023 A 
ATOM     23  Cl  UNL A   1      32.464  22.231  22.803  1.00  0.00    -0.082 Cl
ATOM     24  C   UNL A   1      30.670  23.502  26.110  1.00  0.00     0.002 A 
ENDBRANCH  15  17
ENDBRANCH   7  11
ENDBRANCH   4   7
ENDBRANCH   2   3
ENDBRANCH   1   2
BRANCH   1  25
ATOM     25  C   UNL A   1      32.157  31.549  26.629  1.00  0.00     0.118 C 
BRANCH  25  26
ATOM     26  N   UNL A   1      32.111  32.902  27.145  1.00  0.00    -0.352 N 
ATOM     27  C   UNL A   1      33.047  33.619  27.859  1.00  0.00     0.251 C 
ATOM     28  H   UNL A   1      31.275  33.388  26.955  1.00  0.00     0.163 HD
ATOM     29  O   UNL A   1      32.816  34.771  28.179  1.00  0.00    -0.269 OA
BRANCH  27  30
ATOM     30  C   UNL A   1      34.301  32.968  28.305  1.00  0.00     0.039 A 
ATOM     31  C   UNL A   1      35.466  33.741  28.307  1.00  0.00     0.014 A 
ATOM     32  C   UNL A   1      34.344  31.637  28.725  1.00  0.00     0.014 A 
ATOM     33  C   UNL A   1      36.653  33.212  28.821  1.00  0.00     0.010 A 
ATOM     34  C   UNL A   1      35.514  31.131  29.296  1.00  0.00     0.010 A 
ATOM     35  C   UNL A   1      36.675  31.921  29.371  1.00  0.00    -0.014 A 
BRANCH  35  36
ATOM     36  C   UNL A   1      37.879  31.407  30.083  1.00  0.00     0.031 A 
ATOM     37  C   UNL A   1      38.747  30.349  29.460  1.00  0.00     0.074 A 
ATOM     38  C   UNL A   1      38.132  31.824  31.342  1.00  0.00     0.049 A 
ATOM     39  N   UNL A   1      39.770  29.713  29.972  1.00  0.00    -0.248 NA
ATOM     40  C   UNL A   1      38.411  29.935  28.089  1.00  0.00     0.031 C 
ATOM     41  C   UNL A   1      37.333  32.800  32.086  1.00  0.00     0.029 A 
ATOM     42  N   UNL A   1      39.112  31.455  32.232  1.00  0.00    -0.354 N 
ATOM     43  C   UNL A   1      40.171  28.795  29.009  1.00  0.00     0.074 A 
ATOM     44  C   UNL A   1      39.268  28.944  27.887  1.00  0.00     0.031 C 
ATOM     45  C   UNL A   1      37.848  32.949  33.316  1.00  0.00     0.029 A 
ATOM     46  C   UNL A   1      38.987  32.050  33.468  1.00  0.00     0.049 A 
ATOM     47  H   UNL A   1      39.834  30.825  32.008  1.00  0.00     0.167 HD
ATOM     48  C   UNL A   1      41.207  27.923  29.045  1.00  0.00     0.034 A 
ATOM     49  C   UNL A   1      39.693  31.877  34.604  1.00  0.00     0.034 A 
ATOM     50  C   UNL A   1      42.123  27.801  30.147  1.00  0.00     0.049 A 
ATOM     51  C   UNL A   1      40.847  30.912  34.612  1.00  0.00     0.074 A 
ATOM     52  C   UNL A   1      43.252  27.007  30.242  1.00  0.00     0.029 A 
ATOM     53  N   UNL A   1      42.009  28.478  31.352  1.00  0.00    -0.354 N 
ATOM     54  N   UNL A   1      41.299  30.160  33.639  1.00  0.00    -0.248 NA
ATOM     55  C   UNL A   1      41.609  30.792  35.865  1.00  0.00     0.031 C 
ATOM     56  C   UNL A   1      43.801  27.177  31.517  1.00  0.00     0.029 A 
ATOM     57  C   UNL A   1      43.038  28.110  32.201  1.00  0.00     0.049 A 
ATOM     58  H   UNL A   1      41.300  29.125  31.571  1.00  0.00     0.167 HD
ATOM     59  C   UNL A   1      42.421  29.512  34.145  1.00  0.00     0.074 A 
ATOM     60  C   UNL A   1      42.587  29.969  35.509  1.00  0.00     0.031 C 
ATOM     61  C   UNL A   1      43.232  28.614  33.536  1.00  0.00     0.034 A 
BRANCH  48  62
ATOM     62  C   UNL A   1      41.434  27.050  27.837  1.00  0.00     0.023 A 
ATOM     63  C   UNL A   1      42.053  27.590  26.691  1.00  0.00     0.012 A 
ATOM     64  C   UNL A   1      41.097  25.682  27.858  1.00  0.00     0.148 A 
ATOM     65  C   UNL A   1      42.297  26.795  25.572  1.00  0.00     0.002 A 
ATOM     66  C   UNL A   1      41.387  24.883  26.758  1.00  0.00     0.091 A 
ATOM     67  F   UNL A   1      40.496  25.188  28.950  1.00  0.00    -0.205 F 
ATOM     68  C   UNL A   1      41.973  25.441  25.610  1.00  0.00     0.022 A 
BRANCH  66  69
ATOM     69  S   UNL A   1      41.087  23.113  26.737  1.00  0.00     0.127 S 
ATOM     70  O   UNL A   1      41.952  22.679  25.641  1.00  0.00    -0.237 OA
ATOM     71  O   UNL A   1      41.543  22.709  28.068  1.00  0.00    -0.237 OA
ATOM     72  O   UNL A   1      39.660  22.948  26.508  1.00  0.00    -0.744 OA
ENDBRANCH  66  69
ENDBRANCH  48  62
BRANCH  49  73
ATOM     73  C   UNL A   1      39.355  32.671  35.822  1.00  0.00     0.023 A 
ATOM     74  C   UNL A   1      39.871  33.975  35.961  1.00  0.00     0.012 A 
ATOM     75  C   UNL A   1      38.518  32.154  36.829  1.00  0.00     0.148 A 
ATOM     76  C   UNL A   1      39.587  34.735  37.097  1.00  0.00     0.002 A 
ATOM     77  C   UNL A   1      38.193  32.937  37.931  1.00  0.00     0.091 A 
ATOM     78  F   UNL A   1      38.045  30.908  36.683  1.00  0.00    -0.205 F 
ATOM     79  C   UNL A   1      38.742  34.220  38.076  1.00  0.00     0.022 A 
BRANCH  77  80
ATOM     80  S   UNL A   1      37.012  32.410  39.177  1.00  0.00     0.127 S 
ATOM     81  O   UNL A   1      37.330  33.303  40.288  1.00  0.00    -0.237 OA
ATOM     82  O   UNL A   1      35.735  32.681  38.514  1.00  0.00    -0.237 OA
ATOM     83  O   UNL A   1      37.281  30.997  39.405  1.00  0.00    -0.744 OA
ENDBRANCH  77  80
ENDBRANCH  49  73
BRANCH  61  84
ATOM     84  C   UNL A   1      44.420  28.097  34.306  1.00  0.00     0.023 A 
ATOM     85  C   UNL A   1      45.649  28.783  34.256  1.00  0.00     0.012 A 
ATOM     86  C   UNL A   1      44.281  26.986  35.162  1.00  0.00     0.148 A 
ATOM     87  C   UNL A   1      46.729  28.357  35.030  1.00  0.00     0.002 A 
ATOM     88  C   UNL A   1      45.344  26.598  35.968  1.00  0.00     0.091 A 
ATOM     89  F   UNL A   1      43.108  26.337  35.180  1.00  0.00    -0.205 F 
ATOM     90  C   UNL A   1      46.572  27.275  35.896  1.00  0.00     0.022 A 
BRANCH  88  91
ATOM     91  S   UNL A   1      45.206  25.285  37.186  1.00  0.00     0.127 S 
ATOM     92  O   UNL A   1      44.139  25.791  38.049  1.00  0.00    -0.237 OA
ATOM     93  O   UNL A   1      44.830  24.138  36.361  1.00  0.00    -0.237 OA
ATOM     94  O   UNL A   1      46.514  25.179  37.816  1.00  0.00    -0.744 OA
ENDBRANCH  88  91
ENDBRANCH  61  84
ENDBRANCH  35  36
ENDBRANCH  27  30
ENDBRANCH  25  26
ENDBRANCH   1  25
TORSDOF 16
ENDMDL
MODEL 2
REMARK VINA RESULT:     -12.2      1.891      2.386
REMARK SMILES CC[C@@](C)(NC(=O)Nc1c(C)cccc1Cl)C(=O)NCCCNC(=O)c1ccc(-c2c3nc(c(-c4cccc(S(=O)(=O)[O-])c4F)c4ccc([nH]4)c(-c4cccc(S(=O)(=O)[O-])c4F)c4nc(c(-c5cccc(S(=O)(=O)[O-])c5F)c5ccc2[nH]5)C=C4)C=C3)cc1
REMARK SMILES IDX 21 1 20 2 19 3 17 4 18 5 3 7 4 8 2 9 1 10 5 11 6 12 7 14
REMARK SMILES IDX 8 15 9 17 10 18 15 19 11 20 12 21 14 22 16 23 13 24 22 25
REMARK SMILES IDX 23 26 24 27 25 29 26 30 27 31 88 32 28 33 87 34 29 35 30 36
REMARK SMILES IDX 31 37 81 38 32 39 86 40 80 41 82 42 33 43 85 44 79 45 78 46
REMARK SMILES IDX 34 48 66 49 46 50 65 51 47 52 50 53 64 54 83 55 48 56 49 57
REMARK SMILES IDX 63 59 84 60 51 61 35 62 36 63 44 64 37 65 39 66 45 67 38 68
REMARK SMILES IDX 40 69 41 70 42 71 43 72 67 73 68 74 76 75 69 76 71 77 77 78
REMARK SMILES IDX 70 79 72 80 73 81 74 82 75 83 52 84 53 85 61 86 54 87 56 88
REMARK SMILES IDX 62 89 55 90 57 91 58 92 59 93 60 94
REMARK H PARENT 19 6 5 13 8 16 23 28 82 47 50 58
REMARK Flexibility Score: inf
ROOT
ATOM      1  C   UNL A   1      32.019  30.852  26.965  1.00  0.00     0.042 C 
ENDROOT
BRANCH   1   2
ATOM      2  C   UNL A   1      31.945  30.130  25.598  1.00  0.00     0.117 C 
BRANCH   2   3
ATOM      3  N   UNL A   1      33.201  29.544  25.147  1.00  0.00    -0.354 N 
ATOM      4  C   UNL A   1      33.444  28.600  24.150  1.00  0.00     0.245 C 
ATOM      5  O   UNL A   1      33.985  28.902  23.088  1.00  0.00    -0.272 OA
ATOM      6  H   UNL A   1      34.003  29.864  25.620  1.00  0.00     0.163 HD
BRANCH   4   7
ATOM      7  C   UNL A   1      32.922  27.175  24.436  1.00  0.00     0.117 C 
ATOM      8  C   UNL A   1      33.882  26.769  25.597  1.00  0.00     0.045 C 
BRANCH   7   9
ATOM      9  C   UNL A   1      31.488  26.853  24.930  1.00  0.00     0.035 C 
ATOM     10  C   UNL A   1      30.339  26.881  23.950  1.00  0.00     0.007 C 
ENDBRANCH   7   9
BRANCH   7  11
ATOM     11  N   UNL A   1      33.128  26.379  23.219  1.00  0.00    -0.324 N 
ATOM     12  C   UNL A   1      33.318  25.069  22.981  1.00  0.00     0.320 C 
ATOM     13  H   UNL A   1      33.125  26.923  22.399  1.00  0.00     0.166 HD
ATOM     14  O   UNL A   1      33.672  24.788  21.830  1.00  0.00    -0.248 OA
ATOM     15  N   UNL A   1      32.925  24.019  23.764  1.00  0.00    -0.306 N 
ATOM     16  H   UNL A   1      32.329  23.404  23.279  1.00  0.00     0.171 HD
BRANCH  15  17
ATOM     17  C   UNL A   1      33.162  23.581  25.120  1.00  0.00     0.064 A 
ATOM     18  C   UNL A   1      32.182  23.376  26.136  1.00  0.00    -0.026 A 
ATOM     19  C   UNL A   1      34.380  22.886  25.338  1.00  0.00     0.064 A 
ATOM     20  C   UNL A   1      30.675  23.273  25.996  1.00  0.00     0.046 C 
ATOM     21  C   UNL A   1      32.579  22.940  27.422  1.00  0.00     0.005 A 
ATOM     22  C   UNL A   1      34.689  22.265  26.558  1.00  0.00     0.023 A 
ATOM     23  Cl  UNL A   1      35.497  22.607  24.038  1.00  0.00    -0.082 Cl
ATOM     24  C   UNL A   1      33.819  22.366  27.630  1.00  0.00     0.002 A 
ENDBRANCH  15  17
ENDBRANCH   7  11
ENDBRANCH   4   7
ENDBRANCH   2   3
ENDBRANCH   1   2
BRANCH   1  25
ATOM     25  C   UNL A   1      33.113  31.893  27.224  1.00  0.00     0.118 C 
BRANCH  25  26
ATOM     26  N   UNL A   1      32.636  33.211  27.590  1.00  0.00    -0.352 N 
ATOM     27  C   UNL A   1      33.171  34.149  28.447  1.00  0.00     0.251 C 
ATOM     28  H   UNL A   1      31.794  33.481  27.155  1.00  0.00     0.163 HD
ATOM     29  O   UNL A   1      32.617  35.224  28.596  1.00  0.00    -0.269 OA
BRANCH  27  30
ATOM     30  C   UNL A   1      34.375  33.825  29.247  1.00  0.00     0.039 A 
ATOM     31  C   UNL A   1      34.200  33.055  30.400  1.00  0.00     0.014 A 
ATOM     32  C   UNL A   1      35.654  34.251  28.878  1.00  0.00     0.014 A 
ATOM     33  C   UNL A   1      35.312  32.628  31.130  1.00  0.00     0.010 A 
ATOM     34  C   UNL A   1      36.767  33.772  29.572  1.00  0.00     0.010 A 
ATOM     35  C   UNL A   1      36.609  32.936  30.692  1.00  0.00    -0.014 A 
BRANCH  35  36
ATOM     36  C   UNL A   1      37.806  32.344  31.352  1.00  0.00     0.031 A 
ATOM     37  C   UNL A   1      38.550  31.202  30.714  1.00  0.00     0.074 A 
ATOM     38  C   UNL A   1      38.164  32.770  32.582  1.00  0.00     0.049 A 
ATOM     39  N   UNL A   1      39.545  30.497  31.189  1.00  0.00    -0.248 NA
ATOM     40  C   UNL A   1      38.103  30.782  29.377  1.00  0.00     0.031 C 
ATOM     41  C   UNL A   1      37.491  33.828  33.339  1.00  0.00     0.029 A 
ATOM     42  N   UNL A   1      39.160  32.345  33.428  1.00  0.00    -0.354 N 
ATOM     43  C   UNL A   1      39.814  29.525  30.233  1.00  0.00     0.074 A 
ATOM     44  C   UNL A   1      38.864  29.718  29.159  1.00  0.00     0.031 C 
ATOM     45  C   UNL A   1      38.086  33.966  34.533  1.00  0.00     0.029 A 
ATOM     46  C   UNL A   1      39.155  32.980  34.650  1.00  0.00     0.049 A 
ATOM     47  H   UNL A   1      39.815  31.651  33.183  1.00  0.00     0.167 HD
ATOM     48  C   UNL A   1      40.776  28.571  30.239  1.00  0.00     0.034 A 
ATOM     49  C   UNL A   1      39.909  32.779  35.750  1.00  0.00     0.034 A 
ATOM     50  C   UNL A   1      41.742  28.403  31.292  1.00  0.00     0.049 A 
ATOM     51  C   UNL A   1      40.979  31.722  35.724  1.00  0.00     0.074 A 
ATOM     52  C   UNL A   1      42.806  27.520  31.349  1.00  0.00     0.029 A 
ATOM     53  N   UNL A   1      41.752  29.117  32.480  1.00  0.00    -0.354 N 
ATOM     54  N   UNL A   1      41.312  30.910  34.750  1.00  0.00    -0.248 NA
ATOM     55  C   UNL A   1      41.800  31.572  36.936  1.00  0.00     0.031 C 
ATOM     56  C   UNL A   1      43.439  27.677  32.586  1.00  0.00     0.029 A 
ATOM     57  C   UNL A   1      42.795  28.688  33.282  1.00  0.00     0.049 A 
ATOM     58  H   UNL A   1      41.112  29.826  32.719  1.00  0.00     0.167 HD
ATOM     59  C   UNL A   1      42.405  30.185  35.214  1.00  0.00     0.074 A 
ATOM     60  C   UNL A   1      42.686  30.662  36.552  1.00  0.00     0.031 C 
ATOM     61  C   UNL A   1      43.105  29.208  34.588  1.00  0.00     0.034 A 
BRANCH  48  62
ATOM     62  C   UNL A   1      40.863  27.651  29.047  1.00  0.00     0.023 A 
ATOM     63  C   UNL A   1      39.976  26.561  28.940  1.00  0.00     0.012 A 
ATOM     64  C   UNL A   1      41.777  27.902  28.003  1.00  0.00     0.148 A 
ATOM     65  C   UNL A   1      40.021  25.712  27.835  1.00  0.00     0.002 A 
ATOM     66  C   UNL A   1      41.783  27.080  26.882  1.00  0.00     0.091 A 
ATOM     67  F   UNL A   1      42.623  28.934  28.128  1.00  0.00    -0.205 F 
ATOM     68  C   UNL A   1      40.917  25.978  26.803  1.00  0.00     0.022 A 
BRANCH  66  69
ATOM     69  S   UNL A   1      42.840  27.386  25.462  1.00  0.00     0.127 S 
ATOM     70  O   UNL A   1      42.819  26.085  24.793  1.00  0.00    -0.237 OA
ATOM     71  O   UNL A   1      42.110  28.442  24.759  1.00  0.00    -0.237 OA
ATOM     72  O   UNL A   1      44.130  27.791  25.998  1.00  0.00    -0.744 OA
ENDBRANCH  66  69
ENDBRANCH  48  62
BRANCH  49  73
ATOM     73  C   UNL A   1      39.707  33.629  36.960  1.00  0.00     0.023 A 
ATOM     74  C   UNL A   1      40.223  34.939  36.977  1.00  0.00     0.012 A 
ATOM     75  C   UNL A   1      38.996  33.157  38.081  1.00  0.00     0.148 A 
ATOM     76  C   UNL A   1      40.066  35.752  38.102  1.00  0.00     0.002 A 
ATOM     77  C   UNL A   1      38.793  33.991  39.174  1.00  0.00     0.091 A 
ATOM     78  F   UNL A   1      38.520  31.904  38.049  1.00  0.00    -0.205 F 
ATOM     79  C   UNL A   1      39.344  35.281  39.195  1.00  0.00     0.022 A 
BRANCH  77  80
ATOM     80  S   UNL A   1      37.768  33.520  40.572  1.00  0.00     0.127 S 
ATOM     81  O   UNL A   1      38.574  32.473  41.194  1.00  0.00    -0.237 OA
ATOM     82  O   UNL A   1      37.696  34.772  41.327  1.00  0.00    -0.237 OA
ATOM     83  O   UNL A   1      36.499  33.087  40.005  1.00  0.00    -0.744 OA
ENDBRANCH  77  80
ENDBRANCH  49  73
BRANCH  61  84
ATOM     84  C   UNL A   1      44.289  28.615  35.308  1.00  0.00     0.023 A 
ATOM     85  C   UNL A   1      45.577  29.152  35.114  1.00  0.00     0.012 A 
ATOM     86  C   UNL A   1      44.102  27.588  36.255  1.00  0.00     0.148 A 
ATOM     87  C   UNL A   1      46.664  28.661  35.838  1.00  0.00     0.002 A 
ATOM     88  C   UNL A   1      45.179  27.140  37.009  1.00  0.00     0.091 A 
ATOM     89  F   UNL A   1      42.871  27.079  36.410  1.00  0.00    -0.205 F 
ATOM     90  C   UNL A   1      46.463  27.667  36.795  1.00  0.00     0.022 A 
BRANCH  88  91
ATOM     91  S   UNL A   1      45.000  25.938  38.332  1.00  0.00     0.127 S 
ATOM     92  O   UNL A   1      44.077  26.625  39.234  1.00  0.00    -0.237 OA
ATOM     93  O   UNL A   1      44.427  24.791  37.631  1.00  0.00    -0.237 OA
ATOM     94  O   UNL A   1      46.339  25.720  38.864  1.00  0.00    -0.744 OA
ENDBRANCH  88  91
ENDBRANCH  61  84
ENDBRANCH  35  36
ENDBRANCH  27  30
ENDBRANCH  25  26
ENDBRANCH   1  25
TORSDOF 16
ENDMDL
MODEL 3
REMARK VINA RESULT:     -12.2      5.962     11.043
REMARK SMILES CC[C@@](C)(NC(=O)Nc1c(C)cccc1Cl)C(=O)NCCCNC(=O)c1ccc(-c2c3nc(c(-c4cccc(S(=O)(=O)[O-])c4F)c4ccc([nH]4)c(-c4cccc(S(=O)(=O)[O-])c4F)c4nc(c(-c5cccc(S(=O)(=O)[O-])c5F)c5ccc2[nH]5)C=C4)C=C3)cc1
REMARK SMILES IDX 21 1 20 2 19 3 17 4 18 5 3 7 4 8 2 9 1 10 5 11 6 12 7 14
REMARK SMILES IDX 8 15 9 17 10 18 15 19 11 20 12 21 14 22 16 23 13 24 22 25
REMARK SMILES IDX 23 26 24 27 25 29 26 30 27 31 88 32 28 33 87 34 29 35 30 36
REMARK SMILES IDX 31 37 81 38 32 39 86 40 80 41 82 42 33 43 85 44 79 45 78 46
REMARK SMILES IDX 34 48 66 49 46 50 65 51 47 52 50 53 64 54 83 55 48 56 49 57
REMARK SMILES IDX 63 59 84 60 51 61 35 62 36 63 44 64 37 65 39 66 45 67 38 68
REMARK SMILES IDX 40 69 41 70 42 71 43 72 67 73 68 74 76 75 69 76 71 77 77 78
REMARK SMILES IDX 70 79 72 80 73 81 74 82 75 83 52 84 53 85 61 86 54 87 56 88
REMARK SMILES IDX 62 89 55 90 57 91 58 92 59 93 60 94
REMARK H PARENT 19 6 5 13 8 16 23 28 82 47 50 58
REMARK Flexibility Score: inf
ROOT
ATOM      1  C   UNL A   1      37.804  20.865  24.825  1.00  0.00     0.042 C 
ENDROOT
BRANCH   1   2
ATOM      2  C   UNL A   1      36.273  20.844  25.048  1.00  0.00     0.117 C 
BRANCH   2   3
ATOM      3  N   UNL A   1      35.814  21.600  26.207  1.00  0.00    -0.354 N 
ATOM      4  C   UNL A   1      34.519  21.909  26.620  1.00  0.00     0.245 C 
ATOM      5  O   UNL A   1      34.009  21.384  27.608  1.00  0.00    -0.272 OA
ATOM      6  H   UNL A   1      36.529  21.947  26.787  1.00  0.00     0.163 HD
BRANCH   4   7
ATOM      7  C   UNL A   1      33.744  22.892  25.715  1.00  0.00     0.117 C 
ATOM      8  C   UNL A   1      34.724  24.106  25.740  1.00  0.00     0.045 C 
BRANCH   7   9
ATOM      9  C   UNL A   1      33.418  22.632  24.222  1.00  0.00     0.035 C 
ATOM     10  C   UNL A   1      32.797  21.318  23.813  1.00  0.00     0.007 C 
ENDBRANCH   7   9
BRANCH   7  11
ATOM     11  N   UNL A   1      32.463  23.179  26.373  1.00  0.00    -0.324 N 
ATOM     12  C   UNL A   1      31.635  24.239  26.385  1.00  0.00     0.320 C 
ATOM     13  H   UNL A   1      32.139  22.431  26.925  1.00  0.00     0.166 HD
ATOM     14  O   UNL A   1      30.739  24.199  27.235  1.00  0.00    -0.248 OA
ATOM     15  N   UNL A   1      31.513  25.205  25.425  1.00  0.00    -0.306 N 
ATOM     16  H   UNL A   1      30.595  25.254  25.071  1.00  0.00     0.171 HD
BRANCH  15  17
ATOM     17  C   UNL A   1      32.384  26.171  24.797  1.00  0.00     0.064 A 
ATOM     18  C   UNL A   1      32.740  26.233  23.417  1.00  0.00    -0.026 A 
ATOM     19  C   UNL A   1      32.550  27.395  25.496  1.00  0.00     0.064 A 
ATOM     20  C   UNL A   1      32.097  25.528  22.238  1.00  0.00     0.046 C 
ATOM     21  C   UNL A   1      33.610  27.250  22.957  1.00  0.00     0.005 A 
ATOM     22  C   UNL A   1      33.238  28.490  24.952  1.00  0.00     0.023 A 
ATOM     23  Cl  UNL A   1      31.751  27.676  27.012  1.00  0.00    -0.082 Cl
ATOM     24  C   UNL A   1      33.841  28.385  23.711  1.00  0.00     0.002 A 
ENDBRANCH  15  17
ENDBRANCH   7  11
ENDBRANCH   4   7
ENDBRANCH   2   3
ENDBRANCH   1   2
BRANCH   1  25
ATOM     25  C   UNL A   1      38.755  20.678  26.012  1.00  0.00     0.118 C 
BRANCH  25  26
ATOM     26  N   UNL A   1      39.741  19.629  25.854  1.00  0.00    -0.352 N 
ATOM     27  C   UNL A   1      41.102  19.640  26.073  1.00  0.00     0.251 C 
ATOM     28  H   UNL A   1      39.381  18.768  25.539  1.00  0.00     0.163 HD
ATOM     29  O   UNL A   1      41.755  18.626  25.903  1.00  0.00    -0.269 OA
BRANCH  27  30
ATOM     30  C   UNL A   1      41.786  20.902  26.443  1.00  0.00     0.039 A 
ATOM     31  C   UNL A   1      42.064  21.812  25.420  1.00  0.00     0.014 A 
ATOM     32  C   UNL A   1      42.138  21.202  27.761  1.00  0.00     0.014 A 
ATOM     33  C   UNL A   1      42.606  23.063  25.727  1.00  0.00     0.010 A 
ATOM     34  C   UNL A   1      42.621  22.475  28.073  1.00  0.00     0.010 A 
ATOM     35  C   UNL A   1      42.839  23.427  27.062  1.00  0.00    -0.014 A 
BRANCH  35  36
ATOM     36  C   UNL A   1      43.247  24.814  27.422  1.00  0.00     0.031 A 
ATOM     37  C   UNL A   1      42.261  25.771  28.035  1.00  0.00     0.074 A 
ATOM     38  C   UNL A   1      44.485  25.245  27.101  1.00  0.00     0.049 A 
ATOM     39  N   UNL A   1      42.408  27.040  28.317  1.00  0.00    -0.248 NA
ATOM     40  C   UNL A   1      40.926  25.238  28.352  1.00  0.00     0.031 C 
ATOM     41  C   UNL A   1      45.519  24.438  26.449  1.00  0.00     0.029 A 
ATOM     42  N   UNL A   1      45.075  26.478  27.247  1.00  0.00    -0.354 N 
ATOM     43  C   UNL A   1      41.178  27.469  28.801  1.00  0.00     0.074 A 
ATOM     44  C   UNL A   1      40.289  26.327  28.757  1.00  0.00     0.031 C 
ATOM     45  C   UNL A   1      46.609  25.194  26.247  1.00  0.00     0.029 A 
ATOM     46  C   UNL A   1      46.343  26.550  26.713  1.00  0.00     0.049 A 
ATOM     47  H   UNL A   1      44.633  27.238  27.692  1.00  0.00     0.167 HD
ATOM     48  C   UNL A   1      40.826  28.693  29.261  1.00  0.00     0.034 A 
ATOM     49  C   UNL A   1      47.189  27.593  26.591  1.00  0.00     0.034 A 
ATOM     50  C   UNL A   1      41.721  29.817  29.336  1.00  0.00     0.049 A 
ATOM     51  C   UNL A   1      46.777  28.939  27.121  1.00  0.00     0.074 A 
ATOM     52  C   UNL A   1      41.480  31.074  29.864  1.00  0.00     0.029 A 
ATOM     53  N   UNL A   1      43.022  29.829  28.856  1.00  0.00    -0.354 N 
ATOM     54  N   UNL A   1      45.659  29.286  27.711  1.00  0.00    -0.248 NA
ATOM     55  C   UNL A   1      47.754  30.033  26.999  1.00  0.00     0.031 C 
ATOM     56  C   UNL A   1      42.623  31.856  29.671  1.00  0.00     0.029 A 
ATOM     57  C   UNL A   1      43.592  31.073  29.063  1.00  0.00     0.049 A 
ATOM     58  H   UNL A   1      43.474  29.064  28.431  1.00  0.00     0.167 HD
ATOM     59  C   UNL A   1      45.813  30.621  28.068  1.00  0.00     0.074 A 
ATOM     60  C   UNL A   1      47.137  31.018  27.640  1.00  0.00     0.031 C 
ATOM     61  C   UNL A   1      44.932  31.443  28.687  1.00  0.00     0.034 A 
BRANCH  48  62
ATOM     62  C   UNL A   1      39.414  28.880  29.758  1.00  0.00     0.023 A 
ATOM     63  C   UNL A   1      39.095  28.552  31.091  1.00  0.00     0.012 A 
ATOM     64  C   UNL A   1      38.422  29.440  28.929  1.00  0.00     0.148 A 
ATOM     65  C   UNL A   1      37.802  28.740  31.580  1.00  0.00     0.002 A 
ATOM     66  C   UNL A   1      37.149  29.670  29.437  1.00  0.00     0.091 A 
ATOM     67  F   UNL A   1      38.740  29.733  27.660  1.00  0.00    -0.205 F 
ATOM     68  C   UNL A   1      36.834  29.308  30.757  1.00  0.00     0.022 A 
BRANCH  66  69
ATOM     69  S   UNL A   1      35.854  30.473  28.485  1.00  0.00     0.127 S 
ATOM     70  O   UNL A   1      36.634  31.302  27.567  1.00  0.00    -0.237 OA
ATOM     71  O   UNL A   1      35.185  29.333  27.856  1.00  0.00    -0.237 OA
ATOM     72  O   UNL A   1      35.040  31.201  29.446  1.00  0.00    -0.744 OA
ENDBRANCH  66  69
ENDBRANCH  48  62
BRANCH  49  73
ATOM     73  C   UNL A   1      48.534  27.396  25.975  1.00  0.00     0.023 A 
ATOM     74  C   UNL A   1      49.618  27.014  26.790  1.00  0.00     0.012 A 
ATOM     75  C   UNL A   1      48.743  27.566  24.593  1.00  0.00     0.148 A 
ATOM     76  C   UNL A   1      50.891  26.840  26.246  1.00  0.00     0.002 A 
ATOM     77  C   UNL A   1      50.001  27.334  24.048  1.00  0.00     0.091 A 
ATOM     78  F   UNL A   1      47.701  27.938  23.835  1.00  0.00    -0.205 F 
ATOM     79  C   UNL A   1      51.080  26.991  24.875  1.00  0.00     0.022 A 
BRANCH  77  80
ATOM     80  S   UNL A   1      50.311  27.378  22.279  1.00  0.00     0.127 S 
ATOM     81  O   UNL A   1      50.122  28.794  21.977  1.00  0.00    -0.237 OA
ATOM     82  O   UNL A   1      51.696  26.911  22.206  1.00  0.00    -0.237 OA
ATOM     83  O   UNL A   1      49.340  26.470  21.685  1.00  0.00    -0.744 OA
ENDBRANCH  77  80
ENDBRANCH  49  73
BRANCH  61  84
ATOM     84  C   UNL A   1      45.376  32.848  29.003  1.00  0.00     0.023 A 
ATOM     85  C   UNL A   1      46.115  33.111  30.173  1.00  0.00     0.012 A 
ATOM     86  C   UNL A   1      45.147  33.889  28.081  1.00  0.00     0.148 A 
ATOM     87  C   UNL A   1      46.599  34.394  30.431  1.00  0.00     0.002 A 
ATOM     88  C   UNL A   1      45.676  35.151  28.318  1.00  0.00     0.091 A 
ATOM     89  F   UNL A   1      44.426  33.620  26.982  1.00  0.00    -0.205 F 
ATOM     90  C   UNL A   1      46.393  35.408  29.497  1.00  0.00     0.022 A 
BRANCH  88  91
ATOM     91  S   UNL A   1      45.551  36.491  27.129  1.00  0.00     0.127 S 
ATOM     92  O   UNL A   1      46.343  37.537  27.776  1.00  0.00    -0.237 OA
ATOM     93  O   UNL A   1      46.168  35.907  25.940  1.00  0.00    -0.237 OA
ATOM     94  O   UNL A   1      44.130  36.783  26.996  1.00  0.00    -0.744 OA
ENDBRANCH  88  91
ENDBRANCH  61  84
ENDBRANCH  35  36
ENDBRANCH  27  30
ENDBRANCH  25  26
ENDBRANCH   1  25
TORSDOF 16
ENDMDL
