MODEL 1
REMARK VINA RESULT:     -13.0      0.000      0.000
REMARK SMILES COc1ccc(-c2cc(Cl)cc3c2O[C@@H](C(F)(F)F)C(C(=O)NCCCNC(=O)c2ccc(-c4c5nc(c(-c6cccc(S(=O)(=O)[O-])c6F)c6ccc([nH]6)c(-c6cccc(S(=O)(=O)[O-])c6F)c6nc(c(-c7cccc(S(=O)(=O)[O-])c7F)c7ccc4[nH]7)C=C6)C=C5)cc2)=C3)cc1C
REMARK SMILES IDX 25 1 24 2 23 3 21 4 22 5 20 7 7 8 8 9 13 10 9 11 12 12 14 13
REMARK SMILES IDX 10 14 11 15 93 16 15 17 6 18 3 19 4 20 95 21 5 22 94 23
REMARK SMILES IDX 96 24 2 25 1 26 16 27 17 28 18 29 19 30 26 31 27 32 28 33
REMARK SMILES IDX 29 35 30 36 31 37 92 38 32 39 91 40 33 41 34 42 35 43 85 44
REMARK SMILES IDX 36 45 90 46 84 47 86 48 37 49 89 50 83 51 82 52 38 54 70 55
REMARK SMILES IDX 50 56 69 57 51 58 54 59 68 60 87 61 52 62 53 63 67 65 88 66
REMARK SMILES IDX 55 67 39 68 40 69 48 70 41 71 43 72 49 73 42 74 44 75 45 76
REMARK SMILES IDX 46 77 47 78 71 79 72 80 80 81 73 82 75 83 81 84 74 85 76 86
REMARK SMILES IDX 77 87 78 88 79 89 56 90 57 91 65 92 58 93 60 94 66 95 59 96
REMARK SMILES IDX 61 97 62 98 63 99 64 100
REMARK H PARENT 23 6 27 34 86 53 54 64
REMARK Flexibility Score: inf
ROOT
ATOM      1  C   UNL A   1      36.452  22.424  26.372  1.00  0.00     0.042 C 
ENDROOT
BRANCH   1   2
ATOM      2  C   UNL A   1      35.138  22.439  25.594  1.00  0.00     0.118 C 
BRANCH   2   3
ATOM      3  N   UNL A   1      34.307  23.604  25.877  1.00  0.00    -0.352 N 
ATOM      4  C   UNL A   1      32.959  23.800  25.804  1.00  0.00     0.251 C 
ATOM      5  O   UNL A   1      32.444  24.467  26.707  1.00  0.00    -0.270 OA
ATOM      6  H   UNL A   1      34.812  24.394  26.177  1.00  0.00     0.163 HD
BRANCH   4   7
ATOM      7  C   UNL A   1      32.106  23.360  24.607  1.00  0.00     0.067 C 
ATOM      8  C   UNL A   1      31.618  27.332  24.003  1.00  0.00     0.026 A 
ATOM      9  C   UNL A   1      30.350  27.852  23.672  1.00  0.00     0.033 A 
ATOM     10  C   UNL A   1      31.721  25.941  23.987  1.00  0.00     0.135 A 
ATOM     11  C   UNL A   1      29.219  27.030  23.688  1.00  0.00     0.042 A 
ATOM     12  C   UNL A   1      30.581  25.151  24.296  1.00  0.00     0.019 A 
ATOM     13  O   UNL A   1      32.890  25.319  23.497  1.00  0.00    -0.475 OA
ATOM     14  Cl  UNL A   1      27.675  27.708  23.347  1.00  0.00    -0.084 Cl
ATOM     15  C   UNL A   1      29.317  25.699  24.098  1.00  0.00     0.032 A 
ATOM     16  C   UNL A   1      30.808  23.738  24.768  1.00  0.00     0.025 C 
ATOM     17  C   UNL A   1      32.576  23.911  23.268  1.00  0.00     0.314 C 
BRANCH   8  18
ATOM     18  C   UNL A   1      32.357  28.126  25.022  1.00  0.00    -0.014 A 
ATOM     19  C   UNL A   1      33.694  30.036  26.628  1.00  0.00     0.121 A 
ATOM     20  C   UNL A   1      34.337  28.863  26.201  1.00  0.00     0.047 A 
ATOM     21  C   UNL A   1      32.363  30.267  26.284  1.00  0.00    -0.008 A 
ATOM     22  C   UNL A   1      33.678  27.913  25.400  1.00  0.00     0.013 A 
ATOM     23  C   UNL A   1      31.705  29.283  25.528  1.00  0.00     0.016 A 
ATOM     24  C   UNL A   1      31.623  31.527  26.628  1.00  0.00     0.048 C 
BRANCH  19  25
ATOM     25  O   UNL A   1      34.486  30.968  27.246  1.00  0.00    -0.496 OA
ATOM     26  C   UNL A   1      34.408  30.944  28.670  1.00  0.00     0.278 C 
ENDBRANCH  19  25
ENDBRANCH   8  18
BRANCH  17  27
ATOM     27  C   UNL A   1      33.435  22.985  22.401  1.00  0.00     0.429 C 
ATOM     28  F   UNL A   1      33.259  21.690  22.808  1.00  0.00    -0.167 F 
ATOM     29  F   UNL A   1      33.105  23.011  21.096  1.00  0.00    -0.167 F 
ATOM     30  F   UNL A   1      34.760  23.202  22.523  1.00  0.00    -0.167 F 
ENDBRANCH  17  27
ENDBRANCH   4   7
ENDBRANCH   2   3
ENDBRANCH   1   2
BRANCH   1  31
ATOM     31  C   UNL A   1      37.697  22.731  25.548  1.00  0.00     0.118 C 
BRANCH  31  32
ATOM     32  N   UNL A   1      38.938  22.304  26.196  1.00  0.00    -0.352 N 
ATOM     33  C   UNL A   1      39.941  23.082  26.759  1.00  0.00     0.251 C 
ATOM     34  H   UNL A   1      39.082  21.331  26.239  1.00  0.00     0.163 HD
ATOM     35  O   UNL A   1      40.930  22.555  27.241  1.00  0.00    -0.269 OA
BRANCH  33  36
ATOM     36  C   UNL A   1      39.735  24.546  26.823  1.00  0.00     0.039 A 
ATOM     37  C   UNL A   1      40.732  25.386  26.312  1.00  0.00     0.014 A 
ATOM     38  C   UNL A   1      38.707  25.053  27.612  1.00  0.00     0.014 A 
ATOM     39  C   UNL A   1      40.851  26.683  26.811  1.00  0.00     0.010 A 
ATOM     40  C   UNL A   1      38.872  26.302  28.169  1.00  0.00     0.010 A 
ATOM     41  C   UNL A   1      39.989  27.082  27.830  1.00  0.00    -0.014 A 
BRANCH  41  42
ATOM     42  C   UNL A   1      40.244  28.188  28.745  1.00  0.00     0.031 A 
ATOM     43  C   UNL A   1      39.395  29.395  28.744  1.00  0.00     0.074 A 
ATOM     44  C   UNL A   1      41.054  27.950  29.803  1.00  0.00     0.049 A 
ATOM     45  N   UNL A   1      39.634  30.439  29.464  1.00  0.00    -0.248 NA
ATOM     46  C   UNL A   1      38.197  29.517  27.926  1.00  0.00     0.031 C 
ATOM     47  C   UNL A   1      41.043  28.633  31.092  1.00  0.00     0.029 A 
ATOM     48  N   UNL A   1      42.204  27.155  29.852  1.00  0.00    -0.354 N 
ATOM     49  C   UNL A   1      38.515  31.238  29.426  1.00  0.00     0.074 A 
ATOM     50  C   UNL A   1      37.668  30.643  28.416  1.00  0.00     0.031 C 
ATOM     51  C   UNL A   1      42.238  28.472  31.675  1.00  0.00     0.029 A 
ATOM     52  C   UNL A   1      43.101  27.815  30.713  1.00  0.00     0.049 A 
ATOM     53  H   UNL A   1      42.357  26.305  29.379  1.00  0.00     0.167 HD
ATOM     54  C   UNL A   1      38.382  32.237  30.342  1.00  0.00     0.034 A 
ATOM     55  C   UNL A   1      44.336  28.249  30.328  1.00  0.00     0.034 A 
ATOM     56  C   UNL A   1      39.566  32.351  31.205  1.00  0.00     0.049 A 
ATOM     57  C   UNL A   1      44.508  29.758  30.444  1.00  0.00     0.074 A 
ATOM     58  C   UNL A   1      39.898  31.967  32.494  1.00  0.00     0.029 A 
ATOM     59  N   UNL A   1      40.750  32.741  30.614  1.00  0.00    -0.354 N 
ATOM     60  N   UNL A   1      43.682  30.565  31.057  1.00  0.00    -0.248 NA
ATOM     61  C   UNL A   1      45.590  30.487  29.775  1.00  0.00     0.031 C 
ATOM     62  C   UNL A   1      41.311  32.120  32.654  1.00  0.00     0.029 A 
ATOM     63  C   UNL A   1      41.828  32.608  31.467  1.00  0.00     0.049 A 
ATOM     64  H   UNL A   1      40.819  33.077  29.691  1.00  0.00     0.167 HD
ATOM     65  C   UNL A   1      43.976  31.860  30.700  1.00  0.00     0.074 A 
ATOM     66  C   UNL A   1      45.218  31.764  29.957  1.00  0.00     0.031 C 
ATOM     67  C   UNL A   1      43.146  32.923  30.938  1.00  0.00     0.034 A 
BRANCH  54  68
ATOM     68  C   UNL A   1      37.089  32.978  30.611  1.00  0.00     0.023 A 
ATOM     69  C   UNL A   1      36.491  32.818  31.880  1.00  0.00     0.012 A 
ATOM     70  C   UNL A   1      36.387  33.787  29.690  1.00  0.00     0.148 A 
ATOM     71  C   UNL A   1      35.226  33.331  32.185  1.00  0.00     0.002 A 
ATOM     72  C   UNL A   1      35.085  34.217  29.956  1.00  0.00     0.091 A 
ATOM     73  F   UNL A   1      37.004  34.225  28.588  1.00  0.00    -0.205 F 
ATOM     74  C   UNL A   1      34.501  33.992  31.206  1.00  0.00     0.022 A 
BRANCH  72  75
ATOM     75  S   UNL A   1      34.041  34.947  28.684  1.00  0.00     0.127 S 
ATOM     76  O   UNL A   1      34.447  34.205  27.488  1.00  0.00    -0.237 OA
ATOM     77  O   UNL A   1      32.695  34.640  29.159  1.00  0.00    -0.237 OA
ATOM     78  O   UNL A   1      34.396  36.362  28.645  1.00  0.00    -0.744 OA
ENDBRANCH  72  75
ENDBRANCH  54  68
BRANCH  55  79
ATOM     79  C   UNL A   1      44.969  27.373  29.301  1.00  0.00     0.023 A 
ATOM     80  C   UNL A   1      45.417  26.102  29.738  1.00  0.00     0.012 A 
ATOM     81  C   UNL A   1      44.782  27.591  27.926  1.00  0.00     0.148 A 
ATOM     82  C   UNL A   1      45.566  25.046  28.840  1.00  0.00     0.002 A 
ATOM     83  C   UNL A   1      44.928  26.529  27.036  1.00  0.00     0.091 A 
ATOM     84  F   UNL A   1      44.371  28.798  27.520  1.00  0.00    -0.205 F 
ATOM     85  C   UNL A   1      45.291  25.253  27.493  1.00  0.00     0.022 A 
BRANCH  83  86
ATOM     86  S   UNL A   1      44.502  26.685  25.298  1.00  0.00     0.127 S 
ATOM     87  O   UNL A   1      43.879  25.399  25.031  1.00  0.00    -0.237 OA
ATOM     88  O   UNL A   1      43.596  27.831  25.306  1.00  0.00    -0.237 OA
ATOM     89  O   UNL A   1      45.775  26.941  24.626  1.00  0.00    -0.744 OA
ENDBRANCH  83  86
ENDBRANCH  55  79
BRANCH  67  90
ATOM     90  C   UNL A   1      43.522  34.359  30.623  1.00  0.00     0.023 A 
ATOM     91  C   UNL A   1      43.811  35.257  31.672  1.00  0.00     0.012 A 
ATOM     92  C   UNL A   1      43.455  34.903  29.315  1.00  0.00     0.148 A 
ATOM     93  C   UNL A   1      44.076  36.610  31.431  1.00  0.00     0.002 A 
ATOM     94  C   UNL A   1      43.627  36.266  29.091  1.00  0.00     0.091 A 
ATOM     95  F   UNL A   1      43.266  34.095  28.267  1.00  0.00    -0.205 F 
ATOM     96  C   UNL A   1      43.966  37.118  30.144  1.00  0.00     0.022 A 
BRANCH  94  97
ATOM     97  S   UNL A   1      43.324  37.030  27.490  1.00  0.00     0.127 S 
ATOM     98  O   UNL A   1      44.324  36.366  26.652  1.00  0.00    -0.237 OA
ATOM     99  O   UNL A   1      41.944  36.630  27.224  1.00  0.00    -0.237 OA
ATOM    100  O   UNL A   1      43.544  38.457  27.676  1.00  0.00    -0.744 OA
ENDBRANCH  94  97
ENDBRANCH  67  90
ENDBRANCH  41  42
ENDBRANCH  33  36
ENDBRANCH  31  32
ENDBRANCH   1  31
TORSDOF 16
ENDMDL
MODEL 2
REMARK VINA RESULT:     -13.0      2.197      2.998
REMARK SMILES COc1ccc(-c2cc(Cl)cc3c2O[C@@H](C(F)(F)F)C(C(=O)NCCCNC(=O)c2ccc(-c4c5nc(c(-c6cccc(S(=O)(=O)[O-])c6F)c6ccc([nH]6)c(-c6cccc(S(=O)(=O)[O-])c6F)c6nc(c(-c7cccc(S(=O)(=O)[O-])c7F)c7ccc4[nH]7)C=C6)C=C5)cc2)=C3)cc1C
REMARK SMILES IDX 25 1 24 2 23 3 21 4 22 5 20 7 7 8 8 9 13 10 9 11 12 12 14 13
REMARK SMILES IDX 10 14 11 15 93 16 15 17 6 18 3 19 4 20 95 21 5 22 94 23
REMARK SMILES IDX 96 24 2 25 1 26 16 27 17 28 18 29 19 30 26 31 27 32 28 33
REMARK SMILES IDX 29 35 30 36 31 37 92 38 32 39 91 40 33 41 34 42 35 43 85 44
REMARK SMILES IDX 36 45 90 46 84 47 86 48 37 49 89 50 83 51 82 52 38 54 70 55
REMARK SMILES IDX 50 56 69 57 51 58 54 59 68 60 87 61 52 62 53 63 67 65 88 66
REMARK SMILES IDX 55 67 39 68 40 69 48 70 41 71 43 72 49 73 42 74 44 75 45 76
REMARK SMILES IDX 46 77 47 78 71 79 72 80 80 81 73 82 75 83 81 84 74 85 76 86
REMARK SMILES IDX 77 87 78 88 79 89 56 90 57 91 65 92 58 93 60 94 66 95 59 96
REMARK SMILES IDX 61 97 62 98 63 99 64 100
REMARK H PARENT 23 6 27 34 86 53 54 64
REMARK Flexibility Score: inf
ROOT
ATOM      1  C   UNL A   1      38.896  20.960  25.398  1.00  0.00     0.042 C 
ENDROOT
BRANCH   1   2
ATOM      2  C   UNL A   1      37.476  20.694  24.906  1.00  0.00     0.118 C 
BRANCH   2   3
ATOM      3  N   UNL A   1      36.584  21.839  25.056  1.00  0.00    -0.352 N 
ATOM      4  C   UNL A   1      35.604  22.117  25.964  1.00  0.00     0.251 C 
ATOM      5  O   UNL A   1      35.531  23.284  26.362  1.00  0.00    -0.270 OA
ATOM      6  H   UNL A   1      36.713  22.541  24.377  1.00  0.00     0.163 HD
BRANCH   4   7
ATOM      7  C   UNL A   1      34.533  21.103  26.388  1.00  0.00     0.067 C 
ATOM      8  C   UNL A   1      31.971  23.639  24.547  1.00  0.00     0.026 A 
ATOM      9  C   UNL A   1      30.736  23.962  25.145  1.00  0.00     0.033 A 
ATOM     10  C   UNL A   1      32.683  22.607  25.157  1.00  0.00     0.135 A 
ATOM     11  C   UNL A   1      30.439  23.528  26.440  1.00  0.00     0.042 A 
ATOM     12  C   UNL A   1      32.550  22.395  26.556  1.00  0.00     0.019 A 
ATOM     13  O   UNL A   1      33.390  21.668  24.374  1.00  0.00    -0.475 OA
ATOM     14  Cl  UNL A   1      28.952  23.996  27.170  1.00  0.00    -0.084 Cl
ATOM     15  C   UNL A   1      31.388  22.828  27.187  1.00  0.00     0.032 A 
ATOM     16  C   UNL A   1      33.657  21.660  27.268  1.00  0.00     0.025 C 
ATOM     17  C   UNL A   1      33.719  20.535  25.234  1.00  0.00     0.314 C 
BRANCH   8  18
ATOM     18  C   UNL A   1      32.692  24.805  23.966  1.00  0.00    -0.014 A 
ATOM     19  C   UNL A   1      33.701  27.307  23.110  1.00  0.00     0.121 A 
ATOM     20  C   UNL A   1      33.309  26.325  22.187  1.00  0.00     0.047 A 
ATOM     21  C   UNL A   1      33.621  27.051  24.479  1.00  0.00    -0.008 A 
ATOM     22  C   UNL A   1      32.803  25.081  22.608  1.00  0.00     0.013 A 
ATOM     23  C   UNL A   1      33.165  25.785  24.879  1.00  0.00     0.016 A 
ATOM     24  C   UNL A   1      33.943  28.069  25.534  1.00  0.00     0.048 C 
BRANCH  19  25
ATOM     25  O   UNL A   1      34.003  28.539  22.591  1.00  0.00    -0.496 OA
ATOM     26  C   UNL A   1      32.880  29.410  22.470  1.00  0.00     0.278 C 
ENDBRANCH  19  25
ENDBRANCH   8  18
BRANCH  17  27
ATOM     27  C   UNL A   1      34.141  19.163  24.699  1.00  0.00     0.429 C 
ATOM     28  F   UNL A   1      33.615  18.183  25.496  1.00  0.00    -0.167 F 
ATOM     29  F   UNL A   1      33.692  18.909  23.456  1.00  0.00    -0.167 F 
ATOM     30  F   UNL A   1      35.472  18.952  24.736  1.00  0.00    -0.167 F 
ENDBRANCH  17  27
ENDBRANCH   4   7
ENDBRANCH   2   3
ENDBRANCH   1   2
BRANCH   1  31
ATOM     31  C   UNL A   1      39.075  22.240  26.206  1.00  0.00     0.118 C 
BRANCH  31  32
ATOM     32  N   UNL A   1      40.297  22.250  27.011  1.00  0.00    -0.352 N 
ATOM     33  C   UNL A   1      40.930  23.324  27.622  1.00  0.00     0.251 C 
ATOM     34  H   UNL A   1      40.730  21.375  27.136  1.00  0.00     0.163 HD
ATOM     35  O   UNL A   1      41.967  23.153  28.243  1.00  0.00    -0.269 OA
BRANCH  33  36
ATOM     36  C   UNL A   1      40.273  24.648  27.562  1.00  0.00     0.039 A 
ATOM     37  C   UNL A   1      40.758  25.597  26.655  1.00  0.00     0.014 A 
ATOM     38  C   UNL A   1      39.383  25.010  28.569  1.00  0.00     0.014 A 
ATOM     39  C   UNL A   1      40.566  26.953  26.919  1.00  0.00     0.010 A 
ATOM     40  C   UNL A   1      39.263  26.347  28.879  1.00  0.00     0.010 A 
ATOM     41  C   UNL A   1      39.923  27.312  28.102  1.00  0.00    -0.014 A 
BRANCH  41  42
ATOM     42  C   UNL A   1      40.028  28.621  28.737  1.00  0.00     0.031 A 
ATOM     43  C   UNL A   1      39.002  29.660  28.524  1.00  0.00     0.074 A 
ATOM     44  C   UNL A   1      40.893  28.746  29.771  1.00  0.00     0.049 A 
ATOM     45  N   UNL A   1      39.095  30.862  28.984  1.00  0.00    -0.248 NA
ATOM     46  C   UNL A   1      37.778  29.420  27.773  1.00  0.00     0.031 C 
ATOM     47  C   UNL A   1      40.810  29.692  30.878  1.00  0.00     0.029 A 
ATOM     48  N   UNL A   1      42.153  28.158  29.922  1.00  0.00    -0.354 N 
ATOM     49  C   UNL A   1      37.865  31.460  28.841  1.00  0.00     0.074 A 
ATOM     50  C   UNL A   1      37.094  30.537  28.037  1.00  0.00     0.031 C 
ATOM     51  C   UNL A   1      42.031  29.841  31.409  1.00  0.00     0.029 A 
ATOM     52  C   UNL A   1      42.959  29.118  30.563  1.00  0.00     0.049 A 
ATOM     53  H   UNL A   1      42.423  27.255  29.637  1.00  0.00     0.167 HD
ATOM     54  C   UNL A   1      37.602  32.610  29.523  1.00  0.00     0.034 A 
ATOM     55  C   UNL A   1      44.101  29.629  30.019  1.00  0.00     0.034 A 
ATOM     56  C   UNL A   1      38.777  33.085  30.268  1.00  0.00     0.049 A 
ATOM     57  C   UNL A   1      44.040  31.135  29.793  1.00  0.00     0.074 A 
ATOM     58  C   UNL A   1      39.199  33.053  31.587  1.00  0.00     0.029 A 
ATOM     59  N   UNL A   1      39.870  33.501  29.536  1.00  0.00    -0.354 N 
ATOM     60  N   UNL A   1      43.115  31.930  30.264  1.00  0.00    -0.248 NA
ATOM     61  C   UNL A   1      44.978  31.844  28.918  1.00  0.00     0.031 C 
ATOM     62  C   UNL A   1      40.575  33.441  31.624  1.00  0.00     0.029 A 
ATOM     63  C   UNL A   1      40.978  33.721  30.331  1.00  0.00     0.049 A 
ATOM     64  H   UNL A   1      39.861  33.627  28.559  1.00  0.00     0.167 HD
ATOM     65  C   UNL A   1      43.195  33.140  29.617  1.00  0.00     0.074 A 
ATOM     66  C   UNL A   1      44.417  33.061  28.839  1.00  0.00     0.031 C 
ATOM     67  C   UNL A   1      42.217  34.097  29.667  1.00  0.00     0.034 A 
BRANCH  54  68
ATOM     68  C   UNL A   1      36.218  33.195  29.702  1.00  0.00     0.023 A 
ATOM     69  C   UNL A   1      35.573  33.718  28.559  1.00  0.00     0.012 A 
ATOM     70  C   UNL A   1      35.517  33.316  30.922  1.00  0.00     0.148 A 
ATOM     71  C   UNL A   1      34.363  34.416  28.633  1.00  0.00     0.002 A 
ATOM     72  C   UNL A   1      34.361  34.095  31.014  1.00  0.00     0.091 A 
ATOM     73  F   UNL A   1      35.908  32.606  31.984  1.00  0.00    -0.205 F 
ATOM     74  C   UNL A   1      33.779  34.645  29.868  1.00  0.00     0.022 A 
BRANCH  72  75
ATOM     75  S   UNL A   1      33.639  34.551  32.599  1.00  0.00     0.127 S 
ATOM     76  O   UNL A   1      34.701  35.364  33.198  1.00  0.00    -0.237 OA
ATOM     77  O   UNL A   1      32.450  35.302  32.206  1.00  0.00    -0.237 OA
ATOM     78  O   UNL A   1      33.397  33.294  33.300  1.00  0.00    -0.744 OA
ENDBRANCH  72  75
ENDBRANCH  54  68
BRANCH  55  79
ATOM     79  C   UNL A   1      44.835  28.646  29.171  1.00  0.00     0.023 A 
ATOM     80  C   UNL A   1      45.388  27.523  29.834  1.00  0.00     0.012 A 
ATOM     81  C   UNL A   1      44.661  28.595  27.779  1.00  0.00     0.148 A 
ATOM     82  C   UNL A   1      45.654  26.342  29.142  1.00  0.00     0.002 A 
ATOM     83  C   UNL A   1      44.923  27.410  27.096  1.00  0.00     0.091 A 
ATOM     84  F   UNL A   1      44.150  29.666  27.158  1.00  0.00    -0.205 F 
ATOM     85  C   UNL A   1      45.392  26.276  27.779  1.00  0.00     0.022 A 
BRANCH  83  86
ATOM     86  S   UNL A   1      44.524  27.210  25.356  1.00  0.00     0.127 S 
ATOM     87  O   UNL A   1      44.448  25.763  25.236  1.00  0.00    -0.237 OA
ATOM     88  O   UNL A   1      43.250  27.917  25.251  1.00  0.00    -0.237 OA
ATOM     89  O   UNL A   1      45.624  27.862  24.646  1.00  0.00    -0.744 OA
ENDBRANCH  83  86
ENDBRANCH  55  79
BRANCH  67  90
ATOM     90  C   UNL A   1      42.356  35.465  29.026  1.00  0.00     0.023 A 
ATOM     91  C   UNL A   1      41.855  35.688  27.726  1.00  0.00     0.012 A 
ATOM     92  C   UNL A   1      43.108  36.516  29.610  1.00  0.00     0.148 A 
ATOM     93  C   UNL A   1      42.040  36.907  27.064  1.00  0.00     0.002 A 
ATOM     94  C   UNL A   1      43.369  37.691  28.912  1.00  0.00     0.091 A 
ATOM     95  F   UNL A   1      43.542  36.403  30.870  1.00  0.00    -0.205 F 
ATOM     96  C   UNL A   1      42.812  37.902  27.649  1.00  0.00     0.022 A 
BRANCH  94  97
ATOM     97  S   UNL A   1      44.503  38.948  29.521  1.00  0.00     0.127 S 
ATOM     98  O   UNL A   1      45.716  38.162  29.758  1.00  0.00    -0.237 OA
ATOM     99  O   UNL A   1      44.581  39.858  28.381  1.00  0.00    -0.237 OA
ATOM    100  O   UNL A   1      43.894  39.494  30.725  1.00  0.00    -0.744 OA
ENDBRANCH  94  97
ENDBRANCH  67  90
ENDBRANCH  41  42
ENDBRANCH  33  36
ENDBRANCH  31  32
ENDBRANCH   1  31
TORSDOF 16
ENDMDL
MODEL 3
REMARK VINA RESULT:     -12.9      3.851      9.387
REMARK SMILES COc1ccc(-c2cc(Cl)cc3c2O[C@@H](C(F)(F)F)C(C(=O)NCCCNC(=O)c2ccc(-c4c5nc(c(-c6cccc(S(=O)(=O)[O-])c6F)c6ccc([nH]6)c(-c6cccc(S(=O)(=O)[O-])c6F)c6nc(c(-c7cccc(S(=O)(=O)[O-])c7F)c7ccc4[nH]7)C=C6)C=C5)cc2)=C3)cc1C
REMARK SMILES IDX 25 1 24 2 23 3 21 4 22 5 20 7 7 8 8 9 13 10 9 11 12 12 14 13
REMARK SMILES IDX 10 14 11 15 93 16 15 17 6 18 3 19 4 20 95 21 5 22 94 23
REMARK SMILES IDX 96 24 2 25 1 26 16 27 17 28 18 29 19 30 26 31 27 32 28 33
REMARK SMILES IDX 29 35 30 36 31 37 92 38 32 39 91 40 33 41 34 42 35 43 85 44
REMARK SMILES IDX 36 45 90 46 84 47 86 48 37 49 89 50 83 51 82 52 38 54 70 55
REMARK SMILES IDX 50 56 69 57 51 58 54 59 68 60 87 61 52 62 53 63 67 65 88 66
REMARK SMILES IDX 55 67 39 68 40 69 48 70 41 71 43 72 49 73 42 74 44 75 45 76
REMARK SMILES IDX 46 77 47 78 71 79 72 80 80 81 73 82 75 83 81 84 74 85 76 86
REMARK SMILES IDX 77 87 78 88 79 89 56 90 57 91 65 92 58 93 60 94 66 95 59 96
REMARK SMILES IDX 61 97 62 98 63 99 64 100
REMARK H PARENT 23 6 27 34 86 53 54 64
REMARK Flexibility Score: inf
ROOT
ATOM      1  C   UNL A   1      34.069  28.918  25.768  1.00  0.00     0.042 C 
ENDROOT
BRANCH   1   2
ATOM      2  C   UNL A   1      33.070  27.994  25.077  1.00  0.00     0.118 C 
BRANCH   2   3
ATOM      3  N   UNL A   1      33.678  26.789  24.521  1.00  0.00    -0.352 N 
ATOM      4  C   UNL A   1      33.232  25.885  23.602  1.00  0.00     0.251 C 
ATOM      5  O   UNL A   1      34.060  25.467  22.787  1.00  0.00    -0.270 OA
ATOM      6  H   UNL A   1      34.577  26.594  24.873  1.00  0.00     0.163 HD
BRANCH   4   7
ATOM      7  C   UNL A   1      31.823  25.278  23.631  1.00  0.00     0.067 C 
ATOM      8  C   UNL A   1      33.712  21.955  24.961  1.00  0.00     0.026 A 
ATOM      9  C   UNL A   1      33.363  20.686  24.456  1.00  0.00     0.033 A 
ATOM     10  C   UNL A   1      32.869  23.003  24.593  1.00  0.00     0.135 A 
ATOM     11  C   UNL A   1      32.464  20.569  23.391  1.00  0.00     0.042 A 
ATOM     12  C   UNL A   1      32.191  22.951  23.345  1.00  0.00     0.019 A 
ATOM     13  O   UNL A   1      32.547  24.018  25.520  1.00  0.00    -0.475 OA
ATOM     14  Cl  UNL A   1      32.109  19.011  22.751  1.00  0.00    -0.084 Cl
ATOM     15  C   UNL A   1      31.953  21.708  22.767  1.00  0.00     0.032 A 
ATOM     16  C   UNL A   1      31.718  24.250  22.744  1.00  0.00     0.025 C 
ATOM     17  C   UNL A   1      31.397  24.748  24.993  1.00  0.00     0.314 C 
BRANCH   8  18
ATOM     18  C   UNL A   1      35.178  22.181  25.081  1.00  0.00    -0.014 A 
ATOM     19  C   UNL A   1      37.955  22.202  25.636  1.00  0.00     0.121 A 
ATOM     20  C   UNL A   1      37.153  23.326  25.887  1.00  0.00     0.047 A 
ATOM     21  C   UNL A   1      37.392  21.053  25.080  1.00  0.00    -0.008 A 
ATOM     22  C   UNL A   1      35.772  23.320  25.616  1.00  0.00     0.013 A 
ATOM     23  C   UNL A   1      36.024  21.083  24.768  1.00  0.00     0.016 A 
ATOM     24  C   UNL A   1      38.156  19.781  24.854  1.00  0.00     0.048 C 
BRANCH  19  25
ATOM     25  O   UNL A   1      39.240  22.260  26.106  1.00  0.00    -0.496 OA
ATOM     26  C   UNL A   1      39.451  23.262  27.100  1.00  0.00     0.278 C 
ENDBRANCH  19  25
ENDBRANCH   8  18
BRANCH  17  27
ATOM     27  C   UNL A   1      30.514  25.664  25.847  1.00  0.00     0.429 C 
ATOM     28  F   UNL A   1      29.505  24.928  26.405  1.00  0.00    -0.167 F 
ATOM     29  F   UNL A   1      31.168  26.236  26.874  1.00  0.00    -0.167 F 
ATOM     30  F   UNL A   1      29.884  26.623  25.139  1.00  0.00    -0.167 F 
ENDBRANCH  17  27
ENDBRANCH   4   7
ENDBRANCH   2   3
ENDBRANCH   1   2
BRANCH   1  31
ATOM     31  C   UNL A   1      33.647  29.417  27.145  1.00  0.00     0.118 C 
BRANCH  31  32
ATOM     32  N   UNL A   1      34.157  30.753  27.457  1.00  0.00    -0.352 N 
ATOM     33  C   UNL A   1      35.395  31.116  27.972  1.00  0.00     0.251 C 
ATOM     34  H   UNL A   1      33.538  31.497  27.278  1.00  0.00     0.163 HD
ATOM     35  O   UNL A   1      35.647  32.288  28.195  1.00  0.00    -0.269 OA
BRANCH  33  36
ATOM     36  C   UNL A   1      36.410  30.055  28.161  1.00  0.00     0.039 A 
ATOM     37  C   UNL A   1      36.592  29.524  29.443  1.00  0.00     0.014 A 
ATOM     38  C   UNL A   1      37.326  29.803  27.145  1.00  0.00     0.014 A 
ATOM     39  C   UNL A   1      37.825  28.967  29.781  1.00  0.00     0.010 A 
ATOM     40  C   UNL A   1      38.572  29.332  27.497  1.00  0.00     0.010 A 
ATOM     41  C   UNL A   1      38.845  28.993  28.831  1.00  0.00    -0.014 A 
BRANCH  41  42
ATOM     42  C   UNL A   1      40.265  28.873  29.138  1.00  0.00     0.031 A 
ATOM     43  C   UNL A   1      41.053  27.712  28.683  1.00  0.00     0.074 A 
ATOM     44  C   UNL A   1      40.910  29.988  29.554  1.00  0.00     0.049 A 
ATOM     45  N   UNL A   1      42.286  27.511  29.007  1.00  0.00    -0.248 NA
ATOM     46  C   UNL A   1      40.507  26.679  27.814  1.00  0.00     0.031 C 
ATOM     47  C   UNL A   1      42.329  30.293  29.403  1.00  0.00     0.029 A 
ATOM     48  N   UNL A   1      40.434  31.004  30.390  1.00  0.00    -0.354 N 
ATOM     49  C   UNL A   1      42.773  26.511  28.199  1.00  0.00     0.074 A 
ATOM     50  C   UNL A   1      41.613  25.993  27.507  1.00  0.00     0.031 C 
ATOM     51  C   UNL A   1      42.673  31.208  30.319  1.00  0.00     0.029 A 
ATOM     52  C   UNL A   1      41.526  31.404  31.183  1.00  0.00     0.049 A 
ATOM     53  H   UNL A   1      39.519  31.366  30.419  1.00  0.00     0.167 HD
ATOM     54  C   UNL A   1      44.120  26.321  28.116  1.00  0.00     0.034 A 
ATOM     55  C   UNL A   1      41.537  31.328  32.546  1.00  0.00     0.034 A 
ATOM     56  C   UNL A   1      44.855  27.212  29.025  1.00  0.00     0.049 A 
ATOM     57  C   UNL A   1      42.624  30.409  33.090  1.00  0.00     0.074 A 
ATOM     58  C   UNL A   1      45.573  28.391  28.899  1.00  0.00     0.029 A 
ATOM     59  N   UNL A   1      44.683  27.022  30.380  1.00  0.00    -0.354 N 
ATOM     60  N   UNL A   1      43.608  29.910  32.389  1.00  0.00    -0.248 NA
ATOM     61  C   UNL A   1      42.615  29.898  34.464  1.00  0.00     0.031 C 
ATOM     62  C   UNL A   1      45.808  28.910  30.211  1.00  0.00     0.029 A 
ATOM     63  C   UNL A   1      45.246  28.039  31.126  1.00  0.00     0.049 A 
ATOM     64  H   UNL A   1      44.212  26.250  30.772  1.00  0.00     0.167 HD
ATOM     65  C   UNL A   1      44.199  28.898  33.108  1.00  0.00     0.074 A 
ATOM     66  C   UNL A   1      43.591  28.977  34.423  1.00  0.00     0.031 C 
ATOM     67  C   UNL A   1      45.071  27.990  32.570  1.00  0.00     0.034 A 
BRANCH  54  68
ATOM     68  C   UNL A   1      44.797  25.484  27.052  1.00  0.00     0.023 A 
ATOM     69  C   UNL A   1      45.911  26.042  26.387  1.00  0.00     0.012 A 
ATOM     70  C   UNL A   1      44.392  24.202  26.620  1.00  0.00     0.148 A 
ATOM     71  C   UNL A   1      46.517  25.423  25.288  1.00  0.00     0.002 A 
ATOM     72  C   UNL A   1      44.931  23.628  25.466  1.00  0.00     0.091 A 
ATOM     73  F   UNL A   1      43.550  23.485  27.370  1.00  0.00    -0.205 F 
ATOM     74  C   UNL A   1      45.997  24.236  24.798  1.00  0.00     0.022 A 
BRANCH  72  75
ATOM     75  S   UNL A   1      44.206  22.170  24.697  1.00  0.00     0.127 S 
ATOM     76  O   UNL A   1      44.816  21.081  25.465  1.00  0.00    -0.237 OA
ATOM     77  O   UNL A   1      42.779  22.356  24.938  1.00  0.00    -0.237 OA
ATOM     78  O   UNL A   1      44.628  22.208  23.300  1.00  0.00    -0.744 OA
ENDBRANCH  72  75
ENDBRANCH  54  68
BRANCH  55  79
ATOM     79  C   UNL A   1      40.194  31.551  33.153  1.00  0.00     0.023 A 
ATOM     80  C   UNL A   1      39.378  30.407  33.330  1.00  0.00     0.012 A 
ATOM     81  C   UNL A   1      39.893  32.718  33.875  1.00  0.00     0.148 A 
ATOM     82  C   UNL A   1      38.361  30.392  34.283  1.00  0.00     0.002 A 
ATOM     83  C   UNL A   1      38.879  32.692  34.830  1.00  0.00     0.091 A 
ATOM     84  F   UNL A   1      40.661  33.799  33.693  1.00  0.00    -0.205 F 
ATOM     85  C   UNL A   1      38.132  31.525  35.054  1.00  0.00     0.022 A 
BRANCH  83  86
ATOM     86  S   UNL A   1      38.581  34.080  35.932  1.00  0.00     0.127 S 
ATOM     87  O   UNL A   1      37.348  33.673  36.588  1.00  0.00    -0.237 OA
ATOM     88  O   UNL A   1      39.775  34.063  36.774  1.00  0.00    -0.237 OA
ATOM     89  O   UNL A   1      38.492  35.242  35.050  1.00  0.00    -0.744 OA
ENDBRANCH  83  86
ENDBRANCH  55  79
BRANCH  67  90
ATOM     90  C   UNL A   1      45.788  26.936  33.392  1.00  0.00     0.023 A 
ATOM     91  C   UNL A   1      47.174  27.050  33.630  1.00  0.00     0.012 A 
ATOM     92  C   UNL A   1      45.162  25.738  33.823  1.00  0.00     0.148 A 
ATOM     93  C   UNL A   1      47.890  26.057  34.308  1.00  0.00     0.002 A 
ATOM     94  C   UNL A   1      45.895  24.713  34.413  1.00  0.00     0.091 A 
ATOM     95  F   UNL A   1      43.838  25.599  33.703  1.00  0.00    -0.205 F 
ATOM     96  C   UNL A   1      47.255  24.881  34.683  1.00  0.00     0.022 A 
BRANCH  94  97
ATOM     97  S   UNL A   1      45.189  23.094  34.762  1.00  0.00     0.127 S 
ATOM     98  O   UNL A   1      44.200  23.419  35.792  1.00  0.00    -0.237 OA
ATOM     99  O   UNL A   1      44.621  22.730  33.466  1.00  0.00    -0.237 OA
ATOM    100  O   UNL A   1      46.292  22.264  35.225  1.00  0.00    -0.744 OA
ENDBRANCH  94  97
ENDBRANCH  67  90
ENDBRANCH  41  42
ENDBRANCH  33  36
ENDBRANCH  31  32
ENDBRANCH   1  31
TORSDOF 16
ENDMDL
