MODEL 1
REMARK VINA RESULT:     -10.9      0.000      0.000
REMARK SMILES CC(=O)N[C@H](CC(=O)NCC(=O)NCCCNC(=O)c1ccc(-c2c3nc(c(-c4cccc(S(=O)(=O)[O-])c4F)c4ccc([nH]4)c(-c4cccc(S(=O)(=O)[O-])c4F)c4nc(c(-c5cccc(S(=O)(=O)[O-])c5F)c5ccc2[nH]5)C=C4)C=C3)cc1)c1cccs1
REMARK SMILES IDX 14 1 13 2 11 3 12 4 10 6 9 7 7 8 8 9 6 11 5 12 4 13 1 14
REMARK SMILES IDX 2 15 3 16 83 18 84 19 87 20 85 21 86 22 15 23 16 24 17 25
REMARK SMILES IDX 18 26 19 28 20 29 21 30 82 31 22 32 81 33 23 34 24 35 25 36
REMARK SMILES IDX 75 37 26 38 80 39 74 40 76 41 27 42 79 43 73 44 72 45 28 47
REMARK SMILES IDX 60 48 40 49 59 50 41 51 44 52 58 53 77 54 42 55 43 56 57 58
REMARK SMILES IDX 78 59 45 60 29 61 30 62 38 63 31 64 33 65 39 66 32 67 34 68
REMARK SMILES IDX 35 69 36 70 37 71 61 72 62 73 70 74 63 75 65 76 71 77 64 78
REMARK SMILES IDX 66 79 67 80 68 81 69 82 46 83 47 84 55 85 48 86 50 87 56 88
REMARK SMILES IDX 49 89 51 90 52 91 53 92 54 93
REMARK H PARENT 13 5 9 10 4 17 17 27 76 46 44 57
REMARK Flexibility Score: inf
ROOT
ATOM      1  C   UNL A   1      32.153  28.285  24.171  1.00  0.00     0.117 C 
ENDROOT
BRANCH   1   2
ATOM      2  N   UNL A   1      31.465  27.996  25.406  1.00  0.00    -0.355 N 
ATOM      3  C   UNL A   1      30.849  26.825  25.755  1.00  0.00     0.239 C 
ATOM      4  O   UNL A   1      30.632  26.615  26.950  1.00  0.00    -0.273 OA
ATOM      5  H   UNL A   1      31.436  28.721  26.072  1.00  0.00     0.163 HD
BRANCH   3   6
ATOM      6  C   UNL A   1      30.611  25.730  24.697  1.00  0.00     0.216 C 
BRANCH   6   7
ATOM      7  N   UNL A   1      30.292  24.431  25.274  1.00  0.00    -0.347 N 
ATOM      8  C   UNL A   1      31.071  23.346  25.541  1.00  0.00     0.222 C 
ATOM      9  O   UNL A   1      30.505  22.322  25.921  1.00  0.00    -0.275 OA
ATOM     10  H   UNL A   1      29.344  24.317  25.513  1.00  0.00     0.164 HD
BRANCH   8  11
ATOM     11  C   UNL A   1      32.583  23.414  25.433  1.00  0.00     0.130 C 
BRANCH  11  12
ATOM     12  C   UNL A   1      33.280  22.081  25.125  1.00  0.00     0.131 C 
BRANCH  12  13
ATOM     13  N   UNL A   1      32.611  21.232  24.135  1.00  0.00    -0.348 N 
ATOM     14  C   UNL A   1      32.819  19.022  25.240  1.00  0.00     0.114 C 
ATOM     15  C   UNL A   1      32.550  19.876  24.035  1.00  0.00     0.217 C 
ATOM     16  O   UNL A   1      32.237  19.367  22.960  1.00  0.00    -0.275 OA
ATOM     17  H   UNL A   1      32.128  21.721  23.430  1.00  0.00     0.164 HD
ENDBRANCH  12  13
BRANCH  12  18
ATOM     18  C   UNL A   1      34.726  22.221  24.661  1.00  0.00     0.027 A 
ATOM     19  C   UNL A   1      35.207  22.922  23.565  1.00  0.00     0.017 A 
ATOM     20  S   UNL A   1      36.029  21.541  25.553  1.00  0.00    -0.147 S 
ATOM     21  C   UNL A   1      36.616  22.788  23.393  1.00  0.00     0.012 A 
ATOM     22  C   UNL A   1      37.186  22.052  24.405  1.00  0.00     0.065 A 
ENDBRANCH  12  18
ENDBRANCH  11  12
ENDBRANCH   8  11
ENDBRANCH   6   7
ENDBRANCH   3   6
ENDBRANCH   1   2
BRANCH   1  23
ATOM     23  C   UNL A   1      33.546  28.855  24.349  1.00  0.00     0.042 C 
BRANCH  23  24
ATOM     24  C   UNL A   1      33.885  29.114  25.805  1.00  0.00     0.118 C 
BRANCH  24  25
ATOM     25  N   UNL A   1      33.508  30.456  26.249  1.00  0.00    -0.352 N 
ATOM     26  C   UNL A   1      33.987  31.221  27.283  1.00  0.00     0.251 C 
ATOM     27  H   UNL A   1      32.794  30.881  25.720  1.00  0.00     0.163 HD
ATOM     28  O   UNL A   1      33.387  32.253  27.589  1.00  0.00    -0.269 OA
BRANCH  26  29
ATOM     29  C   UNL A   1      35.193  30.809  28.027  1.00  0.00     0.039 A 
ATOM     30  C   UNL A   1      35.114  29.738  28.921  1.00  0.00     0.014 A 
ATOM     31  C   UNL A   1      36.404  31.480  27.853  1.00  0.00     0.014 A 
ATOM     32  C   UNL A   1      36.262  29.307  29.586  1.00  0.00     0.010 A 
ATOM     33  C   UNL A   1      37.567  30.965  28.406  1.00  0.00     0.010 A 
ATOM     34  C   UNL A   1      37.508  29.896  29.306  1.00  0.00    -0.014 A 
BRANCH  34  35
ATOM     35  C   UNL A   1      38.755  29.434  29.964  1.00  0.00     0.031 A 
ATOM     36  C   UNL A   1      39.158  30.003  31.300  1.00  0.00     0.074 A 
ATOM     37  C   UNL A   1      39.563  28.567  29.323  1.00  0.00     0.049 A 
ATOM     38  N   UNL A   1      40.227  29.757  32.012  1.00  0.00    -0.248 NA
ATOM     39  C   UNL A   1      38.265  31.011  31.901  1.00  0.00     0.031 C 
ATOM     40  C   UNL A   1      39.332  28.024  27.981  1.00  0.00     0.029 A 
ATOM     41  N   UNL A   1      40.752  28.004  29.708  1.00  0.00    -0.354 N 
ATOM     42  C   UNL A   1      40.155  30.603  33.112  1.00  0.00     0.074 A 
ATOM     43  C   UNL A   1      38.968  31.410  32.949  1.00  0.00     0.031 C 
ATOM     44  C   UNL A   1      40.335  27.189  27.665  1.00  0.00     0.029 A 
ATOM     45  C   UNL A   1      41.294  27.162  28.764  1.00  0.00     0.049 A 
ATOM     46  H   UNL A   1      41.179  28.185  30.576  1.00  0.00     0.167 HD
ATOM     47  C   UNL A   1      40.979  30.679  34.183  1.00  0.00     0.034 A 
ATOM     48  C   UNL A   1      42.437  26.451  28.784  1.00  0.00     0.034 A 
ATOM     49  C   UNL A   1      42.130  29.837  34.363  1.00  0.00     0.049 A 
ATOM     50  C   UNL A   1      43.303  26.504  30.013  1.00  0.00     0.074 A 
ATOM     51  C   UNL A   1      42.979  29.763  35.453  1.00  0.00     0.029 A 
ATOM     52  N   UNL A   1      42.597  28.928  33.428  1.00  0.00    -0.354 N 
ATOM     53  N   UNL A   1      43.131  27.192  31.115  1.00  0.00    -0.248 NA
ATOM     54  C   UNL A   1      44.499  25.649  30.017  1.00  0.00     0.031 C 
ATOM     55  C   UNL A   1      43.979  28.828  35.162  1.00  0.00     0.029 A 
ATOM     56  C   UNL A   1      43.727  28.291  33.909  1.00  0.00     0.049 A 
ATOM     57  H   UNL A   1      42.184  28.759  32.550  1.00  0.00     0.167 HD
ATOM     58  C   UNL A   1      44.174  26.826  31.959  1.00  0.00     0.074 A 
ATOM     59  C   UNL A   1      44.955  25.835  31.247  1.00  0.00     0.031 C 
ATOM     60  C   UNL A   1      44.467  27.276  33.205  1.00  0.00     0.034 A 
BRANCH  47  61
ATOM     61  C   UNL A   1      40.634  31.669  35.266  1.00  0.00     0.023 A 
ATOM     62  C   UNL A   1      41.440  32.813  35.453  1.00  0.00     0.012 A 
ATOM     63  C   UNL A   1      39.487  31.498  36.065  1.00  0.00     0.148 A 
ATOM     64  C   UNL A   1      41.137  33.745  36.445  1.00  0.00     0.002 A 
ATOM     65  C   UNL A   1      39.162  32.458  37.016  1.00  0.00     0.091 A 
ATOM     66  F   UNL A   1      38.744  30.396  35.890  1.00  0.00    -0.205 F 
ATOM     67  C   UNL A   1      39.991  33.573  37.217  1.00  0.00     0.022 A 
BRANCH  65  68
ATOM     68  S   UNL A   1      37.665  32.376  38.006  1.00  0.00     0.127 S 
ATOM     69  O   UNL A   1      38.030  33.194  39.161  1.00  0.00    -0.237 OA
ATOM     70  O   UNL A   1      36.677  32.985  37.116  1.00  0.00    -0.237 OA
ATOM     71  O   UNL A   1      37.444  30.964  38.286  1.00  0.00    -0.744 OA
ENDBRANCH  65  68
ENDBRANCH  47  61
BRANCH  48  72
ATOM     72  C   UNL A   1      42.789  25.569  27.634  1.00  0.00     0.023 A 
ATOM     73  C   UNL A   1      43.695  26.029  26.658  1.00  0.00     0.012 A 
ATOM     74  C   UNL A   1      42.250  24.273  27.515  1.00  0.00     0.148 A 
ATOM     75  C   UNL A   1      44.028  25.231  25.564  1.00  0.00     0.002 A 
ATOM     76  C   UNL A   1      42.630  23.462  26.452  1.00  0.00     0.091 A 
ATOM     77  F   UNL A   1      41.385  23.858  28.450  1.00  0.00    -0.205 F 
ATOM     78  C   UNL A   1      43.503  23.945  25.465  1.00  0.00     0.022 A 
BRANCH  76  79
ATOM     79  S   UNL A   1      42.107  21.749  26.313  1.00  0.00     0.127 S 
ATOM     80  O   UNL A   1      42.974  21.259  25.245  1.00  0.00    -0.237 OA
ATOM     81  O   UNL A   1      42.419  21.232  27.646  1.00  0.00    -0.237 OA
ATOM     82  O   UNL A   1      40.685  21.796  26.003  1.00  0.00    -0.744 OA
ENDBRANCH  76  79
ENDBRANCH  48  72
BRANCH  60  83
ATOM     83  C   UNL A   1      45.659  26.670  33.898  1.00  0.00     0.023 A 
ATOM     84  C   UNL A   1      46.922  27.285  33.799  1.00  0.00     0.012 A 
ATOM     85  C   UNL A   1      45.512  25.514  34.690  1.00  0.00     0.148 A 
ATOM     86  C   UNL A   1      48.031  26.732  34.438  1.00  0.00     0.002 A 
ATOM     87  C   UNL A   1      46.609  25.001  35.370  1.00  0.00     0.091 A 
ATOM     88  F   UNL A   1      44.305  24.933  34.757  1.00  0.00    -0.205 F 
ATOM     89  C   UNL A   1      47.873  25.599  35.232  1.00  0.00     0.022 A 
BRANCH  87  90
ATOM     90  S   UNL A   1      46.475  23.607  36.493  1.00  0.00     0.127 S 
ATOM     91  O   UNL A   1      46.113  22.523  35.580  1.00  0.00    -0.237 OA
ATOM     92  O   UNL A   1      47.829  23.517  37.040  1.00  0.00    -0.237 OA
ATOM     93  O   UNL A   1      45.455  23.973  37.466  1.00  0.00    -0.744 OA
ENDBRANCH  87  90
ENDBRANCH  60  83
ENDBRANCH  34  35
ENDBRANCH  26  29
ENDBRANCH  24  25
ENDBRANCH  23  24
ENDBRANCH   1  23
TORSDOF 18
ENDMDL
MODEL 2
REMARK VINA RESULT:     -10.7      1.829      2.572
REMARK SMILES CC(=O)N[C@H](CC(=O)NCC(=O)NCCCNC(=O)c1ccc(-c2c3nc(c(-c4cccc(S(=O)(=O)[O-])c4F)c4ccc([nH]4)c(-c4cccc(S(=O)(=O)[O-])c4F)c4nc(c(-c5cccc(S(=O)(=O)[O-])c5F)c5ccc2[nH]5)C=C4)C=C3)cc1)c1cccs1
REMARK SMILES IDX 14 1 13 2 11 3 12 4 10 6 9 7 7 8 8 9 6 11 5 12 4 13 1 14
REMARK SMILES IDX 2 15 3 16 83 18 84 19 87 20 85 21 86 22 15 23 16 24 17 25
REMARK SMILES IDX 18 26 19 28 20 29 21 30 82 31 22 32 81 33 23 34 24 35 25 36
REMARK SMILES IDX 75 37 26 38 80 39 74 40 76 41 27 42 79 43 73 44 72 45 28 47
REMARK SMILES IDX 60 48 40 49 59 50 41 51 44 52 58 53 77 54 42 55 43 56 57 58
REMARK SMILES IDX 78 59 45 60 29 61 30 62 38 63 31 64 33 65 39 66 32 67 34 68
REMARK SMILES IDX 35 69 36 70 37 71 61 72 62 73 70 74 63 75 65 76 71 77 64 78
REMARK SMILES IDX 66 79 67 80 68 81 69 82 46 83 47 84 55 85 48 86 50 87 56 88
REMARK SMILES IDX 49 89 51 90 52 91 53 92 54 93
REMARK H PARENT 13 5 9 10 4 17 17 27 76 46 44 57
REMARK Flexibility Score: inf
ROOT
ATOM      1  C   UNL A   1      32.464  27.179  25.568  1.00  0.00     0.117 C 
ENDROOT
BRANCH   1   2
ATOM      2  N   UNL A   1      31.682  26.482  24.576  1.00  0.00    -0.355 N 
ATOM      3  C   UNL A   1      30.487  25.841  24.765  1.00  0.00     0.239 C 
ATOM      4  O   UNL A   1      29.785  25.617  23.777  1.00  0.00    -0.273 OA
ATOM      5  H   UNL A   1      32.048  26.466  23.662  1.00  0.00     0.163 HD
BRANCH   3   6
ATOM      6  C   UNL A   1      29.964  25.583  26.190  1.00  0.00     0.216 C 
BRANCH   6   7
ATOM      7  N   UNL A   1      29.516  24.214  26.401  1.00  0.00    -0.347 N 
ATOM      8  C   UNL A   1      30.195  23.083  26.743  1.00  0.00     0.222 C 
ATOM      9  O   UNL A   1      29.574  22.022  26.731  1.00  0.00    -0.275 OA
ATOM     10  H   UNL A   1      28.549  24.080  26.273  1.00  0.00     0.164 HD
BRANCH   8  11
ATOM     11  C   UNL A   1      31.648  23.138  27.181  1.00  0.00     0.130 C 
BRANCH  11  12
ATOM     12  C   UNL A   1      32.676  23.165  26.040  1.00  0.00     0.131 C 
BRANCH  12  13
ATOM     13  N   UNL A   1      34.081  23.161  26.454  1.00  0.00    -0.348 N 
ATOM     14  C   UNL A   1      35.045  24.682  24.751  1.00  0.00     0.114 C 
ATOM     15  C   UNL A   1      35.187  23.642  25.823  1.00  0.00     0.217 C 
ATOM     16  O   UNL A   1      36.298  23.241  26.170  1.00  0.00    -0.275 OA
ATOM     17  H   UNL A   1      34.253  22.745  27.330  1.00  0.00     0.164 HD
ENDBRANCH  12  13
BRANCH  12  18
ATOM     18  C   UNL A   1      32.524  22.030  25.032  1.00  0.00     0.027 A 
ATOM     19  C   UNL A   1      32.625  20.666  25.261  1.00  0.00     0.017 A 
ATOM     20  S   UNL A   1      32.102  22.330  23.392  1.00  0.00    -0.147 S 
ATOM     21  C   UNL A   1      32.486  19.890  24.073  1.00  0.00     0.012 A 
ATOM     22  C   UNL A   1      32.206  20.676  22.980  1.00  0.00     0.065 A 
ENDBRANCH  12  18
ENDBRANCH  11  12
ENDBRANCH   8  11
ENDBRANCH   6   7
ENDBRANCH   3   6
ENDBRANCH   1   2
BRANCH   1  23
ATOM     23  C   UNL A   1      32.862  28.588  25.175  1.00  0.00     0.042 C 
BRANCH  23  24
ATOM     24  C   UNL A   1      34.116  29.056  25.890  1.00  0.00     0.118 C 
BRANCH  24  25
ATOM     25  N   UNL A   1      33.917  30.300  26.633  1.00  0.00    -0.352 N 
ATOM     26  C   UNL A   1      34.618  30.831  27.687  1.00  0.00     0.251 C 
ATOM     27  H   UNL A   1      33.157  30.847  26.329  1.00  0.00     0.163 HD
ATOM     28  O   UNL A   1      34.154  31.806  28.282  1.00  0.00    -0.269 OA
BRANCH  26  29
ATOM     29  C   UNL A   1      35.899  30.236  28.115  1.00  0.00     0.039 A 
ATOM     30  C   UNL A   1      37.049  30.468  27.356  1.00  0.00     0.014 A 
ATOM     31  C   UNL A   1      35.971  29.442  29.260  1.00  0.00     0.014 A 
ATOM     32  C   UNL A   1      38.274  29.955  27.785  1.00  0.00     0.010 A 
ATOM     33  C   UNL A   1      37.205  29.052  29.756  1.00  0.00     0.010 A 
ATOM     34  C   UNL A   1      38.368  29.272  29.010  1.00  0.00    -0.014 A 
BRANCH  34  35
ATOM     35  C   UNL A   1      39.662  28.751  29.515  1.00  0.00     0.031 A 
ATOM     36  C   UNL A   1      40.365  29.451  30.650  1.00  0.00     0.074 A 
ATOM     37  C   UNL A   1      40.242  27.701  28.901  1.00  0.00     0.049 A 
ATOM     38  N   UNL A   1      41.518  29.173  31.201  1.00  0.00    -0.248 NA
ATOM     39  C   UNL A   1      39.710  30.644  31.216  1.00  0.00     0.031 C 
ATOM     40  C   UNL A   1      39.709  27.003  27.727  1.00  0.00     0.029 A 
ATOM     41  N   UNL A   1      41.419  27.050  29.167  1.00  0.00    -0.354 N 
ATOM     42  C   UNL A   1      41.741  30.173  32.141  1.00  0.00     0.074 A 
ATOM     43  C   UNL A   1      40.634  31.096  32.049  1.00  0.00     0.031 C 
ATOM     44  C   UNL A   1      40.543  26.008  27.390  1.00  0.00     0.029 A 
ATOM     45  C   UNL A   1      41.684  26.015  28.299  1.00  0.00     0.049 A 
ATOM     46  H   UNL A   1      42.017  27.298  29.908  1.00  0.00     0.167 HD
ATOM     47  C   UNL A   1      42.755  30.295  33.029  1.00  0.00     0.034 A 
ATOM     48  C   UNL A   1      42.732  25.171  28.244  1.00  0.00     0.034 A 
ATOM     49  C   UNL A   1      43.826  29.345  33.150  1.00  0.00     0.049 A 
ATOM     50  C   UNL A   1      43.814  25.288  29.282  1.00  0.00     0.074 A 
ATOM     51  C   UNL A   1      44.854  29.320  34.077  1.00  0.00     0.029 A 
ATOM     52  N   UNL A   1      44.014  28.256  32.314  1.00  0.00    -0.354 N 
ATOM     53  N   UNL A   1      43.923  26.146  30.267  1.00  0.00    -0.248 NA
ATOM     54  C   UNL A   1      44.895  24.294  29.227  1.00  0.00     0.031 C 
ATOM     55  C   UNL A   1      45.679  28.229  33.782  1.00  0.00     0.029 A 
ATOM     56  C   UNL A   1      45.143  27.554  32.696  1.00  0.00     0.049 A 
ATOM     57  H   UNL A   1      43.428  28.016  31.559  1.00  0.00     0.167 HD
ATOM     58  C   UNL A   1      45.063  25.774  30.971  1.00  0.00     0.074 A 
ATOM     59  C   UNL A   1      45.591  24.596  30.313  1.00  0.00     0.031 C 
ATOM     60  C   UNL A   1      45.629  26.359  32.057  1.00  0.00     0.034 A 
BRANCH  47  61
ATOM     61  C   UNL A   1      42.723  31.470  33.974  1.00  0.00     0.023 A 
ATOM     62  C   UNL A   1      43.314  32.693  33.592  1.00  0.00     0.012 A 
ATOM     63  C   UNL A   1      42.067  31.381  35.217  1.00  0.00     0.148 A 
ATOM     64  C   UNL A   1      43.291  33.794  34.447  1.00  0.00     0.002 A 
ATOM     65  C   UNL A   1      42.003  32.498  36.042  1.00  0.00     0.091 A 
ATOM     66  F   UNL A   1      41.531  30.206  35.575  1.00  0.00    -0.205 F 
ATOM     67  C   UNL A   1      42.625  33.699  35.666  1.00  0.00     0.022 A 
BRANCH  65  68
ATOM     68  S   UNL A   1      41.099  32.507  37.594  1.00  0.00     0.127 S 
ATOM     69  O   UNL A   1      41.927  31.633  38.423  1.00  0.00    -0.237 OA
ATOM     70  O   UNL A   1      41.143  33.921  37.966  1.00  0.00    -0.237 OA
ATOM     71  O   UNL A   1      39.769  31.999  37.288  1.00  0.00    -0.744 OA
ENDBRANCH  65  68
ENDBRANCH  47  61
BRANCH  48  72
ATOM     72  C   UNL A   1      42.769  24.093  27.215  1.00  0.00     0.023 A 
ATOM     73  C   UNL A   1      43.499  24.292  26.027  1.00  0.00     0.012 A 
ATOM     74  C   UNL A   1      42.105  22.867  27.416  1.00  0.00     0.148 A 
ATOM     75  C   UNL A   1      43.536  23.306  25.041  1.00  0.00     0.002 A 
ATOM     76  C   UNL A   1      42.193  21.867  26.455  1.00  0.00     0.091 A 
ATOM     77  F   UNL A   1      41.411  22.700  28.551  1.00  0.00    -0.205 F 
ATOM     78  C   UNL A   1      42.891  22.091  25.258  1.00  0.00     0.022 A 
BRANCH  76  79
ATOM     79  S   UNL A   1      41.506  20.227  26.705  1.00  0.00     0.127 S 
ATOM     80  O   UNL A   1      40.084  20.520  26.860  1.00  0.00    -0.237 OA
ATOM     81  O   UNL A   1      41.864  19.557  25.454  1.00  0.00    -0.237 OA
ATOM     82  O   UNL A   1      42.175  19.696  27.885  1.00  0.00    -0.744 OA
ENDBRANCH  76  79
ENDBRANCH  48  72
BRANCH  60  83
ATOM     83  C   UNL A   1      46.861  25.709  32.630  1.00  0.00     0.023 A 
ATOM     84  C   UNL A   1      48.139  26.095  32.178  1.00  0.00     0.012 A 
ATOM     85  C   UNL A   1      46.751  24.749  33.654  1.00  0.00     0.148 A 
ATOM     86  C   UNL A   1      49.285  25.501  32.704  1.00  0.00     0.002 A 
ATOM     87  C   UNL A   1      47.899  24.202  34.213  1.00  0.00     0.091 A 
ATOM     88  F   UNL A   1      45.526  24.381  34.058  1.00  0.00    -0.205 F 
ATOM     89  C   UNL A   1      49.166  24.564  33.727  1.00  0.00     0.022 A 
BRANCH  87  90
ATOM     90  S   UNL A   1      47.842  23.067  35.602  1.00  0.00     0.127 S 
ATOM     91  O   UNL A   1      47.129  23.858  36.604  1.00  0.00    -0.237 OA
ATOM     92  O   UNL A   1      47.080  21.944  35.055  1.00  0.00    -0.237 OA
ATOM     93  O   UNL A   1      49.228  22.755  35.922  1.00  0.00    -0.744 OA
ENDBRANCH  87  90
ENDBRANCH  60  83
ENDBRANCH  34  35
ENDBRANCH  26  29
ENDBRANCH  24  25
ENDBRANCH  23  24
ENDBRANCH   1  23
TORSDOF 18
ENDMDL
MODEL 3
REMARK VINA RESULT:     -10.6      2.705      3.171
REMARK SMILES CC(=O)N[C@H](CC(=O)NCC(=O)NCCCNC(=O)c1ccc(-c2c3nc(c(-c4cccc(S(=O)(=O)[O-])c4F)c4ccc([nH]4)c(-c4cccc(S(=O)(=O)[O-])c4F)c4nc(c(-c5cccc(S(=O)(=O)[O-])c5F)c5ccc2[nH]5)C=C4)C=C3)cc1)c1cccs1
REMARK SMILES IDX 14 1 13 2 11 3 12 4 10 6 9 7 7 8 8 9 6 11 5 12 4 13 1 14
REMARK SMILES IDX 2 15 3 16 83 18 84 19 87 20 85 21 86 22 15 23 16 24 17 25
REMARK SMILES IDX 18 26 19 28 20 29 21 30 82 31 22 32 81 33 23 34 24 35 25 36
REMARK SMILES IDX 75 37 26 38 80 39 74 40 76 41 27 42 79 43 73 44 72 45 28 47
REMARK SMILES IDX 60 48 40 49 59 50 41 51 44 52 58 53 77 54 42 55 43 56 57 58
REMARK SMILES IDX 78 59 45 60 29 61 30 62 38 63 31 64 33 65 39 66 32 67 34 68
REMARK SMILES IDX 35 69 36 70 37 71 61 72 62 73 70 74 63 75 65 76 71 77 64 78
REMARK SMILES IDX 66 79 67 80 68 81 69 82 46 83 47 84 55 85 48 86 50 87 56 88
REMARK SMILES IDX 49 89 51 90 52 91 53 92 54 93
REMARK H PARENT 13 5 9 10 4 17 17 27 76 46 44 57
REMARK Flexibility Score: inf
ROOT
ATOM      1  C   UNL A   1      31.646  28.133  26.598  1.00  0.00     0.117 C 
ENDROOT
BRANCH   1   2
ATOM      2  N   UNL A   1      31.432  28.509  25.221  1.00  0.00    -0.355 N 
ATOM      3  C   UNL A   1      31.130  27.679  24.175  1.00  0.00     0.239 C 
ATOM      4  O   UNL A   1      30.631  28.176  23.163  1.00  0.00    -0.273 OA
ATOM      5  H   UNL A   1      31.511  29.468  25.011  1.00  0.00     0.163 HD
BRANCH   3   6
ATOM      6  C   UNL A   1      31.241  26.152  24.341  1.00  0.00     0.216 C 
BRANCH   6   7
ATOM      7  N   UNL A   1      32.085  25.523  23.335  1.00  0.00    -0.347 N 
ATOM      8  C   UNL A   1      33.420  25.253  23.316  1.00  0.00     0.222 C 
ATOM      9  O   UNL A   1      33.897  24.819  22.269  1.00  0.00    -0.275 OA
ATOM     10  H   UNL A   1      31.605  25.242  22.522  1.00  0.00     0.164 HD
BRANCH   8  11
ATOM     11  C   UNL A   1      34.277  25.425  24.557  1.00  0.00     0.130 C 
BRANCH  11  12
ATOM     12  C   UNL A   1      34.379  24.187  25.461  1.00  0.00     0.131 C 
BRANCH  12  13
ATOM     13  N   UNL A   1      33.388  23.138  25.210  1.00  0.00    -0.348 N 
ATOM     14  C   UNL A   1      32.787  22.535  27.539  1.00  0.00     0.114 C 
ATOM     15  C   UNL A   1      32.807  22.252  26.065  1.00  0.00     0.217 C 
ATOM     16  O   UNL A   1      32.269  21.243  25.610  1.00  0.00    -0.275 OA
ATOM     17  H   UNL A   1      33.094  23.062  24.273  1.00  0.00     0.164 HD
ENDBRANCH  12  13
BRANCH  12  18
ATOM     18  C   UNL A   1      35.741  23.502  25.436  1.00  0.00     0.027 A 
ATOM     19  C   UNL A   1      36.896  23.874  26.108  1.00  0.00     0.017 A 
ATOM     20  S   UNL A   1      36.001  22.039  24.571  1.00  0.00    -0.147 S 
ATOM     21  C   UNL A   1      38.010  23.037  25.807  1.00  0.00     0.012 A 
ATOM     22  C   UNL A   1      37.660  22.002  24.973  1.00  0.00     0.065 A 
ENDBRANCH  12  18
ENDBRANCH  11  12
ENDBRANCH   8  11
ENDBRANCH   6   7
ENDBRANCH   3   6
ENDBRANCH   1   2
BRANCH   1  23
ATOM     23  C   UNL A   1      33.102  28.080  27.013  1.00  0.00     0.042 C 
BRANCH  23  24
ATOM     24  C   UNL A   1      33.964  29.055  26.232  1.00  0.00     0.118 C 
BRANCH  24  25
ATOM     25  N   UNL A   1      33.932  30.411  26.780  1.00  0.00    -0.352 N 
ATOM     26  C   UNL A   1      34.733  31.014  27.716  1.00  0.00     0.251 C 
ATOM     27  H   UNL A   1      33.218  30.986  26.418  1.00  0.00     0.163 HD
ATOM     28  O   UNL A   1      34.402  32.113  28.166  1.00  0.00    -0.269 OA
BRANCH  26  29
ATOM     29  C   UNL A   1      35.965  30.352  28.190  1.00  0.00     0.039 A 
ATOM     30  C   UNL A   1      37.154  30.528  27.478  1.00  0.00     0.014 A 
ATOM     31  C   UNL A   1      35.950  29.553  29.334  1.00  0.00     0.014 A 
ATOM     32  C   UNL A   1      38.333  29.951  27.952  1.00  0.00     0.010 A 
ATOM     33  C   UNL A   1      37.144  29.098  29.875  1.00  0.00     0.010 A 
ATOM     34  C   UNL A   1      38.344  29.261  29.176  1.00  0.00    -0.014 A 
BRANCH  34  35
ATOM     35  C   UNL A   1      39.589  28.672  29.729  1.00  0.00     0.031 A 
ATOM     36  C   UNL A   1      40.225  29.271  30.958  1.00  0.00     0.074 A 
ATOM     37  C   UNL A   1      40.190  27.656  29.080  1.00  0.00     0.049 A 
ATOM     38  N   UNL A   1      41.330  28.925  31.565  1.00  0.00    -0.248 NA
ATOM     39  C   UNL A   1      39.555  30.436  31.565  1.00  0.00     0.031 C 
ATOM     40  C   UNL A   1      39.727  27.058  27.824  1.00  0.00     0.029 A 
ATOM     41  N   UNL A   1      41.332  26.958  29.377  1.00  0.00    -0.354 N 
ATOM     42  C   UNL A   1      41.507  29.849  32.588  1.00  0.00     0.074 A 
ATOM     43  C   UNL A   1      40.427  30.803  32.490  1.00  0.00     0.031 C 
ATOM     44  C   UNL A   1      40.562  26.069  27.472  1.00  0.00     0.029 A 
ATOM     45  C   UNL A   1      41.637  25.983  28.455  1.00  0.00     0.049 A 
ATOM     46  H   UNL A   1      41.882  27.137  30.174  1.00  0.00     0.167 HD
ATOM     47  C   UNL A   1      42.459  29.882  33.550  1.00  0.00     0.034 A 
ATOM     48  C   UNL A   1      42.669  25.119  28.409  1.00  0.00     0.034 A 
ATOM     49  C   UNL A   1      43.500  28.899  33.674  1.00  0.00     0.049 A 
ATOM     50  C   UNL A   1      43.678  25.134  29.525  1.00  0.00     0.074 A 
ATOM     51  C   UNL A   1      44.459  28.781  34.664  1.00  0.00     0.029 A 
ATOM     52  N   UNL A   1      43.724  27.869  32.774  1.00  0.00    -0.354 N 
ATOM     53  N   UNL A   1      43.735  25.916  30.576  1.00  0.00    -0.248 NA
ATOM     54  C   UNL A   1      44.740  24.120  29.471  1.00  0.00     0.031 C 
ATOM     55  C   UNL A   1      45.281  27.695  34.347  1.00  0.00     0.029 A 
ATOM     56  C   UNL A   1      44.809  27.113  33.180  1.00  0.00     0.049 A 
ATOM     57  H   UNL A   1      43.188  27.699  31.966  1.00  0.00     0.167 HD
ATOM     58  C   UNL A   1      44.815  25.465  31.327  1.00  0.00     0.074 A 
ATOM     59  C   UNL A   1      45.364  24.325  30.621  1.00  0.00     0.031 C 
ATOM     60  C   UNL A   1      45.315  25.956  32.489  1.00  0.00     0.034 A 
BRANCH  47  61
ATOM     61  C   UNL A   1      42.384  30.985  34.575  1.00  0.00     0.023 A 
ATOM     62  C   UNL A   1      41.691  30.770  35.786  1.00  0.00     0.012 A 
ATOM     63  C   UNL A   1      43.037  32.215  34.365  1.00  0.00     0.148 A 
ATOM     64  C   UNL A   1      41.613  31.774  36.751  1.00  0.00     0.002 A 
ATOM     65  C   UNL A   1      42.999  33.191  35.354  1.00  0.00     0.091 A 
ATOM     66  F   UNL A   1      43.672  32.411  33.201  1.00  0.00    -0.205 F 
ATOM     67  C   UNL A   1      42.277  32.978  36.539  1.00  0.00     0.022 A 
BRANCH  65  68
ATOM     68  S   UNL A   1      43.890  34.745  35.218  1.00  0.00     0.127 S 
ATOM     69  O   UNL A   1      45.263  34.281  35.031  1.00  0.00    -0.237 OA
ATOM     70  O   UNL A   1      43.282  35.343  34.030  1.00  0.00    -0.237 OA
ATOM     71  O   UNL A   1      43.637  35.464  36.459  1.00  0.00    -0.744 OA
ENDBRANCH  65  68
ENDBRANCH  47  61
BRANCH  48  72
ATOM     72  C   UNL A   1      42.756  24.117  27.309  1.00  0.00     0.023 A 
ATOM     73  C   UNL A   1      43.468  24.435  26.135  1.00  0.00     0.012 A 
ATOM     74  C   UNL A   1      42.159  22.847  27.427  1.00  0.00     0.148 A 
ATOM     75  C   UNL A   1      43.552  23.523  25.084  1.00  0.00     0.002 A 
ATOM     76  C   UNL A   1      42.294  21.922  26.399  1.00  0.00     0.091 A 
ATOM     77  F   UNL A   1      41.482  22.567  28.548  1.00  0.00    -0.205 F 
ATOM     78  C   UNL A   1      42.972  22.264  25.219  1.00  0.00     0.022 A 
BRANCH  76  79
ATOM     79  S   UNL A   1      41.695  20.234  26.537  1.00  0.00     0.127 S 
ATOM     80  O   UNL A   1      40.248  20.428  26.499  1.00  0.00    -0.237 OA
ATOM     81  O   UNL A   1      42.265  19.615  25.339  1.00  0.00    -0.237 OA
ATOM     82  O   UNL A   1      42.234  19.727  27.791  1.00  0.00    -0.744 OA
ENDBRANCH  76  79
ENDBRANCH  48  72
BRANCH  60  83
ATOM     83  C   UNL A   1      46.491  25.236  33.095  1.00  0.00     0.023 A 
ATOM     84  C   UNL A   1      46.283  24.224  34.053  1.00  0.00     0.012 A 
ATOM     85  C   UNL A   1      47.802  25.531  32.675  1.00  0.00     0.148 A 
ATOM     86  C   UNL A   1      47.365  23.551  34.618  1.00  0.00     0.002 A 
ATOM     87  C   UNL A   1      48.872  24.818  33.201  1.00  0.00     0.091 A 
ATOM     88  F   UNL A   1      47.982  26.510  31.775  1.00  0.00    -0.205 F 
ATOM     89  C   UNL A   1      48.657  23.839  34.185  1.00  0.00     0.022 A 
BRANCH  87  90
ATOM     90  S   UNL A   1      50.556  25.052  32.626  1.00  0.00     0.127 S 
ATOM     91  O   UNL A   1      51.278  24.044  33.400  1.00  0.00    -0.237 OA
ATOM     92  O   UNL A   1      50.441  24.757  31.197  1.00  0.00    -0.237 OA
ATOM     93  O   UNL A   1      50.895  26.436  32.930  1.00  0.00    -0.744 OA
ENDBRANCH  87  90
ENDBRANCH  60  83
ENDBRANCH  34  35
ENDBRANCH  26  29
ENDBRANCH  24  25
ENDBRANCH  23  24
ENDBRANCH   1  23
TORSDOF 18
ENDMDL
