MODEL 1
REMARK VINA RESULT:     -13.5      0.000      0.000
REMARK SMILES CC(C)Cc1ccc(-c2cc(Cl)cc3c2O[C@H](C(F)(F)F)C(C(=O)NCCCNC(=O)c2ccc(-c4c5nc(c(-c6cccc(S(=O)(=O)[O-])c6F)c6ccc([nH]6)c(-c6cccc(S(=O)(=O)[O-])c6F)c6nc(c(-c7cccc(S(=O)(=O)[O-])c7F)c7ccc4[nH]7)C=C6)C=C5)cc2)=C3)cc1
REMARK SMILES IDX 27 1 26 2 25 3 23 4 24 5 22 7 9 8 10 9 15 10 11 11 14 12
REMARK SMILES IDX 16 13 12 14 13 15 95 16 17 17 8 18 5 19 6 20 97 21 7 22
REMARK SMILES IDX 96 23 4 24 2 25 1 26 3 27 18 28 19 29 20 30 21 31 28 32
REMARK SMILES IDX 29 33 30 34 31 36 32 37 33 38 94 39 34 40 93 41 35 42 36 43
REMARK SMILES IDX 37 44 87 45 38 46 92 47 86 48 88 49 39 50 91 51 85 52 84 53
REMARK SMILES IDX 40 55 72 56 52 57 71 58 53 59 56 60 70 61 89 62 54 63 55 64
REMARK SMILES IDX 69 66 90 67 57 68 41 69 42 70 50 71 43 72 45 73 51 74 44 75
REMARK SMILES IDX 46 76 47 77 48 78 49 79 73 80 74 81 82 82 75 83 77 84 83 85
REMARK SMILES IDX 76 86 78 87 79 88 80 89 81 90 58 91 59 92 67 93 60 94 62 95
REMARK SMILES IDX 68 96 61 97 63 98 64 99 65 100 66 101
REMARK H PARENT 25 6 29 35 88 54 56 65
REMARK Flexibility Score: inf
ROOT
ATOM      1  C   UNL A   1      36.319  21.035  25.007  1.00  0.00     0.042 C 
ENDROOT
BRANCH   1   2
ATOM      2  C   UNL A   1      35.352  21.541  26.078  1.00  0.00     0.118 C 
BRANCH   2   3
ATOM      3  N   UNL A   1      35.315  22.989  26.075  1.00  0.00    -0.352 N 
ATOM      4  C   UNL A   1      34.596  23.789  25.249  1.00  0.00     0.251 C 
ATOM      5  O   UNL A   1      35.085  24.834  24.839  1.00  0.00    -0.270 OA
ATOM      6  H   UNL A   1      35.874  23.444  26.746  1.00  0.00     0.163 HD
BRANCH   4   7
ATOM      7  C   UNL A   1      33.166  23.422  25.015  1.00  0.00     0.067 C 
ATOM      8  C   UNL A   1      31.544  27.097  24.283  1.00  0.00     0.026 A 
ATOM      9  C   UNL A   1      32.079  27.995  25.241  1.00  0.00     0.033 A 
ATOM     10  C   UNL A   1      31.762  25.730  24.522  1.00  0.00     0.135 A 
ATOM     11  C   UNL A   1      32.625  27.561  26.449  1.00  0.00     0.042 A 
ATOM     12  C   UNL A   1      32.201  25.310  25.799  1.00  0.00     0.019 A 
ATOM     13  O   UNL A   1      31.603  24.757  23.546  1.00  0.00    -0.475 OA
ATOM     14  Cl  UNL A   1      33.247  28.710  27.565  1.00  0.00    -0.084 Cl
ATOM     15  C   UNL A   1      32.620  26.217  26.768  1.00  0.00     0.032 A 
ATOM     16  C   UNL A   1      32.380  23.856  26.020  1.00  0.00     0.025 C 
ATOM     17  C   UNL A   1      32.655  23.697  23.603  1.00  0.00     0.314 C 
BRANCH   8  18
ATOM     18  C   UNL A   1      30.601  27.706  23.306  1.00  0.00    -0.015 A 
ATOM     19  C   UNL A   1      28.752  29.669  22.360  1.00  0.00    -0.048 A 
ATOM     20  C   UNL A   1      30.107  29.720  22.002  1.00  0.00     0.004 A 
ATOM     21  C   UNL A   1      28.309  28.534  23.047  1.00  0.00     0.004 A 
ATOM     22  C   UNL A   1      31.013  28.746  22.454  1.00  0.00     0.009 A 
ATOM     23  C   UNL A   1      29.218  27.566  23.513  1.00  0.00     0.009 A 
BRANCH  19  24
ATOM     24  C   UNL A   1      27.827  30.801  21.951  1.00  0.00     0.038 C 
BRANCH  24  25
ATOM     25  C   UNL A   1      28.476  32.145  21.531  1.00  0.00    -0.013 C 
ATOM     26  C   UNL A   1      27.689  32.863  20.429  1.00  0.00     0.008 C 
ATOM     27  C   UNL A   1      28.586  33.075  22.746  1.00  0.00     0.008 C 
ENDBRANCH  24  25
ENDBRANCH  19  24
ENDBRANCH   8  18
BRANCH  17  28
ATOM     28  C   UNL A   1      32.147  22.370  22.997  1.00  0.00     0.429 C 
ATOM     29  F   UNL A   1      32.360  21.311  23.812  1.00  0.00    -0.167 F 
ATOM     30  F   UNL A   1      30.820  22.423  22.737  1.00  0.00    -0.167 F 
ATOM     31  F   UNL A   1      32.754  22.069  21.819  1.00  0.00    -0.167 F 
ENDBRANCH  17  28
ENDBRANCH   4   7
ENDBRANCH   2   3
ENDBRANCH   1   2
BRANCH   1  32
ATOM     32  C   UNL A   1      37.745  21.575  25.120  1.00  0.00     0.118 C 
BRANCH  32  33
ATOM     33  N   UNL A   1      38.685  20.606  25.662  1.00  0.00    -0.352 N 
ATOM     34  C   UNL A   1      39.836  20.828  26.379  1.00  0.00     0.251 C 
ATOM     35  H   UNL A   1      38.468  19.661  25.489  1.00  0.00     0.163 HD
ATOM     36  O   UNL A   1      40.588  19.891  26.641  1.00  0.00    -0.269 OA
BRANCH  34  37
ATOM     37  C   UNL A   1      40.178  22.200  26.808  1.00  0.00     0.039 A 
ATOM     38  C   UNL A   1      41.069  22.376  27.869  1.00  0.00     0.014 A 
ATOM     39  C   UNL A   1      39.644  23.309  26.147  1.00  0.00     0.014 A 
ATOM     40  C   UNL A   1      41.480  23.664  28.220  1.00  0.00     0.010 A 
ATOM     41  C   UNL A   1      40.115  24.584  26.446  1.00  0.00     0.010 A 
ATOM     42  C   UNL A   1      41.036  24.778  27.487  1.00  0.00    -0.014 A 
BRANCH  42  43
ATOM     43  C   UNL A   1      41.536  26.147  27.780  1.00  0.00     0.031 A 
ATOM     44  C   UNL A   1      42.957  26.523  27.450  1.00  0.00     0.074 A 
ATOM     45  C   UNL A   1      40.742  27.022  28.430  1.00  0.00     0.049 A 
ATOM     46  N   UNL A   1      43.591  27.641  27.693  1.00  0.00    -0.248 NA
ATOM     47  C   UNL A   1      43.782  25.499  26.788  1.00  0.00     0.031 C 
ATOM     48  C   UNL A   1      39.375  26.751  28.882  1.00  0.00     0.029 A 
ATOM     49  N   UNL A   1      40.980  28.308  28.850  1.00  0.00    -0.354 N 
ATOM     50  C   UNL A   1      44.894  27.442  27.254  1.00  0.00     0.074 A 
ATOM     51  C   UNL A   1      44.970  26.084  26.761  1.00  0.00     0.031 C 
ATOM     52  C   UNL A   1      38.895  27.836  29.510  1.00  0.00     0.029 A 
ATOM     53  C   UNL A   1      39.926  28.870  29.534  1.00  0.00     0.049 A 
ATOM     54  H   UNL A   1      41.824  28.784  28.677  1.00  0.00     0.167 HD
ATOM     55  C   UNL A   1      45.927  28.318  27.231  1.00  0.00     0.034 A 
ATOM     56  C   UNL A   1      39.805  30.077  30.121  1.00  0.00     0.034 A 
ATOM     57  C   UNL A   1      45.834  29.682  27.674  1.00  0.00     0.049 A 
ATOM     58  C   UNL A   1      40.951  31.048  30.038  1.00  0.00     0.074 A 
ATOM     59  C   UNL A   1      46.794  30.676  27.605  1.00  0.00     0.029 A 
ATOM     60  N   UNL A   1      44.719  30.245  28.275  1.00  0.00    -0.354 N 
ATOM     61  N   UNL A   1      42.123  30.895  29.471  1.00  0.00    -0.248 NA
ATOM     62  C   UNL A   1      40.747  32.372  30.643  1.00  0.00     0.031 C 
ATOM     63  C   UNL A   1      46.267  31.835  28.184  1.00  0.00     0.029 A 
ATOM     64  C   UNL A   1      44.968  31.571  28.589  1.00  0.00     0.049 A 
ATOM     65  H   UNL A   1      43.874  29.773  28.452  1.00  0.00     0.167 HD
ATOM     66  C   UNL A   1      42.780  32.111  29.616  1.00  0.00     0.074 A 
ATOM     67  C   UNL A   1      41.867  32.998  30.308  1.00  0.00     0.031 C 
ATOM     68  C   UNL A   1      44.031  32.459  29.226  1.00  0.00     0.034 A 
BRANCH  55  69
ATOM     69  C   UNL A   1      47.237  27.842  26.656  1.00  0.00     0.023 A 
ATOM     70  C   UNL A   1      48.234  27.342  27.518  1.00  0.00     0.012 A 
ATOM     71  C   UNL A   1      47.458  27.833  25.265  1.00  0.00     0.148 A 
ATOM     72  C   UNL A   1      49.446  26.877  27.010  1.00  0.00     0.002 A 
ATOM     73  C   UNL A   1      48.651  27.324  24.763  1.00  0.00     0.091 A 
ATOM     74  F   UNL A   1      46.508  28.329  24.462  1.00  0.00    -0.205 F 
ATOM     75  C   UNL A   1      49.650  26.858  25.634  1.00  0.00     0.022 A 
BRANCH  73  76
ATOM     76  S   UNL A   1      48.978  27.178  23.003  1.00  0.00     0.127 S 
ATOM     77  O   UNL A   1      48.272  25.940  22.674  1.00  0.00    -0.237 OA
ATOM     78  O   UNL A   1      48.358  28.391  22.472  1.00  0.00    -0.237 OA
ATOM     79  O   UNL A   1      50.427  27.126  22.866  1.00  0.00    -0.744 OA
ENDBRANCH  73  76
ENDBRANCH  55  69
BRANCH  56  80
ATOM     80  C   UNL A   1      38.524  30.460  30.782  1.00  0.00     0.023 A 
ATOM     81  C   UNL A   1      38.295  30.076  32.118  1.00  0.00     0.012 A 
ATOM     82  C   UNL A   1      37.546  31.217  30.107  1.00  0.00     0.148 A 
ATOM     83  C   UNL A   1      37.102  30.409  32.759  1.00  0.00     0.002 A 
ATOM     84  C   UNL A   1      36.384  31.593  30.771  1.00  0.00     0.091 A 
ATOM     85  F   UNL A   1      37.778  31.563  28.834  1.00  0.00    -0.205 F 
ATOM     86  C   UNL A   1      36.150  31.175  32.090  1.00  0.00     0.022 A 
BRANCH  84  87
ATOM     87  S   UNL A   1      35.167  32.689  30.033  1.00  0.00     0.127 S 
ATOM     88  O   UNL A   1      34.547  31.821  29.037  1.00  0.00    -0.237 OA
ATOM     89  O   UNL A   1      34.319  33.015  31.181  1.00  0.00    -0.237 OA
ATOM     90  O   UNL A   1      35.923  33.818  29.509  1.00  0.00    -0.744 OA
ENDBRANCH  84  87
ENDBRANCH  56  80
BRANCH  68  91
ATOM     91  C   UNL A   1      44.483  33.870  29.498  1.00  0.00     0.023 A 
ATOM     92  C   UNL A   1      45.063  34.195  30.739  1.00  0.00     0.012 A 
ATOM     93  C   UNL A   1      44.403  34.853  28.491  1.00  0.00     0.148 A 
ATOM     94  C   UNL A   1      45.528  35.487  30.987  1.00  0.00     0.002 A 
ATOM     95  C   UNL A   1      44.914  36.124  28.728  1.00  0.00     0.091 A 
ATOM     96  F   UNL A   1      43.830  34.529  27.323  1.00  0.00    -0.205 F 
ATOM     97  C   UNL A   1      45.465  36.446  29.979  1.00  0.00     0.022 A 
BRANCH  95  98
ATOM     98  S   UNL A   1      44.965  37.392  27.457  1.00  0.00     0.127 S 
ATOM     99  O   UNL A   1      45.533  38.524  28.187  1.00  0.00    -0.237 OA
ATOM    100  O   UNL A   1      45.859  36.799  26.461  1.00  0.00    -0.237 OA
ATOM    101  O   UNL A   1      43.590  37.566  27.007  1.00  0.00    -0.744 OA
ENDBRANCH  95  98
ENDBRANCH  68  91
ENDBRANCH  42  43
ENDBRANCH  34  37
ENDBRANCH  32  33
ENDBRANCH   1  32
TORSDOF 17
ENDMDL
MODEL 2
REMARK VINA RESULT:     -12.9      2.744      8.170
REMARK SMILES CC(C)Cc1ccc(-c2cc(Cl)cc3c2O[C@H](C(F)(F)F)C(C(=O)NCCCNC(=O)c2ccc(-c4c5nc(c(-c6cccc(S(=O)(=O)[O-])c6F)c6ccc([nH]6)c(-c6cccc(S(=O)(=O)[O-])c6F)c6nc(c(-c7cccc(S(=O)(=O)[O-])c7F)c7ccc4[nH]7)C=C6)C=C5)cc2)=C3)cc1
REMARK SMILES IDX 27 1 26 2 25 3 23 4 24 5 22 7 9 8 10 9 15 10 11 11 14 12
REMARK SMILES IDX 16 13 12 14 13 15 95 16 17 17 8 18 5 19 6 20 97 21 7 22
REMARK SMILES IDX 96 23 4 24 2 25 1 26 3 27 18 28 19 29 20 30 21 31 28 32
REMARK SMILES IDX 29 33 30 34 31 36 32 37 33 38 94 39 34 40 93 41 35 42 36 43
REMARK SMILES IDX 37 44 87 45 38 46 92 47 86 48 88 49 39 50 91 51 85 52 84 53
REMARK SMILES IDX 40 55 72 56 52 57 71 58 53 59 56 60 70 61 89 62 54 63 55 64
REMARK SMILES IDX 69 66 90 67 57 68 41 69 42 70 50 71 43 72 45 73 51 74 44 75
REMARK SMILES IDX 46 76 47 77 48 78 49 79 73 80 74 81 82 82 75 83 77 84 83 85
REMARK SMILES IDX 76 86 78 87 79 88 80 89 81 90 58 91 59 92 67 93 60 94 62 95
REMARK SMILES IDX 68 96 61 97 63 98 64 99 65 100 66 101
REMARK H PARENT 25 6 29 35 88 54 56 65
REMARK Flexibility Score: inf
ROOT
ATOM      1  C   UNL A   1      38.535  18.862  25.747  1.00  0.00     0.042 C 
ENDROOT
BRANCH   1   2
ATOM      2  C   UNL A   1      37.768  19.415  24.544  1.00  0.00     0.118 C 
BRANCH   2   3
ATOM      3  N   UNL A   1      36.481  19.928  24.966  1.00  0.00    -0.352 N 
ATOM      4  C   UNL A   1      36.238  21.080  25.640  1.00  0.00     0.251 C 
ATOM      5  O   UNL A   1      35.368  21.107  26.502  1.00  0.00    -0.270 OA
ATOM      6  H   UNL A   1      35.695  19.380  24.739  1.00  0.00     0.163 HD
BRANCH   4   7
ATOM      7  C   UNL A   1      36.945  22.309  25.171  1.00  0.00     0.067 C 
ATOM      8  C   UNL A   1      33.805  24.887  24.758  1.00  0.00     0.026 A 
ATOM      9  C   UNL A   1      32.755  24.176  24.123  1.00  0.00     0.033 A 
ATOM     10  C   UNL A   1      35.067  24.269  24.752  1.00  0.00     0.135 A 
ATOM     11  C   UNL A   1      32.980  23.025  23.370  1.00  0.00     0.042 A 
ATOM     12  C   UNL A   1      35.300  23.174  23.885  1.00  0.00     0.019 A 
ATOM     13  O   UNL A   1      36.102  24.653  25.590  1.00  0.00    -0.475 OA
ATOM     14  Cl  UNL A   1      31.656  22.222  22.624  1.00  0.00    -0.084 Cl
ATOM     15  C   UNL A   1      34.267  22.559  23.184  1.00  0.00     0.032 A 
ATOM     16  C   UNL A   1      36.655  22.578  23.882  1.00  0.00     0.025 C 
ATOM     17  C   UNL A   1      36.877  23.496  26.129  1.00  0.00     0.314 C 
BRANCH   8  18
ATOM     18  C   UNL A   1      33.492  26.299  25.103  1.00  0.00    -0.015 A 
ATOM     19  C   UNL A   1      32.068  28.768  24.896  1.00  0.00    -0.048 A 
ATOM     20  C   UNL A   1      31.732  27.821  25.873  1.00  0.00     0.004 A 
ATOM     21  C   UNL A   1      33.227  28.541  24.148  1.00  0.00     0.004 A 
ATOM     22  C   UNL A   1      32.442  26.613  25.986  1.00  0.00     0.009 A 
ATOM     23  C   UNL A   1      33.930  27.326  24.250  1.00  0.00     0.009 A 
BRANCH  19  24
ATOM     24  C   UNL A   1      31.206  30.007  24.728  1.00  0.00     0.038 C 
BRANCH  24  25
ATOM     25  C   UNL A   1      29.917  29.877  23.876  1.00  0.00    -0.013 C 
ATOM     26  C   UNL A   1      29.153  31.199  23.754  1.00  0.00     0.008 C 
ATOM     27  C   UNL A   1      30.269  29.377  22.469  1.00  0.00     0.008 C 
ENDBRANCH  24  25
ENDBRANCH  19  24
ENDBRANCH   8  18
BRANCH  17  28
ATOM     28  C   UNL A   1      38.318  23.910  26.500  1.00  0.00     0.429 C 
ATOM     29  F   UNL A   1      39.179  22.866  26.491  1.00  0.00    -0.167 F 
ATOM     30  F   UNL A   1      38.799  24.842  25.644  1.00  0.00    -0.167 F 
ATOM     31  F   UNL A   1      38.400  24.456  27.743  1.00  0.00    -0.167 F 
ENDBRANCH  17  28
ENDBRANCH   4   7
ENDBRANCH   2   3
ENDBRANCH   1   2
BRANCH   1  32
ATOM     32  C   UNL A   1      39.784  19.654  26.134  1.00  0.00     0.118 C 
BRANCH  32  33
ATOM     33  N   UNL A   1      41.005  18.863  26.085  1.00  0.00    -0.352 N 
ATOM     34  C   UNL A   1      42.310  19.288  26.139  1.00  0.00     0.251 C 
ATOM     35  H   UNL A   1      40.877  17.890  26.001  1.00  0.00     0.163 HD
ATOM     36  O   UNL A   1      43.225  18.489  25.945  1.00  0.00    -0.269 OA
BRANCH  34  37
ATOM     37  C   UNL A   1      42.607  20.711  26.403  1.00  0.00     0.039 A 
ATOM     38  C   UNL A   1      42.708  21.147  27.725  1.00  0.00     0.014 A 
ATOM     39  C   UNL A   1      42.815  21.605  25.349  1.00  0.00     0.014 A 
ATOM     40  C   UNL A   1      43.088  22.465  27.992  1.00  0.00     0.010 A 
ATOM     41  C   UNL A   1      43.269  22.893  25.617  1.00  0.00     0.010 A 
ATOM     42  C   UNL A   1      43.409  23.339  26.939  1.00  0.00    -0.014 A 
BRANCH  42  43
ATOM     43  C   UNL A   1      43.910  24.714  27.201  1.00  0.00     0.031 A 
ATOM     44  C   UNL A   1      42.983  25.769  27.744  1.00  0.00     0.074 A 
ATOM     45  C   UNL A   1      45.173  25.040  26.860  1.00  0.00     0.049 A 
ATOM     46  N   UNL A   1      43.217  27.036  27.970  1.00  0.00    -0.248 NA
ATOM     47  C   UNL A   1      41.602  25.355  28.045  1.00  0.00     0.031 C 
ATOM     48  C   UNL A   1      46.145  24.133  26.245  1.00  0.00     0.029 A 
ATOM     49  N   UNL A   1      45.849  26.233  26.954  1.00  0.00    -0.354 N 
ATOM     50  C   UNL A   1      42.011  27.576  28.398  1.00  0.00     0.074 A 
ATOM     51  C   UNL A   1      41.036  26.508  28.366  1.00  0.00     0.031 C 
ATOM     52  C   UNL A   1      47.290  24.799  26.023  1.00  0.00     0.029 A 
ATOM     53  C   UNL A   1      47.128  26.185  26.449  1.00  0.00     0.049 A 
ATOM     54  H   UNL A   1      45.455  27.045  27.348  1.00  0.00     0.167 HD
ATOM     55  C   UNL A   1      41.742  28.839  28.810  1.00  0.00     0.034 A 
ATOM     56  C   UNL A   1      48.063  27.149  26.335  1.00  0.00     0.034 A 
ATOM     57  C   UNL A   1      42.724  29.884  28.889  1.00  0.00     0.049 A 
ATOM     58  C   UNL A   1      47.754  28.530  26.846  1.00  0.00     0.074 A 
ATOM     59  C   UNL A   1      42.576  31.169  29.383  1.00  0.00     0.029 A 
ATOM     60  N   UNL A   1      44.037  29.772  28.457  1.00  0.00    -0.354 N 
ATOM     61  N   UNL A   1      46.653  28.978  27.400  1.00  0.00    -0.248 NA
ATOM     62  C   UNL A   1      48.827  29.530  26.752  1.00  0.00     0.031 C 
ATOM     63  C   UNL A   1      43.794  31.840  29.230  1.00  0.00     0.029 A 
ATOM     64  C   UNL A   1      44.709  30.965  28.666  1.00  0.00     0.049 A 
ATOM     65  H   UNL A   1      44.434  28.963  28.061  1.00  0.00     0.167 HD
ATOM     66  C   UNL A   1      46.913  30.297  27.754  1.00  0.00     0.074 A 
ATOM     67  C   UNL A   1      48.283  30.570  27.370  1.00  0.00     0.031 C 
ATOM     68  C   UNL A   1      46.088  31.206  28.331  1.00  0.00     0.034 A 
BRANCH  55  69
ATOM     69  C   UNL A   1      40.338  29.144  29.263  1.00  0.00     0.023 A 
ATOM     70  C   UNL A   1      39.376  29.557  28.318  1.00  0.00     0.012 A 
ATOM     71  C   UNL A   1      39.953  28.964  30.607  1.00  0.00     0.148 A 
ATOM     72  C   UNL A   1      38.065  29.826  28.708  1.00  0.00     0.002 A 
ATOM     73  C   UNL A   1      38.632  29.189  30.979  1.00  0.00     0.091 A 
ATOM     74  F   UNL A   1      40.883  28.590  31.495  1.00  0.00    -0.205 F 
ATOM     75  C   UNL A   1      37.691  29.631  30.034  1.00  0.00     0.022 A 
BRANCH  73  76
ATOM     76  S   UNL A   1      38.028  28.889  32.643  1.00  0.00     0.127 S 
ATOM     77  O   UNL A   1      38.927  29.725  33.439  1.00  0.00    -0.237 OA
ATOM     78  O   UNL A   1      36.652  29.379  32.565  1.00  0.00    -0.237 OA
ATOM     79  O   UNL A   1      38.151  27.454  32.864  1.00  0.00    -0.744 OA
ENDBRANCH  73  76
ENDBRANCH  55  69
BRANCH  56  80
ATOM     80  C   UNL A   1      49.404  26.825  25.771  1.00  0.00     0.023 A 
ATOM     81  C   UNL A   1      50.333  26.119  26.560  1.00  0.00     0.012 A 
ATOM     82  C   UNL A   1      49.757  27.190  24.457  1.00  0.00     0.148 A 
ATOM     83  C   UNL A   1      51.600  25.812  26.065  1.00  0.00     0.002 A 
ATOM     84  C   UNL A   1      51.001  26.831  23.950  1.00  0.00     0.091 A 
ATOM     85  F   UNL A   1      48.864  27.870  23.725  1.00  0.00    -0.205 F 
ATOM     86  C   UNL A   1      51.931  26.159  24.757  1.00  0.00     0.022 A 
BRANCH  84  87
ATOM     87  S   UNL A   1      51.461  27.117  22.237  1.00  0.00     0.127 S 
ATOM     88  O   UNL A   1      52.612  26.232  22.084  1.00  0.00    -0.237 OA
ATOM     89  O   UNL A   1      50.256  26.691  21.525  1.00  0.00    -0.237 OA
ATOM     90  O   UNL A   1      51.740  28.543  22.139  1.00  0.00    -0.744 OA
ENDBRANCH  84  87
ENDBRANCH  56  80
BRANCH  68  91
ATOM     91  C   UNL A   1      46.648  32.573  28.624  1.00  0.00     0.023 A 
ATOM     92  C   UNL A   1      47.259  32.832  29.866  1.00  0.00     0.012 A 
ATOM     93  C   UNL A   1      46.637  33.577  27.635  1.00  0.00     0.148 A 
ATOM     94  C   UNL A   1      47.823  34.079  30.132  1.00  0.00     0.002 A 
ATOM     95  C   UNL A   1      47.245  34.801  27.889  1.00  0.00     0.091 A 
ATOM     96  F   UNL A   1      46.034  33.318  26.465  1.00  0.00    -0.205 F 
ATOM     97  C   UNL A   1      47.827  35.058  29.141  1.00  0.00     0.022 A 
BRANCH  95  98
ATOM     98  S   UNL A   1      47.386  36.084  26.639  1.00  0.00     0.127 S 
ATOM     99  O   UNL A   1      46.022  36.142  26.116  1.00  0.00    -0.237 OA
ATOM    100  O   UNL A   1      47.785  37.247  27.432  1.00  0.00    -0.237 OA
ATOM    101  O   UNL A   1      48.396  35.619  25.698  1.00  0.00    -0.744 OA
ENDBRANCH  95  98
ENDBRANCH  68  91
ENDBRANCH  42  43
ENDBRANCH  34  37
ENDBRANCH  32  33
ENDBRANCH   1  32
TORSDOF 17
ENDMDL
MODEL 3
REMARK VINA RESULT:     -12.9      1.129      7.302
REMARK SMILES CC(C)Cc1ccc(-c2cc(Cl)cc3c2O[C@H](C(F)(F)F)C(C(=O)NCCCNC(=O)c2ccc(-c4c5nc(c(-c6cccc(S(=O)(=O)[O-])c6F)c6ccc([nH]6)c(-c6cccc(S(=O)(=O)[O-])c6F)c6nc(c(-c7cccc(S(=O)(=O)[O-])c7F)c7ccc4[nH]7)C=C6)C=C5)cc2)=C3)cc1
REMARK SMILES IDX 27 1 26 2 25 3 23 4 24 5 22 7 9 8 10 9 15 10 11 11 14 12
REMARK SMILES IDX 16 13 12 14 13 15 95 16 17 17 8 18 5 19 6 20 97 21 7 22
REMARK SMILES IDX 96 23 4 24 2 25 1 26 3 27 18 28 19 29 20 30 21 31 28 32
REMARK SMILES IDX 29 33 30 34 31 36 32 37 33 38 94 39 34 40 93 41 35 42 36 43
REMARK SMILES IDX 37 44 87 45 38 46 92 47 86 48 88 49 39 50 91 51 85 52 84 53
REMARK SMILES IDX 40 55 72 56 52 57 71 58 53 59 56 60 70 61 89 62 54 63 55 64
REMARK SMILES IDX 69 66 90 67 57 68 41 69 42 70 50 71 43 72 45 73 51 74 44 75
REMARK SMILES IDX 46 76 47 77 48 78 49 79 73 80 74 81 82 82 75 83 77 84 83 85
REMARK SMILES IDX 76 86 78 87 79 88 80 89 81 90 58 91 59 92 67 93 60 94 62 95
REMARK SMILES IDX 68 96 61 97 63 98 64 99 65 100 66 101
REMARK H PARENT 25 6 29 35 88 54 56 65
REMARK Flexibility Score: inf
ROOT
ATOM      1  C   UNL A   1      37.319  19.811  24.774  1.00  0.00     0.042 C 
ENDROOT
BRANCH   1   2
ATOM      2  C   UNL A   1      35.936  20.426  25.002  1.00  0.00     0.118 C 
BRANCH   2   3
ATOM      3  N   UNL A   1      35.960  21.840  24.687  1.00  0.00    -0.352 N 
ATOM      4  C   UNL A   1      35.100  22.516  23.886  1.00  0.00     0.251 C 
ATOM      5  O   UNL A   1      35.522  23.406  23.157  1.00  0.00    -0.270 OA
ATOM      6  H   UNL A   1      36.681  22.369  25.100  1.00  0.00     0.163 HD
BRANCH   4   7
ATOM      7  C   UNL A   1      33.642  22.242  24.062  1.00  0.00     0.067 C 
ATOM      8  C   UNL A   1      32.119  26.023  23.822  1.00  0.00     0.026 A 
ATOM      9  C   UNL A   1      32.958  26.868  24.594  1.00  0.00     0.033 A 
ATOM     10  C   UNL A   1      32.307  24.641  23.988  1.00  0.00     0.135 A 
ATOM     11  C   UNL A   1      33.791  26.377  25.599  1.00  0.00     0.042 A 
ATOM     12  C   UNL A   1      33.059  24.169  25.090  1.00  0.00     0.019 A 
ATOM     13  O   UNL A   1      31.819  23.699  23.094  1.00  0.00    -0.475 OA
ATOM     14  Cl  UNL A   1      34.774  27.463  26.497  1.00  0.00    -0.084 Cl
ATOM     15  C   UNL A   1      33.790  25.029  25.904  1.00  0.00     0.032 A 
ATOM     16  C   UNL A   1      33.198  22.703  25.248  1.00  0.00     0.025 C 
ATOM     17  C   UNL A   1      32.774  22.576  22.851  1.00  0.00     0.314 C 
BRANCH   8  18
ATOM     18  C   UNL A   1      30.982  26.708  23.151  1.00  0.00    -0.015 A 
ATOM     19  C   UNL A   1      28.976  28.721  22.851  1.00  0.00    -0.048 A 
ATOM     20  C   UNL A   1      30.213  28.831  22.201  1.00  0.00     0.004 A 
ATOM     21  C   UNL A   1      28.695  27.517  23.504  1.00  0.00     0.004 A 
ATOM     22  C   UNL A   1      31.194  27.835  22.336  1.00  0.00     0.009 A 
ATOM     23  C   UNL A   1      29.681  26.524  23.651  1.00  0.00     0.009 A 
BRANCH  19  24
ATOM     24  C   UNL A   1      27.987  29.871  22.777  1.00  0.00     0.038 C 
BRANCH  24  25
ATOM     25  C   UNL A   1      28.499  31.226  22.224  1.00  0.00    -0.013 C 
ATOM     26  C   UNL A   1      28.022  31.498  20.793  1.00  0.00     0.008 C 
ATOM     27  C   UNL A   1      28.027  32.371  23.129  1.00  0.00     0.008 C 
ENDBRANCH  24  25
ENDBRANCH  19  24
ENDBRANCH   8  18
BRANCH  17  28
ATOM     28  C   UNL A   1      32.033  21.295  22.409  1.00  0.00     0.429 C 
ATOM     29  F   UNL A   1      32.375  20.215  23.149  1.00  0.00    -0.167 F 
ATOM     30  F   UNL A   1      30.691  21.445  22.504  1.00  0.00    -0.167 F 
ATOM     31  F   UNL A   1      32.288  20.964  21.116  1.00  0.00    -0.167 F 
ENDBRANCH  17  28
ENDBRANCH   4   7
ENDBRANCH   2   3
ENDBRANCH   1   2
BRANCH   1  32
ATOM     32  C   UNL A   1      38.472  20.552  25.450  1.00  0.00     0.118 C 
BRANCH  32  33
ATOM     33  N   UNL A   1      39.550  19.672  25.874  1.00  0.00    -0.352 N 
ATOM     34  C   UNL A   1      40.775  20.002  26.404  1.00  0.00     0.251 C 
ATOM     35  H   UNL A   1      39.380  18.708  25.765  1.00  0.00     0.163 HD
ATOM     36  O   UNL A   1      41.623  19.130  26.579  1.00  0.00    -0.269 OA
BRANCH  34  37
ATOM     37  C   UNL A   1      41.074  21.410  26.735  1.00  0.00     0.039 A 
ATOM     38  C   UNL A   1      41.431  21.737  28.045  1.00  0.00     0.014 A 
ATOM     39  C   UNL A   1      41.032  22.400  25.749  1.00  0.00     0.014 A 
ATOM     40  C   UNL A   1      41.815  23.045  28.351  1.00  0.00     0.010 A 
ATOM     41  C   UNL A   1      41.490  23.682  26.039  1.00  0.00     0.010 A 
ATOM     42  C   UNL A   1      41.885  24.021  27.342  1.00  0.00    -0.014 A 
BRANCH  42  43
ATOM     43  C   UNL A   1      42.384  25.392  27.625  1.00  0.00     0.031 A 
ATOM     44  C   UNL A   1      41.476  26.416  28.252  1.00  0.00     0.074 A 
ATOM     45  C   UNL A   1      43.625  25.744  27.230  1.00  0.00     0.049 A 
ATOM     46  N   UNL A   1      41.710  27.677  28.509  1.00  0.00    -0.248 NA
ATOM     47  C   UNL A   1      40.118  25.975  28.609  1.00  0.00     0.031 C 
ATOM     48  C   UNL A   1      44.573  24.871  26.534  1.00  0.00     0.029 A 
ATOM     49  N   UNL A   1      44.292  26.941  27.331  1.00  0.00    -0.354 N 
ATOM     50  C   UNL A   1      40.521  28.189  29.017  1.00  0.00     0.074 A 
ATOM     51  C   UNL A   1      39.557  27.110  28.999  1.00  0.00     0.031 C 
ATOM     52  C   UNL A   1      45.698  25.557  26.277  1.00  0.00     0.029 A 
ATOM     53  C   UNL A   1      45.544  26.926  26.758  1.00  0.00     0.049 A 
ATOM     54  H   UNL A   1      43.911  27.735  27.772  1.00  0.00     0.167 HD
ATOM     55  C   UNL A   1      40.262  29.433  29.487  1.00  0.00     0.034 A 
ATOM     56  C   UNL A   1      46.462  27.905  26.629  1.00  0.00     0.034 A 
ATOM     57  C   UNL A   1      41.236  30.487  29.551  1.00  0.00     0.049 A 
ATOM     58  C   UNL A   1      46.166  29.264  27.203  1.00  0.00     0.074 A 
ATOM     59  C   UNL A   1      41.101  31.751  30.096  1.00  0.00     0.029 A 
ATOM     60  N   UNL A   1      42.525  30.405  29.048  1.00  0.00    -0.354 N 
ATOM     61  N   UNL A   1      45.091  29.679  27.829  1.00  0.00    -0.248 NA
ATOM     62  C   UNL A   1      47.222  30.279  27.088  1.00  0.00     0.031 C 
ATOM     63  C   UNL A   1      42.302  32.442  29.903  1.00  0.00     0.029 A 
ATOM     64  C   UNL A   1      43.196  31.598  29.262  1.00  0.00     0.049 A 
ATOM     65  H   UNL A   1      42.910  29.615  28.604  1.00  0.00     0.167 HD
ATOM     66  C   UNL A   1      45.355  30.988  28.214  1.00  0.00     0.074 A 
ATOM     67  C   UNL A   1      46.701  31.291  27.769  1.00  0.00     0.031 C 
ATOM     68  C   UNL A   1      44.553  31.867  28.865  1.00  0.00     0.034 A 
BRANCH  55  69
ATOM     69  C   UNL A   1      38.880  29.705  30.023  1.00  0.00     0.023 A 
ATOM     70  C   UNL A   1      38.568  29.356  31.353  1.00  0.00     0.012 A 
ATOM     71  C   UNL A   1      37.912  30.358  29.235  1.00  0.00     0.148 A 
ATOM     72  C   UNL A   1      37.303  29.615  31.878  1.00  0.00     0.002 A 
ATOM     73  C   UNL A   1      36.668  30.656  29.782  1.00  0.00     0.091 A 
ATOM     74  F   UNL A   1      38.218  30.666  27.967  1.00  0.00    -0.205 F 
ATOM     75  C   UNL A   1      36.359  30.274  31.098  1.00  0.00     0.022 A 
BRANCH  73  76
ATOM     76  S   UNL A   1      35.410  31.575  28.888  1.00  0.00     0.127 S 
ATOM     77  O   UNL A   1      36.226  32.476  28.074  1.00  0.00    -0.237 OA
ATOM     78  O   UNL A   1      34.734  30.519  28.134  1.00  0.00    -0.237 OA
ATOM     79  O   UNL A   1      34.587  32.220  29.901  1.00  0.00    -0.744 OA
ENDBRANCH  73  76
ENDBRANCH  55  69
BRANCH  56  80
ATOM     80  C   UNL A   1      47.775  27.616  25.985  1.00  0.00     0.023 A 
ATOM     81  C   UNL A   1      48.872  27.248  26.789  1.00  0.00     0.012 A 
ATOM     82  C   UNL A   1      47.939  27.681  24.588  1.00  0.00     0.148 A 
ATOM     83  C   UNL A   1      50.116  26.984  26.216  1.00  0.00     0.002 A 
ATOM     84  C   UNL A   1      49.167  27.362  24.020  1.00  0.00     0.091 A 
ATOM     85  F   UNL A   1      46.886  28.044  23.841  1.00  0.00    -0.205 F 
ATOM     86  C   UNL A   1      50.262  27.032  24.832  1.00  0.00     0.022 A 
BRANCH  84  87
ATOM     87  S   UNL A   1      49.409  27.266  22.242  1.00  0.00     0.127 S 
ATOM     88  O   UNL A   1      48.913  28.567  21.802  1.00  0.00    -0.237 OA
ATOM     89  O   UNL A   1      50.859  27.093  22.144  1.00  0.00    -0.237 OA
ATOM     90  O   UNL A   1      48.638  26.111  21.803  1.00  0.00    -0.744 OA
ENDBRANCH  84  87
ENDBRANCH  56  80
BRANCH  68  91
ATOM     91  C   UNL A   1      45.113  33.230  29.175  1.00  0.00     0.023 A 
ATOM     92  C   UNL A   1      45.805  33.448  30.383  1.00  0.00     0.012 A 
ATOM     93  C   UNL A   1      45.021  34.273  28.232  1.00  0.00     0.148 A 
ATOM     94  C   UNL A   1      46.368  34.692  30.661  1.00  0.00     0.002 A 
ATOM     95  C   UNL A   1      45.629  35.495  28.494  1.00  0.00     0.091 A 
ATOM     96  F   UNL A   1      44.343  34.052  27.096  1.00  0.00    -0.205 F 
ATOM     97  C   UNL A   1      46.292  35.710  29.714  1.00  0.00     0.022 A 
BRANCH  95  98
ATOM     98  S   UNL A   1      45.667  36.830  27.293  1.00  0.00     0.127 S 
ATOM     99  O   UNL A   1      44.244  37.125  27.130  1.00  0.00    -0.237 OA
ATOM    100  O   UNL A   1      46.427  37.862  27.998  1.00  0.00    -0.237 OA
ATOM    101  O   UNL A   1      46.331  36.290  26.114  1.00  0.00    -0.744 OA
ENDBRANCH  95  98
ENDBRANCH  68  91
ENDBRANCH  42  43
ENDBRANCH  34  37
ENDBRANCH  32  33
ENDBRANCH   1  32
TORSDOF 17
ENDMDL
