MODEL 1
REMARK VINA RESULT:     -13.1      0.000      0.000
REMARK SMILES O=C(NCCCNC(=O)c1nnn(-c2ccccc2C(F)(F)F)c1-c1cccc(Cl)c1)c1ccc(-c2c3nc(c(-c4cccc(S(=O)(=O)[O-])c4F)c4ccc([nH]4)c(-c4cccc(S(=O)(=O)[O-])c4F)c4nc(c(-c5cccc(S(=O)(=O)[O-])c5F)c5ccc2[nH]5)C=C4)C=C3)cc1
REMARK SMILES IDX 4 1 3 2 1 3 2 4 32 6 33 7 94 8 34 9 93 10 35 11 36 12 37 13
REMARK SMILES IDX 87 14 38 15 92 16 86 17 88 18 39 19 91 20 85 21 84 22 40 24
REMARK SMILES IDX 72 25 52 26 71 27 53 28 56 29 70 30 89 31 54 32 55 33 69 35
REMARK SMILES IDX 90 36 57 37 41 38 42 39 50 40 43 41 45 42 51 43 44 44 46 45
REMARK SMILES IDX 47 46 48 47 49 48 73 49 74 50 82 51 75 52 77 53 83 54 76 55
REMARK SMILES IDX 78 56 79 57 80 58 81 59 58 60 59 61 67 62 60 63 62 64 68 65
REMARK SMILES IDX 61 66 63 67 64 68 65 69 66 70 5 71 6 72 7 73 8 74 9 76 10 77
REMARK SMILES IDX 11 78 24 79 12 80 13 81 25 82 26 83 31 84 27 85 29 86 28 87
REMARK SMILES IDX 30 88 14 89 15 90 19 91 16 92 18 93 17 94 20 95 21 96 22 97
REMARK SMILES IDX 23 98
REMARK H PARENT 3 5 88 23 56 34 7 75
REMARK Flexibility Score: inf
ROOT
ATOM      1  C   UNL A   1      33.332  30.100  26.994  1.00  0.00     0.118 C 
ENDROOT
BRANCH   1   2
ATOM      2  N   UNL A   1      33.631  31.120  27.978  1.00  0.00    -0.352 N 
ATOM      3  O   UNL A   1      34.630  32.636  29.214  1.00  0.00    -0.269 OA
ATOM      4  C   UNL A   1      34.766  31.580  28.589  1.00  0.00     0.251 C 
ATOM      5  H   UNL A   1      32.824  31.596  28.279  1.00  0.00     0.163 HD
BRANCH   4   6
ATOM      6  C   UNL A   1      36.093  30.901  28.609  1.00  0.00     0.039 A 
ATOM      7  C   UNL A   1      36.326  29.549  28.361  1.00  0.00     0.014 A 
ATOM      8  C   UNL A   1      37.190  31.709  28.973  1.00  0.00     0.014 A 
ATOM      9  C   UNL A   1      37.603  29.007  28.540  1.00  0.00     0.010 A 
ATOM     10  C   UNL A   1      38.467  31.176  29.140  1.00  0.00     0.010 A 
ATOM     11  C   UNL A   1      38.669  29.813  28.955  1.00  0.00    -0.014 A 
BRANCH  11  12
ATOM     12  C   UNL A   1      40.002  29.213  29.051  1.00  0.00     0.031 A 
ATOM     13  C   UNL A   1      40.532  29.063  30.438  1.00  0.00     0.074 A 
ATOM     14  C   UNL A   1      40.683  28.676  28.017  1.00  0.00     0.049 A 
ATOM     15  N   UNL A   1      41.580  29.616  30.960  1.00  0.00    -0.248 NA
ATOM     16  C   UNL A   1      39.746  28.257  31.382  1.00  0.00     0.031 C 
ATOM     17  C   UNL A   1      40.202  28.421  26.657  1.00  0.00     0.029 A 
ATOM     18  N   UNL A   1      41.933  28.124  28.011  1.00  0.00    -0.354 N 
ATOM     19  C   UNL A   1      41.701  29.072  32.240  1.00  0.00     0.074 A 
ATOM     20  C   UNL A   1      40.477  28.356  32.493  1.00  0.00     0.031 C 
ATOM     21  C   UNL A   1      41.048  27.564  26.040  1.00  0.00     0.029 A 
ATOM     22  C   UNL A   1      42.193  27.328  26.900  1.00  0.00     0.049 A 
ATOM     23  H   UNL A   1      42.590  28.275  28.728  1.00  0.00     0.167 HD
ATOM     24  C   UNL A   1      42.874  29.085  32.931  1.00  0.00     0.034 A 
ATOM     25  C   UNL A   1      43.244  26.487  26.730  1.00  0.00     0.034 A 
ATOM     26  C   UNL A   1      43.819  30.012  32.375  1.00  0.00     0.049 A 
ATOM     27  C   UNL A   1      44.308  26.897  27.672  1.00  0.00     0.074 A 
ATOM     28  C   UNL A   1      43.845  31.373  32.145  1.00  0.00     0.029 A 
ATOM     29  N   UNL A   1      44.857  29.489  31.646  1.00  0.00    -0.354 N 
ATOM     30  N   UNL A   1      44.983  28.005  27.570  1.00  0.00    -0.248 NA
ATOM     31  C   UNL A   1      44.389  26.225  28.957  1.00  0.00     0.031 C 
ATOM     32  C   UNL A   1      44.570  31.524  30.928  1.00  0.00     0.029 A 
ATOM     33  C   UNL A   1      44.973  30.252  30.515  1.00  0.00     0.049 A 
ATOM     34  H   UNL A   1      45.413  28.714  31.889  1.00  0.00     0.167 HD
ATOM     35  C   UNL A   1      45.202  28.396  28.882  1.00  0.00     0.074 A 
ATOM     36  C   UNL A   1      44.927  27.207  29.683  1.00  0.00     0.031 C 
ATOM     37  C   UNL A   1      45.304  29.716  29.215  1.00  0.00     0.034 A 
BRANCH  24  38
ATOM     38  C   UNL A   1      43.308  28.039  33.932  1.00  0.00     0.023 A 
ATOM     39  C   UNL A   1      43.684  28.478  35.223  1.00  0.00     0.012 A 
ATOM     40  C   UNL A   1      43.625  26.704  33.594  1.00  0.00     0.148 A 
ATOM     41  C   UNL A   1      44.375  27.648  36.113  1.00  0.00     0.002 A 
ATOM     42  C   UNL A   1      44.238  25.857  34.512  1.00  0.00     0.091 A 
ATOM     43  F   UNL A   1      43.460  26.278  32.337  1.00  0.00    -0.205 F 
ATOM     44  C   UNL A   1      44.643  26.333  35.761  1.00  0.00     0.022 A 
BRANCH  42  45
ATOM     45  S   UNL A   1      44.551  24.130  34.130  1.00  0.00     0.127 S 
ATOM     46  O   UNL A   1      45.356  24.240  32.919  1.00  0.00    -0.237 OA
ATOM     47  O   UNL A   1      45.276  23.685  35.320  1.00  0.00    -0.237 OA
ATOM     48  O   UNL A   1      43.231  23.528  33.980  1.00  0.00    -0.744 OA
ENDBRANCH  42  45
ENDBRANCH  24  38
BRANCH  25  49
ATOM     49  C   UNL A   1      43.338  25.214  25.980  1.00  0.00     0.023 A 
ATOM     50  C   UNL A   1      44.387  25.020  25.057  1.00  0.00     0.012 A 
ATOM     51  C   UNL A   1      42.584  24.089  26.379  1.00  0.00     0.148 A 
ATOM     52  C   UNL A   1      44.697  23.741  24.577  1.00  0.00     0.002 A 
ATOM     53  C   UNL A   1      42.895  22.821  25.896  1.00  0.00     0.091 A 
ATOM     54  F   UNL A   1      41.627  24.252  27.303  1.00  0.00    -0.205 F 
ATOM     55  C   UNL A   1      43.959  22.642  25.004  1.00  0.00     0.022 A 
BRANCH  53  56
ATOM     56  S   UNL A   1      42.009  21.349  26.427  1.00  0.00     0.127 S 
ATOM     57  O   UNL A   1      40.626  21.695  26.099  1.00  0.00    -0.237 OA
ATOM     58  O   UNL A   1      42.600  20.318  25.579  1.00  0.00    -0.237 OA
ATOM     59  O   UNL A   1      42.272  21.221  27.855  1.00  0.00    -0.744 OA
ENDBRANCH  53  56
ENDBRANCH  25  49
BRANCH  37  60
ATOM     60  C   UNL A   1      45.472  30.725  28.107  1.00  0.00     0.023 A 
ATOM     61  C   UNL A   1      44.368  31.339  27.479  1.00  0.00     0.012 A 
ATOM     62  C   UNL A   1      46.764  31.205  27.836  1.00  0.00     0.148 A 
ATOM     63  C   UNL A   1      44.552  32.394  26.582  1.00  0.00     0.002 A 
ATOM     64  C   UNL A   1      46.938  32.291  26.986  1.00  0.00     0.091 A 
ATOM     65  F   UNL A   1      47.803  30.612  28.443  1.00  0.00    -0.205 F 
ATOM     66  C   UNL A   1      45.836  32.882  26.349  1.00  0.00     0.022 A 
BRANCH  64  67
ATOM     67  S   UNL A   1      48.545  33.059  26.762  1.00  0.00     0.127 S 
ATOM     68  O   UNL A   1      48.267  34.049  25.724  1.00  0.00    -0.237 OA
ATOM     69  O   UNL A   1      48.810  33.620  28.088  1.00  0.00    -0.237 OA
ATOM     70  O   UNL A   1      49.452  31.985  26.379  1.00  0.00    -0.744 OA
ENDBRANCH  64  67
ENDBRANCH  37  60
ENDBRANCH  11  12
ENDBRANCH   4   6
ENDBRANCH   1   2
BRANCH   1  71
ATOM     71  C   UNL A   1      32.055  29.304  27.257  1.00  0.00     0.042 C 
BRANCH  71  72
ATOM     72  C   UNL A   1      32.178  27.789  27.129  1.00  0.00     0.118 C 
BRANCH  72  73
ATOM     73  N   UNL A   1      30.927  27.105  26.862  1.00  0.00    -0.351 N 
ATOM     74  C   UNL A   1      30.697  25.786  26.534  1.00  0.00     0.274 C 
ATOM     75  H   UNL A   1      30.121  27.667  26.925  1.00  0.00     0.163 HD
ATOM     76  O   UNL A   1      29.536  25.455  26.291  1.00  0.00    -0.267 OA
BRANCH  74  77
ATOM     77  C   UNL A   1      31.793  24.824  26.464  1.00  0.00     0.178 A 
ATOM     78  N   UNL A   1      32.008  23.927  27.486  1.00  0.00    -0.124 NA
ATOM     79  C   UNL A   1      32.762  24.631  25.484  1.00  0.00     0.108 A 
ATOM     80  N   UNL A   1      33.018  23.139  27.149  1.00  0.00    -0.061 NA
ATOM     81  N   UNL A   1      33.564  23.627  26.016  1.00  0.00    -0.211 N 
BRANCH  79  82
ATOM     82  C   UNL A   1      32.934  25.212  24.154  1.00  0.00     0.004 A 
ATOM     83  C   UNL A   1      32.485  24.512  23.021  1.00  0.00     0.010 A 
ATOM     84  C   UNL A   1      33.508  26.477  23.995  1.00  0.00     0.031 A 
ATOM     85  C   UNL A   1      32.618  25.062  21.747  1.00  0.00     0.002 A 
ATOM     86  C   UNL A   1      33.648  27.016  22.715  1.00  0.00     0.041 A 
ATOM     87  C   UNL A   1      33.204  26.316  21.593  1.00  0.00     0.020 A 
ATOM     88  Cl  UNL A   1      34.383  28.560  22.522  1.00  0.00    -0.084 Cl
ENDBRANCH  79  82
BRANCH  81  89
ATOM     89  C   UNL A   1      34.692  23.010  25.420  1.00  0.00     0.079 A 
ATOM     90  C   UNL A   1      35.892  23.742  25.424  1.00  0.00     0.029 A 
ATOM     91  C   UNL A   1      34.666  21.673  24.974  1.00  0.00     0.081 A 
ATOM     92  C   UNL A   1      37.090  23.109  25.098  1.00  0.00     0.002 A 
ATOM     93  C   UNL A   1      35.894  21.058  24.663  1.00  0.00     0.015 A 
ATOM     94  C   UNL A   1      37.095  21.763  24.745  1.00  0.00     0.001 A 
BRANCH  91  95
ATOM     95  C   UNL A   1      33.407  20.880  24.709  1.00  0.00     0.418 C 
ATOM     96  F   UNL A   1      33.664  19.750  23.986  1.00  0.00    -0.166 F 
ATOM     97  F   UNL A   1      32.809  20.446  25.851  1.00  0.00    -0.166 F 
ATOM     98  F   UNL A   1      32.451  21.539  24.003  1.00  0.00    -0.166 F 
ENDBRANCH  91  95
ENDBRANCH  81  89
ENDBRANCH  74  77
ENDBRANCH  72  73
ENDBRANCH  71  72
ENDBRANCH   1  71
TORSDOF 16
ENDMDL
MODEL 2
REMARK VINA RESULT:     -12.9      3.151      8.445
REMARK SMILES O=C(NCCCNC(=O)c1nnn(-c2ccccc2C(F)(F)F)c1-c1cccc(Cl)c1)c1ccc(-c2c3nc(c(-c4cccc(S(=O)(=O)[O-])c4F)c4ccc([nH]4)c(-c4cccc(S(=O)(=O)[O-])c4F)c4nc(c(-c5cccc(S(=O)(=O)[O-])c5F)c5ccc2[nH]5)C=C4)C=C3)cc1
REMARK SMILES IDX 4 1 3 2 1 3 2 4 32 6 33 7 94 8 34 9 93 10 35 11 36 12 37 13
REMARK SMILES IDX 87 14 38 15 92 16 86 17 88 18 39 19 91 20 85 21 84 22 40 24
REMARK SMILES IDX 72 25 52 26 71 27 53 28 56 29 70 30 89 31 54 32 55 33 69 35
REMARK SMILES IDX 90 36 57 37 41 38 42 39 50 40 43 41 45 42 51 43 44 44 46 45
REMARK SMILES IDX 47 46 48 47 49 48 73 49 74 50 82 51 75 52 77 53 83 54 76 55
REMARK SMILES IDX 78 56 79 57 80 58 81 59 58 60 59 61 67 62 60 63 62 64 68 65
REMARK SMILES IDX 61 66 63 67 64 68 65 69 66 70 5 71 6 72 7 73 8 74 9 76 10 77
REMARK SMILES IDX 11 78 24 79 12 80 13 81 25 82 26 83 31 84 27 85 29 86 28 87
REMARK SMILES IDX 30 88 14 89 15 90 19 91 16 92 18 93 17 94 20 95 21 96 22 97
REMARK SMILES IDX 23 98
REMARK H PARENT 3 5 88 23 56 34 7 75
REMARK Flexibility Score: inf
ROOT
ATOM      1  C   UNL A   1      36.822  22.327  24.960  1.00  0.00     0.118 C 
ENDROOT
BRANCH   1   2
ATOM      2  N   UNL A   1      38.048  21.639  25.310  1.00  0.00    -0.352 N 
ATOM      3  O   UNL A   1      39.862  20.942  26.334  1.00  0.00    -0.269 OA
ATOM      4  C   UNL A   1      39.110  21.900  26.133  1.00  0.00     0.251 C 
ATOM      5  H   UNL A   1      38.138  20.776  24.845  1.00  0.00     0.163 HD
BRANCH   4   6
ATOM      6  C   UNL A   1      39.452  23.220  26.738  1.00  0.00     0.039 A 
ATOM      7  C   UNL A   1      38.794  24.426  26.501  1.00  0.00     0.014 A 
ATOM      8  C   UNL A   1      40.585  23.234  27.578  1.00  0.00     0.014 A 
ATOM      9  C   UNL A   1      39.295  25.620  27.029  1.00  0.00     0.010 A 
ATOM     10  C   UNL A   1      41.081  24.419  28.117  1.00  0.00     0.010 A 
ATOM     11  C   UNL A   1      40.453  25.623  27.815  1.00  0.00    -0.014 A 
BRANCH  11  12
ATOM     12  C   UNL A   1      40.890  26.888  28.409  1.00  0.00     0.031 A 
ATOM     13  C   UNL A   1      42.227  27.374  27.957  1.00  0.00     0.074 A 
ATOM     14  C   UNL A   1      40.125  27.679  29.191  1.00  0.00     0.049 A 
ATOM     15  N   UNL A   1      43.296  27.554  28.664  1.00  0.00    -0.248 NA
ATOM     16  C   UNL A   1      42.412  27.611  26.518  1.00  0.00     0.031 C 
ATOM     17  C   UNL A   1      38.693  27.553  29.473  1.00  0.00     0.029 A 
ATOM     18  N   UNL A   1      40.458  28.854  29.805  1.00  0.00    -0.354 N 
ATOM     19  C   UNL A   1      44.236  28.117  27.798  1.00  0.00     0.074 A 
ATOM     20  C   UNL A   1      43.687  27.998  26.472  1.00  0.00     0.031 C 
ATOM     21  C   UNL A   1      38.238  28.717  29.993  1.00  0.00     0.029 A 
ATOM     22  C   UNL A   1      39.363  29.608  30.213  1.00  0.00     0.049 A 
ATOM     23  H   UNL A   1      41.390  29.141  29.945  1.00  0.00     0.167 HD
ATOM     24  C   UNL A   1      45.315  28.815  28.248  1.00  0.00     0.034 A 
ATOM     25  C   UNL A   1      39.376  30.896  30.641  1.00  0.00     0.034 A 
ATOM     26  C   UNL A   1      45.564  28.587  29.643  1.00  0.00     0.049 A 
ATOM     27  C   UNL A   1      40.755  31.217  31.065  1.00  0.00     0.074 A 
ATOM     28  C   UNL A   1      45.849  27.486  30.427  1.00  0.00     0.029 A 
ATOM     29  N   UNL A   1      45.211  29.586  30.515  1.00  0.00    -0.354 N 
ATOM     30  N   UNL A   1      41.334  30.704  32.112  1.00  0.00    -0.248 NA
ATOM     31  C   UNL A   1      41.639  31.862  30.109  1.00  0.00     0.031 C 
ATOM     32  C   UNL A   1      45.184  27.736  31.661  1.00  0.00     0.029 A 
ATOM     33  C   UNL A   1      44.572  28.988  31.567  1.00  0.00     0.049 A 
ATOM     34  H   UNL A   1      45.384  30.549  30.405  1.00  0.00     0.167 HD
ATOM     35  C   UNL A   1      42.662  30.565  31.738  1.00  0.00     0.074 A 
ATOM     36  C   UNL A   1      42.811  31.405  30.553  1.00  0.00     0.031 C 
ATOM     37  C   UNL A   1      43.436  29.564  32.250  1.00  0.00     0.034 A 
BRANCH  24  38
ATOM     38  C   UNL A   1      45.981  29.957  27.516  1.00  0.00     0.023 A 
ATOM     39  C   UNL A   1      47.389  30.063  27.601  1.00  0.00     0.012 A 
ATOM     40  C   UNL A   1      45.287  31.069  26.987  1.00  0.00     0.148 A 
ATOM     41  C   UNL A   1      48.065  31.228  27.221  1.00  0.00     0.002 A 
ATOM     42  C   UNL A   1      45.971  32.193  26.534  1.00  0.00     0.091 A 
ATOM     43  F   UNL A   1      43.952  31.108  27.041  1.00  0.00    -0.205 F 
ATOM     44  C   UNL A   1      47.357  32.290  26.677  1.00  0.00     0.022 A 
BRANCH  42  45
ATOM     45  S   UNL A   1      45.109  33.568  25.765  1.00  0.00     0.127 S 
ATOM     46  O   UNL A   1      44.349  34.103  26.890  1.00  0.00    -0.237 OA
ATOM     47  O   UNL A   1      46.219  34.405  25.312  1.00  0.00    -0.237 OA
ATOM     48  O   UNL A   1      44.332  32.974  24.682  1.00  0.00    -0.744 OA
ENDBRANCH  42  45
ENDBRANCH  24  38
BRANCH  25  49
ATOM     49  C   UNL A   1      38.349  31.955  30.514  1.00  0.00     0.023 A 
ATOM     50  C   UNL A   1      37.861  32.309  29.239  1.00  0.00     0.012 A 
ATOM     51  C   UNL A   1      37.642  32.407  31.649  1.00  0.00     0.148 A 
ATOM     52  C   UNL A   1      36.685  33.057  29.100  1.00  0.00     0.002 A 
ATOM     53  C   UNL A   1      36.476  33.153  31.505  1.00  0.00     0.091 A 
ATOM     54  F   UNL A   1      38.062  32.023  32.862  1.00  0.00    -0.205 F 
ATOM     55  C   UNL A   1      35.987  33.469  30.231  1.00  0.00     0.022 A 
BRANCH  53  56
ATOM     56  S   UNL A   1      35.501  33.692  32.917  1.00  0.00     0.127 S 
ATOM     57  O   UNL A   1      36.035  35.034  33.155  1.00  0.00    -0.237 OA
ATOM     58  O   UNL A   1      34.145  33.660  32.378  1.00  0.00    -0.237 OA
ATOM     59  O   UNL A   1      35.783  32.737  33.981  1.00  0.00    -0.744 OA
ENDBRANCH  53  56
ENDBRANCH  25  49
BRANCH  37  60
ATOM     60  C   UNL A   1      42.922  28.797  33.441  1.00  0.00     0.023 A 
ATOM     61  C   UNL A   1      41.899  27.832  33.328  1.00  0.00     0.012 A 
ATOM     62  C   UNL A   1      43.619  28.910  34.656  1.00  0.00     0.148 A 
ATOM     63  C   UNL A   1      41.565  27.014  34.410  1.00  0.00     0.002 A 
ATOM     64  C   UNL A   1      43.321  28.057  35.711  1.00  0.00     0.091 A 
ATOM     65  F   UNL A   1      44.591  29.832  34.747  1.00  0.00    -0.205 F 
ATOM     66  C   UNL A   1      42.288  27.114  35.596  1.00  0.00     0.022 A 
BRANCH  64  67
ATOM     67  S   UNL A   1      44.311  28.034  37.209  1.00  0.00     0.127 S 
ATOM     68  O   UNL A   1      44.097  29.380  37.736  1.00  0.00    -0.237 OA
ATOM     69  O   UNL A   1      43.679  26.965  37.985  1.00  0.00    -0.237 OA
ATOM     70  O   UNL A   1      45.672  27.733  36.784  1.00  0.00    -0.744 OA
ENDBRANCH  64  67
ENDBRANCH  37  60
ENDBRANCH  11  12
ENDBRANCH   4   6
ENDBRANCH   1   2
BRANCH   1  71
ATOM     71  C   UNL A   1      35.822  22.484  26.104  1.00  0.00     0.042 C 
BRANCH  71  72
ATOM     72  C   UNL A   1      34.542  23.244  25.768  1.00  0.00     0.118 C 
BRANCH  72  73
ATOM     73  N   UNL A   1      33.470  23.068  26.728  1.00  0.00    -0.351 N 
ATOM     74  C   UNL A   1      32.170  23.530  26.692  1.00  0.00     0.274 C 
ATOM     75  H   UNL A   1      33.704  22.540  27.526  1.00  0.00     0.163 HD
ATOM     76  O   UNL A   1      31.458  23.299  27.669  1.00  0.00    -0.267 OA
BRANCH  74  77
ATOM     77  C   UNL A   1      31.668  24.276  25.542  1.00  0.00     0.178 A 
ATOM     78  N   UNL A   1      31.101  23.621  24.472  1.00  0.00    -0.124 NA
ATOM     79  C   UNL A   1      31.664  25.644  25.287  1.00  0.00     0.108 A 
ATOM     80  N   UNL A   1      30.679  24.525  23.600  1.00  0.00    -0.061 NA
ATOM     81  N   UNL A   1      31.123  25.732  24.008  1.00  0.00    -0.211 N 
BRANCH  79  82
ATOM     82  C   UNL A   1      32.025  26.792  26.115  1.00  0.00     0.004 A 
ATOM     83  C   UNL A   1      31.050  27.413  26.914  1.00  0.00     0.010 A 
ATOM     84  C   UNL A   1      33.341  27.261  26.153  1.00  0.00     0.031 A 
ATOM     85  C   UNL A   1      31.381  28.494  27.730  1.00  0.00     0.002 A 
ATOM     86  C   UNL A   1      33.663  28.351  26.965  1.00  0.00     0.041 A 
ATOM     87  C   UNL A   1      32.691  28.966  27.753  1.00  0.00     0.020 A 
ATOM     88  Cl  UNL A   1      35.278  28.943  26.985  1.00  0.00    -0.084 Cl
ENDBRANCH  79  82
BRANCH  81  89
ATOM     89  C   UNL A   1      30.855  26.904  23.259  1.00  0.00     0.079 A 
ATOM     90  C   UNL A   1      29.543  27.405  23.311  1.00  0.00     0.029 A 
ATOM     91  C   UNL A   1      31.876  27.627  22.608  1.00  0.00     0.081 A 
ATOM     92  C   UNL A   1      29.268  28.681  22.822  1.00  0.00     0.002 A 
ATOM     93  C   UNL A   1      31.571  28.917  22.134  1.00  0.00     0.015 A 
ATOM     94  C   UNL A   1      30.286  29.446  22.258  1.00  0.00     0.001 A 
BRANCH  91  95
ATOM     95  C   UNL A   1      33.248  27.079  22.292  1.00  0.00     0.418 C 
ATOM     96  F   UNL A   1      33.942  27.907  21.456  1.00  0.00    -0.166 F 
ATOM     97  F   UNL A   1      34.030  26.949  23.397  1.00  0.00    -0.166 F 
ATOM     98  F   UNL A   1      33.256  25.869  21.673  1.00  0.00    -0.166 F 
ENDBRANCH  91  95
ENDBRANCH  81  89
ENDBRANCH  74  77
ENDBRANCH  72  73
ENDBRANCH  71  72
ENDBRANCH   1  71
TORSDOF 16
ENDMDL
MODEL 3
REMARK VINA RESULT:     -12.7      1.959      2.663
REMARK SMILES O=C(NCCCNC(=O)c1nnn(-c2ccccc2C(F)(F)F)c1-c1cccc(Cl)c1)c1ccc(-c2c3nc(c(-c4cccc(S(=O)(=O)[O-])c4F)c4ccc([nH]4)c(-c4cccc(S(=O)(=O)[O-])c4F)c4nc(c(-c5cccc(S(=O)(=O)[O-])c5F)c5ccc2[nH]5)C=C4)C=C3)cc1
REMARK SMILES IDX 4 1 3 2 1 3 2 4 32 6 33 7 94 8 34 9 93 10 35 11 36 12 37 13
REMARK SMILES IDX 87 14 38 15 92 16 86 17 88 18 39 19 91 20 85 21 84 22 40 24
REMARK SMILES IDX 72 25 52 26 71 27 53 28 56 29 70 30 89 31 54 32 55 33 69 35
REMARK SMILES IDX 90 36 57 37 41 38 42 39 50 40 43 41 45 42 51 43 44 44 46 45
REMARK SMILES IDX 47 46 48 47 49 48 73 49 74 50 82 51 75 52 77 53 83 54 76 55
REMARK SMILES IDX 78 56 79 57 80 58 81 59 58 60 59 61 67 62 60 63 62 64 68 65
REMARK SMILES IDX 61 66 63 67 64 68 65 69 66 70 5 71 6 72 7 73 8 74 9 76 10 77
REMARK SMILES IDX 11 78 24 79 12 80 13 81 25 82 26 83 31 84 27 85 29 86 28 87
REMARK SMILES IDX 30 88 14 89 15 90 19 91 16 92 18 93 17 94 20 95 21 96 22 97
REMARK SMILES IDX 23 98
REMARK H PARENT 3 5 88 23 56 34 7 75
REMARK Flexibility Score: inf
ROOT
ATOM      1  C   UNL A   1      33.923  30.186  26.810  1.00  0.00     0.118 C 
ENDROOT
BRANCH   1   2
ATOM      2  N   UNL A   1      33.893  31.087  27.944  1.00  0.00    -0.352 N 
ATOM      3  O   UNL A   1      34.437  32.491  29.543  1.00  0.00    -0.269 OA
ATOM      4  C   UNL A   1      34.810  31.536  28.856  1.00  0.00     0.251 C 
ATOM      5  H   UNL A   1      32.998  31.468  28.095  1.00  0.00     0.163 HD
BRANCH   4   6
ATOM      6  C   UNL A   1      36.154  30.945  29.117  1.00  0.00     0.039 A 
ATOM      7  C   UNL A   1      37.373  31.620  29.054  1.00  0.00     0.014 A 
ATOM      8  C   UNL A   1      36.173  29.562  29.391  1.00  0.00     0.014 A 
ATOM      9  C   UNL A   1      38.575  30.921  29.192  1.00  0.00     0.010 A 
ATOM     10  C   UNL A   1      37.369  28.863  29.542  1.00  0.00     0.010 A 
ATOM     11  C   UNL A   1      38.578  29.538  29.409  1.00  0.00    -0.014 A 
BRANCH  11  12
ATOM     12  C   UNL A   1      39.861  28.868  29.625  1.00  0.00     0.031 A 
ATOM     13  C   UNL A   1      40.367  28.901  31.030  1.00  0.00     0.074 A 
ATOM     14  C   UNL A   1      40.510  28.126  28.703  1.00  0.00     0.049 A 
ATOM     15  N   UNL A   1      41.448  29.453  31.479  1.00  0.00    -0.248 NA
ATOM     16  C   UNL A   1      39.515  28.313  32.072  1.00  0.00     0.031 C 
ATOM     17  C   UNL A   1      40.024  27.694  27.390  1.00  0.00     0.029 A 
ATOM     18  N   UNL A   1      41.716  27.491  28.810  1.00  0.00    -0.354 N 
ATOM     19  C   UNL A   1      41.516  29.111  32.832  1.00  0.00     0.074 A 
ATOM     20  C   UNL A   1      40.240  28.534  33.169  1.00  0.00     0.031 C 
ATOM     21  C   UNL A   1      40.810  26.692  26.933  1.00  0.00     0.029 A 
ATOM     22  C   UNL A   1      41.927  26.513  27.844  1.00  0.00     0.049 A 
ATOM     23  H   UNL A   1      42.376  27.707  29.508  1.00  0.00     0.167 HD
ATOM     24  C   UNL A   1      42.681  29.150  33.536  1.00  0.00     0.034 A 
ATOM     25  C   UNL A   1      42.914  25.583  27.830  1.00  0.00     0.034 A 
ATOM     26  C   UNL A   1      43.697  29.907  32.861  1.00  0.00     0.049 A 
ATOM     27  C   UNL A   1      43.996  26.059  28.717  1.00  0.00     0.074 A 
ATOM     28  C   UNL A   1      43.826  31.209  32.421  1.00  0.00     0.029 A 
ATOM     29  N   UNL A   1      44.699  29.203  32.245  1.00  0.00    -0.354 N 
ATOM     30  N   UNL A   1      44.753  27.087  28.456  1.00  0.00    -0.248 NA
ATOM     31  C   UNL A   1      44.016  25.595  30.094  1.00  0.00     0.031 C 
ATOM     32  C   UNL A   1      44.570  31.113  31.210  1.00  0.00     0.029 A 
ATOM     33  C   UNL A   1      44.882  29.766  31.011  1.00  0.00     0.049 A 
ATOM     34  H   UNL A   1      45.194  28.437  32.618  1.00  0.00     0.167 HD
ATOM     35  C   UNL A   1      44.988  27.664  29.695  1.00  0.00     0.074 A 
ATOM     36  C   UNL A   1      44.619  26.639  30.667  1.00  0.00     0.031 C 
ATOM     37  C   UNL A   1      45.185  29.009  29.818  1.00  0.00     0.034 A 
BRANCH  24  38
ATOM     38  C   UNL A   1      43.027  28.247  34.698  1.00  0.00     0.023 A 
ATOM     39  C   UNL A   1      43.472  28.856  35.895  1.00  0.00     0.012 A 
ATOM     40  C   UNL A   1      43.199  26.849  34.589  1.00  0.00     0.148 A 
ATOM     41  C   UNL A   1      44.093  28.119  36.910  1.00  0.00     0.002 A 
ATOM     42  C   UNL A   1      43.742  26.109  35.635  1.00  0.00     0.091 A 
ATOM     43  F   UNL A   1      42.966  26.238  33.423  1.00  0.00    -0.205 F 
ATOM     44  C   UNL A   1      44.220  26.743  36.785  1.00  0.00     0.022 A 
BRANCH  42  45
ATOM     45  S   UNL A   1      43.870  24.320  35.549  1.00  0.00     0.127 S 
ATOM     46  O   UNL A   1      44.747  24.144  34.397  1.00  0.00    -0.237 OA
ATOM     47  O   UNL A   1      44.472  23.998  36.843  1.00  0.00    -0.237 OA
ATOM     48  O   UNL A   1      42.498  23.846  35.398  1.00  0.00    -0.744 OA
ENDBRANCH  42  45
ENDBRANCH  24  38
BRANCH  25  49
ATOM     49  C   UNL A   1      42.920  24.204  27.291  1.00  0.00     0.023 A 
ATOM     50  C   UNL A   1      41.754  23.415  27.369  1.00  0.00     0.012 A 
ATOM     51  C   UNL A   1      43.964  23.770  26.445  1.00  0.00     0.148 A 
ATOM     52  C   UNL A   1      41.617  22.252  26.600  1.00  0.00     0.002 A 
ATOM     53  C   UNL A   1      43.824  22.612  25.686  1.00  0.00     0.091 A 
ATOM     54  F   UNL A   1      45.049  24.545  26.315  1.00  0.00    -0.205 F 
ATOM     55  C   UNL A   1      42.647  21.857  25.752  1.00  0.00     0.022 A 
BRANCH  53  56
ATOM     56  S   UNL A   1      45.095  22.055  24.542  1.00  0.00     0.127 S 
ATOM     57  O   UNL A   1      44.535  20.791  24.062  1.00  0.00    -0.237 OA
ATOM     58  O   UNL A   1      45.107  23.133  23.557  1.00  0.00    -0.237 OA
ATOM     59  O   UNL A   1      46.308  21.910  25.337  1.00  0.00    -0.744 OA
ENDBRANCH  53  56
ENDBRANCH  25  49
BRANCH  37  60
ATOM     60  C   UNL A   1      45.436  29.815  28.569  1.00  0.00     0.023 A 
ATOM     61  C   UNL A   1      44.384  30.308  27.769  1.00  0.00     0.012 A 
ATOM     62  C   UNL A   1      46.748  30.249  28.312  1.00  0.00     0.148 A 
ATOM     63  C   UNL A   1      44.637  31.195  26.721  1.00  0.00     0.002 A 
ATOM     64  C   UNL A   1      46.988  31.175  27.304  1.00  0.00     0.091 A 
ATOM     65  F   UNL A   1      47.737  29.773  29.083  1.00  0.00    -0.205 F 
ATOM     66  C   UNL A   1      45.938  31.643  26.499  1.00  0.00     0.022 A 
BRANCH  64  67
ATOM     67  S   UNL A   1      48.612  31.902  27.065  1.00  0.00     0.127 S 
ATOM     68  O   UNL A   1      49.374  30.778  26.528  1.00  0.00    -0.237 OA
ATOM     69  O   UNL A   1      48.337  32.971  26.103  1.00  0.00    -0.237 OA
ATOM     70  O   UNL A   1      49.034  32.379  28.377  1.00  0.00    -0.744 OA
ENDBRANCH  64  67
ENDBRANCH  37  60
ENDBRANCH  11  12
ENDBRANCH   4   6
ENDBRANCH   1   2
BRANCH   1  71
ATOM     71  C   UNL A   1      33.644  28.722  27.143  1.00  0.00     0.042 C 
BRANCH  71  72
ATOM     72  C   UNL A   1      32.845  27.944  26.101  1.00  0.00     0.118 C 
BRANCH  72  73
ATOM     73  N   UNL A   1      33.394  28.001  24.759  1.00  0.00    -0.351 N 
ATOM     74  C   UNL A   1      33.429  27.030  23.780  1.00  0.00     0.274 C 
ATOM     75  H   UNL A   1      33.804  28.861  24.510  1.00  0.00     0.163 HD
ATOM     76  O   UNL A   1      34.013  27.302  22.731  1.00  0.00    -0.267 OA
BRANCH  74  77
ATOM     77  C   UNL A   1      32.806  25.726  23.990  1.00  0.00     0.178 A 
ATOM     78  N   UNL A   1      31.437  25.588  23.965  1.00  0.00    -0.124 NA
ATOM     79  C   UNL A   1      33.380  24.485  24.249  1.00  0.00     0.108 A 
ATOM     80  N   UNL A   1      31.140  24.307  24.123  1.00  0.00    -0.061 NA
ATOM     81  N   UNL A   1      32.280  23.651  24.424  1.00  0.00    -0.211 N 
BRANCH  79  82
ATOM     82  C   UNL A   1      34.770  24.036  24.266  1.00  0.00     0.004 A 
ATOM     83  C   UNL A   1      35.302  23.368  23.150  1.00  0.00     0.010 A 
ATOM     84  C   UNL A   1      35.592  24.296  25.365  1.00  0.00     0.031 A 
ATOM     85  C   UNL A   1      36.634  22.955  23.137  1.00  0.00     0.002 A 
ATOM     86  C   UNL A   1      36.922  23.870  25.349  1.00  0.00     0.041 A 
ATOM     87  C   UNL A   1      37.445  23.204  24.241  1.00  0.00     0.020 A 
ATOM     88  Cl  UNL A   1      37.922  24.165  26.718  1.00  0.00    -0.084 Cl
ENDBRANCH  79  82
BRANCH  81  89
ATOM     89  C   UNL A   1      32.279  22.258  24.681  1.00  0.00     0.079 A 
ATOM     90  C   UNL A   1      32.153  21.408  23.569  1.00  0.00     0.029 A 
ATOM     91  C   UNL A   1      32.539  21.732  25.962  1.00  0.00     0.081 A 
ATOM     92  C   UNL A   1      32.405  20.044  23.707  1.00  0.00     0.002 A 
ATOM     93  C   UNL A   1      32.800  20.353  26.069  1.00  0.00     0.015 A 
ATOM     94  C   UNL A   1      32.754  19.522  24.950  1.00  0.00     0.001 A 
BRANCH  91  95
ATOM     95  C   UNL A   1      32.460  22.524  27.248  1.00  0.00     0.418 C 
ATOM     96  F   UNL A   1      33.375  23.537  27.274  1.00  0.00    -0.166 F 
ATOM     97  F   UNL A   1      31.253  23.127  27.420  1.00  0.00    -0.166 F 
ATOM     98  F   UNL A   1      32.695  21.808  28.379  1.00  0.00    -0.166 F 
ENDBRANCH  91  95
ENDBRANCH  81  89
ENDBRANCH  74  77
ENDBRANCH  72  73
ENDBRANCH  71  72
ENDBRANCH   1  71
TORSDOF 16
ENDMDL
