MODEL 1
REMARK VINA RESULT:     -12.5      0.000      0.000
REMARK SMILES O=C(NCCCNC(=O)c1c[nH]c(=O)c(-c2cccc([N+](=O)[O-])c2)c1)c1ccc(-c2c3nc(c(-c4cccc(S(=O)(=O)[O-])c4F)c4ccc([nH]4)c(-c4cccc(S(=O)(=O)[O-])c4F)c4nc(c(-c5cccc(S(=O)(=O)[O-])c5F)c5ccc2[nH]5)C=C4)C=C3)cc1
REMARK SMILES IDX 4 1 3 2 1 3 2 4 26 6 27 7 88 8 28 9 87 10 29 11 30 12 31 13
REMARK SMILES IDX 81 14 32 15 86 16 80 17 82 18 33 19 85 20 79 21 78 22 34 24
REMARK SMILES IDX 66 25 46 26 65 27 47 28 50 29 64 30 83 31 48 32 49 33 63 35
REMARK SMILES IDX 84 36 51 37 35 38 36 39 44 40 37 41 39 42 45 43 38 44 40 45
REMARK SMILES IDX 41 46 42 47 43 48 67 49 68 50 76 51 69 52 71 53 77 54 70 55
REMARK SMILES IDX 72 56 73 57 74 58 75 59 52 60 53 61 61 62 54 63 56 64 62 65
REMARK SMILES IDX 55 66 57 67 58 68 59 69 60 70 5 71 6 72 7 73 8 74 9 76 10 77
REMARK SMILES IDX 11 78 25 79 12 80 15 81 13 82 14 84 16 85 17 86 24 87 18 88
REMARK SMILES IDX 20 89 19 90 21 91 22 92 23 93
REMARK H PARENT 3 5 82 23 50 34 7 75 12 83
REMARK Flexibility Score: inf
ROOT
ATOM      1  C   UNL A   1      33.820  28.818  26.421  1.00  0.00     0.118 C 
ENDROOT
BRANCH   1   2
ATOM      2  N   UNL A   1      33.792  30.215  26.827  1.00  0.00    -0.352 N 
ATOM      3  O   UNL A   1      34.303  32.045  28.020  1.00  0.00    -0.269 OA
ATOM      4  C   UNL A   1      34.628  30.915  27.663  1.00  0.00     0.251 C 
ATOM      5  H   UNL A   1      33.056  30.743  26.441  1.00  0.00     0.163 HD
BRANCH   4   6
ATOM      6  C   UNL A   1      35.887  30.309  28.151  1.00  0.00     0.039 A 
ATOM      7  C   UNL A   1      35.941  29.648  29.380  1.00  0.00     0.014 A 
ATOM      8  C   UNL A   1      37.030  30.385  27.351  1.00  0.00     0.014 A 
ATOM      9  C   UNL A   1      37.163  29.212  29.883  1.00  0.00     0.010 A 
ATOM     10  C   UNL A   1      38.237  29.859  27.815  1.00  0.00     0.010 A 
ATOM     11  C   UNL A   1      38.324  29.302  29.101  1.00  0.00    -0.014 A 
BRANCH  11  12
ATOM     12  C   UNL A   1      39.611  28.768  29.613  1.00  0.00     0.031 A 
ATOM     13  C   UNL A   1      40.341  29.457  30.731  1.00  0.00     0.074 A 
ATOM     14  C   UNL A   1      40.143  27.675  29.031  1.00  0.00     0.049 A 
ATOM     15  N   UNL A   1      41.508  29.175  31.250  1.00  0.00    -0.248 NA
ATOM     16  C   UNL A   1      39.682  30.623  31.339  1.00  0.00     0.031 C 
ATOM     17  C   UNL A   1      39.541  26.935  27.921  1.00  0.00     0.029 A 
ATOM     18  N   UNL A   1      41.320  27.014  29.271  1.00  0.00    -0.354 N 
ATOM     19  C   UNL A   1      41.747  30.151  32.209  1.00  0.00     0.074 A 
ATOM     20  C   UNL A   1      40.604  31.039  32.197  1.00  0.00     0.031 C 
ATOM     21  C   UNL A   1      40.352  25.927  27.572  1.00  0.00     0.029 A 
ATOM     22  C   UNL A   1      41.558  25.986  28.390  1.00  0.00     0.049 A 
ATOM     23  H   UNL A   1      41.935  27.252  30.003  1.00  0.00     0.167 HD
ATOM     24  C   UNL A   1      42.817  30.292  33.028  1.00  0.00     0.034 A 
ATOM     25  C   UNL A   1      42.640  25.202  28.225  1.00  0.00     0.034 A 
ATOM     26  C   UNL A   1      43.943  29.395  33.043  1.00  0.00     0.049 A 
ATOM     27  C   UNL A   1      43.818  25.381  29.139  1.00  0.00     0.074 A 
ATOM     28  C   UNL A   1      45.046  29.414  33.878  1.00  0.00     0.029 A 
ATOM     29  N   UNL A   1      44.122  28.333  32.170  1.00  0.00    -0.354 N 
ATOM     30  N   UNL A   1      43.977  26.240  30.115  1.00  0.00    -0.248 NA
ATOM     31  C   UNL A   1      44.951  24.465  28.951  1.00  0.00     0.031 C 
ATOM     32  C   UNL A   1      45.911  28.389  33.482  1.00  0.00     0.029 A 
ATOM     33  C   UNL A   1      45.324  27.698  32.434  1.00  0.00     0.049 A 
ATOM     34  H   UNL A   1      43.488  28.068  31.465  1.00  0.00     0.167 HD
ATOM     35  C   UNL A   1      45.209  25.943  30.685  1.00  0.00     0.074 A 
ATOM     36  C   UNL A   1      45.751  24.820  29.947  1.00  0.00     0.031 C 
ATOM     37  C   UNL A   1      45.832  26.550  31.726  1.00  0.00     0.034 A 
BRANCH  24  38
ATOM     38  C   UNL A   1      42.821  31.461  33.981  1.00  0.00     0.023 A 
ATOM     39  C   UNL A   1      43.380  32.694  33.585  1.00  0.00     0.012 A 
ATOM     40  C   UNL A   1      42.234  31.351  35.257  1.00  0.00     0.148 A 
ATOM     41  C   UNL A   1      43.400  33.780  34.459  1.00  0.00     0.002 A 
ATOM     42  C   UNL A   1      42.213  32.453  36.105  1.00  0.00     0.091 A 
ATOM     43  F   UNL A   1      41.722  30.168  35.627  1.00  0.00    -0.205 F 
ATOM     44  C   UNL A   1      42.810  33.662  35.715  1.00  0.00     0.022 A 
BRANCH  42  45
ATOM     45  S   UNL A   1      41.400  32.423  37.706  1.00  0.00     0.127 S 
ATOM     46  O   UNL A   1      41.432  33.837  38.079  1.00  0.00    -0.237 OA
ATOM     47  O   UNL A   1      40.071  31.911  37.368  1.00  0.00    -0.237 OA
ATOM     48  O   UNL A   1      42.196  31.535  38.543  1.00  0.00    -0.744 OA
ENDBRANCH  42  45
ENDBRANCH  24  38
BRANCH  25  49
ATOM     49  C   UNL A   1      42.631  24.163  27.160  1.00  0.00     0.023 A 
ATOM     50  C   UNL A   1      43.280  24.417  25.937  1.00  0.00     0.012 A 
ATOM     51  C   UNL A   1      42.044  22.901  27.382  1.00  0.00     0.148 A 
ATOM     52  C   UNL A   1      43.326  23.437  24.943  1.00  0.00     0.002 A 
ATOM     53  C   UNL A   1      42.145  21.912  26.412  1.00  0.00     0.091 A 
ATOM     54  F   UNL A   1      41.431  22.685  28.554  1.00  0.00    -0.205 F 
ATOM     55  C   UNL A   1      42.770  22.184  25.185  1.00  0.00     0.022 A 
BRANCH  53  56
ATOM     56  S   UNL A   1      41.582  20.229  26.686  1.00  0.00     0.127 S 
ATOM     57  O   UNL A   1      41.960  19.581  25.432  1.00  0.00    -0.237 OA
ATOM     58  O   UNL A   1      42.379  19.835  27.849  1.00  0.00    -0.237 OA
ATOM     59  O   UNL A   1      40.151  20.324  26.937  1.00  0.00    -0.744 OA
ENDBRANCH  53  56
ENDBRANCH  25  49
BRANCH  37  60
ATOM     60  C   UNL A   1      47.148  25.980  32.186  1.00  0.00     0.023 A 
ATOM     61  C   UNL A   1      48.355  26.423  31.613  1.00  0.00     0.012 A 
ATOM     62  C   UNL A   1      47.183  25.070  33.262  1.00  0.00     0.148 A 
ATOM     63  C   UNL A   1      49.579  25.952  32.090  1.00  0.00     0.002 A 
ATOM     64  C   UNL A   1      48.406  24.647  33.767  1.00  0.00     0.091 A 
ATOM     65  F   UNL A   1      46.021  24.645  33.778  1.00  0.00    -0.205 F 
ATOM     66  C   UNL A   1      49.605  25.077  33.175  1.00  0.00     0.022 A 
BRANCH  64  67
ATOM     67  S   UNL A   1      48.538  23.603  35.223  1.00  0.00     0.127 S 
ATOM     68  O   UNL A   1      47.678  24.307  36.173  1.00  0.00    -0.237 OA
ATOM     69  O   UNL A   1      48.003  22.331  34.741  1.00  0.00    -0.237 OA
ATOM     70  O   UNL A   1      49.953  23.574  35.572  1.00  0.00    -0.744 OA
ENDBRANCH  64  67
ENDBRANCH  37  60
ENDBRANCH  11  12
ENDBRANCH   4   6
ENDBRANCH   1   2
BRANCH   1  71
ATOM     71  C   UNL A   1      32.643  28.438  25.537  1.00  0.00     0.042 C 
BRANCH  71  72
ATOM     72  C   UNL A   1      32.163  27.007  25.719  1.00  0.00     0.118 C 
BRANCH  72  73
ATOM     73  N   UNL A   1      32.339  26.194  24.520  1.00  0.00    -0.352 N 
ATOM     74  C   UNL A   1      31.483  25.933  23.490  1.00  0.00     0.252 C 
ATOM     75  H   UNL A   1      33.220  25.762  24.443  1.00  0.00     0.163 HD
ATOM     76  O   UNL A   1      31.790  25.108  22.632  1.00  0.00    -0.269 OA
BRANCH  74  77
ATOM     77  C   UNL A   1      30.181  26.647  23.434  1.00  0.00     0.056 A 
ATOM     78  C   UNL A   1      29.070  25.970  23.758  1.00  0.00     0.099 A 
ATOM     79  C   UNL A   1      30.078  28.036  23.045  1.00  0.00     0.029 A 
ATOM     80  N   UNL A   1      27.854  26.611  23.785  1.00  0.00    -0.328 N 
ATOM     81  C   UNL A   1      28.918  28.715  23.129  1.00  0.00     0.048 A 
ATOM     82  C   UNL A   1      27.680  27.953  23.518  1.00  0.00     0.255 A 
ATOM     83  H   UNL A   1      27.057  26.079  24.009  1.00  0.00     0.169 HD
ATOM     84  O   UNL A   1      26.574  28.482  23.585  1.00  0.00    -0.269 OA
BRANCH  81  85
ATOM     85  C   UNL A   1      28.934  30.177  22.946  1.00  0.00    -0.006 A 
ATOM     86  C   UNL A   1      29.462  31.026  23.933  1.00  0.00     0.009 A 
ATOM     87  C   UNL A   1      28.325  30.745  21.816  1.00  0.00     0.094 A 
ATOM     88  C   UNL A   1      29.367  32.414  23.813  1.00  0.00     0.008 A 
ATOM     89  C   UNL A   1      28.235  32.139  21.699  1.00  0.00     0.270 A 
ATOM     90  C   UNL A   1      28.748  32.976  22.698  1.00  0.00     0.085 A 
BRANCH  89  91
ATOM     91  N   UNL A   1      27.575  32.729  20.527  1.00  0.00     0.062 N 
ATOM     92  O   UNL A   1      27.267  33.929  20.585  1.00  0.00    -0.258 OA
ATOM     93  O   UNL A   1      27.367  31.996  19.550  1.00  0.00    -0.258 OA
ENDBRANCH  89  91
ENDBRANCH  81  85
ENDBRANCH  74  77
ENDBRANCH  72  73
ENDBRANCH  71  72
ENDBRANCH   1  71
TORSDOF 15
ENDMDL
MODEL 2
REMARK VINA RESULT:     -12.3      2.024      4.361
REMARK SMILES O=C(NCCCNC(=O)c1c[nH]c(=O)c(-c2cccc([N+](=O)[O-])c2)c1)c1ccc(-c2c3nc(c(-c4cccc(S(=O)(=O)[O-])c4F)c4ccc([nH]4)c(-c4cccc(S(=O)(=O)[O-])c4F)c4nc(c(-c5cccc(S(=O)(=O)[O-])c5F)c5ccc2[nH]5)C=C4)C=C3)cc1
REMARK SMILES IDX 4 1 3 2 1 3 2 4 26 6 27 7 88 8 28 9 87 10 29 11 30 12 31 13
REMARK SMILES IDX 81 14 32 15 86 16 80 17 82 18 33 19 85 20 79 21 78 22 34 24
REMARK SMILES IDX 66 25 46 26 65 27 47 28 50 29 64 30 83 31 48 32 49 33 63 35
REMARK SMILES IDX 84 36 51 37 35 38 36 39 44 40 37 41 39 42 45 43 38 44 40 45
REMARK SMILES IDX 41 46 42 47 43 48 67 49 68 50 76 51 69 52 71 53 77 54 70 55
REMARK SMILES IDX 72 56 73 57 74 58 75 59 52 60 53 61 61 62 54 63 56 64 62 65
REMARK SMILES IDX 55 66 57 67 58 68 59 69 60 70 5 71 6 72 7 73 8 74 9 76 10 77
REMARK SMILES IDX 11 78 25 79 12 80 15 81 13 82 14 84 16 85 17 86 24 87 18 88
REMARK SMILES IDX 20 89 19 90 21 91 22 92 23 93
REMARK H PARENT 3 5 82 23 50 34 7 75 12 83
REMARK Flexibility Score: inf
ROOT
ATOM      1  C   UNL A   1      34.215  28.711  25.988  1.00  0.00     0.118 C 
ENDROOT
BRANCH   1   2
ATOM      2  N   UNL A   1      33.888  29.998  26.582  1.00  0.00    -0.352 N 
ATOM      3  O   UNL A   1      33.944  31.675  28.071  1.00  0.00    -0.269 OA
ATOM      4  C   UNL A   1      34.506  30.692  27.595  1.00  0.00     0.251 C 
ATOM      5  H   UNL A   1      33.100  30.444  26.196  1.00  0.00     0.163 HD
BRANCH   4   6
ATOM      6  C   UNL A   1      35.813  30.246  28.126  1.00  0.00     0.039 A 
ATOM      7  C   UNL A   1      36.991  30.438  27.399  1.00  0.00     0.014 A 
ATOM      8  C   UNL A   1      35.864  29.644  29.386  1.00  0.00     0.014 A 
ATOM      9  C   UNL A   1      38.185  29.886  27.851  1.00  0.00     0.010 A 
ATOM     10  C   UNL A   1      37.082  29.177  29.883  1.00  0.00     0.010 A 
ATOM     11  C   UNL A   1      38.247  29.259  29.104  1.00  0.00    -0.014 A 
BRANCH  11  12
ATOM     12  C   UNL A   1      39.540  28.737  29.614  1.00  0.00     0.031 A 
ATOM     13  C   UNL A   1      40.267  29.435  30.728  1.00  0.00     0.074 A 
ATOM     14  C   UNL A   1      40.080  27.648  29.033  1.00  0.00     0.049 A 
ATOM     15  N   UNL A   1      41.437  29.164  31.245  1.00  0.00    -0.248 NA
ATOM     16  C   UNL A   1      39.598  30.596  31.336  1.00  0.00     0.031 C 
ATOM     17  C   UNL A   1      39.482  26.900  27.926  1.00  0.00     0.029 A 
ATOM     18  N   UNL A   1      41.264  26.997  29.272  1.00  0.00    -0.354 N 
ATOM     19  C   UNL A   1      41.670  30.145  32.202  1.00  0.00     0.074 A 
ATOM     20  C   UNL A   1      40.519  31.022  32.190  1.00  0.00     0.031 C 
ATOM     21  C   UNL A   1      40.302  25.897  27.578  1.00  0.00     0.029 A 
ATOM     22  C   UNL A   1      41.509  25.969  28.393  1.00  0.00     0.049 A 
ATOM     23  H   UNL A   1      41.878  27.242  30.003  1.00  0.00     0.167 HD
ATOM     24  C   UNL A   1      42.740  30.297  33.018  1.00  0.00     0.034 A 
ATOM     25  C   UNL A   1      42.597  25.194  28.228  1.00  0.00     0.034 A 
ATOM     26  C   UNL A   1      43.874  29.410  33.033  1.00  0.00     0.049 A 
ATOM     27  C   UNL A   1      43.775  25.386  29.139  1.00  0.00     0.074 A 
ATOM     28  C   UNL A   1      44.978  29.440  33.867  1.00  0.00     0.029 A 
ATOM     29  N   UNL A   1      44.060  28.347  32.162  1.00  0.00    -0.354 N 
ATOM     30  N   UNL A   1      43.929  26.248  30.112  1.00  0.00    -0.248 NA
ATOM     31  C   UNL A   1      44.916  24.479  28.951  1.00  0.00     0.031 C 
ATOM     32  C   UNL A   1      45.851  28.422  33.471  1.00  0.00     0.029 A 
ATOM     33  C   UNL A   1      45.268  27.723  32.426  1.00  0.00     0.049 A 
ATOM     34  H   UNL A   1      43.426  28.075  31.460  1.00  0.00     0.167 HD
ATOM     35  C   UNL A   1      45.164  25.964  30.681  1.00  0.00     0.074 A 
ATOM     36  C   UNL A   1      45.714  24.844  29.945  1.00  0.00     0.031 C 
ATOM     37  C   UNL A   1      45.784  26.578  31.719  1.00  0.00     0.034 A 
BRANCH  24  38
ATOM     38  C   UNL A   1      42.735  31.468  33.969  1.00  0.00     0.023 A 
ATOM     39  C   UNL A   1      43.321  32.692  33.584  1.00  0.00     0.012 A 
ATOM     40  C   UNL A   1      42.115  31.370  35.230  1.00  0.00     0.148 A 
ATOM     41  C   UNL A   1      43.334  33.781  34.456  1.00  0.00     0.002 A 
ATOM     42  C   UNL A   1      42.088  32.474  36.075  1.00  0.00     0.091 A 
ATOM     43  F   UNL A   1      41.578  30.194  35.589  1.00  0.00    -0.205 F 
ATOM     44  C   UNL A   1      42.710  33.673  35.697  1.00  0.00     0.022 A 
BRANCH  42  45
ATOM     45  S   UNL A   1      41.235  32.458  37.655  1.00  0.00     0.127 S 
ATOM     46  O   UNL A   1      42.104  31.591  38.451  1.00  0.00    -0.237 OA
ATOM     47  O   UNL A   1      41.268  33.871  38.038  1.00  0.00    -0.237 OA
ATOM     48  O   UNL A   1      39.902  31.936  37.386  1.00  0.00    -0.744 OA
ENDBRANCH  42  45
ENDBRANCH  24  38
BRANCH  25  49
ATOM     49  C   UNL A   1      42.595  24.152  27.165  1.00  0.00     0.023 A 
ATOM     50  C   UNL A   1      43.242  24.408  25.941  1.00  0.00     0.012 A 
ATOM     51  C   UNL A   1      42.017  22.887  27.391  1.00  0.00     0.148 A 
ATOM     52  C   UNL A   1      43.295  23.426  24.950  1.00  0.00     0.002 A 
ATOM     53  C   UNL A   1      42.124  21.896  26.423  1.00  0.00     0.091 A 
ATOM     54  F   UNL A   1      41.406  22.670  28.563  1.00  0.00    -0.205 F 
ATOM     55  C   UNL A   1      42.748  22.169  25.195  1.00  0.00     0.022 A 
BRANCH  53  56
ATOM     56  S   UNL A   1      41.574  20.210  26.701  1.00  0.00     0.127 S 
ATOM     57  O   UNL A   1      40.141  20.396  26.915  1.00  0.00    -0.237 OA
ATOM     58  O   UNL A   1      41.931  19.569  25.434  1.00  0.00    -0.237 OA
ATOM     59  O   UNL A   1      42.324  19.731  27.853  1.00  0.00    -0.744 OA
ENDBRANCH  53  56
ENDBRANCH  25  49
BRANCH  37  60
ATOM     60  C   UNL A   1      47.106  26.021  32.178  1.00  0.00     0.023 A 
ATOM     61  C   UNL A   1      48.309  26.475  31.603  1.00  0.00     0.012 A 
ATOM     62  C   UNL A   1      47.152  25.112  33.255  1.00  0.00     0.148 A 
ATOM     63  C   UNL A   1      49.537  26.015  32.079  1.00  0.00     0.002 A 
ATOM     64  C   UNL A   1      48.378  24.700  33.758  1.00  0.00     0.091 A 
ATOM     65  F   UNL A   1      45.994  24.677  33.772  1.00  0.00    -0.205 F 
ATOM     66  C   UNL A   1      49.573  25.141  33.164  1.00  0.00     0.022 A 
BRANCH  64  67
ATOM     67  S   UNL A   1      48.523  23.659  35.215  1.00  0.00     0.127 S 
ATOM     68  O   UNL A   1      47.934  22.406  34.745  1.00  0.00    -0.237 OA
ATOM     69  O   UNL A   1      49.970  23.614  35.420  1.00  0.00    -0.237 OA
ATOM     70  O   UNL A   1      47.780  24.336  36.271  1.00  0.00    -0.744 OA
ENDBRANCH  64  67
ENDBRANCH  37  60
ENDBRANCH  11  12
ENDBRANCH   4   6
ENDBRANCH   1   2
BRANCH   1  71
ATOM     71  C   UNL A   1      33.781  28.607  24.533  1.00  0.00     0.042 C 
BRANCH  71  72
ATOM     72  C   UNL A   1      32.337  29.011  24.283  1.00  0.00     0.118 C 
BRANCH  72  73
ATOM     73  N   UNL A   1      31.778  28.403  23.081  1.00  0.00    -0.352 N 
ATOM     74  C   UNL A   1      31.222  27.172  22.885  1.00  0.00     0.252 C 
ATOM     75  H   UNL A   1      31.807  28.974  22.280  1.00  0.00     0.163 HD
ATOM     76  O   UNL A   1      30.926  26.808  21.749  1.00  0.00    -0.269 OA
BRANCH  74  77
ATOM     77  C   UNL A   1      30.999  26.285  24.055  1.00  0.00     0.056 A 
ATOM     78  C   UNL A   1      29.813  26.338  24.678  1.00  0.00     0.099 A 
ATOM     79  C   UNL A   1      32.014  25.374  24.538  1.00  0.00     0.029 A 
ATOM     80  N   UNL A   1      29.543  25.487  25.723  1.00  0.00    -0.328 N 
ATOM     81  C   UNL A   1      31.762  24.476  25.510  1.00  0.00     0.048 A 
ATOM     82  C   UNL A   1      30.418  24.527  26.186  1.00  0.00     0.255 A 
ATOM     83  H   UNL A   1      28.670  25.567  26.169  1.00  0.00     0.169 HD
ATOM     84  O   UNL A   1      30.114  23.772  27.106  1.00  0.00    -0.269 OA
BRANCH  81  85
ATOM     85  C   UNL A   1      32.759  23.427  25.786  1.00  0.00    -0.006 A 
ATOM     86  C   UNL A   1      33.991  23.737  26.385  1.00  0.00     0.009 A 
ATOM     87  C   UNL A   1      32.524  22.111  25.356  1.00  0.00     0.094 A 
ATOM     88  C   UNL A   1      34.982  22.763  26.535  1.00  0.00     0.008 A 
ATOM     89  C   UNL A   1      33.520  21.138  25.511  1.00  0.00     0.270 A 
ATOM     90  C   UNL A   1      34.752  21.461  26.093  1.00  0.00     0.085 A 
BRANCH  89  91
ATOM     91  N   UNL A   1      33.279  19.769  25.038  1.00  0.00     0.062 N 
ATOM     92  O   UNL A   1      32.119  19.336  25.100  1.00  0.00    -0.258 OA
ATOM     93  O   UNL A   1      34.246  19.128  24.604  1.00  0.00    -0.258 OA
ENDBRANCH  89  91
ENDBRANCH  81  85
ENDBRANCH  74  77
ENDBRANCH  72  73
ENDBRANCH  71  72
ENDBRANCH   1  71
TORSDOF 15
ENDMDL
MODEL 3
REMARK VINA RESULT:     -12.3      6.402     12.652
REMARK SMILES O=C(NCCCNC(=O)c1c[nH]c(=O)c(-c2cccc([N+](=O)[O-])c2)c1)c1ccc(-c2c3nc(c(-c4cccc(S(=O)(=O)[O-])c4F)c4ccc([nH]4)c(-c4cccc(S(=O)(=O)[O-])c4F)c4nc(c(-c5cccc(S(=O)(=O)[O-])c5F)c5ccc2[nH]5)C=C4)C=C3)cc1
REMARK SMILES IDX 4 1 3 2 1 3 2 4 26 6 27 7 88 8 28 9 87 10 29 11 30 12 31 13
REMARK SMILES IDX 81 14 32 15 86 16 80 17 82 18 33 19 85 20 79 21 78 22 34 24
REMARK SMILES IDX 66 25 46 26 65 27 47 28 50 29 64 30 83 31 48 32 49 33 63 35
REMARK SMILES IDX 84 36 51 37 35 38 36 39 44 40 37 41 39 42 45 43 38 44 40 45
REMARK SMILES IDX 41 46 42 47 43 48 67 49 68 50 76 51 69 52 71 53 77 54 70 55
REMARK SMILES IDX 72 56 73 57 74 58 75 59 52 60 53 61 61 62 54 63 56 64 62 65
REMARK SMILES IDX 55 66 57 67 58 68 59 69 60 70 5 71 6 72 7 73 8 74 9 76 10 77
REMARK SMILES IDX 11 78 25 79 12 80 15 81 13 82 14 84 16 85 17 86 24 87 18 88
REMARK SMILES IDX 20 89 19 90 21 91 22 92 23 93
REMARK H PARENT 3 5 82 23 50 34 7 75 12 83
REMARK Flexibility Score: inf
ROOT
ATOM      1  C   UNL A   1      41.772  21.425  26.726  1.00  0.00     0.118 C 
ENDROOT
BRANCH   1   2
ATOM      2  N   UNL A   1      40.380  21.411  26.304  1.00  0.00    -0.352 N 
ATOM      3  O   UNL A   1      38.245  22.086  26.153  1.00  0.00    -0.269 OA
ATOM      4  C   UNL A   1      39.413  22.382  26.399  1.00  0.00     0.251 C 
ATOM      5  H   UNL A   1      40.084  20.572  25.883  1.00  0.00     0.163 HD
BRANCH   4   6
ATOM      6  C   UNL A   1      39.764  23.758  26.818  1.00  0.00     0.039 A 
ATOM      7  C   UNL A   1      39.951  24.773  25.877  1.00  0.00     0.014 A 
ATOM      8  C   UNL A   1      39.886  24.040  28.181  1.00  0.00     0.014 A 
ATOM      9  C   UNL A   1      40.418  26.019  26.282  1.00  0.00     0.010 A 
ATOM     10  C   UNL A   1      40.261  25.321  28.592  1.00  0.00     0.010 A 
ATOM     11  C   UNL A   1      40.568  26.311  27.645  1.00  0.00    -0.014 A 
BRANCH  11  12
ATOM     12  C   UNL A   1      40.996  27.667  28.075  1.00  0.00     0.031 A 
ATOM     13  C   UNL A   1      42.450  28.048  28.086  1.00  0.00     0.074 A 
ATOM     14  C   UNL A   1      40.065  28.542  28.499  1.00  0.00     0.049 A 
ATOM     15  N   UNL A   1      43.007  29.156  28.501  1.00  0.00    -0.248 NA
ATOM     16  C   UNL A   1      43.405  27.052  27.576  1.00  0.00     0.031 C 
ATOM     17  C   UNL A   1      38.626  28.279  28.559  1.00  0.00     0.029 A 
ATOM     18  N   UNL A   1      40.189  29.819  28.986  1.00  0.00    -0.354 N 
ATOM     19  C   UNL A   1      44.377  28.975  28.349  1.00  0.00     0.074 A 
ATOM     20  C   UNL A   1      44.567  27.646  27.809  1.00  0.00     0.031 C 
ATOM     21  C   UNL A   1      38.001  29.355  29.058  1.00  0.00     0.029 A 
ATOM     22  C   UNL A   1      38.998  30.358  29.412  1.00  0.00     0.049 A 
ATOM     23  H   UNL A   1      41.047  30.301  29.028  1.00  0.00     0.167 HD
ATOM     24  C   UNL A   1      45.382  29.839  28.630  1.00  0.00     0.034 A 
ATOM     25  C   UNL A   1      38.736  31.513  30.052  1.00  0.00     0.034 A 
ATOM     26  C   UNL A   1      45.183  31.165  29.154  1.00  0.00     0.049 A 
ATOM     27  C   UNL A   1      39.867  32.451  30.360  1.00  0.00     0.074 A 
ATOM     28  C   UNL A   1      46.130  32.140  29.410  1.00  0.00     0.029 A 
ATOM     29  N   UNL A   1      43.955  31.695  29.522  1.00  0.00    -0.354 N 
ATOM     30  N   UNL A   1      41.144  32.310  30.107  1.00  0.00    -0.248 NA
ATOM     31  C   UNL A   1      39.519  33.720  31.013  1.00  0.00     0.031 C 
ATOM     32  C   UNL A   1      45.481  33.243  29.973  1.00  0.00     0.029 A 
ATOM     33  C   UNL A   1      44.122  32.977  30.019  1.00  0.00     0.049 A 
ATOM     34  H   UNL A   1      43.092  31.229  29.441  1.00  0.00     0.167 HD
ATOM     35  C   UNL A   1      41.749  33.486  30.530  1.00  0.00     0.074 A 
ATOM     36  C   UNL A   1      40.695  34.333  31.052  1.00  0.00     0.031 C 
ATOM     37  C   UNL A   1      43.060  33.831  30.490  1.00  0.00     0.034 A 
BRANCH  24  38
ATOM     38  C   UNL A   1      46.795  29.377  28.372  1.00  0.00     0.023 A 
ATOM     39  C   UNL A   1      47.357  29.509  27.085  1.00  0.00     0.012 A 
ATOM     40  C   UNL A   1      47.581  28.848  29.415  1.00  0.00     0.148 A 
ATOM     41  C   UNL A   1      48.659  29.077  26.830  1.00  0.00     0.002 A 
ATOM     42  C   UNL A   1      48.894  28.465  29.164  1.00  0.00     0.091 A 
ATOM     43  F   UNL A   1      47.027  28.712  30.629  1.00  0.00    -0.205 F 
ATOM     44  C   UNL A   1      49.429  28.563  27.871  1.00  0.00     0.022 A 
BRANCH  42  45
ATOM     45  S   UNL A   1      49.990  27.874  30.459  1.00  0.00     0.127 S 
ATOM     46  O   UNL A   1      49.302  26.658  30.894  1.00  0.00    -0.237 OA
ATOM     47  O   UNL A   1      51.236  27.640  29.725  1.00  0.00    -0.237 OA
ATOM     48  O   UNL A   1      50.060  28.943  31.444  1.00  0.00    -0.744 OA
ENDBRANCH  42  45
ENDBRANCH  24  38
BRANCH  25  49
ATOM     49  C   UNL A   1      37.330  31.841  30.417  1.00  0.00     0.023 A 
ATOM     50  C   UNL A   1      36.843  31.492  31.690  1.00  0.00     0.012 A 
ATOM     51  C   UNL A   1      36.500  32.558  29.532  1.00  0.00     0.148 A 
ATOM     52  C   UNL A   1      35.544  31.834  32.070  1.00  0.00     0.002 A 
ATOM     53  C   UNL A   1      35.230  32.946  29.938  1.00  0.00     0.091 A 
ATOM     54  F   UNL A   1      36.986  32.877  28.325  1.00  0.00    -0.205 F 
ATOM     55  C   UNL A   1      34.744  32.570  31.200  1.00  0.00     0.022 A 
BRANCH  53  56
ATOM     56  S   UNL A   1      34.180  34.010  28.944  1.00  0.00     0.127 S 
ATOM     57  O   UNL A   1      33.607  33.060  27.994  1.00  0.00    -0.237 OA
ATOM     58  O   UNL A   1      33.243  34.523  29.946  1.00  0.00    -0.237 OA
ATOM     59  O   UNL A   1      35.062  35.017  28.371  1.00  0.00    -0.744 OA
ENDBRANCH  53  56
ENDBRANCH  25  49
BRANCH  37  60
ATOM     60  C   UNL A   1      43.440  35.209  30.963  1.00  0.00     0.023 A 
ATOM     61  C   UNL A   1      43.889  35.411  32.281  1.00  0.00     0.012 A 
ATOM     62  C   UNL A   1      43.440  36.289  30.056  1.00  0.00     0.148 A 
ATOM     63  C   UNL A   1      44.313  36.674  32.698  1.00  0.00     0.002 A 
ATOM     64  C   UNL A   1      43.912  37.530  30.462  1.00  0.00     0.091 A 
ATOM     65  F   UNL A   1      42.987  36.078  28.812  1.00  0.00    -0.205 F 
ATOM     66  C   UNL A   1      44.338  37.728  31.786  1.00  0.00     0.022 A 
BRANCH  64  67
ATOM     67  S   UNL A   1      44.078  38.916  29.331  1.00  0.00     0.127 S 
ATOM     68  O   UNL A   1      45.025  38.388  28.350  1.00  0.00    -0.237 OA
ATOM     69  O   UNL A   1      42.711  39.075  28.836  1.00  0.00    -0.237 OA
ATOM     70  O   UNL A   1      44.569  40.032  30.129  1.00  0.00    -0.744 OA
ENDBRANCH  64  67
ENDBRANCH  37  60
ENDBRANCH  11  12
ENDBRANCH   4   6
ENDBRANCH   1   2
BRANCH   1  71
ATOM     71  C   UNL A   1      42.336  20.028  26.942  1.00  0.00     0.042 C 
BRANCH  71  72
ATOM     72  C   UNL A   1      42.517  19.225  25.665  1.00  0.00     0.118 C 
BRANCH  72  73
ATOM     73  N   UNL A   1      43.823  18.580  25.581  1.00  0.00    -0.352 N 
ATOM     74  C   UNL A   1      45.040  19.082  25.220  1.00  0.00     0.252 C 
ATOM     75  H   UNL A   1      43.828  17.627  25.826  1.00  0.00     0.163 HD
ATOM     76  O   UNL A   1      46.001  18.327  25.093  1.00  0.00    -0.269 OA
BRANCH  74  77
ATOM     77  C   UNL A   1      45.174  20.540  24.969  1.00  0.00     0.056 A 
ATOM     78  C   UNL A   1      44.839  21.012  23.760  1.00  0.00     0.099 A 
ATOM     79  C   UNL A   1      45.652  21.457  25.981  1.00  0.00     0.029 A 
ATOM     80  N   UNL A   1      44.885  22.363  23.509  1.00  0.00    -0.328 N 
ATOM     81  C   UNL A   1      45.642  22.791  25.796  1.00  0.00     0.048 A 
ATOM     82  C   UNL A   1      45.239  23.313  24.444  1.00  0.00     0.255 A 
ATOM     83  H   UNL A   1      44.649  22.673  22.605  1.00  0.00     0.169 HD
ATOM     84  O   UNL A   1      45.235  24.511  24.174  1.00  0.00    -0.269 OA
BRANCH  81  85
ATOM     85  C   UNL A   1      45.915  23.671  26.947  1.00  0.00    -0.006 A 
ATOM     86  C   UNL A   1      47.060  24.484  26.982  1.00  0.00     0.009 A 
ATOM     87  C   UNL A   1      45.076  23.628  28.072  1.00  0.00     0.094 A 
ATOM     88  C   UNL A   1      47.379  25.225  28.122  1.00  0.00     0.008 A 
ATOM     89  C   UNL A   1      45.401  24.375  29.212  1.00  0.00     0.270 A 
ATOM     90  C   UNL A   1      46.554  25.169  29.244  1.00  0.00     0.085 A 
BRANCH  89  91
ATOM     91  N   UNL A   1      44.534  24.308  30.395  1.00  0.00     0.062 N 
ATOM     92  O   UNL A   1      43.921  23.250  30.600  1.00  0.00    -0.258 OA
ATOM     93  O   UNL A   1      44.467  25.311  31.121  1.00  0.00    -0.258 OA
ENDBRANCH  89  91
ENDBRANCH  81  85
ENDBRANCH  74  77
ENDBRANCH  72  73
ENDBRANCH  71  72
ENDBRANCH   1  71
TORSDOF 15
ENDMDL
