MODEL 1
REMARK VINA RESULT:     -12.0      0.000      0.000
REMARK SMILES C[C@]12CCC(=O)N1[C@H](C(=O)N1CCC[C@@H]1C(=O)NCCCNC(=O)c1ccc(-c3c4nc(c(-c5cccc(S(=O)(=O)[O-])c5F)c5ccc([nH]5)c(-c5cccc(S(=O)(=O)[O-])c5F)c5nc(c(-c6cccc(S(=O)(=O)[O-])c6F)c6ccc3[nH]6)C=C5)C=C4)cc1)CS2
REMARK SMILES IDX 20 1 19 2 18 3 16 4 17 5 15 7 11 8 12 9 13 10 14 11 9 12
REMARK SMILES IDX 10 13 8 14 1 15 2 16 3 17 7 18 89 19 4 20 5 21 88 22 6 23
REMARK SMILES IDX 21 24 22 25 23 26 24 28 25 29 26 30 87 31 27 32 86 33 28 34
REMARK SMILES IDX 29 35 30 36 80 37 31 38 85 39 79 40 81 41 32 42 84 43 78 44
REMARK SMILES IDX 77 45 33 47 65 48 45 49 64 50 46 51 49 52 63 53 82 54 47 55
REMARK SMILES IDX 48 56 62 58 83 59 50 60 34 61 35 62 43 63 36 64 38 65 44 66
REMARK SMILES IDX 37 67 39 68 40 69 41 70 42 71 66 72 67 73 75 74 68 75 70 76
REMARK SMILES IDX 76 77 69 78 71 79 72 80 73 81 74 82 51 83 52 84 60 85 53 86
REMARK SMILES IDX 55 87 61 88 54 89 56 90 57 91 58 92 59 93
REMARK H PARENT 18 6 22 27 81 46 49 57
REMARK Flexibility Score: inf
ROOT
ATOM      1  C   UNL A   1      32.137  28.613  27.343  1.00  0.00     0.042 C 
ENDROOT
BRANCH   1   2
ATOM      2  C   UNL A   1      31.473  27.653  26.366  1.00  0.00     0.117 C 
BRANCH   2   3
ATOM      3  N   UNL A   1      31.189  26.328  26.892  1.00  0.00    -0.354 N 
ATOM      4  C   UNL A   1      31.146  25.103  26.293  1.00  0.00     0.242 C 
ATOM      5  O   UNL A   1      31.062  24.143  27.071  1.00  0.00    -0.273 OA
ATOM      6  H   UNL A   1      30.993  26.311  27.857  1.00  0.00     0.163 HD
BRANCH   4   7
ATOM      7  C   UNL A   1      31.012  24.890  24.754  1.00  0.00     0.174 C 
ATOM      8  N   UNL A   1      32.212  25.379  24.035  1.00  0.00    -0.329 N 
ATOM      9  C   UNL A   1      31.870  26.146  22.862  1.00  0.00     0.120 C 
ATOM     10  C   UNL A   1      30.508  26.703  23.154  1.00  0.00     0.024 C 
ATOM     11  C   UNL A   1      29.868  25.660  24.062  1.00  0.00     0.037 C 
BRANCH   8  12
ATOM     12  C   UNL A   1      33.541  25.105  24.271  1.00  0.00     0.246 C 
ATOM     13  O   UNL A   1      34.220  25.920  24.905  1.00  0.00    -0.272 OA
BRANCH  12  14
ATOM     14  C   UNL A   1      34.189  23.906  23.558  1.00  0.00     0.186 C 
ATOM     15  C   UNL A   1      34.459  23.154  26.786  1.00  0.00     0.047 C 
ATOM     16  C   UNL A   1      34.740  22.425  25.468  1.00  0.00     0.087 C 
ATOM     17  C   UNL A   1      35.865  21.415  25.704  1.00  0.00     0.049 C 
ATOM     18  N   UNL A   1      35.221  23.262  24.393  1.00  0.00    -0.315 N 
ATOM     19  S   UNL A   1      33.219  21.672  24.778  1.00  0.00    -0.131 SA
ATOM     20  C   UNL A   1      36.638  21.372  24.402  1.00  0.00     0.103 C 
ATOM     21  C   UNL A   1      36.326  22.698  23.754  1.00  0.00     0.224 C 
ATOM     22  C   UNL A   1      33.155  22.797  23.313  1.00  0.00     0.107 C 
ATOM     23  O   UNL A   1      36.859  23.118  22.744  1.00  0.00    -0.275 OA
ENDBRANCH  12  14
ENDBRANCH   8  12
ENDBRANCH   4   7
ENDBRANCH   2   3
ENDBRANCH   1   2
BRANCH   1  24
ATOM     24  C   UNL A   1      33.405  29.307  26.864  1.00  0.00     0.118 C 
BRANCH  24  25
ATOM     25  N   UNL A   1      33.584  30.661  27.370  1.00  0.00    -0.352 N 
ATOM     26  C   UNL A   1      34.615  31.238  28.079  1.00  0.00     0.251 C 
ATOM     27  H   UNL A   1      32.837  31.271  27.171  1.00  0.00     0.163 HD
ATOM     28  O   UNL A   1      34.497  32.401  28.461  1.00  0.00    -0.269 OA
BRANCH  26  29
ATOM     29  C   UNL A   1      35.836  30.474  28.433  1.00  0.00     0.039 A 
ATOM     30  C   UNL A   1      36.939  30.530  27.572  1.00  0.00     0.014 A 
ATOM     31  C   UNL A   1      35.913  29.701  29.591  1.00  0.00     0.014 A 
ATOM     32  C   UNL A   1      38.141  29.906  27.929  1.00  0.00     0.010 A 
ATOM     33  C   UNL A   1      37.137  29.173  29.996  1.00  0.00     0.010 A 
ATOM     34  C   UNL A   1      38.270  29.273  29.174  1.00  0.00    -0.014 A 
BRANCH  34  35
ATOM     35  C   UNL A   1      39.570  28.729  29.658  1.00  0.00     0.031 A 
ATOM     36  C   UNL A   1      40.324  29.428  30.759  1.00  0.00     0.074 A 
ATOM     37  C   UNL A   1      40.138  27.683  29.020  1.00  0.00     0.049 A 
ATOM     38  N   UNL A   1      41.532  29.197  31.208  1.00  0.00    -0.248 NA
ATOM     39  C   UNL A   1      39.649  30.559  31.417  1.00  0.00     0.031 C 
ATOM     40  C   UNL A   1      39.557  26.967  27.881  1.00  0.00     0.029 A 
ATOM     41  N   UNL A   1      41.348  27.063  29.215  1.00  0.00    -0.354 N 
ATOM     42  C   UNL A   1      41.782  30.186  32.152  1.00  0.00     0.074 A 
ATOM     43  C   UNL A   1      40.611  31.035  32.194  1.00  0.00     0.031 C 
ATOM     44  C   UNL A   1      40.406  26.006  27.483  1.00  0.00     0.029 A 
ATOM     45  C   UNL A   1      41.607  26.058  28.312  1.00  0.00     0.049 A 
ATOM     46  H   UNL A   1      41.972  27.315  29.934  1.00  0.00     0.167 HD
ATOM     47  C   UNL A   1      42.871  30.358  32.938  1.00  0.00     0.034 A 
ATOM     48  C   UNL A   1      42.690  25.270  28.158  1.00  0.00     0.034 A 
ATOM     49  C   UNL A   1      43.999  29.467  32.959  1.00  0.00     0.049 A 
ATOM     50  C   UNL A   1      43.852  25.427  29.100  1.00  0.00     0.074 A 
ATOM     51  C   UNL A   1      45.099  29.492  33.798  1.00  0.00     0.029 A 
ATOM     52  N   UNL A   1      44.166  28.382  32.112  1.00  0.00    -0.354 N 
ATOM     53  N   UNL A   1      44.000  26.274  30.090  1.00  0.00    -0.248 NA
ATOM     54  C   UNL A   1      44.982  24.502  28.926  1.00  0.00     0.031 C 
ATOM     55  C   UNL A   1      45.933  28.423  33.457  1.00  0.00     0.029 A 
ATOM     56  C   UNL A   1      45.349  27.729  32.409  1.00  0.00     0.049 A 
ATOM     57  H   UNL A   1      43.536  28.117  31.405  1.00  0.00     0.167 HD
ATOM     58  C   UNL A   1      45.221  25.963  30.678  1.00  0.00     0.074 A 
ATOM     59  C   UNL A   1      45.764  24.837  29.946  1.00  0.00     0.031 C 
ATOM     60  C   UNL A   1      45.846  26.568  31.717  1.00  0.00     0.034 A 
BRANCH  47  61
ATOM     61  C   UNL A   1      42.865  31.516  33.900  1.00  0.00     0.023 A 
ATOM     62  C   UNL A   1      43.355  32.768  33.476  1.00  0.00     0.012 A 
ATOM     63  C   UNL A   1      42.328  31.387  35.196  1.00  0.00     0.148 A 
ATOM     64  C   UNL A   1      43.343  33.865  34.336  1.00  0.00     0.002 A 
ATOM     65  C   UNL A   1      42.283  32.497  36.035  1.00  0.00     0.091 A 
ATOM     66  F   UNL A   1      41.888  30.185  35.591  1.00  0.00    -0.205 F 
ATOM     67  C   UNL A   1      42.798  33.732  35.610  1.00  0.00     0.022 A 
BRANCH  65  68
ATOM     68  S   UNL A   1      41.532  32.441  37.666  1.00  0.00     0.127 S 
ATOM     69  O   UNL A   1      41.682  33.827  38.107  1.00  0.00    -0.237 OA
ATOM     70  O   UNL A   1      40.157  32.042  37.364  1.00  0.00    -0.237 OA
ATOM     71  O   UNL A   1      42.294  31.455  38.420  1.00  0.00    -0.744 OA
ENDBRANCH  65  68
ENDBRANCH  47  61
BRANCH  48  72
ATOM     72  C   UNL A   1      42.688  24.200  27.119  1.00  0.00     0.023 A 
ATOM     73  C   UNL A   1      43.366  24.425  25.906  1.00  0.00     0.012 A 
ATOM     74  C   UNL A   1      42.061  22.957  27.336  1.00  0.00     0.148 A 
ATOM     75  C   UNL A   1      43.399  23.443  24.915  1.00  0.00     0.002 A 
ATOM     76  C   UNL A   1      42.143  21.963  26.366  1.00  0.00     0.091 A 
ATOM     77  F   UNL A   1      41.406  22.766  28.489  1.00  0.00    -0.205 F 
ATOM     78  C   UNL A   1      42.799  22.209  25.149  1.00  0.00     0.022 A 
BRANCH  76  79
ATOM     79  S   UNL A   1      41.517  20.303  26.645  1.00  0.00     0.127 S 
ATOM     80  O   UNL A   1      41.937  19.614  25.428  1.00  0.00    -0.237 OA
ATOM     81  O   UNL A   1      42.232  19.903  27.858  1.00  0.00    -0.237 OA
ATOM     82  O   UNL A   1      40.079  20.459  26.829  1.00  0.00    -0.744 OA
ENDBRANCH  76  79
ENDBRANCH  48  72
BRANCH  60  83
ATOM     83  C   UNL A   1      47.175  26.015  32.155  1.00  0.00     0.023 A 
ATOM     84  C   UNL A   1      48.354  26.474  31.537  1.00  0.00     0.012 A 
ATOM     85  C   UNL A   1      47.262  25.116  33.236  1.00  0.00     0.148 A 
ATOM     86  C   UNL A   1      49.601  26.028  31.974  1.00  0.00     0.002 A 
ATOM     87  C   UNL A   1      48.509  24.708  33.692  1.00  0.00     0.091 A 
ATOM     88  F   UNL A   1      46.125  24.675  33.795  1.00  0.00    -0.205 F 
ATOM     89  C   UNL A   1      49.680  25.157  33.059  1.00  0.00     0.022 A 
BRANCH  87  90
ATOM     90  S   UNL A   1      48.704  23.659  35.139  1.00  0.00     0.127 S 
ATOM     91  O   UNL A   1      48.060  22.422  34.699  1.00  0.00    -0.237 OA
ATOM     92  O   UNL A   1      50.159  23.575  35.273  1.00  0.00    -0.237 OA
ATOM     93  O   UNL A   1      48.039  24.359  36.230  1.00  0.00    -0.744 OA
ENDBRANCH  87  90
ENDBRANCH  60  83
ENDBRANCH  34  35
ENDBRANCH  26  29
ENDBRANCH  24  25
ENDBRANCH   1  24
TORSDOF 15
ENDMDL
MODEL 2
REMARK VINA RESULT:     -11.9      2.081      2.799
REMARK SMILES C[C@]12CCC(=O)N1[C@H](C(=O)N1CCC[C@@H]1C(=O)NCCCNC(=O)c1ccc(-c3c4nc(c(-c5cccc(S(=O)(=O)[O-])c5F)c5ccc([nH]5)c(-c5cccc(S(=O)(=O)[O-])c5F)c5nc(c(-c6cccc(S(=O)(=O)[O-])c6F)c6ccc3[nH]6)C=C5)C=C4)cc1)CS2
REMARK SMILES IDX 20 1 19 2 18 3 16 4 17 5 15 7 11 8 12 9 13 10 14 11 9 12
REMARK SMILES IDX 10 13 8 14 1 15 2 16 3 17 7 18 89 19 4 20 5 21 88 22 6 23
REMARK SMILES IDX 21 24 22 25 23 26 24 28 25 29 26 30 87 31 27 32 86 33 28 34
REMARK SMILES IDX 29 35 30 36 80 37 31 38 85 39 79 40 81 41 32 42 84 43 78 44
REMARK SMILES IDX 77 45 33 47 65 48 45 49 64 50 46 51 49 52 63 53 82 54 47 55
REMARK SMILES IDX 48 56 62 58 83 59 50 60 34 61 35 62 43 63 36 64 38 65 44 66
REMARK SMILES IDX 37 67 39 68 40 69 41 70 42 71 66 72 67 73 75 74 68 75 70 76
REMARK SMILES IDX 76 77 69 78 71 79 72 80 73 81 74 82 51 83 52 84 60 85 53 86
REMARK SMILES IDX 55 87 61 88 54 89 56 90 57 91 58 92 59 93
REMARK H PARENT 18 6 22 27 81 46 49 57
REMARK Flexibility Score: inf
ROOT
ATOM      1  C   UNL A   1      31.738  29.011  26.648  1.00  0.00     0.042 C 
ENDROOT
BRANCH   1   2
ATOM      2  C   UNL A   1      31.159  27.851  25.850  1.00  0.00     0.117 C 
BRANCH   2   3
ATOM      3  N   UNL A   1      31.065  26.589  26.567  1.00  0.00    -0.354 N 
ATOM      4  C   UNL A   1      31.178  25.296  26.148  1.00  0.00     0.242 C 
ATOM      5  O   UNL A   1      31.236  24.455  27.055  1.00  0.00    -0.273 OA
ATOM      6  H   UNL A   1      30.889  26.686  27.531  1.00  0.00     0.163 HD
BRANCH   4   7
ATOM      7  C   UNL A   1      31.048  24.849  24.659  1.00  0.00     0.174 C 
ATOM      8  N   UNL A   1      32.244  25.238  23.873  1.00  0.00    -0.329 N 
ATOM      9  C   UNL A   1      31.894  25.811  22.597  1.00  0.00     0.120 C 
ATOM     10  C   UNL A   1      30.524  26.388  22.801  1.00  0.00     0.024 C 
ATOM     11  C   UNL A   1      29.896  25.489  23.858  1.00  0.00     0.037 C 
BRANCH   8  12
ATOM     12  C   UNL A   1      33.576  25.020  24.148  1.00  0.00     0.246 C 
ATOM     13  O   UNL A   1      34.209  25.877  24.774  1.00  0.00    -0.272 OA
BRANCH  12  14
ATOM     14  C   UNL A   1      34.285  23.827  23.485  1.00  0.00     0.186 C 
ATOM     15  C   UNL A   1      34.490  23.167  26.738  1.00  0.00     0.047 C 
ATOM     16  C   UNL A   1      34.833  22.416  25.448  1.00  0.00     0.087 C 
ATOM     17  C   UNL A   1      35.985  21.452  25.741  1.00  0.00     0.049 C 
ATOM     18  N   UNL A   1      35.315  23.242  24.364  1.00  0.00    -0.315 N 
ATOM     19  S   UNL A   1      33.358  21.592  24.737  1.00  0.00    -0.131 SA
ATOM     20  C   UNL A   1      36.796  21.403  24.462  1.00  0.00     0.103 C 
ATOM     21  C   UNL A   1      36.455  22.700  23.770  1.00  0.00     0.224 C 
ATOM     22  C   UNL A   1      33.297  22.676  23.241  1.00  0.00     0.107 C 
ATOM     23  O   UNL A   1      37.002  23.113  22.764  1.00  0.00    -0.275 OA
ENDBRANCH  12  14
ENDBRANCH   8  12
ENDBRANCH   4   7
ENDBRANCH   2   3
ENDBRANCH   1   2
BRANCH   1  24
ATOM     24  C   UNL A   1      32.502  30.067  25.862  1.00  0.00     0.118 C 
BRANCH  24  25
ATOM     25  N   UNL A   1      32.395  31.418  26.397  1.00  0.00    -0.352 N 
ATOM     26  C   UNL A   1      33.206  32.120  27.261  1.00  0.00     0.251 C 
ATOM     27  H   UNL A   1      31.604  31.916  26.086  1.00  0.00     0.163 HD
ATOM     28  O   UNL A   1      32.858  33.242  27.625  1.00  0.00    -0.269 OA
BRANCH  26  29
ATOM     29  C   UNL A   1      34.460  31.535  27.797  1.00  0.00     0.039 A 
ATOM     30  C   UNL A   1      35.534  32.388  28.079  1.00  0.00     0.014 A 
ATOM     31  C   UNL A   1      34.598  30.166  28.022  1.00  0.00     0.014 A 
ATOM     32  C   UNL A   1      36.692  31.882  28.684  1.00  0.00     0.010 A 
ATOM     33  C   UNL A   1      35.702  29.682  28.719  1.00  0.00     0.010 A 
ATOM     34  C   UNL A   1      36.763  30.534  29.065  1.00  0.00    -0.014 A 
BRANCH  34  35
ATOM     35  C   UNL A   1      37.910  29.988  29.844  1.00  0.00     0.031 A 
ATOM     36  C   UNL A   1      38.166  30.459  31.252  1.00  0.00     0.074 A 
ATOM     37  C   UNL A   1      38.798  29.169  29.243  1.00  0.00     0.049 A 
ATOM     38  N   UNL A   1      39.191  30.219  32.029  1.00  0.00    -0.248 NA
ATOM     39  C   UNL A   1      37.158  31.349  31.852  1.00  0.00     0.031 C 
ATOM     40  C   UNL A   1      38.720  28.703  27.856  1.00  0.00     0.029 A 
ATOM     41  N   UNL A   1      39.964  28.612  29.710  1.00  0.00    -0.354 N 
ATOM     42  C   UNL A   1      38.980  30.971  33.179  1.00  0.00     0.074 A 
ATOM     43  C   UNL A   1      37.744  31.696  32.988  1.00  0.00     0.031 C 
ATOM     44  C   UNL A   1      39.784  27.930  27.588  1.00  0.00     0.029 A 
ATOM     45  C   UNL A   1      40.641  27.871  28.768  1.00  0.00     0.049 A 
ATOM     46  H   UNL A   1      40.285  28.731  30.633  1.00  0.00     0.167 HD
ATOM     47  C   UNL A   1      39.729  31.032  34.306  1.00  0.00     0.034 A 
ATOM     48  C   UNL A   1      41.822  27.225  28.838  1.00  0.00     0.034 A 
ATOM     49  C   UNL A   1      40.912  30.247  34.532  1.00  0.00     0.049 A 
ATOM     50  C   UNL A   1      42.591  27.240  30.131  1.00  0.00     0.074 A 
ATOM     51  C   UNL A   1      41.675  30.154  35.683  1.00  0.00     0.029 A 
ATOM     52  N   UNL A   1      41.497  29.410  33.595  1.00  0.00    -0.354 N 
ATOM     53  N   UNL A   1      42.292  27.835  31.260  1.00  0.00    -0.248 NA
ATOM     54  C   UNL A   1      43.843  26.468  30.172  1.00  0.00     0.031 C 
ATOM     55  C   UNL A   1      42.723  29.260  35.441  1.00  0.00     0.029 A 
ATOM     56  C   UNL A   1      42.609  28.794  34.140  1.00  0.00     0.049 A 
ATOM     57  H   UNL A   1      41.168  29.274  32.677  1.00  0.00     0.167 HD
ATOM     58  C   UNL A   1      43.297  27.485  32.154  1.00  0.00     0.074 A 
ATOM     59  C   UNL A   1      44.204  26.608  31.441  1.00  0.00     0.031 C 
ATOM     60  C   UNL A   1      43.465  27.871  33.442  1.00  0.00     0.034 A 
BRANCH  47  61
ATOM     61  C   UNL A   1      39.247  31.924  35.420  1.00  0.00     0.023 A 
ATOM     62  C   UNL A   1      38.306  31.426  36.344  1.00  0.00     0.012 A 
ATOM     63  C   UNL A   1      39.758  33.226  35.587  1.00  0.00     0.148 A 
ATOM     64  C   UNL A   1      37.855  32.220  37.397  1.00  0.00     0.002 A 
ATOM     65  C   UNL A   1      39.334  33.998  36.664  1.00  0.00     0.091 A 
ATOM     66  F   UNL A   1      40.634  33.692  34.685  1.00  0.00    -0.205 F 
ATOM     67  C   UNL A   1      38.377  33.500  37.563  1.00  0.00     0.022 A 
BRANCH  65  68
ATOM     68  S   UNL A   1      40.003  35.630  37.002  1.00  0.00     0.127 S 
ATOM     69  O   UNL A   1      39.336  35.968  38.258  1.00  0.00    -0.237 OA
ATOM     70  O   UNL A   1      41.437  35.360  37.127  1.00  0.00    -0.237 OA
ATOM     71  O   UNL A   1      39.643  36.453  35.856  1.00  0.00    -0.744 OA
ENDBRANCH  65  68
ENDBRANCH  47  61
BRANCH  48  72
ATOM     72  C   UNL A   1      42.306  26.435  27.670  1.00  0.00     0.023 A 
ATOM     73  C   UNL A   1      43.180  27.044  26.749  1.00  0.00     0.012 A 
ATOM     74  C   UNL A   1      41.946  25.086  27.486  1.00  0.00     0.148 A 
ATOM     75  C   UNL A   1      43.667  26.334  25.651  1.00  0.00     0.002 A 
ATOM     76  C   UNL A   1      42.476  24.368  26.419  1.00  0.00     0.091 A 
ATOM     77  F   UNL A   1      41.100  24.527  28.363  1.00  0.00    -0.205 F 
ATOM     78  C   UNL A   1      43.325  24.994  25.492  1.00  0.00     0.022 A 
BRANCH  76  79
ATOM     79  S   UNL A   1      42.196  22.605  26.222  1.00  0.00     0.127 S 
ATOM     80  O   UNL A   1      42.945  22.316  25.002  1.00  0.00    -0.237 OA
ATOM     81  O   UNL A   1      42.782  22.060  27.447  1.00  0.00    -0.237 OA
ATOM     82  O   UNL A   1      40.749  22.450  26.137  1.00  0.00    -0.744 OA
ENDBRANCH  76  79
ENDBRANCH  48  72
BRANCH  60  83
ATOM     83  C   UNL A   1      44.655  27.329  34.187  1.00  0.00     0.023 A 
ATOM     84  C   UNL A   1      45.864  28.052  34.182  1.00  0.00     0.012 A 
ATOM     85  C   UNL A   1      44.550  26.159  34.964  1.00  0.00     0.148 A 
ATOM     86  C   UNL A   1      46.958  27.606  34.922  1.00  0.00     0.002 A 
ATOM     87  C   UNL A   1      45.631  25.743  35.731  1.00  0.00     0.091 A 
ATOM     88  F   UNL A   1      43.397  25.475  34.937  1.00  0.00    -0.205 F 
ATOM     89  C   UNL A   1      46.838  26.460  35.707  1.00  0.00     0.022 A 
BRANCH  87  90
ATOM     90  S   UNL A   1      45.532  24.330  36.839  1.00  0.00     0.127 S 
ATOM     91  O   UNL A   1      44.462  24.738  37.747  1.00  0.00    -0.237 OA
ATOM     92  O   UNL A   1      45.178  23.241  35.927  1.00  0.00    -0.237 OA
ATOM     93  O   UNL A   1      46.853  24.204  37.439  1.00  0.00    -0.744 OA
ENDBRANCH  87  90
ENDBRANCH  60  83
ENDBRANCH  34  35
ENDBRANCH  26  29
ENDBRANCH  24  25
ENDBRANCH   1  24
TORSDOF 15
ENDMDL
MODEL 3
REMARK VINA RESULT:     -11.9      2.478      7.911
REMARK SMILES C[C@]12CCC(=O)N1[C@H](C(=O)N1CCC[C@@H]1C(=O)NCCCNC(=O)c1ccc(-c3c4nc(c(-c5cccc(S(=O)(=O)[O-])c5F)c5ccc([nH]5)c(-c5cccc(S(=O)(=O)[O-])c5F)c5nc(c(-c6cccc(S(=O)(=O)[O-])c6F)c6ccc3[nH]6)C=C5)C=C4)cc1)CS2
REMARK SMILES IDX 20 1 19 2 18 3 16 4 17 5 15 7 11 8 12 9 13 10 14 11 9 12
REMARK SMILES IDX 10 13 8 14 1 15 2 16 3 17 7 18 89 19 4 20 5 21 88 22 6 23
REMARK SMILES IDX 21 24 22 25 23 26 24 28 25 29 26 30 87 31 27 32 86 33 28 34
REMARK SMILES IDX 29 35 30 36 80 37 31 38 85 39 79 40 81 41 32 42 84 43 78 44
REMARK SMILES IDX 77 45 33 47 65 48 45 49 64 50 46 51 49 52 63 53 82 54 47 55
REMARK SMILES IDX 48 56 62 58 83 59 50 60 34 61 35 62 43 63 36 64 38 65 44 66
REMARK SMILES IDX 37 67 39 68 40 69 41 70 42 71 66 72 67 73 75 74 68 75 70 76
REMARK SMILES IDX 76 77 69 78 71 79 72 80 73 81 74 82 51 83 52 84 60 85 53 86
REMARK SMILES IDX 55 87 61 88 54 89 56 90 57 91 58 92 59 93
REMARK H PARENT 18 6 22 27 81 46 49 57
REMARK Flexibility Score: inf
ROOT
ATOM      1  C   UNL A   1      31.450  29.512  26.871  1.00  0.00     0.042 C 
ENDROOT
BRANCH   1   2
ATOM      2  C   UNL A   1      32.027  28.103  26.853  1.00  0.00     0.117 C 
BRANCH   2   3
ATOM      3  N   UNL A   1      31.049  27.030  26.928  1.00  0.00    -0.354 N 
ATOM      4  C   UNL A   1      30.711  26.047  26.046  1.00  0.00     0.242 C 
ATOM      5  O   UNL A   1      29.963  25.170  26.501  1.00  0.00    -0.273 OA
ATOM      6  H   UNL A   1      30.537  27.010  27.769  1.00  0.00     0.163 HD
BRANCH   4   7
ATOM      7  C   UNL A   1      31.053  26.085  24.525  1.00  0.00     0.174 C 
ATOM      8  N   UNL A   1      32.518  26.117  24.302  1.00  0.00    -0.329 N 
ATOM      9  C   UNL A   1      32.896  27.085  23.302  1.00  0.00     0.120 C 
ATOM     10  C   UNL A   1      31.805  28.114  23.336  1.00  0.00     0.024 C 
ATOM     11  C   UNL A   1      30.568  27.330  23.755  1.00  0.00     0.037 C 
BRANCH   8  12
ATOM     12  C   UNL A   1      33.496  25.296  24.819  1.00  0.00     0.246 C 
ATOM     13  O   UNL A   1      34.185  25.701  25.762  1.00  0.00    -0.272 OA
BRANCH  12  14
ATOM     14  C   UNL A   1      33.844  23.996  24.074  1.00  0.00     0.186 C 
ATOM     15  C   UNL A   1      32.720  22.946  27.022  1.00  0.00     0.047 C 
ATOM     16  C   UNL A   1      33.129  22.274  25.707  1.00  0.00     0.087 C 
ATOM     17  C   UNL A   1      33.644  20.869  26.022  1.00  0.00     0.049 C 
ATOM     18  N   UNL A   1      34.217  22.913  25.002  1.00  0.00    -0.315 N 
ATOM     19  S   UNL A   1      31.760  22.292  24.489  1.00  0.00    -0.131 SA
ATOM     20  C   UNL A   1      34.730  20.607  25.000  1.00  0.00     0.103 C 
ATOM     21  C   UNL A   1      35.174  21.988  24.583  1.00  0.00     0.224 C 
ATOM     22  C   UNL A   1      32.615  23.451  23.330  1.00  0.00     0.107 C 
ATOM     23  O   UNL A   1      36.129  22.222  23.867  1.00  0.00    -0.275 OA
ENDBRANCH  12  14
ENDBRANCH   8  12
ENDBRANCH   4   7
ENDBRANCH   2   3
ENDBRANCH   1   2
BRANCH   1  24
ATOM     24  C   UNL A   1      32.208  30.570  26.080  1.00  0.00     0.118 C 
BRANCH  24  25
ATOM     25  N   UNL A   1      32.054  31.929  26.581  1.00  0.00    -0.352 N 
ATOM     26  C   UNL A   1      32.857  32.693  27.400  1.00  0.00     0.251 C 
ATOM     27  H   UNL A   1      31.231  32.381  26.282  1.00  0.00     0.163 HD
ATOM     28  O   UNL A   1      32.466  33.808  27.744  1.00  0.00    -0.269 OA
BRANCH  26  29
ATOM     29  C   UNL A   1      34.153  32.183  27.912  1.00  0.00     0.039 A 
ATOM     30  C   UNL A   1      35.224  33.075  28.040  1.00  0.00     0.014 A 
ATOM     31  C   UNL A   1      34.332  30.846  28.261  1.00  0.00     0.014 A 
ATOM     32  C   UNL A   1      36.427  32.650  28.618  1.00  0.00     0.010 A 
ATOM     33  C   UNL A   1      35.487  30.451  28.932  1.00  0.00     0.010 A 
ATOM     34  C   UNL A   1      36.549  31.348  29.125  1.00  0.00    -0.014 A 
BRANCH  34  35
ATOM     35  C   UNL A   1      37.753  30.900  29.880  1.00  0.00     0.031 A 
ATOM     36  C   UNL A   1      38.722  29.928  29.258  1.00  0.00     0.074 A 
ATOM     37  C   UNL A   1      37.907  31.262  31.171  1.00  0.00     0.049 A 
ATOM     38  N   UNL A   1      39.736  29.309  29.807  1.00  0.00    -0.248 NA
ATOM     39  C   UNL A   1      38.499  29.575  27.846  1.00  0.00     0.031 C 
ATOM     40  C   UNL A   1      36.997  32.128  31.925  1.00  0.00     0.029 A 
ATOM     41  N   UNL A   1      38.868  30.917  32.091  1.00  0.00    -0.354 N 
ATOM     42  C   UNL A   1      40.232  28.453  28.829  1.00  0.00     0.074 A 
ATOM     43  C   UNL A   1      39.393  28.614  27.663  1.00  0.00     0.031 C 
ATOM     44  C   UNL A   1      37.444  32.251  33.185  1.00  0.00     0.029 A 
ATOM     45  C   UNL A   1      38.651  31.445  33.343  1.00  0.00     0.049 A 
ATOM     46  H   UNL A   1      39.640  30.346  31.874  1.00  0.00     0.167 HD
ATOM     47  C   UNL A   1      41.307  27.631  28.883  1.00  0.00     0.034 A 
ATOM     48  C   UNL A   1      39.337  31.294  34.494  1.00  0.00     0.034 A 
ATOM     49  C   UNL A   1      42.193  27.535  30.011  1.00  0.00     0.049 A 
ATOM     50  C   UNL A   1      40.576  30.441  34.502  1.00  0.00     0.074 A 
ATOM     51  C   UNL A   1      43.370  26.816  30.120  1.00  0.00     0.029 A 
ATOM     52  N   UNL A   1      42.007  28.185  31.221  1.00  0.00    -0.354 N 
ATOM     53  N   UNL A   1      41.115  29.762  33.519  1.00  0.00    -0.248 NA
ATOM     54  C   UNL A   1      41.321  30.358  35.768  1.00  0.00     0.031 C 
ATOM     55  C   UNL A   1      43.897  27.032  31.398  1.00  0.00     0.029 A 
ATOM     56  C   UNL A   1      43.049  27.888  32.082  1.00  0.00     0.049 A 
ATOM     57  H   UNL A   1      41.246  28.772  31.435  1.00  0.00     0.167 HD
ATOM     58  C   UNL A   1      42.277  29.199  34.035  1.00  0.00     0.074 A 
ATOM     59  C   UNL A   1      42.375  29.634  35.414  1.00  0.00     0.031 C 
ATOM     60  C   UNL A   1      43.170  28.381  33.429  1.00  0.00     0.034 A 
BRANCH  47  61
ATOM     61  C   UNL A   1      41.633  26.824  27.654  1.00  0.00     0.023 A 
ATOM     62  C   UNL A   1      42.186  27.472  26.531  1.00  0.00     0.012 A 
ATOM     63  C   UNL A   1      41.448  25.428  27.626  1.00  0.00     0.148 A 
ATOM     64  C   UNL A   1      42.518  26.750  25.385  1.00  0.00     0.002 A 
ATOM     65  C   UNL A   1      41.819  24.709  26.494  1.00  0.00     0.091 A 
ATOM     66  F   UNL A   1      40.899  24.832  28.693  1.00  0.00    -0.205 F 
ATOM     67  C   UNL A   1      42.344  25.369  25.371  1.00  0.00     0.022 A 
BRANCH  65  68
ATOM     68  S   UNL A   1      41.702  22.918  26.409  1.00  0.00     0.127 S 
ATOM     69  O   UNL A   1      42.449  22.518  27.601  1.00  0.00    -0.237 OA
ATOM     70  O   UNL A   1      40.258  22.695  26.490  1.00  0.00    -0.237 OA
ATOM     71  O   UNL A   1      42.300  22.541  25.136  1.00  0.00    -0.744 OA
ENDBRANCH  65  68
ENDBRANCH  47  61
BRANCH  48  72
ATOM     72  C   UNL A   1      38.913  32.038  35.714  1.00  0.00     0.023 A 
ATOM     73  C   UNL A   1      39.180  33.418  35.800  1.00  0.00     0.012 A 
ATOM     74  C   UNL A   1      38.216  31.407  36.763  1.00  0.00     0.148 A 
ATOM     75  C   UNL A   1      38.785  34.152  36.919  1.00  0.00     0.002 A 
ATOM     76  C   UNL A   1      37.779  32.155  37.851  1.00  0.00     0.091 A 
ATOM     77  F   UNL A   1      37.985  30.090  36.672  1.00  0.00    -0.205 F 
ATOM     78  C   UNL A   1      38.075  33.525  37.938  1.00  0.00     0.022 A 
BRANCH  76  79
ATOM     79  S   UNL A   1      36.741  31.452  39.137  1.00  0.00     0.127 S 
ATOM     80  O   UNL A   1      37.603  31.559  40.311  1.00  0.00    -0.237 OA
ATOM     81  O   UNL A   1      35.590  32.356  39.134  1.00  0.00    -0.237 OA
ATOM     82  O   UNL A   1      36.433  30.100  38.690  1.00  0.00    -0.744 OA
ENDBRANCH  76  79
ENDBRANCH  48  72
BRANCH  60  83
ATOM     83  C   UNL A   1      44.355  27.918  34.233  1.00  0.00     0.023 A 
ATOM     84  C   UNL A   1      45.509  28.723  34.293  1.00  0.00     0.012 A 
ATOM     85  C   UNL A   1      44.292  26.738  35.000  1.00  0.00     0.148 A 
ATOM     86  C   UNL A   1      46.593  28.349  35.088  1.00  0.00     0.002 A 
ATOM     87  C   UNL A   1      45.358  26.393  35.821  1.00  0.00     0.091 A 
ATOM     88  F   UNL A   1      43.192  25.975  34.911  1.00  0.00    -0.205 F 
ATOM     89  C   UNL A   1      46.512  27.192  35.861  1.00  0.00     0.022 A 
BRANCH  87  90
ATOM     90  S   UNL A   1      45.301  24.970  36.917  1.00  0.00     0.127 S 
ATOM     91  O   UNL A   1      46.583  25.076  37.611  1.00  0.00    -0.237 OA
ATOM     92  O   UNL A   1      44.131  25.260  37.748  1.00  0.00    -0.237 OA
ATOM     93  O   UNL A   1      45.148  23.808  36.052  1.00  0.00    -0.744 OA
ENDBRANCH  87  90
ENDBRANCH  60  83
ENDBRANCH  34  35
ENDBRANCH  26  29
ENDBRANCH  24  25
ENDBRANCH   1  24
TORSDOF 15
ENDMDL
