MODEL 1
REMARK VINA RESULT:     -12.8      0.000      0.000
REMARK SMILES Cc1ccc(N(CC(=O)NCCCNC(=O)c2ccc(-c3c4nc(c(-c5cccc(S(=O)(=O)[O-])c5F)c5ccc([nH]5)c(-c5cccc(S(=O)(=O)[O-])c5F)c5nc(c(-c6cccc(S(=O)(=O)[O-])c6F)c6ccc3[nH]6)C=C5)C=C4)cc2)C(=O)C[C@H]2C[NH2+]CCO2)cc1
REMARK SMILES IDX 11 1 10 2 8 3 9 4 7 6 6 7 5 8 1 9 2 10 3 11 90 12 4 13 89 14
REMARK SMILES IDX 80 15 81 16 82 17 83 18 84 19 88 20 85 21 87 22 86 23 12 26
REMARK SMILES IDX 13 27 14 28 15 29 16 31 17 32 18 33 79 34 19 35 78 36 20 37
REMARK SMILES IDX 21 38 22 39 72 40 23 41 77 42 71 43 73 44 24 45 76 46 70 47
REMARK SMILES IDX 69 48 25 50 57 51 37 52 56 53 38 54 41 55 55 56 74 57 39 58
REMARK SMILES IDX 40 59 54 61 75 62 42 63 26 64 27 65 35 66 28 67 30 68 36 69
REMARK SMILES IDX 29 70 31 71 32 72 33 73 34 74 58 75 59 76 67 77 60 78 62 79
REMARK SMILES IDX 68 80 61 81 63 82 64 83 65 84 66 85 43 86 44 87 52 88 45 89
REMARK SMILES IDX 47 90 53 91 46 92 48 93 49 94 50 95 51 96
REMARK H PARENT 10 5 85 24 85 25 14 30 73 49 41 60
REMARK Flexibility Score: inf
ROOT
ATOM      1  C   UNL A   1      32.127  30.064  26.009  1.00  0.00     0.117 C 
ENDROOT
BRANCH   1   2
ATOM      2  N   UNL A   1      32.985  29.839  24.860  1.00  0.00    -0.354 N 
ATOM      3  C   UNL A   1      33.299  28.667  24.240  1.00  0.00     0.240 C 
ATOM      4  O   UNL A   1      34.175  28.681  23.371  1.00  0.00    -0.273 OA
ATOM      5  H   UNL A   1      33.398  30.646  24.476  1.00  0.00     0.163 HD
BRANCH   3   6
ATOM      6  C   UNL A   1      32.571  27.362  24.603  1.00  0.00     0.225 C 
BRANCH   6   7
ATOM      7  N   UNL A   1      31.791  26.728  23.509  1.00  0.00    -0.303 N 
BRANCH   7   8
ATOM      8  C   UNL A   1      31.905  25.286  23.298  1.00  0.00     0.044 A 
ATOM      9  C   UNL A   1      32.130  21.016  22.426  1.00  0.00     0.044 C 
ATOM     10  C   UNL A   1      32.068  22.474  22.764  1.00  0.00    -0.051 A 
ATOM     11  C   UNL A   1      33.072  23.343  22.344  1.00  0.00     0.005 A 
ATOM     12  C   UNL A   1      30.996  23.003  23.473  1.00  0.00     0.005 A 
ATOM     13  C   UNL A   1      32.997  24.719  22.619  1.00  0.00     0.026 A 
ATOM     14  C   UNL A   1      30.920  24.380  23.733  1.00  0.00     0.026 A 
ENDBRANCH   7   8
BRANCH   7  15
ATOM     15  C   UNL A   1      30.915  27.500  22.723  1.00  0.00     0.230 C 
ATOM     16  O   UNL A   1      30.841  27.435  21.492  1.00  0.00    -0.274 OA
BRANCH  15  17
ATOM     17  C   UNL A   1      29.869  28.363  23.399  1.00  0.00     0.138 C 
BRANCH  17  18
ATOM     18  C   UNL A   1      28.782  28.875  22.441  1.00  0.00     0.182 C 
ATOM     19  C   UNL A   1      27.422  29.251  23.074  1.00  0.00     0.293 C 
ATOM     20  O   UNL A   1      29.255  29.887  21.532  1.00  0.00    -0.366 OA
ATOM     21  N   UNL A   1      27.371  30.596  23.665  1.00  0.00    -0.342 N 
ATOM     22  C   UNL A   1      29.151  31.230  22.008  1.00  0.00     0.222 C 
ATOM     23  C   UNL A   1      27.811  31.572  22.666  1.00  0.00     0.289 C 
ATOM     24  H   UNL A   1      27.987  30.637  24.477  1.00  0.00     0.346 HD
ATOM     25  H   UNL A   1      26.418  30.809  23.959  1.00  0.00     0.346 HD
ENDBRANCH  17  18
ENDBRANCH  15  17
ENDBRANCH   7  15
ENDBRANCH   6   7
ENDBRANCH   3   6
ENDBRANCH   1   2
BRANCH   1  26
ATOM     26  C   UNL A   1      32.838  30.875  27.081  1.00  0.00     0.042 C 
BRANCH  26  27
ATOM     27  C   UNL A   1      34.275  30.460  27.299  1.00  0.00     0.118 C 
BRANCH  27  28
ATOM     28  N   UNL A   1      35.149  31.546  27.697  1.00  0.00    -0.352 N 
ATOM     29  C   UNL A   1      36.377  31.458  28.328  1.00  0.00     0.251 C 
ATOM     30  H   UNL A   1      34.831  32.456  27.494  1.00  0.00     0.163 HD
ATOM     31  O   UNL A   1      36.883  32.464  28.816  1.00  0.00    -0.269 OA
BRANCH  29  32
ATOM     32  C   UNL A   1      37.109  30.170  28.269  1.00  0.00     0.039 A 
ATOM     33  C   UNL A   1      37.161  29.417  29.447  1.00  0.00     0.014 A 
ATOM     34  C   UNL A   1      37.966  29.887  27.209  1.00  0.00     0.014 A 
ATOM     35  C   UNL A   1      38.237  28.563  29.666  1.00  0.00     0.010 A 
ATOM     36  C   UNL A   1      39.085  29.126  27.461  1.00  0.00     0.010 A 
ATOM     37  C   UNL A   1      39.247  28.518  28.713  1.00  0.00    -0.014 A 
BRANCH  37  38
ATOM     38  C   UNL A   1      40.524  27.852  28.898  1.00  0.00     0.031 A 
ATOM     39  C   UNL A   1      40.614  26.403  28.653  1.00  0.00     0.074 A 
ATOM     40  C   UNL A   1      41.631  28.602  29.085  1.00  0.00     0.049 A 
ATOM     41  N   UNL A   1      41.601  25.658  29.012  1.00  0.00    -0.248 NA
ATOM     42  C   UNL A   1      39.535  25.669  28.005  1.00  0.00     0.031 C 
ATOM     43  C   UNL A   1      43.011  28.199  28.848  1.00  0.00     0.029 A 
ATOM     44  N   UNL A   1      41.735  29.834  29.741  1.00  0.00    -0.354 N 
ATOM     45  C   UNL A   1      41.426  24.425  28.417  1.00  0.00     0.074 A 
ATOM     46  C   UNL A   1      40.089  24.462  27.877  1.00  0.00     0.031 C 
ATOM     47  C   UNL A   1      43.819  28.995  29.563  1.00  0.00     0.029 A 
ATOM     48  C   UNL A   1      42.970  29.811  30.413  1.00  0.00     0.049 A 
ATOM     49  H   UNL A   1      41.078  30.567  29.732  1.00  0.00     0.167 HD
ATOM     50  C   UNL A   1      42.492  23.580  28.327  1.00  0.00     0.034 A 
ATOM     51  C   UNL A   1      43.102  29.935  31.766  1.00  0.00     0.034 A 
ATOM     52  C   UNL A   1      43.648  24.127  29.054  1.00  0.00     0.049 A 
ATOM     53  C   UNL A   1      43.787  28.743  32.411  1.00  0.00     0.074 A 
ATOM     54  C   UNL A   1      44.755  24.857  28.649  1.00  0.00     0.029 A 
ATOM     55  N   UNL A   1      43.609  24.210  30.441  1.00  0.00    -0.354 N 
ATOM     56  N   UNL A   1      44.077  27.636  31.783  1.00  0.00    -0.248 NA
ATOM     57  C   UNL A   1      44.169  28.690  33.821  1.00  0.00     0.031 C 
ATOM     58  C   UNL A   1      45.321  25.465  29.801  1.00  0.00     0.029 A 
ATOM     59  C   UNL A   1      44.583  25.080  30.908  1.00  0.00     0.049 A 
ATOM     60  H   UNL A   1      42.976  23.719  31.013  1.00  0.00     0.167 HD
ATOM     61  C   UNL A   1      44.523  26.698  32.676  1.00  0.00     0.074 A 
ATOM     62  C   UNL A   1      44.644  27.436  33.923  1.00  0.00     0.031 C 
ATOM     63  C   UNL A   1      44.681  25.383  32.333  1.00  0.00     0.034 A 
BRANCH  50  64
ATOM     64  C   UNL A   1      42.614  22.424  27.341  1.00  0.00     0.023 A 
ATOM     65  C   UNL A   1      41.753  21.318  27.538  1.00  0.00     0.012 A 
ATOM     66  C   UNL A   1      43.549  22.286  26.290  1.00  0.00     0.148 A 
ATOM     67  C   UNL A   1      41.884  20.121  26.823  1.00  0.00     0.002 A 
ATOM     68  C   UNL A   1      43.729  21.071  25.620  1.00  0.00     0.091 A 
ATOM     69  F   UNL A   1      44.220  23.351  25.849  1.00  0.00    -0.205 F 
ATOM     70  C   UNL A   1      42.898  19.981  25.889  1.00  0.00     0.022 A 
BRANCH  68  71
ATOM     71  S   UNL A   1      45.069  20.804  24.442  1.00  0.00     0.127 S 
ATOM     72  O   UNL A   1      44.953  19.371  24.163  1.00  0.00    -0.237 OA
ATOM     73  O   UNL A   1      44.685  21.671  23.330  1.00  0.00    -0.237 OA
ATOM     74  O   UNL A   1      46.297  21.177  25.133  1.00  0.00    -0.744 OA
ENDBRANCH  68  71
ENDBRANCH  50  64
BRANCH  51  75
ATOM     75  C   UNL A   1      42.053  30.783  32.398  1.00  0.00     0.023 A 
ATOM     76  C   UNL A   1      41.983  32.130  31.967  1.00  0.00     0.012 A 
ATOM     77  C   UNL A   1      40.943  30.218  33.050  1.00  0.00     0.148 A 
ATOM     78  C   UNL A   1      40.796  32.856  32.069  1.00  0.00     0.002 A 
ATOM     79  C   UNL A   1      39.757  30.947  33.139  1.00  0.00     0.091 A 
ATOM     80  F   UNL A   1      41.030  28.955  33.484  1.00  0.00    -0.205 F 
ATOM     81  C   UNL A   1      39.674  32.252  32.622  1.00  0.00     0.022 A 
BRANCH  79  82
ATOM     82  S   UNL A   1      38.234  30.224  33.762  1.00  0.00     0.127 S 
ATOM     83  O   UNL A   1      37.236  31.168  33.269  1.00  0.00    -0.237 OA
ATOM     84  O   UNL A   1      38.224  28.918  33.102  1.00  0.00    -0.237 OA
ATOM     85  O   UNL A   1      38.407  30.163  35.205  1.00  0.00    -0.744 OA
ENDBRANCH  79  82
ENDBRANCH  51  75
BRANCH  63  86
ATOM     86  C   UNL A   1      44.917  24.248  33.313  1.00  0.00     0.023 A 
ATOM     87  C   UNL A   1      43.979  23.214  33.502  1.00  0.00     0.012 A 
ATOM     88  C   UNL A   1      46.172  24.096  33.959  1.00  0.00     0.148 A 
ATOM     89  C   UNL A   1      44.241  22.118  34.332  1.00  0.00     0.002 A 
ATOM     90  C   UNL A   1      46.468  22.950  34.694  1.00  0.00     0.091 A 
ATOM     91  F   UNL A   1      47.088  25.073  33.877  1.00  0.00    -0.205 F 
ATOM     92  C   UNL A   1      45.495  21.973  34.910  1.00  0.00     0.022 A 
BRANCH  90  93
ATOM     93  S   UNL A   1      48.150  22.622  35.241  1.00  0.00     0.127 S 
ATOM     94  O   UNL A   1      48.092  21.206  35.588  1.00  0.00    -0.237 OA
ATOM     95  O   UNL A   1      48.941  22.923  34.045  1.00  0.00    -0.237 OA
ATOM     96  O   UNL A   1      48.365  23.551  36.343  1.00  0.00    -0.744 OA
ENDBRANCH  90  93
ENDBRANCH  63  86
ENDBRANCH  37  38
ENDBRANCH  29  32
ENDBRANCH  27  28
ENDBRANCH  26  27
ENDBRANCH   1  26
TORSDOF 18
ENDMDL
MODEL 2
REMARK VINA RESULT:     -12.7      1.830      2.269
REMARK SMILES Cc1ccc(N(CC(=O)NCCCNC(=O)c2ccc(-c3c4nc(c(-c5cccc(S(=O)(=O)[O-])c5F)c5ccc([nH]5)c(-c5cccc(S(=O)(=O)[O-])c5F)c5nc(c(-c6cccc(S(=O)(=O)[O-])c6F)c6ccc3[nH]6)C=C5)C=C4)cc2)C(=O)C[C@H]2C[NH2+]CCO2)cc1
REMARK SMILES IDX 11 1 10 2 8 3 9 4 7 6 6 7 5 8 1 9 2 10 3 11 90 12 4 13 89 14
REMARK SMILES IDX 80 15 81 16 82 17 83 18 84 19 88 20 85 21 87 22 86 23 12 26
REMARK SMILES IDX 13 27 14 28 15 29 16 31 17 32 18 33 79 34 19 35 78 36 20 37
REMARK SMILES IDX 21 38 22 39 72 40 23 41 77 42 71 43 73 44 24 45 76 46 70 47
REMARK SMILES IDX 69 48 25 50 57 51 37 52 56 53 38 54 41 55 55 56 74 57 39 58
REMARK SMILES IDX 40 59 54 61 75 62 42 63 26 64 27 65 35 66 28 67 30 68 36 69
REMARK SMILES IDX 29 70 31 71 32 72 33 73 34 74 58 75 59 76 67 77 60 78 62 79
REMARK SMILES IDX 68 80 61 81 63 82 64 83 65 84 66 85 43 86 44 87 52 88 45 89
REMARK SMILES IDX 47 90 53 91 46 92 48 93 49 94 50 95 51 96
REMARK H PARENT 10 5 85 24 85 25 14 30 73 49 41 60
REMARK Flexibility Score: inf
ROOT
ATOM      1  C   UNL A   1      32.062  29.777  25.400  1.00  0.00     0.117 C 
ENDROOT
BRANCH   1   2
ATOM      2  N   UNL A   1      33.261  29.696  24.584  1.00  0.00    -0.354 N 
ATOM      3  C   UNL A   1      33.476  28.980  23.445  1.00  0.00     0.240 C 
ATOM      4  O   UNL A   1      34.622  28.931  22.993  1.00  0.00    -0.273 OA
ATOM      5  H   UNL A   1      34.024  30.233  24.898  1.00  0.00     0.163 HD
BRANCH   3   6
ATOM      6  C   UNL A   1      32.317  28.263  22.733  1.00  0.00     0.225 C 
BRANCH   6   7
ATOM      7  N   UNL A   1      31.852  26.999  23.359  1.00  0.00    -0.303 N 
BRANCH   7   8
ATOM      8  C   UNL A   1      32.842  26.047  23.860  1.00  0.00     0.044 A 
ATOM      9  C   UNL A   1      35.604  23.018  25.357  1.00  0.00     0.044 C 
ATOM     10  C   UNL A   1      34.687  24.087  24.846  1.00  0.00    -0.051 A 
ATOM     11  C   UNL A   1      34.457  24.232  23.480  1.00  0.00     0.005 A 
ATOM     12  C   UNL A   1      34.017  24.937  25.719  1.00  0.00     0.005 A 
ATOM     13  C   UNL A   1      33.563  25.203  22.998  1.00  0.00     0.026 A 
ATOM     14  C   UNL A   1      33.116  25.896  25.232  1.00  0.00     0.026 A 
ENDBRANCH   7   8
BRANCH   7  15
ATOM     15  C   UNL A   1      30.476  26.749  23.514  1.00  0.00     0.230 C 
ATOM     16  O   UNL A   1      29.964  25.624  23.498  1.00  0.00    -0.274 OA
BRANCH  15  17
ATOM     17  C   UNL A   1      29.547  27.887  23.883  1.00  0.00     0.138 C 
BRANCH  17  18
ATOM     18  C   UNL A   1      28.644  28.343  22.726  1.00  0.00     0.182 C 
ATOM     19  C   UNL A   1      27.289  28.981  23.113  1.00  0.00     0.293 C 
ATOM     20  O   UNL A   1      29.342  29.115  21.730  1.00  0.00    -0.366 OA
ATOM     21  N   UNL A   1      27.361  30.407  23.466  1.00  0.00    -0.342 N 
ATOM     22  C   UNL A   1      29.372  30.525  21.964  1.00  0.00     0.222 C 
ATOM     23  C   UNL A   1      28.030  31.131  22.384  1.00  0.00     0.289 C 
ATOM     24  H   UNL A   1      27.889  30.519  24.331  1.00  0.00     0.346 HD
ATOM     25  H   UNL A   1      26.420  30.778  23.599  1.00  0.00     0.346 HD
ENDBRANCH  17  18
ENDBRANCH  15  17
ENDBRANCH   7  15
ENDBRANCH   6   7
ENDBRANCH   3   6
ENDBRANCH   1   2
BRANCH   1  26
ATOM     26  C   UNL A   1      32.342  30.463  26.728  1.00  0.00     0.042 C 
BRANCH  26  27
ATOM     27  C   UNL A   1      33.717  30.166  27.283  1.00  0.00     0.118 C 
BRANCH  27  28
ATOM     28  N   UNL A   1      34.269  31.234  28.094  1.00  0.00    -0.352 N 
ATOM     29  C   UNL A   1      35.362  31.176  28.940  1.00  0.00     0.251 C 
ATOM     30  H   UNL A   1      33.811  32.104  28.035  1.00  0.00     0.163 HD
ATOM     31  O   UNL A   1      35.560  32.087  29.738  1.00  0.00    -0.269 OA
BRANCH  29  32
ATOM     32  C   UNL A   1      36.340  30.079  28.755  1.00  0.00     0.039 A 
ATOM     33  C   UNL A   1      36.674  29.330  29.889  1.00  0.00     0.014 A 
ATOM     34  C   UNL A   1      37.122  30.009  27.605  1.00  0.00     0.014 A 
ATOM     35  C   UNL A   1      37.923  28.723  29.966  1.00  0.00     0.010 A 
ATOM     36  C   UNL A   1      38.398  29.501  27.715  1.00  0.00     0.010 A 
ATOM     37  C   UNL A   1      38.814  28.917  28.917  1.00  0.00    -0.014 A 
BRANCH  37  38
ATOM     38  C   UNL A   1      40.215  28.538  28.949  1.00  0.00     0.031 A 
ATOM     39  C   UNL A   1      40.577  27.126  28.740  1.00  0.00     0.074 A 
ATOM     40  C   UNL A   1      41.155  29.508  28.959  1.00  0.00     0.049 A 
ATOM     41  N   UNL A   1      41.736  26.621  28.986  1.00  0.00    -0.248 NA
ATOM     42  C   UNL A   1      39.604  26.150  28.269  1.00  0.00     0.031 C 
ATOM     43  C   UNL A   1      42.548  29.382  28.549  1.00  0.00     0.029 A 
ATOM     44  N   UNL A   1      41.080  30.772  29.555  1.00  0.00    -0.354 N 
ATOM     45  C   UNL A   1      41.750  25.345  28.460  1.00  0.00     0.074 A 
ATOM     46  C   UNL A   1      40.378  25.075  28.105  1.00  0.00     0.031 C 
ATOM     47  C   UNL A   1      43.254  30.368  29.122  1.00  0.00     0.029 A 
ATOM     48  C   UNL A   1      42.367  31.042  30.053  1.00  0.00     0.049 A 
ATOM     49  H   UNL A   1      40.287  31.354  29.611  1.00  0.00     0.167 HD
ATOM     50  C   UNL A   1      42.950  24.731  28.253  1.00  0.00     0.034 A 
ATOM     51  C   UNL A   1      42.640  31.271  31.370  1.00  0.00     0.034 A 
ATOM     52  C   UNL A   1      44.047  25.546  28.798  1.00  0.00     0.049 A 
ATOM     53  C   UNL A   1      43.636  30.286  31.955  1.00  0.00     0.074 A 
ATOM     54  C   UNL A   1      44.916  26.460  28.223  1.00  0.00     0.029 A 
ATOM     55  N   UNL A   1      44.168  25.702  30.174  1.00  0.00    -0.354 N 
ATOM     56  N   UNL A   1      44.070  29.225  31.329  1.00  0.00    -0.248 NA
ATOM     57  C   UNL A   1      44.195  30.395  33.300  1.00  0.00     0.031 C 
ATOM     58  C   UNL A   1      45.483  27.240  29.267  1.00  0.00     0.029 A 
ATOM     59  C   UNL A   1      44.988  26.778  30.476  1.00  0.00     0.049 A 
ATOM     60  H   UNL A   1      43.730  25.127  30.842  1.00  0.00     0.167 HD
ATOM     61  C   UNL A   1      44.813  28.453  32.183  1.00  0.00     0.074 A 
ATOM     62  C   UNL A   1      44.933  29.273  33.377  1.00  0.00     0.031 C 
ATOM     63  C   UNL A   1      45.199  27.180  31.864  1.00  0.00     0.034 A 
BRANCH  50  64
ATOM     64  C   UNL A   1      43.187  23.568  27.297  1.00  0.00     0.023 A 
ATOM     65  C   UNL A   1      43.989  23.823  26.159  1.00  0.00     0.012 A 
ATOM     66  C   UNL A   1      42.628  22.271  27.368  1.00  0.00     0.148 A 
ATOM     67  C   UNL A   1      44.134  22.903  25.114  1.00  0.00     0.002 A 
ATOM     68  C   UNL A   1      42.715  21.374  26.296  1.00  0.00     0.091 A 
ATOM     69  F   UNL A   1      42.084  21.839  28.505  1.00  0.00    -0.205 F 
ATOM     70  C   UNL A   1      43.465  21.692  25.163  1.00  0.00     0.022 A 
BRANCH  68  71
ATOM     71  S   UNL A   1      41.817  19.810  26.270  1.00  0.00     0.127 S 
ATOM     72  O   UNL A   1      42.273  19.215  25.012  1.00  0.00    -0.237 OA
ATOM     73  O   UNL A   1      42.313  19.144  27.471  1.00  0.00    -0.237 OA
ATOM     74  O   UNL A   1      40.400  20.155  26.284  1.00  0.00    -0.744 OA
ENDBRANCH  68  71
ENDBRANCH  50  64
BRANCH  51  75
ATOM     75  C   UNL A   1      41.524  31.923  32.112  1.00  0.00     0.023 A 
ATOM     76  C   UNL A   1      41.202  33.249  31.733  1.00  0.00     0.012 A 
ATOM     77  C   UNL A   1      40.578  31.172  32.831  1.00  0.00     0.148 A 
ATOM     78  C   UNL A   1      39.926  33.770  31.953  1.00  0.00     0.002 A 
ATOM     79  C   UNL A   1      39.301  31.695  33.037  1.00  0.00     0.091 A 
ATOM     80  F   UNL A   1      40.904  29.931  33.214  1.00  0.00    -0.205 F 
ATOM     81  C   UNL A   1      38.966  32.979  32.573  1.00  0.00     0.022 A 
BRANCH  79  82
ATOM     82  S   UNL A   1      37.972  30.720  33.755  1.00  0.00     0.127 S 
ATOM     83  O   UNL A   1      36.805  31.266  33.071  1.00  0.00    -0.237 OA
ATOM     84  O   UNL A   1      38.341  29.362  33.355  1.00  0.00    -0.237 OA
ATOM     85  O   UNL A   1      38.055  30.964  35.187  1.00  0.00    -0.744 OA
ENDBRANCH  79  82
ENDBRANCH  51  75
BRANCH  63  86
ATOM     86  C   UNL A   1      45.791  26.178  32.839  1.00  0.00     0.023 A 
ATOM     87  C   UNL A   1      47.166  26.147  33.139  1.00  0.00     0.012 A 
ATOM     88  C   UNL A   1      44.950  25.338  33.615  1.00  0.00     0.148 A 
ATOM     89  C   UNL A   1      47.694  25.289  34.112  1.00  0.00     0.002 A 
ATOM     90  C   UNL A   1      45.466  24.569  34.656  1.00  0.00     0.091 A 
ATOM     91  F   UNL A   1      43.639  25.267  33.340  1.00  0.00    -0.205 F 
ATOM     92  C   UNL A   1      46.841  24.517  34.888  1.00  0.00     0.022 A 
BRANCH  90  93
ATOM     93  S   UNL A   1      44.366  23.758  35.827  1.00  0.00     0.127 S 
ATOM     94  O   UNL A   1      43.415  24.820  36.143  1.00  0.00    -0.237 OA
ATOM     95  O   UNL A   1      43.809  22.658  35.036  1.00  0.00    -0.237 OA
ATOM     96  O   UNL A   1      45.238  23.326  36.912  1.00  0.00    -0.744 OA
ENDBRANCH  90  93
ENDBRANCH  63  86
ENDBRANCH  37  38
ENDBRANCH  29  32
ENDBRANCH  27  28
ENDBRANCH  26  27
ENDBRANCH   1  26
TORSDOF 18
ENDMDL
MODEL 3
REMARK VINA RESULT:     -12.7      1.556      2.722
REMARK SMILES Cc1ccc(N(CC(=O)NCCCNC(=O)c2ccc(-c3c4nc(c(-c5cccc(S(=O)(=O)[O-])c5F)c5ccc([nH]5)c(-c5cccc(S(=O)(=O)[O-])c5F)c5nc(c(-c6cccc(S(=O)(=O)[O-])c6F)c6ccc3[nH]6)C=C5)C=C4)cc2)C(=O)C[C@H]2C[NH2+]CCO2)cc1
REMARK SMILES IDX 11 1 10 2 8 3 9 4 7 6 6 7 5 8 1 9 2 10 3 11 90 12 4 13 89 14
REMARK SMILES IDX 80 15 81 16 82 17 83 18 84 19 88 20 85 21 87 22 86 23 12 26
REMARK SMILES IDX 13 27 14 28 15 29 16 31 17 32 18 33 79 34 19 35 78 36 20 37
REMARK SMILES IDX 21 38 22 39 72 40 23 41 77 42 71 43 73 44 24 45 76 46 70 47
REMARK SMILES IDX 69 48 25 50 57 51 37 52 56 53 38 54 41 55 55 56 74 57 39 58
REMARK SMILES IDX 40 59 54 61 75 62 42 63 26 64 27 65 35 66 28 67 30 68 36 69
REMARK SMILES IDX 29 70 31 71 32 72 33 73 34 74 58 75 59 76 67 77 60 78 62 79
REMARK SMILES IDX 68 80 61 81 63 82 64 83 65 84 66 85 43 86 44 87 52 88 45 89
REMARK SMILES IDX 47 90 53 91 46 92 48 93 49 94 50 95 51 96
REMARK H PARENT 10 5 85 24 85 25 14 30 73 49 41 60
REMARK Flexibility Score: inf
ROOT
ATOM      1  C   UNL A   1      32.261  29.762  25.562  1.00  0.00     0.117 C 
ENDROOT
BRANCH   1   2
ATOM      2  N   UNL A   1      33.290  29.638  24.545  1.00  0.00    -0.354 N 
ATOM      3  C   UNL A   1      33.411  28.708  23.557  1.00  0.00     0.240 C 
ATOM      4  O   UNL A   1      34.449  28.693  22.892  1.00  0.00    -0.273 OA
ATOM      5  H   UNL A   1      33.998  30.321  24.574  1.00  0.00     0.163 HD
BRANCH   3   6
ATOM      6  C   UNL A   1      32.276  27.711  23.268  1.00  0.00     0.225 C 
BRANCH   6   7
ATOM      7  N   UNL A   1      32.269  26.477  24.095  1.00  0.00    -0.303 N 
BRANCH   7   8
ATOM      8  C   UNL A   1      33.403  25.558  24.011  1.00  0.00     0.044 A 
ATOM      9  C   UNL A   1      36.622  22.616  23.842  1.00  0.00     0.044 C 
ATOM     10  C   UNL A   1      35.545  23.656  23.890  1.00  0.00    -0.051 A 
ATOM     11  C   UNL A   1      34.693  23.848  22.804  1.00  0.00     0.005 A 
ATOM     12  C   UNL A   1      35.344  24.432  25.026  1.00  0.00     0.005 A 
ATOM     13  C   UNL A   1      33.653  24.790  22.861  1.00  0.00     0.026 A 
ATOM     14  C   UNL A   1      34.295  25.362  25.081  1.00  0.00     0.026 A 
ENDBRANCH   7   8
BRANCH   7  15
ATOM     15  C   UNL A   1      31.209  26.227  24.986  1.00  0.00     0.230 C 
ATOM     16  O   UNL A   1      30.013  26.358  24.702  1.00  0.00    -0.274 OA
BRANCH  15  17
ATOM     17  C   UNL A   1      31.499  25.607  26.337  1.00  0.00     0.138 C 
BRANCH  17  18
ATOM     18  C   UNL A   1      30.894  24.205  26.513  1.00  0.00     0.182 C 
ATOM     19  C   UNL A   1      30.765  23.342  25.236  1.00  0.00     0.293 C 
ATOM     20  O   UNL A   1      31.471  23.470  27.608  1.00  0.00    -0.366 OA
ATOM     21  N   UNL A   1      31.995  22.636  24.845  1.00  0.00    -0.342 N 
ATOM     22  C   UNL A   1      32.620  22.687  27.278  1.00  0.00     0.222 C 
ATOM     23  C   UNL A   1      32.487  21.869  25.991  1.00  0.00     0.289 C 
ATOM     24  H   UNL A   1      32.702  23.313  24.558  1.00  0.00     0.346 HD
ATOM     25  H   UNL A   1      31.800  22.007  24.067  1.00  0.00     0.346 HD
ENDBRANCH  17  18
ENDBRANCH  15  17
ENDBRANCH   7  15
ENDBRANCH   6   7
ENDBRANCH   3   6
ENDBRANCH   1   2
BRANCH   1  26
ATOM     26  C   UNL A   1      32.717  30.658  26.703  1.00  0.00     0.042 C 
BRANCH  26  27
ATOM     27  C   UNL A   1      34.062  30.271  27.274  1.00  0.00     0.118 C 
BRANCH  27  28
ATOM     28  N   UNL A   1      34.926  31.400  27.564  1.00  0.00    -0.352 N 
ATOM     29  C   UNL A   1      36.173  31.380  28.163  1.00  0.00     0.251 C 
ATOM     30  H   UNL A   1      34.584  32.286  27.304  1.00  0.00     0.163 HD
ATOM     31  O   UNL A   1      36.673  32.428  28.560  1.00  0.00    -0.269 OA
BRANCH  29  32
ATOM     32  C   UNL A   1      36.928  30.105  28.177  1.00  0.00     0.039 A 
ATOM     33  C   UNL A   1      37.044  29.451  29.409  1.00  0.00     0.014 A 
ATOM     34  C   UNL A   1      37.747  29.750  27.108  1.00  0.00     0.014 A 
ATOM     35  C   UNL A   1      38.145  28.636  29.651  1.00  0.00     0.010 A 
ATOM     36  C   UNL A   1      38.891  29.032  27.374  1.00  0.00     0.010 A 
ATOM     37  C   UNL A   1      39.116  28.531  28.662  1.00  0.00    -0.014 A 
BRANCH  37  38
ATOM     38  C   UNL A   1      40.412  27.904  28.847  1.00  0.00     0.031 A 
ATOM     39  C   UNL A   1      40.545  26.457  28.611  1.00  0.00     0.074 A 
ATOM     40  C   UNL A   1      41.498  28.688  29.023  1.00  0.00     0.049 A 
ATOM     41  N   UNL A   1      41.555  25.744  28.971  1.00  0.00    -0.248 NA
ATOM     42  C   UNL A   1      39.486  25.687  27.974  1.00  0.00     0.031 C 
ATOM     43  C   UNL A   1      42.889  28.324  28.782  1.00  0.00     0.029 A 
ATOM     44  N   UNL A   1      41.568  29.927  29.670  1.00  0.00    -0.354 N 
ATOM     45  C   UNL A   1      41.414  24.502  28.385  1.00  0.00     0.074 A 
ATOM     46  C   UNL A   1      40.074  24.495  27.851  1.00  0.00     0.031 C 
ATOM     47  C   UNL A   1      43.675  29.149  29.489  1.00  0.00     0.029 A 
ATOM     48  C   UNL A   1      42.806  29.945  30.337  1.00  0.00     0.049 A 
ATOM     49  H   UNL A   1      40.890  30.640  29.659  1.00  0.00     0.167 HD
ATOM     50  C   UNL A   1      42.504  23.688  28.297  1.00  0.00     0.034 A 
ATOM     51  C   UNL A   1      42.941  30.083  31.688  1.00  0.00     0.034 A 
ATOM     52  C   UNL A   1      43.646  24.275  29.015  1.00  0.00     0.049 A 
ATOM     53  C   UNL A   1      43.663  28.917  32.339  1.00  0.00     0.074 A 
ATOM     54  C   UNL A   1      44.729  25.033  28.600  1.00  0.00     0.029 A 
ATOM     55  N   UNL A   1      43.611  24.366  30.401  1.00  0.00    -0.354 N 
ATOM     56  N   UNL A   1      43.983  27.814  31.717  1.00  0.00    -0.248 NA
ATOM     57  C   UNL A   1      44.052  28.885  33.747  1.00  0.00     0.031 C 
ATOM     58  C   UNL A   1      45.282  25.667  29.745  1.00  0.00     0.029 A 
ATOM     59  C   UNL A   1      44.561  25.268  30.858  1.00  0.00     0.049 A 
ATOM     60  H   UNL A   1      42.995  23.861  30.980  1.00  0.00     0.167 HD
ATOM     61  C   UNL A   1      44.460  26.896  32.615  1.00  0.00     0.074 A 
ATOM     62  C   UNL A   1      44.565  27.646  33.856  1.00  0.00     0.031 C 
ATOM     63  C   UNL A   1      44.656  25.584  32.280  1.00  0.00     0.034 A 
BRANCH  50  64
ATOM     64  C   UNL A   1      42.656  22.529  27.318  1.00  0.00     0.023 A 
ATOM     65  C   UNL A   1      41.943  21.342  27.612  1.00  0.00     0.012 A 
ATOM     66  C   UNL A   1      43.496  22.468  26.183  1.00  0.00     0.148 A 
ATOM     67  C   UNL A   1      42.134  20.150  26.903  1.00  0.00     0.002 A 
ATOM     68  C   UNL A   1      43.741  21.263  25.515  1.00  0.00     0.091 A 
ATOM     69  F   UNL A   1      44.002  23.587  25.666  1.00  0.00    -0.205 F 
ATOM     70  C   UNL A   1      43.064  20.098  25.877  1.00  0.00     0.022 A 
BRANCH  68  71
ATOM     71  S   UNL A   1      44.984  21.114  24.215  1.00  0.00     0.127 S 
ATOM     72  O   UNL A   1      46.227  21.371  24.946  1.00  0.00    -0.237 OA
ATOM     73  O   UNL A   1      44.813  19.730  23.777  1.00  0.00    -0.237 OA
ATOM     74  O   UNL A   1      44.658  22.131  23.223  1.00  0.00    -0.744 OA
ENDBRANCH  68  71
ENDBRANCH  50  64
BRANCH  51  75
ATOM     75  C   UNL A   1      41.869  30.904  32.319  1.00  0.00     0.023 A 
ATOM     76  C   UNL A   1      41.765  32.249  31.888  1.00  0.00     0.012 A 
ATOM     77  C   UNL A   1      40.773  30.311  32.970  1.00  0.00     0.148 A 
ATOM     78  C   UNL A   1      40.560  32.945  31.988  1.00  0.00     0.002 A 
ATOM     79  C   UNL A   1      39.569  31.010  33.057  1.00  0.00     0.091 A 
ATOM     80  F   UNL A   1      40.892  29.051  33.404  1.00  0.00    -0.205 F 
ATOM     81  C   UNL A   1      39.454  32.312  32.540  1.00  0.00     0.022 A 
BRANCH  79  82
ATOM     82  S   UNL A   1      38.064  30.248  33.679  1.00  0.00     0.127 S 
ATOM     83  O   UNL A   1      37.040  31.132  33.133  1.00  0.00    -0.237 OA
ATOM     84  O   UNL A   1      38.120  28.920  33.068  1.00  0.00    -0.237 OA
ATOM     85  O   UNL A   1      38.211  30.247  35.126  1.00  0.00    -0.744 OA
ENDBRANCH  79  82
ENDBRANCH  51  75
BRANCH  63  86
ATOM     86  C   UNL A   1      44.929  24.463  33.268  1.00  0.00     0.023 A 
ATOM     87  C   UNL A   1      44.011  23.418  33.487  1.00  0.00     0.012 A 
ATOM     88  C   UNL A   1      46.199  24.338  33.888  1.00  0.00     0.148 A 
ATOM     89  C   UNL A   1      44.307  22.335  34.323  1.00  0.00     0.002 A 
ATOM     90  C   UNL A   1      46.528  23.204  34.629  1.00  0.00     0.091 A 
ATOM     91  F   UNL A   1      47.099  25.326  33.776  1.00  0.00    -0.205 F 
ATOM     92  C   UNL A   1      45.575  22.215  34.876  1.00  0.00     0.022 A 
BRANCH  90  93
ATOM     93  S   UNL A   1      48.226  22.908  35.144  1.00  0.00     0.127 S 
ATOM     94  O   UNL A   1      48.977  23.240  33.937  1.00  0.00    -0.237 OA
ATOM     95  O   UNL A   1      48.398  23.856  36.247  1.00  0.00    -0.237 OA
ATOM     96  O   UNL A   1      48.247  21.510  35.555  1.00  0.00    -0.744 OA
ENDBRANCH  90  93
ENDBRANCH  63  86
ENDBRANCH  37  38
ENDBRANCH  29  32
ENDBRANCH  27  28
ENDBRANCH  26  27
ENDBRANCH   1  26
TORSDOF 18
ENDMDL
