MODEL 1
REMARK VINA RESULT:     -11.9      0.000      0.000
REMARK SMILES O=C(Cc1cccc(NS(=O)(=O)c2cccc(Cl)c2)c1)NCCCNC(=O)c1ccc(-c2c3nc(c(-c4cccc(S(=O)(=O)[O-])c4F)c4ccc([nH]4)c(-c4cccc(S(=O)(=O)[O-])c4F)c4nc(c(-c5cccc(S(=O)(=O)[O-])c5F)c5ccc2[nH]5)C=C4)C=C3)cc1
REMARK SMILES IDX 22 1 21 2 1 3 2 4 3 6 4 7 5 8 20 9 6 10 8 11 7 12 9 13 10 15
REMARK SMILES IDX 11 16 12 17 13 18 14 19 19 20 15 21 17 22 16 23 18 24 23 25
REMARK SMILES IDX 24 26 25 27 26 28 27 30 28 31 29 32 90 33 30 34 89 35 31 36
REMARK SMILES IDX 32 37 33 38 83 39 34 40 88 41 82 42 84 43 35 44 87 45 81 46
REMARK SMILES IDX 80 47 36 49 68 50 48 51 67 52 49 53 52 54 66 55 85 56 50 57
REMARK SMILES IDX 51 58 65 60 86 61 53 62 37 63 38 64 46 65 39 66 41 67 47 68
REMARK SMILES IDX 40 69 42 70 43 71 44 72 45 73 69 74 70 75 78 76 71 77 73 78
REMARK SMILES IDX 79 79 72 80 74 81 75 82 76 83 77 84 54 85 55 86 63 87 56 88
REMARK SMILES IDX 58 89 64 90 57 91 59 92 60 93 61 94 62 95
REMARK H PARENT 21 5 9 14 25 29 84 48 52 59
REMARK Flexibility Score: inf
ROOT
ATOM      1  C   UNL A   1      34.718  20.761  25.457  1.00  0.00     0.117 C 
ENDROOT
BRANCH   1   2
ATOM      2  N   UNL A   1      33.557  21.592  25.708  1.00  0.00    -0.356 N 
ATOM      3  O   UNL A   1      34.326  22.505  27.678  1.00  0.00    -0.275 OA
ATOM      4  C   UNL A   1      33.490  22.458  26.781  1.00  0.00     0.224 C 
ATOM      5  H   UNL A   1      32.791  21.537  25.092  1.00  0.00     0.163 HD
BRANCH   4   6
ATOM      6  C   UNL A   1      32.297  23.403  26.744  1.00  0.00     0.135 C 
BRANCH   6   7
ATOM      7  C   UNL A   1      31.998  23.949  25.363  1.00  0.00    -0.037 A 
ATOM      8  C   UNL A   1      30.868  23.505  24.669  1.00  0.00     0.004 A 
ATOM      9  C   UNL A   1      32.818  24.920  24.764  1.00  0.00     0.031 A 
ATOM     10  C   UNL A   1      30.627  23.947  23.370  1.00  0.00     0.002 A 
ATOM     11  C   UNL A   1      32.582  25.373  23.462  1.00  0.00     0.049 A 
ATOM     12  C   UNL A   1      31.501  24.848  22.757  1.00  0.00     0.027 A 
BRANCH  11  13
ATOM     13  N   UNL A   1      33.415  26.431  23.001  1.00  0.00    -0.280 N 
ATOM     14  H   UNL A   1      34.243  26.172  22.536  1.00  0.00     0.180 HD
BRANCH  13  15
ATOM     15  S   UNL A   1      33.127  28.064  23.170  1.00  0.00     0.261 S 
ATOM     16  O   UNL A   1      34.327  28.738  22.720  1.00  0.00    -0.201 OA
ATOM     17  O   UNL A   1      31.832  28.362  22.604  1.00  0.00    -0.201 OA
BRANCH  15  18
ATOM     18  C   UNL A   1      33.027  28.338  24.923  1.00  0.00     0.089 A 
ATOM     19  C   UNL A   1      31.787  28.493  25.552  1.00  0.00     0.022 A 
ATOM     20  C   UNL A   1      34.218  28.564  25.619  1.00  0.00     0.042 A 
ATOM     21  C   UNL A   1      31.740  28.928  26.877  1.00  0.00     0.003 A 
ATOM     22  C   UNL A   1      34.159  28.979  26.945  1.00  0.00     0.042 A 
ATOM     23  C   UNL A   1      32.927  29.176  27.571  1.00  0.00     0.020 A 
ATOM     24  Cl  UNL A   1      35.613  29.287  27.809  1.00  0.00    -0.084 Cl
ENDBRANCH  15  18
ENDBRANCH  13  15
ENDBRANCH  11  13
ENDBRANCH   6   7
ENDBRANCH   4   6
ENDBRANCH   1   2
BRANCH   1  25
ATOM     25  C   UNL A   1      35.778  21.451  24.609  1.00  0.00     0.042 C 
BRANCH  25  26
ATOM     26  C   UNL A   1      36.951  22.044  25.385  1.00  0.00     0.118 C 
BRANCH  26  27
ATOM     27  N   UNL A   1      38.010  21.084  25.667  1.00  0.00    -0.352 N 
ATOM     28  C   UNL A   1      39.272  21.290  26.176  1.00  0.00     0.251 C 
ATOM     29  H   UNL A   1      37.790  20.147  25.463  1.00  0.00     0.163 HD
ATOM     30  O   UNL A   1      40.066  20.353  26.219  1.00  0.00    -0.269 OA
BRANCH  28  31
ATOM     31  C   UNL A   1      39.694  22.632  26.641  1.00  0.00     0.039 A 
ATOM     32  C   UNL A   1      40.685  22.721  27.624  1.00  0.00     0.014 A 
ATOM     33  C   UNL A   1      39.116  23.797  26.130  1.00  0.00     0.014 A 
ATOM     34  C   UNL A   1      41.154  23.974  28.032  1.00  0.00     0.010 A 
ATOM     35  C   UNL A   1      39.630  25.043  26.489  1.00  0.00     0.010 A 
ATOM     36  C   UNL A   1      40.658  25.146  27.438  1.00  0.00    -0.014 A 
BRANCH  36  37
ATOM     37  C   UNL A   1      41.225  26.481  27.766  1.00  0.00     0.031 A 
ATOM     38  C   UNL A   1      42.653  26.811  27.426  1.00  0.00     0.074 A 
ATOM     39  C   UNL A   1      40.484  27.362  28.467  1.00  0.00     0.049 A 
ATOM     40  N   UNL A   1      43.339  27.889  27.708  1.00  0.00    -0.248 NA
ATOM     41  C   UNL A   1      43.418  25.786  26.698  1.00  0.00     0.031 C 
ATOM     42  C   UNL A   1      39.113  27.134  28.932  1.00  0.00     0.029 A 
ATOM     43  N   UNL A   1      40.788  28.615  28.940  1.00  0.00    -0.354 N 
ATOM     44  C   UNL A   1      44.623  27.658  27.230  1.00  0.00     0.074 A 
ATOM     45  C   UNL A   1      44.628  26.328  26.660  1.00  0.00     0.031 C 
ATOM     46  C   UNL A   1      38.698  28.208  29.622  1.00  0.00     0.029 A 
ATOM     47  C   UNL A   1      39.775  29.192  29.670  1.00  0.00     0.049 A 
ATOM     48  H   UNL A   1      41.651  29.059  28.772  1.00  0.00     0.167 HD
ATOM     49  C   UNL A   1      45.693  28.488  27.237  1.00  0.00     0.034 A 
ATOM     50  C   UNL A   1      39.719  30.377  30.310  1.00  0.00     0.034 A 
ATOM     51  C   UNL A   1      45.673  29.833  27.744  1.00  0.00     0.049 A 
ATOM     52  C   UNL A   1      40.900  31.305  30.244  1.00  0.00     0.074 A 
ATOM     53  C   UNL A   1      46.678  30.784  27.704  1.00  0.00     0.029 A 
ATOM     54  N   UNL A   1      44.591  30.423  28.379  1.00  0.00    -0.354 N 
ATOM     55  N   UNL A   1      42.051  31.132  29.642  1.00  0.00    -0.248 NA
ATOM     56  C   UNL A   1      40.762  32.607  30.913  1.00  0.00     0.031 C 
ATOM     57  C   UNL A   1      46.206  31.948  28.319  1.00  0.00     0.029 A 
ATOM     58  C   UNL A   1      44.905  31.723  28.738  1.00  0.00     0.049 A 
ATOM     59  H   UNL A   1      43.728  29.982  28.551  1.00  0.00     0.167 HD
ATOM     60  C   UNL A   1      42.762  32.312  29.832  1.00  0.00     0.074 A 
ATOM     61  C   UNL A   1      41.904  33.200  30.588  1.00  0.00     0.031 C 
ATOM     62  C   UNL A   1      44.020  32.622  29.434  1.00  0.00     0.034 A 
BRANCH  49  63
ATOM     63  C   UNL A   1      46.965  27.989  26.605  1.00  0.00     0.023 A 
ATOM     64  C   UNL A   1      47.948  27.391  27.419  1.00  0.00     0.012 A 
ATOM     65  C   UNL A   1      47.166  28.052  25.213  1.00  0.00     0.148 A 
ATOM     66  C   UNL A   1      49.123  26.890  26.863  1.00  0.00     0.002 A 
ATOM     67  C   UNL A   1      48.325  27.517  24.660  1.00  0.00     0.091 A 
ATOM     68  F   UNL A   1      46.232  28.648  24.456  1.00  0.00    -0.205 F 
ATOM     69  C   UNL A   1      49.308  26.943  25.485  1.00  0.00     0.022 A 
BRANCH  67  70
ATOM     70  S   UNL A   1      48.616  27.481  22.887  1.00  0.00     0.127 S 
ATOM     71  O   UNL A   1      48.594  26.045  22.614  1.00  0.00    -0.237 OA
ATOM     72  O   UNL A   1      47.465  28.218  22.364  1.00  0.00    -0.237 OA
ATOM     73  O   UNL A   1      49.897  28.142  22.685  1.00  0.00    -0.744 OA
ENDBRANCH  67  70
ENDBRANCH  49  63
BRANCH  50  74
ATOM     74  C   UNL A   1      38.461  30.787  30.996  1.00  0.00     0.023 A 
ATOM     75  C   UNL A   1      38.305  30.499  32.365  1.00  0.00     0.012 A 
ATOM     76  C   UNL A   1      37.447  31.491  30.321  1.00  0.00     0.148 A 
ATOM     77  C   UNL A   1      37.149  30.883  33.046  1.00  0.00     0.002 A 
ATOM     78  C   UNL A   1      36.320  31.916  31.017  1.00  0.00     0.091 A 
ATOM     79  F   UNL A   1      37.606  31.740  29.013  1.00  0.00    -0.205 F 
ATOM     80  C   UNL A   1      36.162  31.601  32.375  1.00  0.00     0.022 A 
BRANCH  78  81
ATOM     81  S   UNL A   1      35.069  32.957  30.256  1.00  0.00     0.127 S 
ATOM     82  O   UNL A   1      35.868  34.074  29.760  1.00  0.00    -0.237 OA
ATOM     83  O   UNL A   1      34.525  32.080  29.218  1.00  0.00    -0.237 OA
ATOM     84  O   UNL A   1      34.127  33.268  31.324  1.00  0.00    -0.744 OA
ENDBRANCH  78  81
ENDBRANCH  50  74
BRANCH  62  85
ATOM     85  C   UNL A   1      44.549  33.986  29.786  1.00  0.00     0.023 A 
ATOM     86  C   UNL A   1      45.257  34.165  30.990  1.00  0.00     0.012 A 
ATOM     87  C   UNL A   1      44.414  35.068  28.894  1.00  0.00     0.148 A 
ATOM     88  C   UNL A   1      45.806  35.404  31.312  1.00  0.00     0.002 A 
ATOM     89  C   UNL A   1      44.998  36.292  29.204  1.00  0.00     0.091 A 
ATOM     90  F   UNL A   1      43.715  34.886  27.765  1.00  0.00    -0.205 F 
ATOM     91  C   UNL A   1      45.687  36.463  30.415  1.00  0.00     0.022 A 
BRANCH  89  92
ATOM     92  S   UNL A   1      44.964  37.680  28.063  1.00  0.00     0.127 S 
ATOM     93  O   UNL A   1      45.405  37.054  26.818  1.00  0.00    -0.237 OA
ATOM     94  O   UNL A   1      43.554  38.072  28.083  1.00  0.00    -0.237 OA
ATOM     95  O   UNL A   1      45.869  38.673  28.627  1.00  0.00    -0.744 OA
ENDBRANCH  89  92
ENDBRANCH  62  85
ENDBRANCH  36  37
ENDBRANCH  28  31
ENDBRANCH  26  27
ENDBRANCH  25  26
ENDBRANCH   1  25
TORSDOF 17
ENDMDL
MODEL 2
REMARK VINA RESULT:     -11.9      5.643      8.625
REMARK SMILES O=C(Cc1cccc(NS(=O)(=O)c2cccc(Cl)c2)c1)NCCCNC(=O)c1ccc(-c2c3nc(c(-c4cccc(S(=O)(=O)[O-])c4F)c4ccc([nH]4)c(-c4cccc(S(=O)(=O)[O-])c4F)c4nc(c(-c5cccc(S(=O)(=O)[O-])c5F)c5ccc2[nH]5)C=C4)C=C3)cc1
REMARK SMILES IDX 22 1 21 2 1 3 2 4 3 6 4 7 5 8 20 9 6 10 8 11 7 12 9 13 10 15
REMARK SMILES IDX 11 16 12 17 13 18 14 19 19 20 15 21 17 22 16 23 18 24 23 25
REMARK SMILES IDX 24 26 25 27 26 28 27 30 28 31 29 32 90 33 30 34 89 35 31 36
REMARK SMILES IDX 32 37 33 38 83 39 34 40 88 41 82 42 84 43 35 44 87 45 81 46
REMARK SMILES IDX 80 47 36 49 68 50 48 51 67 52 49 53 52 54 66 55 85 56 50 57
REMARK SMILES IDX 51 58 65 60 86 61 53 62 37 63 38 64 46 65 39 66 41 67 47 68
REMARK SMILES IDX 40 69 42 70 43 71 44 72 45 73 69 74 70 75 78 76 71 77 73 78
REMARK SMILES IDX 79 79 72 80 74 81 75 82 76 83 77 84 54 85 55 86 63 87 56 88
REMARK SMILES IDX 58 89 64 90 57 91 59 92 60 93 61 94 62 95
REMARK H PARENT 21 5 9 14 25 29 84 48 52 59
REMARK Flexibility Score: inf
ROOT
ATOM      1  C   UNL A   1      31.565  30.788  26.497  1.00  0.00     0.117 C 
ENDROOT
BRANCH   1   2
ATOM      2  N   UNL A   1      31.377  30.333  25.133  1.00  0.00    -0.356 N 
ATOM      3  O   UNL A   1      33.130  28.839  25.127  1.00  0.00    -0.275 OA
ATOM      4  C   UNL A   1      32.148  29.331  24.579  1.00  0.00     0.224 C 
ATOM      5  H   UNL A   1      30.675  30.751  24.585  1.00  0.00     0.163 HD
BRANCH   4   6
ATOM      6  C   UNL A   1      31.651  28.838  23.227  1.00  0.00     0.135 C 
BRANCH   6   7
ATOM      7  C   UNL A   1      31.705  27.332  23.072  1.00  0.00    -0.037 A 
ATOM      8  C   UNL A   1      32.508  26.763  22.078  1.00  0.00     0.004 A 
ATOM      9  C   UNL A   1      30.985  26.480  23.927  1.00  0.00     0.031 A 
ATOM     10  C   UNL A   1      32.505  25.384  21.882  1.00  0.00     0.002 A 
ATOM     11  C   UNL A   1      30.980  25.094  23.741  1.00  0.00     0.049 A 
ATOM     12  C   UNL A   1      31.716  24.558  22.686  1.00  0.00     0.027 A 
BRANCH  11  13
ATOM     13  N   UNL A   1      30.300  24.328  24.728  1.00  0.00    -0.280 N 
ATOM     14  H   UNL A   1      29.334  24.192  24.597  1.00  0.00     0.180 HD
BRANCH  13  15
ATOM     15  S   UNL A   1      30.978  23.635  26.085  1.00  0.00     0.261 S 
ATOM     16  O   UNL A   1      31.358  24.729  26.955  1.00  0.00    -0.201 OA
ATOM     17  O   UNL A   1      30.112  22.571  26.538  1.00  0.00    -0.201 OA
BRANCH  15  18
ATOM     18  C   UNL A   1      32.492  22.896  25.520  1.00  0.00     0.089 A 
ATOM     19  C   UNL A   1      32.492  21.625  24.935  1.00  0.00     0.022 A 
ATOM     20  C   UNL A   1      33.691  23.543  25.832  1.00  0.00     0.042 A 
ATOM     21  C   UNL A   1      33.705  20.976  24.707  1.00  0.00     0.003 A 
ATOM     22  C   UNL A   1      34.895  22.893  25.583  1.00  0.00     0.042 A 
ATOM     23  C   UNL A   1      34.907  21.608  25.037  1.00  0.00     0.020 A 
ATOM     24  Cl  UNL A   1      36.380  23.661  25.984  1.00  0.00    -0.084 Cl
ENDBRANCH  15  18
ENDBRANCH  13  15
ENDBRANCH  11  13
ENDBRANCH   6   7
ENDBRANCH   4   6
ENDBRANCH   1   2
BRANCH   1  25
ATOM     25  C   UNL A   1      31.374  32.290  26.660  1.00  0.00     0.042 C 
BRANCH  25  26
ATOM     26  C   UNL A   1      32.648  33.085  26.934  1.00  0.00     0.118 C 
BRANCH  26  27
ATOM     27  N   UNL A   1      32.426  34.293  27.715  1.00  0.00    -0.352 N 
ATOM     28  C   UNL A   1      33.070  34.741  28.846  1.00  0.00     0.251 C 
ATOM     29  H   UNL A   1      31.707  34.879  27.385  1.00  0.00     0.163 HD
ATOM     30  O   UNL A   1      32.642  35.733  29.431  1.00  0.00    -0.269 OA
BRANCH  28  31
ATOM     31  C   UNL A   1      34.250  34.024  29.382  1.00  0.00     0.039 A 
ATOM     32  C   UNL A   1      35.527  34.462  29.014  1.00  0.00     0.014 A 
ATOM     33  C   UNL A   1      34.113  32.923  30.231  1.00  0.00     0.014 A 
ATOM     34  C   UNL A   1      36.660  33.850  29.559  1.00  0.00     0.010 A 
ATOM     35  C   UNL A   1      35.241  32.356  30.824  1.00  0.00     0.010 A 
ATOM     36  C   UNL A   1      36.526  32.817  30.501  1.00  0.00    -0.014 A 
BRANCH  36  37
ATOM     37  C   UNL A   1      37.710  32.234  31.185  1.00  0.00     0.031 A 
ATOM     38  C   UNL A   1      38.462  31.085  30.569  1.00  0.00     0.074 A 
ATOM     39  C   UNL A   1      38.046  32.670  32.416  1.00  0.00     0.049 A 
ATOM     40  N   UNL A   1      39.462  30.399  31.058  1.00  0.00    -0.248 NA
ATOM     41  C   UNL A   1      38.013  30.630  29.244  1.00  0.00     0.031 C 
ATOM     42  C   UNL A   1      37.348  33.721  33.161  1.00  0.00     0.029 A 
ATOM     43  N   UNL A   1      39.040  32.264  33.271  1.00  0.00    -0.354 N 
ATOM     44  C   UNL A   1      39.738  29.409  30.123  1.00  0.00     0.074 A 
ATOM     45  C   UNL A   1      38.784  29.569  29.047  1.00  0.00     0.031 C 
ATOM     46  C   UNL A   1      37.934  33.874  34.358  1.00  0.00     0.029 A 
ATOM     47  C   UNL A   1      39.033  32.921  34.480  1.00  0.00     0.049 A 
ATOM     48  H   UNL A   1      39.697  31.567  33.041  1.00  0.00     0.167 HD
ATOM     49  C   UNL A   1      40.715  28.472  30.142  1.00  0.00     0.034 A 
ATOM     50  C   UNL A   1      39.819  32.772  35.565  1.00  0.00     0.034 A 
ATOM     51  C   UNL A   1      41.704  28.352  31.179  1.00  0.00     0.049 A 
ATOM     52  C   UNL A   1      40.937  31.768  35.531  1.00  0.00     0.074 A 
ATOM     53  C   UNL A   1      42.792  27.498  31.236  1.00  0.00     0.029 A 
ATOM     54  N   UNL A   1      41.730  29.111  32.339  1.00  0.00    -0.354 N 
ATOM     55  N   UNL A   1      41.283  30.953  34.565  1.00  0.00    -0.248 NA
ATOM     56  C   UNL A   1      41.797  31.688  36.722  1.00  0.00     0.031 C 
ATOM     57  C   UNL A   1      43.476  27.739  32.433  1.00  0.00     0.029 A 
ATOM     58  C   UNL A   1      42.814  28.745  33.119  1.00  0.00     0.049 A 
ATOM     59  H   UNL A   1      41.075  29.807  32.573  1.00  0.00     0.167 HD
ATOM     60  C   UNL A   1      42.417  30.286  35.017  1.00  0.00     0.074 A 
ATOM     61  C   UNL A   1      42.711  30.807  36.335  1.00  0.00     0.031 C 
ATOM     62  C   UNL A   1      43.135  29.315  34.402  1.00  0.00     0.034 A 
BRANCH  49  63
ATOM     63  C   UNL A   1      40.811  27.542  28.962  1.00  0.00     0.023 A 
ATOM     64  C   UNL A   1      39.907  26.465  28.861  1.00  0.00     0.012 A 
ATOM     65  C   UNL A   1      41.743  27.761  27.929  1.00  0.00     0.148 A 
ATOM     66  C   UNL A   1      39.947  25.604  27.766  1.00  0.00     0.002 A 
ATOM     67  C   UNL A   1      41.753  26.921  26.822  1.00  0.00     0.091 A 
ATOM     68  F   UNL A   1      42.612  28.775  28.055  1.00  0.00    -0.205 F 
ATOM     69  C   UNL A   1      40.862  25.837  26.742  1.00  0.00     0.022 A 
BRANCH  67  70
ATOM     70  S   UNL A   1      42.852  27.185  25.425  1.00  0.00     0.127 S 
ATOM     71  O   UNL A   1      42.706  25.928  24.693  1.00  0.00    -0.237 OA
ATOM     72  O   UNL A   1      42.250  28.346  24.768  1.00  0.00    -0.237 OA
ATOM     73  O   UNL A   1      44.167  27.432  25.998  1.00  0.00    -0.744 OA
ENDBRANCH  67  70
ENDBRANCH  49  63
BRANCH  50  74
ATOM     74  C   UNL A   1      39.625  33.662  36.744  1.00  0.00     0.023 A 
ATOM     75  C   UNL A   1      40.028  35.008  36.658  1.00  0.00     0.012 A 
ATOM     76  C   UNL A   1      39.010  33.203  37.924  1.00  0.00     0.148 A 
ATOM     77  C   UNL A   1      39.846  35.877  37.735  1.00  0.00     0.002 A 
ATOM     78  C   UNL A   1      38.786  34.086  38.975  1.00  0.00     0.091 A 
ATOM     79  F   UNL A   1      38.650  31.914  37.995  1.00  0.00    -0.205 F 
ATOM     80  C   UNL A   1      39.215  35.419  38.888  1.00  0.00     0.022 A 
BRANCH  78  81
ATOM     81  S   UNL A   1      37.862  33.605  40.440  1.00  0.00     0.127 S 
ATOM     82  O   UNL A   1      37.782  34.866  41.171  1.00  0.00    -0.237 OA
ATOM     83  O   UNL A   1      36.597  33.142  39.869  1.00  0.00    -0.237 OA
ATOM     84  O   UNL A   1      38.653  32.552  41.064  1.00  0.00    -0.744 OA
ENDBRANCH  78  81
ENDBRANCH  50  74
BRANCH  62  85
ATOM     85  C   UNL A   1      44.327  28.758  35.133  1.00  0.00     0.023 A 
ATOM     86  C   UNL A   1      45.576  29.396  35.008  1.00  0.00     0.012 A 
ATOM     87  C   UNL A   1      44.194  27.657  36.002  1.00  0.00     0.148 A 
ATOM     88  C   UNL A   1      46.682  28.934  35.720  1.00  0.00     0.002 A 
ATOM     89  C   UNL A   1      45.293  27.226  36.738  1.00  0.00     0.091 A 
ATOM     90  F   UNL A   1      43.004  27.047  36.089  1.00  0.00    -0.205 F 
ATOM     91  C   UNL A   1      46.538  27.859  36.593  1.00  0.00     0.022 A 
BRANCH  89  92
ATOM     92  S   UNL A   1      45.169  25.903  37.948  1.00  0.00     0.127 S 
ATOM     93  O   UNL A   1      46.516  25.890  38.516  1.00  0.00    -0.237 OA
ATOM     94  O   UNL A   1      44.131  26.398  38.853  1.00  0.00    -0.237 OA
ATOM     95  O   UNL A   1      44.789  24.716  37.194  1.00  0.00    -0.744 OA
ENDBRANCH  89  92
ENDBRANCH  62  85
ENDBRANCH  36  37
ENDBRANCH  28  31
ENDBRANCH  26  27
ENDBRANCH  25  26
ENDBRANCH   1  25
TORSDOF 17
ENDMDL
MODEL 3
REMARK VINA RESULT:     -11.9      1.687      7.727
REMARK SMILES O=C(Cc1cccc(NS(=O)(=O)c2cccc(Cl)c2)c1)NCCCNC(=O)c1ccc(-c2c3nc(c(-c4cccc(S(=O)(=O)[O-])c4F)c4ccc([nH]4)c(-c4cccc(S(=O)(=O)[O-])c4F)c4nc(c(-c5cccc(S(=O)(=O)[O-])c5F)c5ccc2[nH]5)C=C4)C=C3)cc1
REMARK SMILES IDX 22 1 21 2 1 3 2 4 3 6 4 7 5 8 20 9 6 10 8 11 7 12 9 13 10 15
REMARK SMILES IDX 11 16 12 17 13 18 14 19 19 20 15 21 17 22 16 23 18 24 23 25
REMARK SMILES IDX 24 26 25 27 26 28 27 30 28 31 29 32 90 33 30 34 89 35 31 36
REMARK SMILES IDX 32 37 33 38 83 39 34 40 88 41 82 42 84 43 35 44 87 45 81 46
REMARK SMILES IDX 80 47 36 49 68 50 48 51 67 52 49 53 52 54 66 55 85 56 50 57
REMARK SMILES IDX 51 58 65 60 86 61 53 62 37 63 38 64 46 65 39 66 41 67 47 68
REMARK SMILES IDX 40 69 42 70 43 71 44 72 45 73 69 74 70 75 78 76 71 77 73 78
REMARK SMILES IDX 79 79 72 80 74 81 75 82 76 83 77 84 54 85 55 86 63 87 56 88
REMARK SMILES IDX 58 89 64 90 57 91 59 92 60 93 61 94 62 95
REMARK H PARENT 21 5 9 14 25 29 84 48 52 59
REMARK Flexibility Score: inf
ROOT
ATOM      1  C   UNL A   1      34.959  20.427  25.010  1.00  0.00     0.117 C 
ENDROOT
BRANCH   1   2
ATOM      2  N   UNL A   1      34.058  21.138  24.125  1.00  0.00    -0.356 N 
ATOM      3  O   UNL A   1      32.131  20.650  25.290  1.00  0.00    -0.275 OA
ATOM      4  C   UNL A   1      32.706  21.245  24.384  1.00  0.00     0.224 C 
ATOM      5  H   UNL A   1      34.422  21.559  23.313  1.00  0.00     0.163 HD
BRANCH   4   6
ATOM      6  C   UNL A   1      31.973  22.216  23.469  1.00  0.00     0.135 C 
BRANCH   6   7
ATOM      7  C   UNL A   1      32.535  23.622  23.501  1.00  0.00    -0.037 A 
ATOM      8  C   UNL A   1      32.919  24.246  22.309  1.00  0.00     0.004 A 
ATOM      9  C   UNL A   1      32.656  24.337  24.705  1.00  0.00     0.031 A 
ATOM     10  C   UNL A   1      33.504  25.510  22.339  1.00  0.00     0.002 A 
ATOM     11  C   UNL A   1      33.238  25.608  24.744  1.00  0.00     0.049 A 
ATOM     12  C   UNL A   1      33.697  26.171  23.554  1.00  0.00     0.027 A 
BRANCH  11  13
ATOM     13  N   UNL A   1      33.213  26.275  26.000  1.00  0.00    -0.280 N 
ATOM     14  H   UNL A   1      33.758  25.884  26.721  1.00  0.00     0.180 HD
BRANCH  13  15
ATOM     15  S   UNL A   1      32.353  27.654  26.372  1.00  0.00     0.261 S 
ATOM     16  O   UNL A   1      31.770  27.431  27.679  1.00  0.00    -0.201 OA
ATOM     17  O   UNL A   1      33.187  28.802  26.099  1.00  0.00    -0.201 OA
BRANCH  15  18
ATOM     18  C   UNL A   1      31.002  27.682  25.219  1.00  0.00     0.089 A 
ATOM     19  C   UNL A   1      30.081  26.630  25.171  1.00  0.00     0.022 A 
ATOM     20  C   UNL A   1      30.988  28.694  24.253  1.00  0.00     0.042 A 
ATOM     21  C   UNL A   1      29.169  26.565  24.117  1.00  0.00     0.003 A 
ATOM     22  C   UNL A   1      30.061  28.627  23.218  1.00  0.00     0.042 A 
ATOM     23  C   UNL A   1      29.164  27.561  23.138  1.00  0.00     0.020 A 
ATOM     24  Cl  UNL A   1      30.045  29.847  22.006  1.00  0.00    -0.084 Cl
ENDBRANCH  15  18
ENDBRANCH  13  15
ENDBRANCH  11  13
ENDBRANCH   6   7
ENDBRANCH   4   6
ENDBRANCH   1   2
BRANCH   1  25
ATOM     25  C   UNL A   1      35.959  21.340  25.708  1.00  0.00     0.042 C 
BRANCH  25  26
ATOM     26  C   UNL A   1      37.327  21.443  25.039  1.00  0.00     0.118 C 
BRANCH  26  27
ATOM     27  N   UNL A   1      38.263  20.411  25.462  1.00  0.00    -0.352 N 
ATOM     28  C   UNL A   1      39.474  20.530  26.106  1.00  0.00     0.251 C 
ATOM     29  H   UNL A   1      37.989  19.488  25.257  1.00  0.00     0.163 HD
ATOM     30  O   UNL A   1      40.176  19.533  26.260  1.00  0.00    -0.269 OA
BRANCH  28  31
ATOM     31  C   UNL A   1      39.953  21.848  26.584  1.00  0.00     0.039 A 
ATOM     32  C   UNL A   1      40.973  21.885  27.541  1.00  0.00     0.014 A 
ATOM     33  C   UNL A   1      39.402  23.042  26.110  1.00  0.00     0.014 A 
ATOM     34  C   UNL A   1      41.494  23.114  27.959  1.00  0.00     0.010 A 
ATOM     35  C   UNL A   1      39.966  24.263  26.478  1.00  0.00     0.010 A 
ATOM     36  C   UNL A   1      41.022  24.313  27.400  1.00  0.00    -0.014 A 
BRANCH  36  37
ATOM     37  C   UNL A   1      41.642  25.621  27.737  1.00  0.00     0.031 A 
ATOM     38  C   UNL A   1      40.855  26.677  28.466  1.00  0.00     0.074 A 
ATOM     39  C   UNL A   1      42.884  25.902  27.292  1.00  0.00     0.049 A 
ATOM     40  N   UNL A   1      41.203  27.901  28.770  1.00  0.00    -0.248 NA
ATOM     41  C   UNL A   1      39.490  26.320  28.884  1.00  0.00     0.031 C 
ATOM     42  C   UNL A   1      43.723  24.997  26.502  1.00  0.00     0.029 A 
ATOM     43  N   UNL A   1      43.645  27.037  27.412  1.00  0.00    -0.354 N 
ATOM     44  C   UNL A   1      40.092  28.473  29.377  1.00  0.00     0.074 A 
ATOM     45  C   UNL A   1      39.049  27.469  29.378  1.00  0.00     0.031 C 
ATOM     46  C   UNL A   1      44.879  25.613  26.209  1.00  0.00     0.029 A 
ATOM     47  C   UNL A   1      44.858  26.962  26.768  1.00  0.00     0.049 A 
ATOM     48  H   UNL A   1      43.351  27.832  27.914  1.00  0.00     0.167 HD
ATOM     49  C   UNL A   1      39.959  29.709  29.912  1.00  0.00     0.034 A 
ATOM     50  C   UNL A   1      45.841  27.874  26.637  1.00  0.00     0.034 A 
ATOM     51  C   UNL A   1      41.013  30.686  29.970  1.00  0.00     0.049 A 
ATOM     52  C   UNL A   1      45.693  29.216  27.299  1.00  0.00     0.074 A 
ATOM     53  C   UNL A   1      41.004  31.928  30.581  1.00  0.00     0.029 A 
ATOM     54  N   UNL A   1      42.268  30.529  29.401  1.00  0.00    -0.354 N 
ATOM     55  N   UNL A   1      44.695  29.676  28.012  1.00  0.00    -0.248 NA
ATOM     56  C   UNL A   1      46.821  30.150  27.170  1.00  0.00     0.031 C 
ATOM     57  C   UNL A   1      42.253  32.525  30.379  1.00  0.00     0.029 A 
ATOM     58  C   UNL A   1      43.040  31.653  29.644  1.00  0.00     0.049 A 
ATOM     59  H   UNL A   1      42.565  29.738  28.899  1.00  0.00     0.167 HD
ATOM     60  C   UNL A   1      45.085  30.939  28.443  1.00  0.00     0.074 A 
ATOM     61  C   UNL A   1      46.419  31.163  27.928  1.00  0.00     0.031 C 
ATOM     62  C   UNL A   1      44.391  31.839  29.181  1.00  0.00     0.034 A 
BRANCH  49  63
ATOM     63  C   UNL A   1      38.641  30.054  30.552  1.00  0.00     0.023 A 
ATOM     64  C   UNL A   1      38.388  29.633  31.874  1.00  0.00     0.012 A 
ATOM     65  C   UNL A   1      37.683  30.838  29.882  1.00  0.00     0.148 A 
ATOM     66  C   UNL A   1      37.192  29.962  32.508  1.00  0.00     0.002 A 
ATOM     67  C   UNL A   1      36.507  31.194  30.533  1.00  0.00     0.091 A 
ATOM     68  F   UNL A   1      37.929  31.208  28.616  1.00  0.00    -0.205 F 
ATOM     69  C   UNL A   1      36.257  30.751  31.843  1.00  0.00     0.022 A 
BRANCH  67  70
ATOM     70  S   UNL A   1      35.276  32.263  29.779  1.00  0.00     0.127 S 
ATOM     71  O   UNL A   1      34.358  32.489  30.894  1.00  0.00    -0.237 OA
ATOM     72  O   UNL A   1      36.068  33.433  29.395  1.00  0.00    -0.237 OA
ATOM     73  O   UNL A   1      34.733  31.510  28.658  1.00  0.00    -0.744 OA
ENDBRANCH  67  70
ENDBRANCH  49  63
BRANCH  50  74
ATOM     74  C   UNL A   1      47.095  27.510  25.917  1.00  0.00     0.023 A 
ATOM     75  C   UNL A   1      48.124  26.859  26.623  1.00  0.00     0.012 A 
ATOM     76  C   UNL A   1      47.256  27.761  24.542  1.00  0.00     0.148 A 
ATOM     77  C   UNL A   1      49.304  26.487  25.978  1.00  0.00     0.002 A 
ATOM     78  C   UNL A   1      48.414  27.343  23.894  1.00  0.00     0.091 A 
ATOM     79  F   UNL A   1      46.273  28.399  23.890  1.00  0.00    -0.205 F 
ATOM     80  C   UNL A   1      49.445  26.718  24.612  1.00  0.00     0.022 A 
BRANCH  78  81
ATOM     81  S   UNL A   1      48.612  27.486  22.114  1.00  0.00     0.127 S 
ATOM     82  O   UNL A   1      49.815  28.307  22.010  1.00  0.00    -0.237 OA
ATOM     83  O   UNL A   1      48.781  26.090  21.708  1.00  0.00    -0.237 OA
ATOM     84  O   UNL A   1      47.377  28.097  21.638  1.00  0.00    -0.744 OA
ENDBRANCH  78  81
ENDBRANCH  50  74
BRANCH  62  85
ATOM     85  C   UNL A   1      45.062  33.149  29.499  1.00  0.00     0.023 A 
ATOM     86  C   UNL A   1      45.882  33.247  30.640  1.00  0.00     0.012 A 
ATOM     87  C   UNL A   1      44.946  34.252  28.631  1.00  0.00     0.148 A 
ATOM     88  C   UNL A   1      46.560  34.431  30.924  1.00  0.00     0.002 A 
ATOM     89  C   UNL A   1      45.656  35.417  28.901  1.00  0.00     0.091 A 
ATOM     90  F   UNL A   1      44.141  34.148  27.564  1.00  0.00    -0.205 F 
ATOM     91  C   UNL A   1      46.457  35.510  30.051  1.00  0.00     0.022 A 
BRANCH  89  92
ATOM     92  S   UNL A   1      45.645  36.821  27.779  1.00  0.00     0.127 S 
ATOM     93  O   UNL A   1      46.385  37.822  28.546  1.00  0.00    -0.237 OA
ATOM     94  O   UNL A   1      46.357  36.299  26.612  1.00  0.00    -0.237 OA
ATOM     95  O   UNL A   1      44.240  37.120  27.539  1.00  0.00    -0.744 OA
ENDBRANCH  89  92
ENDBRANCH  62  85
ENDBRANCH  36  37
ENDBRANCH  28  31
ENDBRANCH  26  27
ENDBRANCH  25  26
ENDBRANCH   1  25
TORSDOF 17
ENDMDL
