MODEL 1
REMARK VINA RESULT:      -9.9      0.000      0.000
REMARK SMILES COc1cc(C(=O)CCC(=O)NCCCNC(=O)c2ccc(-c3c4nc(c(-c5cccc(S(=O)(=O)[O-])c5F)c5ccc([nH]5)c(-c5cccc(S(=O)(=O)[O-])c5F)c5nc(c(-c6cccc(S(=O)(=O)[O-])c6F)c6ccc3[nH]6)C=C5)C=C4)cc2)cc(OC)c1OC
REMARK SMILES IDX 13 1 12 2 10 3 11 4 9 6 8 7 6 8 7 9 5 10 3 11 4 12 86 13
REMARK SMILES IDX 83 14 82 15 2 16 1 17 87 18 88 19 84 20 85 21 14 22 15 23
REMARK SMILES IDX 16 24 17 25 18 27 19 28 20 29 81 30 21 31 80 32 22 33 23 34
REMARK SMILES IDX 24 35 74 36 25 37 79 38 73 39 75 40 26 41 78 42 72 43 71 44
REMARK SMILES IDX 27 46 59 47 39 48 58 49 40 50 43 51 57 52 76 53 41 54 42 55
REMARK SMILES IDX 56 57 77 58 44 59 28 60 29 61 37 62 30 63 32 64 38 65 31 66
REMARK SMILES IDX 33 67 34 68 35 69 36 70 60 71 61 72 69 73 62 74 64 75 70 76
REMARK SMILES IDX 63 77 65 78 66 79 67 80 68 81 45 82 46 83 54 84 47 85 49 86
REMARK SMILES IDX 55 87 48 88 50 89 51 90 52 91 53 92
REMARK H PARENT 12 5 16 26 75 45 43 56
REMARK Flexibility Score: inf
ROOT
ATOM      1  C   UNL A   1      34.398  25.265  25.358  1.00  0.00     0.117 C 
ENDROOT
BRANCH   1   2
ATOM      2  N   UNL A   1      34.411  24.075  26.219  1.00  0.00    -0.356 N 
ATOM      3  C   UNL A   1      34.413  22.743  25.939  1.00  0.00     0.220 C 
ATOM      4  O   UNL A   1      34.381  21.950  26.883  1.00  0.00    -0.275 OA
ATOM      5  H   UNL A   1      34.423  24.280  27.181  1.00  0.00     0.163 HD
BRANCH   3   6
ATOM      6  C   UNL A   1      34.432  22.242  24.515  1.00  0.00     0.108 C 
BRANCH   6   7
ATOM      7  C   UNL A   1      33.327  21.214  24.279  1.00  0.00     0.091 C 
BRANCH   7   8
ATOM      8  C   UNL A   1      32.367  21.712  23.215  1.00  0.00     0.163 C 
ATOM      9  O   UNL A   1      31.954  20.926  22.362  1.00  0.00    -0.294 OA
BRANCH   8  10
ATOM     10  C   UNL A   1      32.042  23.172  23.090  1.00  0.00     0.025 A 
ATOM     11  C   UNL A   1      32.538  25.285  21.947  1.00  0.00     0.165 A 
ATOM     12  C   UNL A   1      32.590  23.881  22.013  1.00  0.00     0.062 A 
ATOM     13  C   UNL A   1      31.787  26.001  22.876  1.00  0.00     0.203 A 
ATOM     14  C   UNL A   1      31.220  25.277  23.946  1.00  0.00     0.165 A 
ATOM     15  C   UNL A   1      31.335  23.883  24.048  1.00  0.00     0.062 A 
BRANCH  11  16
ATOM     16  O   UNL A   1      33.248  25.861  20.930  1.00  0.00    -0.493 OA
ATOM     17  C   UNL A   1      32.639  25.711  19.646  1.00  0.00     0.278 C 
ENDBRANCH  11  16
BRANCH  13  18
ATOM     18  O   UNL A   1      31.541  27.345  22.882  1.00  0.00    -0.490 OA
ATOM     19  C   UNL A   1      30.398  27.892  22.245  1.00  0.00     0.278 C 
ENDBRANCH  13  18
BRANCH  14  20
ATOM     20  O   UNL A   1      30.501  25.854  24.969  1.00  0.00    -0.493 OA
ATOM     21  C   UNL A   1      29.102  25.908  24.700  1.00  0.00     0.278 C 
ENDBRANCH  14  20
ENDBRANCH   8  10
ENDBRANCH   7   8
ENDBRANCH   6   7
ENDBRANCH   3   6
ENDBRANCH   1   2
BRANCH   1  22
ATOM     22  C   UNL A   1      33.707  26.454  26.046  1.00  0.00     0.042 C 
BRANCH  22  23
ATOM     23  C   UNL A   1      34.410  27.816  25.969  1.00  0.00     0.118 C 
BRANCH  23  24
ATOM     24  N   UNL A   1      33.768  28.889  26.717  1.00  0.00    -0.352 N 
ATOM     25  C   UNL A   1      34.307  30.036  27.278  1.00  0.00     0.251 C 
ATOM     26  H   UNL A   1      32.798  28.782  26.844  1.00  0.00     0.163 HD
ATOM     27  O   UNL A   1      33.634  31.066  27.196  1.00  0.00    -0.269 OA
BRANCH  25  28
ATOM     28  C   UNL A   1      35.595  30.099  28.046  1.00  0.00     0.039 A 
ATOM     29  C   UNL A   1      35.636  29.668  29.386  1.00  0.00     0.014 A 
ATOM     30  C   UNL A   1      36.811  30.313  27.411  1.00  0.00     0.014 A 
ATOM     31  C   UNL A   1      36.864  29.452  30.066  1.00  0.00     0.010 A 
ATOM     32  C   UNL A   1      38.037  30.147  28.100  1.00  0.00     0.010 A 
ATOM     33  C   UNL A   1      38.091  29.672  29.427  1.00  0.00    -0.014 A 
BRANCH  33  34
ATOM     34  C   UNL A   1      39.399  29.165  29.982  1.00  0.00     0.031 A 
ATOM     35  C   UNL A   1      40.201  29.852  31.065  1.00  0.00     0.074 A 
ATOM     36  C   UNL A   1      39.944  28.072  29.402  1.00  0.00     0.049 A 
ATOM     37  N   UNL A   1      41.323  29.463  31.633  1.00  0.00    -0.248 NA
ATOM     38  C   UNL A   1      39.701  31.135  31.572  1.00  0.00     0.031 C 
ATOM     39  C   UNL A   1      39.332  27.312  28.310  1.00  0.00     0.029 A 
ATOM     40  N   UNL A   1      41.156  27.452  29.596  1.00  0.00    -0.354 N 
ATOM     41  C   UNL A   1      41.663  30.440  32.565  1.00  0.00     0.074 A 
ATOM     42  C   UNL A   1      40.633  31.458  32.469  1.00  0.00     0.031 C 
ATOM     43  C   UNL A   1      40.212  26.410  27.856  1.00  0.00     0.029 A 
ATOM     44  C   UNL A   1      41.429  26.481  28.658  1.00  0.00     0.049 A 
ATOM     45  H   UNL A   1      41.769  27.679  30.332  1.00  0.00     0.167 HD
ATOM     46  C   UNL A   1      42.714  30.475  33.432  1.00  0.00     0.034 A 
ATOM     47  C   UNL A   1      42.520  25.717  28.454  1.00  0.00     0.034 A 
ATOM     48  C   UNL A   1      43.744  29.463  33.528  1.00  0.00     0.049 A 
ATOM     49  C   UNL A   1      43.658  25.757  29.430  1.00  0.00     0.074 A 
ATOM     50  C   UNL A   1      44.746  29.336  34.481  1.00  0.00     0.029 A 
ATOM     51  N   UNL A   1      43.938  28.430  32.625  1.00  0.00    -0.354 N 
ATOM     52  N   UNL A   1      43.810  26.520  30.483  1.00  0.00    -0.248 NA
ATOM     53  C   UNL A   1      44.737  24.775  29.236  1.00  0.00     0.031 C 
ATOM     54  C   UNL A   1      45.559  28.248  34.137  1.00  0.00     0.029 A 
ATOM     55  C   UNL A   1      45.056  27.683  32.978  1.00  0.00     0.049 A 
ATOM     56  H   UNL A   1      43.366  28.250  31.844  1.00  0.00     0.167 HD
ATOM     57  C   UNL A   1      44.975  26.084  31.103  1.00  0.00     0.074 A 
ATOM     58  C   UNL A   1      45.484  24.982  30.313  1.00  0.00     0.031 C 
ATOM     59  C   UNL A   1      45.563  26.563  32.227  1.00  0.00     0.034 A 
BRANCH  46  60
ATOM     60  C   UNL A   1      42.780  31.604  34.441  1.00  0.00     0.023 A 
ATOM     61  C   UNL A   1      43.400  32.813  34.064  1.00  0.00     0.012 A 
ATOM     62  C   UNL A   1      42.112  31.538  35.684  1.00  0.00     0.148 A 
ATOM     63  C   UNL A   1      43.381  33.923  34.909  1.00  0.00     0.002 A 
ATOM     64  C   UNL A   1      42.071  32.662  36.509  1.00  0.00     0.091 A 
ATOM     65  F   UNL A   1      41.523  30.386  36.035  1.00  0.00    -0.205 F 
ATOM     66  C   UNL A   1      42.710  33.852  36.125  1.00  0.00     0.022 A 
BRANCH  64  67
ATOM     67  S   UNL A   1      41.164  32.697  38.063  1.00  0.00     0.127 S 
ATOM     68  O   UNL A   1      39.865  32.164  37.657  1.00  0.00    -0.237 OA
ATOM     69  O   UNL A   1      41.951  31.796  38.907  1.00  0.00    -0.237 OA
ATOM     70  O   UNL A   1      41.168  34.086  38.496  1.00  0.00    -0.744 OA
ENDBRANCH  64  67
ENDBRANCH  46  60
BRANCH  47  71
ATOM     71  C   UNL A   1      42.511  24.749  27.323  1.00  0.00     0.023 A 
ATOM     72  C   UNL A   1      43.119  25.116  26.108  1.00  0.00     0.012 A 
ATOM     73  C   UNL A   1      41.991  23.450  27.477  1.00  0.00     0.148 A 
ATOM     74  C   UNL A   1      43.201  24.206  25.056  1.00  0.00     0.002 A 
ATOM     75  C   UNL A   1      42.114  22.534  26.438  1.00  0.00     0.091 A 
ATOM     76  F   UNL A   1      41.409  23.130  28.642  1.00  0.00    -0.205 F 
ATOM     77  C   UNL A   1      42.710  22.913  25.225  1.00  0.00     0.022 A 
BRANCH  75  78
ATOM     78  S   UNL A   1      41.617  20.815  26.606  1.00  0.00     0.127 S 
ATOM     79  O   UNL A   1      42.175  20.473  27.916  1.00  0.00    -0.237 OA
ATOM     80  O   UNL A   1      40.156  20.917  26.573  1.00  0.00    -0.237 OA
ATOM     81  O   UNL A   1      42.197  20.123  25.471  1.00  0.00    -0.744 OA
ENDBRANCH  75  78
ENDBRANCH  47  71
BRANCH  59  82
ATOM     82  C   UNL A   1      46.835  25.895  32.688  1.00  0.00     0.023 A 
ATOM     83  C   UNL A   1      48.074  26.339  32.182  1.00  0.00     0.012 A 
ATOM     84  C   UNL A   1      46.816  24.856  33.640  1.00  0.00     0.148 A 
ATOM     85  C   UNL A   1      49.267  25.740  32.589  1.00  0.00     0.002 A 
ATOM     86  C   UNL A   1      48.012  24.289  34.070  1.00  0.00     0.091 A 
ATOM     87  F   UNL A   1      45.630  24.428  34.097  1.00  0.00    -0.205 F 
ATOM     88  C   UNL A   1      49.237  24.721  33.538  1.00  0.00     0.022 A 
BRANCH  86  89
ATOM     89  S   UNL A   1      48.080  23.021  35.344  1.00  0.00     0.127 S 
ATOM     90  O   UNL A   1      47.317  21.936  34.728  1.00  0.00    -0.237 OA
ATOM     91  O   UNL A   1      49.517  22.767  35.457  1.00  0.00    -0.237 OA
ATOM     92  O   UNL A   1      47.478  23.614  36.530  1.00  0.00    -0.744 OA
ENDBRANCH  86  89
ENDBRANCH  59  82
ENDBRANCH  33  34
ENDBRANCH  25  28
ENDBRANCH  23  24
ENDBRANCH  22  23
ENDBRANCH   1  22
TORSDOF 19
ENDMDL
MODEL 2
REMARK VINA RESULT:      -9.8      1.535      3.088
REMARK SMILES COc1cc(C(=O)CCC(=O)NCCCNC(=O)c2ccc(-c3c4nc(c(-c5cccc(S(=O)(=O)[O-])c5F)c5ccc([nH]5)c(-c5cccc(S(=O)(=O)[O-])c5F)c5nc(c(-c6cccc(S(=O)(=O)[O-])c6F)c6ccc3[nH]6)C=C5)C=C4)cc2)cc(OC)c1OC
REMARK SMILES IDX 13 1 12 2 10 3 11 4 9 6 8 7 6 8 7 9 5 10 3 11 4 12 86 13
REMARK SMILES IDX 83 14 82 15 2 16 1 17 87 18 88 19 84 20 85 21 14 22 15 23
REMARK SMILES IDX 16 24 17 25 18 27 19 28 20 29 81 30 21 31 80 32 22 33 23 34
REMARK SMILES IDX 24 35 74 36 25 37 79 38 73 39 75 40 26 41 78 42 72 43 71 44
REMARK SMILES IDX 27 46 59 47 39 48 58 49 40 50 43 51 57 52 76 53 41 54 42 55
REMARK SMILES IDX 56 57 77 58 44 59 28 60 29 61 37 62 30 63 32 64 38 65 31 66
REMARK SMILES IDX 33 67 34 68 35 69 36 70 60 71 61 72 69 73 62 74 64 75 70 76
REMARK SMILES IDX 63 77 65 78 66 79 67 80 68 81 45 82 46 83 54 84 47 85 49 86
REMARK SMILES IDX 55 87 48 88 50 89 51 90 52 91 53 92
REMARK H PARENT 12 5 16 26 75 45 43 56
REMARK Flexibility Score: inf
ROOT
ATOM      1  C   UNL A   1      32.012  26.763  25.610  1.00  0.00     0.117 C 
ENDROOT
BRANCH   1   2
ATOM      2  N   UNL A   1      31.774  27.970  24.809  1.00  0.00    -0.356 N 
ATOM      3  C   UNL A   1      31.690  28.176  23.466  1.00  0.00     0.220 C 
ATOM      4  O   UNL A   1      31.519  29.330  23.064  1.00  0.00    -0.275 OA
ATOM      5  H   UNL A   1      31.648  28.786  25.346  1.00  0.00     0.163 HD
BRANCH   3   6
ATOM      6  C   UNL A   1      31.821  27.032  22.489  1.00  0.00     0.108 C 
BRANCH   6   7
ATOM      7  C   UNL A   1      33.281  26.615  22.326  1.00  0.00     0.091 C 
BRANCH   7   8
ATOM      8  C   UNL A   1      33.368  25.145  21.960  1.00  0.00     0.163 C 
ATOM      9  O   UNL A   1      33.156  24.801  20.797  1.00  0.00    -0.294 OA
BRANCH   8  10
ATOM     10  C   UNL A   1      33.547  24.096  23.018  1.00  0.00     0.025 A 
ATOM     11  C   UNL A   1      32.475  22.765  24.778  1.00  0.00     0.165 A 
ATOM     12  C   UNL A   1      32.400  23.567  23.626  1.00  0.00     0.062 A 
ATOM     13  C   UNL A   1      33.713  22.334  25.251  1.00  0.00     0.203 A 
ATOM     14  C   UNL A   1      34.863  22.855  24.621  1.00  0.00     0.165 A 
ATOM     15  C   UNL A   1      34.785  23.713  23.514  1.00  0.00     0.062 A 
BRANCH  11  16
ATOM     16  O   UNL A   1      31.280  22.448  25.362  1.00  0.00    -0.493 OA
ATOM     17  C   UNL A   1      30.672  23.538  26.058  1.00  0.00     0.278 C 
ENDBRANCH  11  16
BRANCH  13  18
ATOM     18  O   UNL A   1      33.949  21.466  26.278  1.00  0.00    -0.490 OA
ATOM     19  C   UNL A   1      33.693  21.826  27.627  1.00  0.00     0.278 C 
ENDBRANCH  13  18
BRANCH  14  20
ATOM     20  O   UNL A   1      36.151  22.566  25.013  1.00  0.00    -0.493 OA
ATOM     21  C   UNL A   1      37.039  22.394  23.910  1.00  0.00     0.278 C 
ENDBRANCH  14  20
ENDBRANCH   8  10
ENDBRANCH   7   8
ENDBRANCH   6   7
ENDBRANCH   3   6
ENDBRANCH   1   2
BRANCH   1  22
ATOM     22  C   UNL A   1      33.487  26.645  26.030  1.00  0.00     0.042 C 
BRANCH  22  23
ATOM     23  C   UNL A   1      34.318  27.934  26.048  1.00  0.00     0.118 C 
BRANCH  23  24
ATOM     24  N   UNL A   1      33.720  29.049  26.772  1.00  0.00    -0.352 N 
ATOM     25  C   UNL A   1      34.307  30.178  27.320  1.00  0.00     0.251 C 
ATOM     26  H   UNL A   1      32.745  28.989  26.891  1.00  0.00     0.163 HD
ATOM     27  O   UNL A   1      33.684  31.237  27.214  1.00  0.00    -0.269 OA
BRANCH  25  28
ATOM     28  C   UNL A   1      35.589  30.194  28.099  1.00  0.00     0.039 A 
ATOM     29  C   UNL A   1      35.589  29.839  29.462  1.00  0.00     0.014 A 
ATOM     30  C   UNL A   1      36.824  30.284  27.468  1.00  0.00     0.014 A 
ATOM     31  C   UNL A   1      36.792  29.576  30.169  1.00  0.00     0.010 A 
ATOM     32  C   UNL A   1      38.028  30.071  28.182  1.00  0.00     0.010 A 
ATOM     33  C   UNL A   1      38.037  29.672  29.534  1.00  0.00    -0.014 A 
BRANCH  33  34
ATOM     34  C   UNL A   1      39.300  29.106  30.133  1.00  0.00     0.031 A 
ATOM     35  C   UNL A   1      40.047  29.711  31.302  1.00  0.00     0.074 A 
ATOM     36  C   UNL A   1      39.860  28.038  29.522  1.00  0.00     0.049 A 
ATOM     37  N   UNL A   1      41.126  29.266  31.910  1.00  0.00    -0.248 NA
ATOM     38  C   UNL A   1      39.540  30.972  31.854  1.00  0.00     0.031 C 
ATOM     39  C   UNL A   1      39.303  27.357  28.351  1.00  0.00     0.029 A 
ATOM     40  N   UNL A   1      41.049  27.383  29.749  1.00  0.00    -0.354 N 
ATOM     41  C   UNL A   1      41.426  30.178  32.918  1.00  0.00     0.074 A 
ATOM     42  C   UNL A   1      40.420  31.222  32.823  1.00  0.00     0.031 C 
ATOM     43  C   UNL A   1      40.194  26.466  27.896  1.00  0.00     0.029 A 
ATOM     44  C   UNL A   1      41.361  26.464  28.772  1.00  0.00     0.049 A 
ATOM     45  H   UNL A   1      41.620  27.554  30.533  1.00  0.00     0.167 HD
ATOM     46  C   UNL A   1      42.423  30.141  33.846  1.00  0.00     0.034 A 
ATOM     47  C   UNL A   1      42.449  25.691  28.587  1.00  0.00     0.034 A 
ATOM     48  C   UNL A   1      43.428  29.104  33.941  1.00  0.00     0.049 A 
ATOM     49  C   UNL A   1      43.527  25.650  29.629  1.00  0.00     0.074 A 
ATOM     50  C   UNL A   1      44.369  28.901  34.943  1.00  0.00     0.029 A 
ATOM     51  N   UNL A   1      43.659  28.123  32.991  1.00  0.00    -0.354 N 
ATOM     52  N   UNL A   1      43.628  26.346  30.733  1.00  0.00    -0.248 NA
ATOM     53  C   UNL A   1      44.598  24.660  29.440  1.00  0.00     0.031 C 
ATOM     54  C   UNL A   1      45.183  27.818  34.582  1.00  0.00     0.029 A 
ATOM     55  C   UNL A   1      44.741  27.333  33.364  1.00  0.00     0.049 A 
ATOM     56  H   UNL A   1      43.132  28.001  32.168  1.00  0.00     0.167 HD
ATOM     57  C   UNL A   1      44.746  25.850  31.394  1.00  0.00     0.074 A 
ATOM     58  C   UNL A   1      45.283  24.787  30.570  1.00  0.00     0.031 C 
ATOM     59  C   UNL A   1      45.273  26.250  32.577  1.00  0.00     0.034 A 
BRANCH  46  60
ATOM     60  C   UNL A   1      42.447  31.206  34.924  1.00  0.00     0.023 A 
ATOM     61  C   UNL A   1      41.838  30.926  36.165  1.00  0.00     0.012 A 
ATOM     62  C   UNL A   1      43.186  32.401  34.781  1.00  0.00     0.148 A 
ATOM     63  C   UNL A   1      41.937  31.820  37.231  1.00  0.00     0.002 A 
ATOM     64  C   UNL A   1      43.307  33.275  35.861  1.00  0.00     0.091 A 
ATOM     65  F   UNL A   1      43.764  32.660  33.600  1.00  0.00    -0.205 F 
ATOM     66  C   UNL A   1      42.677  32.989  37.083  1.00  0.00     0.022 A 
BRANCH  64  67
ATOM     67  S   UNL A   1      44.305  34.771  35.798  1.00  0.00     0.127 S 
ATOM     68  O   UNL A   1      44.052  35.348  37.117  1.00  0.00    -0.237 OA
ATOM     69  O   UNL A   1      45.657  34.239  35.618  1.00  0.00    -0.237 OA
ATOM     70  O   UNL A   1      43.802  35.538  34.668  1.00  0.00    -0.744 OA
ENDBRANCH  64  67
ENDBRANCH  46  60
BRANCH  47  71
ATOM     71  C   UNL A   1      42.492  24.793  27.401  1.00  0.00     0.023 A 
ATOM     72  C   UNL A   1      43.132  25.240  26.230  1.00  0.00     0.012 A 
ATOM     73  C   UNL A   1      41.990  23.479  27.461  1.00  0.00     0.148 A 
ATOM     74  C   UNL A   1      43.262  24.396  25.129  1.00  0.00     0.002 A 
ATOM     75  C   UNL A   1      42.160  22.629  26.374  1.00  0.00     0.091 A 
ATOM     76  F   UNL A   1      41.377  23.082  28.585  1.00  0.00    -0.205 F 
ATOM     77  C   UNL A   1      42.788  23.088  25.205  1.00  0.00     0.022 A 
BRANCH  75  78
ATOM     78  S   UNL A   1      41.687  20.896  26.424  1.00  0.00     0.127 S 
ATOM     79  O   UNL A   1      40.264  20.967  26.090  1.00  0.00    -0.237 OA
ATOM     80  O   UNL A   1      42.532  20.321  25.373  1.00  0.00    -0.237 OA
ATOM     81  O   UNL A   1      42.001  20.439  27.764  1.00  0.00    -0.744 OA
ENDBRANCH  75  78
ENDBRANCH  47  71
BRANCH  59  82
ATOM     82  C   UNL A   1      46.504  25.530  33.072  1.00  0.00     0.023 A 
ATOM     83  C   UNL A   1      47.780  26.048  32.766  1.00  0.00     0.012 A 
ATOM     84  C   UNL A   1      46.408  24.367  33.861  1.00  0.00     0.148 A 
ATOM     85  C   UNL A   1      48.936  25.403  33.208  1.00  0.00     0.002 A 
ATOM     86  C   UNL A   1      47.564  23.750  34.331  1.00  0.00     0.091 A 
ATOM     87  F   UNL A   1      45.189  23.872  34.126  1.00  0.00    -0.205 F 
ATOM     88  C   UNL A   1      48.828  24.260  33.996  1.00  0.00     0.022 A 
BRANCH  86  89
ATOM     89  S   UNL A   1      47.524  22.315  35.414  1.00  0.00     0.127 S 
ATOM     90  O   UNL A   1      46.997  21.282  34.524  1.00  0.00    -0.237 OA
ATOM     91  O   UNL A   1      48.935  22.152  35.768  1.00  0.00    -0.237 OA
ATOM     92  O   UNL A   1      46.663  22.681  36.530  1.00  0.00    -0.744 OA
ENDBRANCH  86  89
ENDBRANCH  59  82
ENDBRANCH  33  34
ENDBRANCH  25  28
ENDBRANCH  23  24
ENDBRANCH  22  23
ENDBRANCH   1  22
TORSDOF 19
ENDMDL
MODEL 3
REMARK VINA RESULT:      -9.6      3.062      8.643
REMARK SMILES COc1cc(C(=O)CCC(=O)NCCCNC(=O)c2ccc(-c3c4nc(c(-c5cccc(S(=O)(=O)[O-])c5F)c5ccc([nH]5)c(-c5cccc(S(=O)(=O)[O-])c5F)c5nc(c(-c6cccc(S(=O)(=O)[O-])c6F)c6ccc3[nH]6)C=C5)C=C4)cc2)cc(OC)c1OC
REMARK SMILES IDX 13 1 12 2 10 3 11 4 9 6 8 7 6 8 7 9 5 10 3 11 4 12 86 13
REMARK SMILES IDX 83 14 82 15 2 16 1 17 87 18 88 19 84 20 85 21 14 22 15 23
REMARK SMILES IDX 16 24 17 25 18 27 19 28 20 29 81 30 21 31 80 32 22 33 23 34
REMARK SMILES IDX 24 35 74 36 25 37 79 38 73 39 75 40 26 41 78 42 72 43 71 44
REMARK SMILES IDX 27 46 59 47 39 48 58 49 40 50 43 51 57 52 76 53 41 54 42 55
REMARK SMILES IDX 56 57 77 58 44 59 28 60 29 61 37 62 30 63 32 64 38 65 31 66
REMARK SMILES IDX 33 67 34 68 35 69 36 70 60 71 61 72 69 73 62 74 64 75 70 76
REMARK SMILES IDX 63 77 65 78 66 79 67 80 68 81 45 82 46 83 54 84 47 85 49 86
REMARK SMILES IDX 55 87 48 88 50 89 51 90 52 91 53 92
REMARK H PARENT 12 5 16 26 75 45 43 56
REMARK Flexibility Score: inf
ROOT
ATOM      1  C   UNL A   1      34.169  29.066  26.384  1.00  0.00     0.117 C 
ENDROOT
BRANCH   1   2
ATOM      2  N   UNL A   1      34.142  29.010  24.916  1.00  0.00    -0.356 N 
ATOM      3  C   UNL A   1      33.769  28.034  24.044  1.00  0.00     0.220 C 
ATOM      4  O   UNL A   1      33.895  28.254  22.837  1.00  0.00    -0.275 OA
ATOM      5  H   UNL A   1      34.451  29.837  24.481  1.00  0.00     0.163 HD
BRANCH   3   6
ATOM      6  C   UNL A   1      33.235  26.709  24.533  1.00  0.00     0.108 C 
BRANCH   6   7
ATOM      7  C   UNL A   1      34.366  25.703  24.737  1.00  0.00     0.091 C 
BRANCH   7   8
ATOM      8  C   UNL A   1      34.241  24.565  23.741  1.00  0.00     0.163 C 
ATOM      9  O   UNL A   1      34.216  24.820  22.537  1.00  0.00    -0.294 OA
BRANCH   8  10
ATOM     10  C   UNL A   1      33.985  23.160  24.203  1.00  0.00     0.025 A 
ATOM     11  C   UNL A   1      32.442  21.633  25.343  1.00  0.00     0.165 A 
ATOM     12  C   UNL A   1      32.706  22.842  24.676  1.00  0.00     0.062 A 
ATOM     13  C   UNL A   1      33.417  20.640  25.403  1.00  0.00     0.203 A 
ATOM     14  C   UNL A   1      34.698  20.960  24.905  1.00  0.00     0.165 A 
ATOM     15  C   UNL A   1      34.978  22.196  24.303  1.00  0.00     0.062 A 
BRANCH  11  16
ATOM     16  O   UNL A   1      31.196  21.516  25.895  1.00  0.00    -0.493 OA
ATOM     17  C   UNL A   1      30.457  22.739  25.914  1.00  0.00     0.278 C 
ENDBRANCH  11  16
BRANCH  13  18
ATOM     18  O   UNL A   1      33.282  19.378  25.907  1.00  0.00    -0.490 OA
ATOM     19  C   UNL A   1      32.673  18.340  25.155  1.00  0.00     0.278 C 
ENDBRANCH  13  18
BRANCH  14  20
ATOM     20  O   UNL A   1      35.775  20.103  24.946  1.00  0.00    -0.493 OA
ATOM     21  C   UNL A   1      37.016  20.763  24.705  1.00  0.00     0.278 C 
ENDBRANCH  14  20
ENDBRANCH   8  10
ENDBRANCH   7   8
ENDBRANCH   6   7
ENDBRANCH   3   6
ENDBRANCH   1   2
BRANCH   1  22
ATOM     22  C   UNL A   1      34.030  30.509  26.898  1.00  0.00     0.042 C 
BRANCH  22  23
ATOM     23  C   UNL A   1      32.635  30.964  27.345  1.00  0.00     0.118 C 
BRANCH  23  24
ATOM     24  N   UNL A   1      32.488  32.398  27.561  1.00  0.00    -0.352 N 
ATOM     25  C   UNL A   1      33.443  33.365  27.828  1.00  0.00     0.251 C 
ATOM     26  H   UNL A   1      31.563  32.731  27.509  1.00  0.00     0.163 HD
ATOM     27  O   UNL A   1      33.294  34.462  27.284  1.00  0.00    -0.269 OA
BRANCH  25  28
ATOM     28  C   UNL A   1      34.586  33.209  28.788  1.00  0.00     0.039 A 
ATOM     29  C   UNL A   1      34.395  32.521  30.002  1.00  0.00     0.014 A 
ATOM     30  C   UNL A   1      35.895  33.481  28.412  1.00  0.00     0.014 A 
ATOM     31  C   UNL A   1      35.488  32.112  30.811  1.00  0.00     0.010 A 
ATOM     32  C   UNL A   1      36.985  33.118  29.240  1.00  0.00     0.010 A 
ATOM     33  C   UNL A   1      36.808  32.390  30.434  1.00  0.00    -0.014 A 
BRANCH  33  34
ATOM     34  C   UNL A   1      37.996  31.716  31.076  1.00  0.00     0.031 A 
ATOM     35  C   UNL A   1      38.735  30.531  30.493  1.00  0.00     0.074 A 
ATOM     36  C   UNL A   1      38.365  32.136  32.307  1.00  0.00     0.049 A 
ATOM     37  N   UNL A   1      39.796  29.910  30.961  1.00  0.00    -0.248 NA
ATOM     38  C   UNL A   1      38.224  29.959  29.242  1.00  0.00     0.031 C 
ATOM     39  C   UNL A   1      37.732  33.233  33.041  1.00  0.00     0.029 A 
ATOM     40  N   UNL A   1      39.308  31.653  33.185  1.00  0.00    -0.354 N 
ATOM     41  C   UNL A   1      40.090  28.883  30.068  1.00  0.00     0.074 A 
ATOM     42  C   UNL A   1      39.072  28.951  29.034  1.00  0.00     0.031 C 
ATOM     43  C   UNL A   1      38.218  33.265  34.289  1.00  0.00     0.029 A 
ATOM     44  C   UNL A   1      39.240  32.233  34.432  1.00  0.00     0.049 A 
ATOM     45  H   UNL A   1      39.967  30.962  32.945  1.00  0.00     0.167 HD
ATOM     46  C   UNL A   1      41.116  27.988  30.090  1.00  0.00     0.034 A 
ATOM     47  C   UNL A   1      39.918  31.987  35.570  1.00  0.00     0.034 A 
ATOM     48  C   UNL A   1      42.131  27.916  31.120  1.00  0.00     0.049 A 
ATOM     49  C   UNL A   1      41.057  31.012  35.569  1.00  0.00     0.074 A 
ATOM     50  C   UNL A   1      43.293  27.154  31.139  1.00  0.00     0.029 A 
ATOM     51  N   UNL A   1      42.094  28.590  32.330  1.00  0.00    -0.354 N 
ATOM     52  N   UNL A   1      41.485  30.250  34.594  1.00  0.00    -0.248 NA
ATOM     53  C   UNL A   1      41.857  30.921  36.801  1.00  0.00     0.031 C 
ATOM     54  C   UNL A   1      43.937  27.348  32.368  1.00  0.00     0.029 A 
ATOM     55  C   UNL A   1      43.189  28.242  33.112  1.00  0.00     0.049 A 
ATOM     56  H   UNL A   1      41.391  29.226  32.598  1.00  0.00     0.167 HD
ATOM     57  C   UNL A   1      42.629  29.623  35.077  1.00  0.00     0.074 A 
ATOM     58  C   UNL A   1      42.832  30.102  36.428  1.00  0.00     0.031 C 
ATOM     59  C   UNL A   1      43.430  28.730  34.446  1.00  0.00     0.034 A 
BRANCH  46  60
ATOM     60  C   UNL A   1      41.281  27.046  28.914  1.00  0.00     0.023 A 
ATOM     61  C   UNL A   1      40.436  25.920  28.827  1.00  0.00     0.012 A 
ATOM     62  C   UNL A   1      42.140  27.341  27.832  1.00  0.00     0.148 A 
ATOM     63  C   UNL A   1      40.462  25.090  27.706  1.00  0.00     0.002 A 
ATOM     64  C   UNL A   1      42.137  26.524  26.702  1.00  0.00     0.091 A 
ATOM     65  F   UNL A   1      42.938  28.414  27.922  1.00  0.00    -0.205 F 
ATOM     66  C   UNL A   1      41.303  25.395  26.641  1.00  0.00     0.022 A 
BRANCH  64  67
ATOM     67  S   UNL A   1      43.128  26.876  25.242  1.00  0.00     0.127 S 
ATOM     68  O   UNL A   1      44.416  27.226  25.839  1.00  0.00    -0.237 OA
ATOM     69  O   UNL A   1      43.115  25.594  24.536  1.00  0.00    -0.237 OA
ATOM     70  O   UNL A   1      42.442  27.956  24.546  1.00  0.00    -0.744 OA
ENDBRANCH  64  67
ENDBRANCH  46  60
BRANCH  47  71
ATOM     71  C   UNL A   1      39.597  32.793  36.779  1.00  0.00     0.023 A 
ATOM     72  C   UNL A   1      40.166  34.073  36.915  1.00  0.00     0.012 A 
ATOM     73  C   UNL A   1      38.669  32.339  37.736  1.00  0.00     0.148 A 
ATOM     74  C   UNL A   1      39.824  34.888  37.993  1.00  0.00     0.002 A 
ATOM     75  C   UNL A   1      38.302  33.173  38.786  1.00  0.00     0.091 A 
ATOM     76  F   UNL A   1      38.150  31.112  37.588  1.00  0.00    -0.205 F 
ATOM     77  C   UNL A   1      38.884  34.443  38.920  1.00  0.00     0.022 A 
BRANCH  75  78
ATOM     78  S   UNL A   1      37.014  32.732  39.960  1.00  0.00     0.127 S 
ATOM     79  O   UNL A   1      37.537  31.483  40.517  1.00  0.00    -0.237 OA
ATOM     80  O   UNL A   1      37.044  33.871  40.883  1.00  0.00    -0.237 OA
ATOM     81  O   UNL A   1      35.795  32.618  39.184  1.00  0.00    -0.744 OA
ENDBRANCH  75  78
ENDBRANCH  47  71
BRANCH  59  82
ATOM     82  C   UNL A   1      44.622  28.202  35.207  1.00  0.00     0.023 A 
ATOM     83  C   UNL A   1      45.876  28.828  35.054  1.00  0.00     0.012 A 
ATOM     84  C   UNL A   1      44.502  27.113  36.094  1.00  0.00     0.148 A 
ATOM     85  C   UNL A   1      46.995  28.360  35.744  1.00  0.00     0.002 A 
ATOM     86  C   UNL A   1      45.615  26.676  36.808  1.00  0.00     0.091 A 
ATOM     87  F   UNL A   1      43.309  26.512  36.213  1.00  0.00    -0.205 F 
ATOM     88  C   UNL A   1      46.864  27.291  36.626  1.00  0.00     0.022 A 
BRANCH  86  89
ATOM     89  S   UNL A   1      45.527  25.353  38.023  1.00  0.00     0.127 S 
ATOM     90  O   UNL A   1      44.513  25.860  38.946  1.00  0.00    -0.237 OA
ATOM     91  O   UNL A   1      45.096  24.213  37.212  1.00  0.00    -0.237 OA
ATOM     92  O   UNL A   1      46.869  25.227  38.574  1.00  0.00    -0.744 OA
ENDBRANCH  86  89
ENDBRANCH  59  82
ENDBRANCH  33  34
ENDBRANCH  25  28
ENDBRANCH  23  24
ENDBRANCH  22  23
ENDBRANCH   1  22
TORSDOF 19
ENDMDL
