MODEL 1
REMARK VINA RESULT:     -12.6      0.000      0.000
REMARK SMILES CS(=O)(=O)c1ccc(C2=NN(c3ccc(C(=O)NCCCNC(=O)c4ccc(-c5c6nc(c(-c7cccc(S(=O)(=O)[O-])c7F)c7ccc([nH]7)c(-c7cccc(S(=O)(=O)[O-])c7F)c7nc(c(-c8cccc(S(=O)(=O)[O-])c8F)c8ccc5[nH]8)C=C7)C=C6)cc4)cc3)[C@H](c3cccs3)C2)cc1
REMARK SMILES IDX 20 1 19 2 18 3 16 4 17 5 15 7 12 8 13 9 89 10 14 11 88 12
REMARK SMILES IDX 11 13 9 14 10 15 96 16 90 17 8 18 5 19 6 20 98 21 7 22 97 23
REMARK SMILES IDX 2 24 1 25 3 26 4 27 91 28 92 29 95 30 93 31 94 32 21 33
REMARK SMILES IDX 22 34 23 35 24 37 25 38 26 39 87 40 27 41 86 42 28 43 29 44
REMARK SMILES IDX 30 45 80 46 31 47 85 48 79 49 81 50 32 51 84 52 78 53 77 54
REMARK SMILES IDX 33 56 65 57 45 58 64 59 46 60 49 61 63 62 82 63 47 64 48 65
REMARK SMILES IDX 62 67 83 68 50 69 34 70 35 71 43 72 36 73 38 74 44 75 37 76
REMARK SMILES IDX 39 77 40 78 41 79 42 80 66 81 67 82 75 83 68 84 70 85 76 86
REMARK SMILES IDX 69 87 71 88 72 89 73 90 74 91 51 92 52 93 60 94 53 95 55 96
REMARK SMILES IDX 61 97 54 98 56 99 57 100 58 101 59 102
REMARK H PARENT 18 6 22 36 81 55 49 66
REMARK Flexibility Score: inf
ROOT
ATOM      1  C   UNL A   1      31.538  31.868  26.654  1.00  0.00     0.042 C 
ENDROOT
BRANCH   1   2
ATOM      2  C   UNL A   1      31.785  30.458  26.122  1.00  0.00     0.118 C 
BRANCH   2   3
ATOM      3  N   UNL A   1      31.451  30.357  24.712  1.00  0.00    -0.352 N 
ATOM      4  C   UNL A   1      31.646  29.349  23.802  1.00  0.00     0.251 C 
ATOM      5  O   UNL A   1      31.164  29.484  22.677  1.00  0.00    -0.269 OA
ATOM      6  H   UNL A   1      31.006  31.155  24.344  1.00  0.00     0.163 HD
BRANCH   4   7
ATOM      7  C   UNL A   1      32.346  28.084  24.150  1.00  0.00     0.039 A 
ATOM      8  C   UNL A   1      33.582  25.600  24.654  1.00  0.00     0.060 A 
ATOM      9  C   UNL A   1      33.525  26.114  23.356  1.00  0.00     0.029 A 
ATOM     10  C   UNL A   1      33.091  26.380  25.701  1.00  0.00     0.029 A 
ATOM     11  C   UNL A   1      32.905  27.343  23.102  1.00  0.00     0.016 A 
ATOM     12  C   UNL A   1      32.503  27.621  25.456  1.00  0.00     0.016 A 
BRANCH   8  13
ATOM     13  N   UNL A   1      34.153  24.372  24.922  1.00  0.00    -0.257 N 
ATOM     14  C   UNL A   1      35.777  23.043  25.169  1.00  0.00     0.071 C 
ATOM     15  N   UNL A   1      35.480  24.301  25.154  1.00  0.00    -0.176 NA
ATOM     16  C   UNL A   1      34.659  22.094  24.840  1.00  0.00     0.091 C 
ATOM     17  C   UNL A   1      33.480  23.080  24.758  1.00  0.00     0.154 C 
BRANCH  14  18
ATOM     18  C   UNL A   1      37.123  22.576  25.503  1.00  0.00    -0.002 A 
ATOM     19  C   UNL A   1      39.723  21.808  26.090  1.00  0.00     0.067 A 
ATOM     20  C   UNL A   1      39.283  23.076  26.472  1.00  0.00     0.021 A 
ATOM     21  C   UNL A   1      38.870  20.926  25.409  1.00  0.00     0.021 A 
ATOM     22  C   UNL A   1      37.980  23.464  26.164  1.00  0.00     0.011 A 
ATOM     23  C   UNL A   1      37.558  21.306  25.124  1.00  0.00     0.011 A 
BRANCH  19  24
ATOM     24  S   UNL A   1      41.383  21.263  26.416  1.00  0.00     0.175 S 
ATOM     25  C   UNL A   1      41.406  19.503  26.221  1.00  0.00     0.163 C 
ATOM     26  O   UNL A   1      41.643  21.542  27.816  1.00  0.00    -0.224 OA
ATOM     27  O   UNL A   1      42.213  21.843  25.376  1.00  0.00    -0.224 OA
ENDBRANCH  19  24
ENDBRANCH  14  18
BRANCH  17  28
ATOM     28  C   UNL A   1      32.303  22.823  25.691  1.00  0.00     0.030 A 
ATOM     29  C   UNL A   1      30.963  22.807  25.332  1.00  0.00     0.017 A 
ATOM     30  S   UNL A   1      32.468  22.546  27.377  1.00  0.00    -0.147 S 
ATOM     31  C   UNL A   1      30.087  22.587  26.434  1.00  0.00     0.012 A 
ATOM     32  C   UNL A   1      30.782  22.404  27.605  1.00  0.00     0.065 A 
ENDBRANCH  17  28
ENDBRANCH   8  13
ENDBRANCH   4   7
ENDBRANCH   2   3
ENDBRANCH   1   2
BRANCH   1  33
ATOM     33  C   UNL A   1      32.769  32.489  27.303  1.00  0.00     0.118 C 
BRANCH  33  34
ATOM     34  N   UNL A   1      32.574  33.902  27.599  1.00  0.00    -0.352 N 
ATOM     35  C   UNL A   1      33.146  34.682  28.573  1.00  0.00     0.251 C 
ATOM     36  H   UNL A   1      31.935  34.367  27.012  1.00  0.00     0.163 HD
ATOM     37  O   UNL A   1      32.678  35.793  28.807  1.00  0.00    -0.269 OA
BRANCH  35  38
ATOM     38  C   UNL A   1      34.311  34.189  29.336  1.00  0.00     0.039 A 
ATOM     39  C   UNL A   1      34.090  33.442  30.498  1.00  0.00     0.014 A 
ATOM     40  C   UNL A   1      35.616  34.482  28.930  1.00  0.00     0.014 A 
ATOM     41  C   UNL A   1      35.178  32.946  31.219  1.00  0.00     0.010 A 
ATOM     42  C   UNL A   1      36.696  33.917  29.603  1.00  0.00     0.010 A 
ATOM     43  C   UNL A   1      36.489  33.152  30.760  1.00  0.00    -0.014 A 
BRANCH  43  44
ATOM     44  C   UNL A   1      37.656  32.565  31.467  1.00  0.00     0.031 A 
ATOM     45  C   UNL A   1      38.422  31.424  30.852  1.00  0.00     0.074 A 
ATOM     46  C   UNL A   1      37.971  33.003  32.702  1.00  0.00     0.049 A 
ATOM     47  N   UNL A   1      39.426  30.746  31.345  1.00  0.00    -0.248 NA
ATOM     48  C   UNL A   1      37.987  30.965  29.522  1.00  0.00     0.031 C 
ATOM     49  C   UNL A   1      37.255  34.051  33.434  1.00  0.00     0.029 A 
ATOM     50  N   UNL A   1      38.955  32.604  33.571  1.00  0.00    -0.354 N 
ATOM     51  C   UNL A   1      39.718  29.762  30.408  1.00  0.00     0.074 A 
ATOM     52  C   UNL A   1      38.763  29.909  29.331  1.00  0.00     0.031 C 
ATOM     53  C   UNL A   1      37.826  34.215  34.637  1.00  0.00     0.029 A 
ATOM     54  C   UNL A   1      38.921  33.261  34.779  1.00  0.00     0.049 A 
ATOM     55  H   UNL A   1      39.620  31.914  33.352  1.00  0.00     0.167 HD
ATOM     56  C   UNL A   1      40.706  28.836  30.429  1.00  0.00     0.034 A 
ATOM     57  C   UNL A   1      39.678  33.105  35.883  1.00  0.00     0.034 A 
ATOM     58  C   UNL A   1      41.670  28.715  31.489  1.00  0.00     0.049 A 
ATOM     59  C   UNL A   1      40.786  32.088  35.869  1.00  0.00     0.074 A 
ATOM     60  C   UNL A   1      42.762  27.868  31.566  1.00  0.00     0.029 A 
ATOM     61  N   UNL A   1      41.654  29.453  32.662  1.00  0.00    -0.354 N 
ATOM     62  N   UNL A   1      41.142  31.270  34.910  1.00  0.00    -0.248 NA
ATOM     63  C   UNL A   1      41.621  31.997  37.076  1.00  0.00     0.031 C 
ATOM     64  C   UNL A   1      43.384  28.068  32.802  1.00  0.00     0.029 A 
ATOM     65  C   UNL A   1      42.707  29.072  33.476  1.00  0.00     0.049 A 
ATOM     66  H   UNL A   1      40.991  30.146  32.885  1.00  0.00     0.167 HD
ATOM     67  C   UNL A   1      42.266  30.599  35.378  1.00  0.00     0.074 A 
ATOM     68  C   UNL A   1      42.539  31.118  36.702  1.00  0.00     0.031 C 
ATOM     69  C   UNL A   1      42.999  29.633  34.770  1.00  0.00     0.034 A 
BRANCH  56  70
ATOM     70  C   UNL A   1      40.819  27.901  29.252  1.00  0.00     0.023 A 
ATOM     71  C   UNL A   1      40.041  26.726  29.213  1.00  0.00     0.012 A 
ATOM     72  C   UNL A   1      41.650  28.212  28.157  1.00  0.00     0.148 A 
ATOM     73  C   UNL A   1      40.114  25.858  28.125  1.00  0.00     0.002 A 
ATOM     74  C   UNL A   1      41.681  27.368  27.054  1.00  0.00     0.091 A 
ATOM     75  F   UNL A   1      42.398  29.324  28.218  1.00  0.00    -0.205 F 
ATOM     76  C   UNL A   1      40.926  26.184  27.042  1.00  0.00     0.022 A 
BRANCH  74  77
ATOM     77  S   UNL A   1      42.627  27.741  25.573  1.00  0.00     0.127 S 
ATOM     78  O   UNL A   1      43.987  27.821  26.105  1.00  0.00    -0.237 OA
ATOM     79  O   UNL A   1      42.368  26.566  24.740  1.00  0.00    -0.237 OA
ATOM     80  O   UNL A   1      42.085  28.988  25.052  1.00  0.00    -0.744 OA
ENDBRANCH  74  77
ENDBRANCH  56  70
BRANCH  57  81
ATOM     81  C   UNL A   1      39.446  33.971  37.075  1.00  0.00     0.023 A 
ATOM     82  C   UNL A   1      39.823  35.327  37.030  1.00  0.00     0.012 A 
ATOM     83  C   UNL A   1      38.833  33.466  38.238  1.00  0.00     0.148 A 
ATOM     84  C   UNL A   1      39.629  36.156  38.135  1.00  0.00     0.002 A 
ATOM     85  C   UNL A   1      38.589  34.311  39.314  1.00  0.00     0.091 A 
ATOM     86  F   UNL A   1      38.487  32.171  38.262  1.00  0.00    -0.205 F 
ATOM     87  C   UNL A   1      39.003  35.651  39.273  1.00  0.00     0.022 A 
BRANCH  85  88
ATOM     88  S   UNL A   1      37.672  33.785  40.766  1.00  0.00     0.127 S 
ATOM     89  O   UNL A   1      36.472  33.206  40.170  1.00  0.00    -0.237 OA
ATOM     90  O   UNL A   1      38.591  32.819  41.367  1.00  0.00    -0.237 OA
ATOM     91  O   UNL A   1      37.465  34.990  41.560  1.00  0.00    -0.744 OA
ENDBRANCH  85  88
ENDBRANCH  57  81
BRANCH  69  92
ATOM     92  C   UNL A   1      44.207  29.106  35.500  1.00  0.00     0.023 A 
ATOM     93  C   UNL A   1      45.446  29.765  35.389  1.00  0.00     0.012 A 
ATOM     94  C   UNL A   1      44.087  27.997  36.360  1.00  0.00     0.148 A 
ATOM     95  C   UNL A   1      46.557  29.307  36.097  1.00  0.00     0.002 A 
ATOM     96  C   UNL A   1      45.183  27.580  37.105  1.00  0.00     0.091 A 
ATOM     97  F   UNL A   1      42.902  27.372  36.438  1.00  0.00    -0.205 F 
ATOM     98  C   UNL A   1      46.423  28.224  36.964  1.00  0.00     0.022 A 
BRANCH  96  99
ATOM     99  S   UNL A   1      45.079  26.261  38.319  1.00  0.00     0.127 S 
ATOM    100  O   UNL A   1      46.427  26.270  38.886  1.00  0.00    -0.237 OA
ATOM    101  O   UNL A   1      44.036  26.753  39.220  1.00  0.00    -0.237 OA
ATOM    102  O   UNL A   1      44.721  25.058  37.580  1.00  0.00    -0.744 OA
ENDBRANCH  96  99
ENDBRANCH  69  92
ENDBRANCH  43  44
ENDBRANCH  35  38
ENDBRANCH  33  34
ENDBRANCH   1  33
TORSDOF 17
ENDMDL
MODEL 2
REMARK VINA RESULT:     -11.7      1.642      2.122
REMARK SMILES CS(=O)(=O)c1ccc(C2=NN(c3ccc(C(=O)NCCCNC(=O)c4ccc(-c5c6nc(c(-c7cccc(S(=O)(=O)[O-])c7F)c7ccc([nH]7)c(-c7cccc(S(=O)(=O)[O-])c7F)c7nc(c(-c8cccc(S(=O)(=O)[O-])c8F)c8ccc5[nH]8)C=C7)C=C6)cc4)cc3)[C@H](c3cccs3)C2)cc1
REMARK SMILES IDX 20 1 19 2 18 3 16 4 17 5 15 7 12 8 13 9 89 10 14 11 88 12
REMARK SMILES IDX 11 13 9 14 10 15 96 16 90 17 8 18 5 19 6 20 98 21 7 22 97 23
REMARK SMILES IDX 2 24 1 25 3 26 4 27 91 28 92 29 95 30 93 31 94 32 21 33
REMARK SMILES IDX 22 34 23 35 24 37 25 38 26 39 87 40 27 41 86 42 28 43 29 44
REMARK SMILES IDX 30 45 80 46 31 47 85 48 79 49 81 50 32 51 84 52 78 53 77 54
REMARK SMILES IDX 33 56 65 57 45 58 64 59 46 60 49 61 63 62 82 63 47 64 48 65
REMARK SMILES IDX 62 67 83 68 50 69 34 70 35 71 43 72 36 73 38 74 44 75 37 76
REMARK SMILES IDX 39 77 40 78 41 79 42 80 66 81 67 82 75 83 68 84 70 85 76 86
REMARK SMILES IDX 69 87 71 88 72 89 73 90 74 91 51 92 52 93 60 94 53 95 55 96
REMARK SMILES IDX 61 97 54 98 56 99 57 100 58 101 59 102
REMARK H PARENT 18 6 22 36 81 55 49 66
REMARK Flexibility Score: inf
ROOT
ATOM      1  C   UNL A   1      33.143  30.690  26.522  1.00  0.00     0.042 C 
ENDROOT
BRANCH   1   2
ATOM      2  C   UNL A   1      32.463  29.363  26.853  1.00  0.00     0.118 C 
BRANCH   2   3
ATOM      3  N   UNL A   1      31.430  29.041  25.884  1.00  0.00    -0.352 N 
ATOM      4  C   UNL A   1      31.272  27.966  25.046  1.00  0.00     0.251 C 
ATOM      5  O   UNL A   1      30.233  27.890  24.391  1.00  0.00    -0.269 OA
ATOM      6  H   UNL A   1      30.715  29.715  25.816  1.00  0.00     0.163 HD
BRANCH   4   7
ATOM      7  C   UNL A   1      32.271  26.867  24.963  1.00  0.00     0.039 A 
ATOM      8  C   UNL A   1      34.223  24.832  24.991  1.00  0.00     0.060 A 
ATOM      9  C   UNL A   1      33.380  25.022  26.089  1.00  0.00     0.029 A 
ATOM     10  C   UNL A   1      34.020  25.614  23.853  1.00  0.00     0.029 A 
ATOM     11  C   UNL A   1      32.416  26.036  26.081  1.00  0.00     0.016 A 
ATOM     12  C   UNL A   1      33.038  26.603  23.828  1.00  0.00     0.016 A 
BRANCH   8  13
ATOM     13  N   UNL A   1      35.206  23.863  24.993  1.00  0.00    -0.257 N 
ATOM     14  C   UNL A   1      37.142  23.118  25.393  1.00  0.00     0.071 C 
ATOM     15  N   UNL A   1      36.320  24.058  25.728  1.00  0.00    -0.176 NA
ATOM     16  C   UNL A   1      36.694  22.208  24.284  1.00  0.00     0.091 C 
ATOM     17  C   UNL A   1      35.254  22.715  24.080  1.00  0.00     0.154 C 
BRANCH  14  18
ATOM     18  C   UNL A   1      38.428  22.945  26.070  1.00  0.00    -0.002 A 
ATOM     19  C   UNL A   1      40.905  22.738  27.303  1.00  0.00     0.067 A 
ATOM     20  C   UNL A   1      40.187  23.931  27.407  1.00  0.00     0.021 A 
ATOM     21  C   UNL A   1      40.391  21.652  26.579  1.00  0.00     0.021 A 
ATOM     22  C   UNL A   1      38.949  24.036  26.775  1.00  0.00     0.011 A 
ATOM     23  C   UNL A   1      39.140  21.751  25.968  1.00  0.00     0.011 A 
BRANCH  19  24
ATOM     24  S   UNL A   1      42.506  22.549  28.051  1.00  0.00     0.175 S 
ATOM     25  C   UNL A   1      43.661  23.444  27.051  1.00  0.00     0.163 C 
ATOM     26  O   UNL A   1      42.848  21.143  27.946  1.00  0.00    -0.224 OA
ATOM     27  O   UNL A   1      42.429  23.202  29.345  1.00  0.00    -0.224 OA
ENDBRANCH  19  24
ENDBRANCH  14  18
BRANCH  17  28
ATOM     28  C   UNL A   1      34.137  21.692  24.242  1.00  0.00     0.030 A 
ATOM     29  C   UNL A   1      34.122  20.633  25.139  1.00  0.00     0.017 A 
ATOM     30  S   UNL A   1      32.713  21.680  23.284  1.00  0.00    -0.147 S 
ATOM     31  C   UNL A   1      32.960  19.816  25.025  1.00  0.00     0.012 A 
ATOM     32  C   UNL A   1      32.098  20.292  24.066  1.00  0.00     0.065 A 
ENDBRANCH  17  28
ENDBRANCH   8  13
ENDBRANCH   4   7
ENDBRANCH   2   3
ENDBRANCH   1   2
BRANCH   1  33
ATOM     33  C   UNL A   1      33.840  31.323  27.721  1.00  0.00     0.118 C 
BRANCH  33  34
ATOM     34  N   UNL A   1      33.414  32.699  27.935  1.00  0.00    -0.352 N 
ATOM     35  C   UNL A   1      33.795  33.595  28.903  1.00  0.00     0.251 C 
ATOM     36  H   UNL A   1      32.752  33.036  27.289  1.00  0.00     0.163 HD
ATOM     37  O   UNL A   1      33.148  34.628  29.054  1.00  0.00    -0.269 OA
BRANCH  35  38
ATOM     38  C   UNL A   1      34.967  33.318  29.758  1.00  0.00     0.039 A 
ATOM     39  C   UNL A   1      34.843  32.385  30.793  1.00  0.00     0.014 A 
ATOM     40  C   UNL A   1      36.176  33.991  29.563  1.00  0.00     0.014 A 
ATOM     41  C   UNL A   1      35.947  32.091  31.595  1.00  0.00     0.010 A 
ATOM     42  C   UNL A   1      37.296  33.636  30.311  1.00  0.00     0.010 A 
ATOM     43  C   UNL A   1      37.192  32.690  31.341  1.00  0.00    -0.014 A 
BRANCH  43  44
ATOM     44  C   UNL A   1      38.397  32.331  32.130  1.00  0.00     0.031 A 
ATOM     45  C   UNL A   1      39.452  31.433  31.541  1.00  0.00     0.074 A 
ATOM     46  C   UNL A   1      38.499  32.745  33.409  1.00  0.00     0.049 A 
ATOM     47  N   UNL A   1      40.539  30.964  32.098  1.00  0.00    -0.248 NA
ATOM     48  C   UNL A   1      39.247  30.979  30.155  1.00  0.00     0.031 C 
ATOM     49  C   UNL A   1      37.503  33.557  34.115  1.00  0.00     0.029 A 
ATOM     50  N   UNL A   1      39.470  32.518  34.350  1.00  0.00    -0.354 N 
ATOM     51  C   UNL A   1      41.125  30.135  31.149  1.00  0.00     0.074 A 
ATOM     52  C   UNL A   1      40.257  30.137  29.993  1.00  0.00     0.031 C 
ATOM     53  C   UNL A   1      37.919  33.763  35.374  1.00  0.00     0.029 A 
ATOM     54  C   UNL A   1      39.186  33.069  35.578  1.00  0.00     0.049 A 
ATOM     55  H   UNL A   1      40.291  32.009  34.166  1.00  0.00     0.167 HD
ATOM     56  C   UNL A   1      42.293  29.453  31.224  1.00  0.00     0.034 A 
ATOM     57  C   UNL A   1      39.862  33.011  36.743  1.00  0.00     0.034 A 
ATOM     58  C   UNL A   1      43.166  29.479  32.366  1.00  0.00     0.049 A 
ATOM     59  C   UNL A   1      41.170  32.270  36.790  1.00  0.00     0.074 A 
ATOM     60  C   UNL A   1      44.411  28.893  32.510  1.00  0.00     0.029 A 
ATOM     61  N   UNL A   1      42.883  30.114  33.565  1.00  0.00    -0.354 N 
ATOM     62  N   UNL A   1      41.783  31.617  35.833  1.00  0.00    -0.248 NA
ATOM     63  C   UNL A   1      41.898  32.287  38.067  1.00  0.00     0.031 C 
ATOM     64  C   UNL A   1      44.865  29.143  33.809  1.00  0.00     0.029 A 
ATOM     65  C   UNL A   1      43.923  29.924  34.459  1.00  0.00     0.049 A 
ATOM     66  H   UNL A   1      42.063  30.626  33.754  1.00  0.00     0.167 HD
ATOM     67  C   UNL A   1      42.986  31.184  36.378  1.00  0.00     0.074 A 
ATOM     68  C   UNL A   1      43.021  31.661  37.744  1.00  0.00     0.031 C 
ATOM     69  C   UNL A   1      43.968  30.449  35.800  1.00  0.00     0.034 A 
BRANCH  56  70
ATOM     70  C   UNL A   1      42.715  28.647  30.022  1.00  0.00     0.023 A 
ATOM     71  C   UNL A   1      42.172  27.362  29.814  1.00  0.00     0.012 A 
ATOM     72  C   UNL A   1      43.603  29.182  29.067  1.00  0.00     0.148 A 
ATOM     73  C   UNL A   1      42.533  26.608  28.697  1.00  0.00     0.002 A 
ATOM     74  C   UNL A   1      43.919  28.445  27.932  1.00  0.00     0.091 A 
ATOM     75  F   UNL A   1      44.124  30.397  29.290  1.00  0.00    -0.205 F 
ATOM     76  C   UNL A   1      43.397  27.154  27.753  1.00  0.00     0.022 A 
BRANCH  74  77
ATOM     77  S   UNL A   1      44.955  29.091  26.614  1.00  0.00     0.127 S 
ATOM     78  O   UNL A   1      46.283  29.017  27.221  1.00  0.00    -0.237 OA
ATOM     79  O   UNL A   1      44.722  28.124  25.540  1.00  0.00    -0.237 OA
ATOM     80  O   UNL A   1      44.467  30.435  26.340  1.00  0.00    -0.744 OA
ENDBRANCH  74  77
ENDBRANCH  56  70
BRANCH  57  81
ATOM     81  C   UNL A   1      39.339  33.723  37.945  1.00  0.00     0.023 A 
ATOM     82  C   UNL A   1      39.733  35.053  38.189  1.00  0.00     0.012 A 
ATOM     83  C   UNL A   1      38.438  33.100  38.829  1.00  0.00     0.148 A 
ATOM     84  C   UNL A   1      39.269  35.737  39.313  1.00  0.00     0.002 A 
ATOM     85  C   UNL A   1      37.933  33.806  39.914  1.00  0.00     0.091 A 
ATOM     86  F   UNL A   1      38.080  31.832  38.581  1.00  0.00    -0.205 F 
ATOM     87  C   UNL A   1      38.362  35.118  40.169  1.00  0.00     0.022 A 
BRANCH  85  88
ATOM     88  S   UNL A   1      36.662  33.139  40.994  1.00  0.00     0.127 S 
ATOM     89  O   UNL A   1      37.370  32.040  41.646  1.00  0.00    -0.237 OA
ATOM     90  O   UNL A   1      36.370  34.284  41.856  1.00  0.00    -0.237 OA
ATOM     91  O   UNL A   1      35.564  32.752  40.118  1.00  0.00    -0.744 OA
ENDBRANCH  85  88
ENDBRANCH  57  81
BRANCH  69  92
ATOM     92  C   UNL A   1      45.198  30.155  36.619  1.00  0.00     0.023 A 
ATOM     93  C   UNL A   1      46.291  31.044  36.601  1.00  0.00     0.012 A 
ATOM     94  C   UNL A   1      45.234  29.032  37.469  1.00  0.00     0.148 A 
ATOM     95  C   UNL A   1      47.414  30.801  37.391  1.00  0.00     0.002 A 
ATOM     96  C   UNL A   1      46.332  28.826  38.294  1.00  0.00     0.091 A 
ATOM     97  F   UNL A   1      44.190  28.188  37.458  1.00  0.00    -0.205 F 
ATOM     98  C   UNL A   1      47.429  29.701  38.246  1.00  0.00     0.022 A 
BRANCH  96  99
ATOM     99  S   UNL A   1      46.397  27.495  39.498  1.00  0.00     0.127 S 
ATOM    100  O   UNL A   1      45.180  27.734  40.272  1.00  0.00    -0.237 OA
ATOM    101  O   UNL A   1      46.354  26.306  38.647  1.00  0.00    -0.237 OA
ATOM    102  O   UNL A   1      47.644  27.672  40.229  1.00  0.00    -0.744 OA
ENDBRANCH  96  99
ENDBRANCH  69  92
ENDBRANCH  43  44
ENDBRANCH  35  38
ENDBRANCH  33  34
ENDBRANCH   1  33
TORSDOF 17
ENDMDL
MODEL 3
REMARK VINA RESULT:     -11.7      4.753     11.465
REMARK SMILES CS(=O)(=O)c1ccc(C2=NN(c3ccc(C(=O)NCCCNC(=O)c4ccc(-c5c6nc(c(-c7cccc(S(=O)(=O)[O-])c7F)c7ccc([nH]7)c(-c7cccc(S(=O)(=O)[O-])c7F)c7nc(c(-c8cccc(S(=O)(=O)[O-])c8F)c8ccc5[nH]8)C=C7)C=C6)cc4)cc3)[C@H](c3cccs3)C2)cc1
REMARK SMILES IDX 20 1 19 2 18 3 16 4 17 5 15 7 12 8 13 9 89 10 14 11 88 12
REMARK SMILES IDX 11 13 9 14 10 15 96 16 90 17 8 18 5 19 6 20 98 21 7 22 97 23
REMARK SMILES IDX 2 24 1 25 3 26 4 27 91 28 92 29 95 30 93 31 94 32 21 33
REMARK SMILES IDX 22 34 23 35 24 37 25 38 26 39 87 40 27 41 86 42 28 43 29 44
REMARK SMILES IDX 30 45 80 46 31 47 85 48 79 49 81 50 32 51 84 52 78 53 77 54
REMARK SMILES IDX 33 56 65 57 45 58 64 59 46 60 49 61 63 62 82 63 47 64 48 65
REMARK SMILES IDX 62 67 83 68 50 69 34 70 35 71 43 72 36 73 38 74 44 75 37 76
REMARK SMILES IDX 39 77 40 78 41 79 42 80 66 81 67 82 75 83 68 84 70 85 76 86
REMARK SMILES IDX 69 87 71 88 72 89 73 90 74 91 51 92 52 93 60 94 53 95 55 96
REMARK SMILES IDX 61 97 54 98 56 99 57 100 58 101 59 102
REMARK H PARENT 18 6 22 36 81 55 49 66
REMARK Flexibility Score: inf
ROOT
ATOM      1  C   UNL A   1      41.778  21.934  26.256  1.00  0.00     0.042 C 
ENDROOT
BRANCH   1   2
ATOM      2  C   UNL A   1      42.938  21.870  27.248  1.00  0.00     0.118 C 
BRANCH   2   3
ATOM      3  N   UNL A   1      44.198  22.212  26.612  1.00  0.00    -0.352 N 
ATOM      4  C   UNL A   1      45.241  23.001  27.027  1.00  0.00     0.251 C 
ATOM      5  O   UNL A   1      46.253  23.038  26.327  1.00  0.00    -0.269 OA
ATOM      6  H   UNL A   1      44.326  21.806  25.724  1.00  0.00     0.163 HD
BRANCH   4   7
ATOM      7  C   UNL A   1      45.216  23.743  28.316  1.00  0.00     0.039 A 
ATOM      8  C   UNL A   1      44.969  25.168  30.737  1.00  0.00     0.060 A 
ATOM      9  C   UNL A   1      44.080  24.135  30.428  1.00  0.00     0.029 A 
ATOM     10  C   UNL A   1      46.027  25.420  29.863  1.00  0.00     0.029 A 
ATOM     11  C   UNL A   1      44.196  23.431  29.223  1.00  0.00     0.016 A 
ATOM     12  C   UNL A   1      46.165  24.698  28.677  1.00  0.00     0.016 A 
BRANCH   8  13
ATOM     13  N   UNL A   1      44.850  25.901  31.901  1.00  0.00    -0.257 N 
ATOM     14  C   UNL A   1      44.064  27.451  33.100  1.00  0.00     0.071 C 
ATOM     15  N   UNL A   1      43.824  26.766  32.031  1.00  0.00    -0.176 NA
ATOM     16  C   UNL A   1      45.377  27.181  33.781  1.00  0.00     0.091 C 
ATOM     17  C   UNL A   1      45.878  25.991  32.943  1.00  0.00     0.154 C 
BRANCH  14  18
ATOM     18  C   UNL A   1      43.102  28.424  33.622  1.00  0.00    -0.002 A 
ATOM     19  C   UNL A   1      41.226  30.167  34.687  1.00  0.00     0.067 A 
ATOM     20  C   UNL A   1      41.938  29.325  35.542  1.00  0.00     0.021 A 
ATOM     21  C   UNL A   1      41.444  30.135  33.301  1.00  0.00     0.021 A 
ATOM     22  C   UNL A   1      42.871  28.441  35.002  1.00  0.00     0.011 A 
ATOM     23  C   UNL A   1      42.396  29.267  32.765  1.00  0.00     0.011 A 
BRANCH  19  24
ATOM     24  S   UNL A   1      39.994  31.291  35.303  1.00  0.00     0.175 S 
ATOM     25  C   UNL A   1      40.763  32.879  35.456  1.00  0.00     0.163 C 
ATOM     26  O   UNL A   1      39.661  30.846  36.643  1.00  0.00    -0.224 OA
ATOM     27  O   UNL A   1      38.975  31.381  34.274  1.00  0.00    -0.224 OA
ENDBRANCH  19  24
ENDBRANCH  14  18
BRANCH  17  28
ATOM     28  C   UNL A   1      46.177  24.700  33.694  1.00  0.00     0.030 A 
ATOM     29  C   UNL A   1      45.261  23.704  34.003  1.00  0.00     0.017 A 
ATOM     30  S   UNL A   1      47.724  24.297  34.316  1.00  0.00    -0.147 S 
ATOM     31  C   UNL A   1      45.826  22.635  34.756  1.00  0.00     0.012 A 
ATOM     32  C   UNL A   1      47.170  22.822  34.974  1.00  0.00     0.065 A 
ENDBRANCH  17  28
ENDBRANCH   8  13
ENDBRANCH   4   7
ENDBRANCH   2   3
ENDBRANCH   1   2
BRANCH   1  33
ATOM     33  C   UNL A   1      40.428  21.621  26.891  1.00  0.00     0.118 C 
BRANCH  33  34
ATOM     34  N   UNL A   1      39.318  22.069  26.060  1.00  0.00    -0.352 N 
ATOM     35  C   UNL A   1      38.677  23.282  26.032  1.00  0.00     0.251 C 
ATOM     36  H   UNL A   1      38.976  21.400  25.424  1.00  0.00     0.163 HD
ATOM     37  O   UNL A   1      37.614  23.388  25.426  1.00  0.00    -0.269 OA
BRANCH  35  38
ATOM     38  C   UNL A   1      39.256  24.450  26.729  1.00  0.00     0.039 A 
ATOM     39  C   UNL A   1      40.023  25.362  25.996  1.00  0.00     0.014 A 
ATOM     40  C   UNL A   1      39.071  24.635  28.102  1.00  0.00     0.014 A 
ATOM     41  C   UNL A   1      40.556  26.485  26.631  1.00  0.00     0.010 A 
ATOM     42  C   UNL A   1      39.534  25.796  28.714  1.00  0.00     0.010 A 
ATOM     43  C   UNL A   1      40.289  26.728  27.989  1.00  0.00    -0.014 A 
BRANCH  43  44
ATOM     44  C   UNL A   1      40.779  27.957  28.663  1.00  0.00     0.031 A 
ATOM     45  C   UNL A   1      39.803  28.969  29.201  1.00  0.00     0.074 A 
ATOM     46  C   UNL A   1      42.104  28.202  28.714  1.00  0.00     0.049 A 
ATOM     47  N   UNL A   1      40.043  30.125  29.766  1.00  0.00    -0.248 NA
ATOM     48  C   UNL A   1      38.371  28.657  29.065  1.00  0.00     0.031 C 
ATOM     49  C   UNL A   1      43.145  27.332  28.159  1.00  0.00     0.029 A 
ATOM     50  N   UNL A   1      42.800  29.265  29.230  1.00  0.00    -0.354 N 
ATOM     51  C   UNL A   1      38.799  30.692  30.016  1.00  0.00     0.074 A 
ATOM     52  C   UNL A   1      37.806  29.769  29.512  1.00  0.00     0.031 C 
ATOM     53  C   UNL A   1      44.344  27.894  28.370  1.00  0.00     0.029 A 
ATOM     54  C   UNL A   1      44.160  29.178  29.038  1.00  0.00     0.049 A 
ATOM     55  H   UNL A   1      42.370  30.018  29.694  1.00  0.00     0.167 HD
ATOM     56  C   UNL A   1      38.508  31.863  30.631  1.00  0.00     0.034 A 
ATOM     57  C   UNL A   1      45.146  30.041  29.350  1.00  0.00     0.034 A 
ATOM     58  C   UNL A   1      39.500  32.762  31.156  1.00  0.00     0.049 A 
ATOM     59  C   UNL A   1      44.797  31.321  30.058  1.00  0.00     0.074 A 
ATOM     60  C   UNL A   1      39.308  33.930  31.872  1.00  0.00     0.029 A 
ATOM     61  N   UNL A   1      40.869  32.602  31.013  1.00  0.00    -0.354 N 
ATOM     62  N   UNL A   1      43.620  31.768  30.422  1.00  0.00    -0.248 NA
ATOM     63  C   UNL A   1      45.914  32.201  30.431  1.00  0.00     0.031 C 
ATOM     64  C   UNL A   1      40.560  34.496  32.130  1.00  0.00     0.029 A 
ATOM     65  C   UNL A   1      41.534  33.656  31.614  1.00  0.00     0.049 A 
ATOM     66  H   UNL A   1      41.304  31.849  30.551  1.00  0.00     0.167 HD
ATOM     67  C   UNL A   1      43.857  32.956  31.104  1.00  0.00     0.074 A 
ATOM     68  C   UNL A   1      45.292  33.151  31.114  1.00  0.00     0.031 C 
ATOM     69  C   UNL A   1      42.966  33.812  31.662  1.00  0.00     0.034 A 
BRANCH  56  70
ATOM     70  C   UNL A   1      37.054  32.224  30.804  1.00  0.00     0.023 A 
ATOM     71  C   UNL A   1      36.419  31.995  32.042  1.00  0.00     0.012 A 
ATOM     72  C   UNL A   1      36.333  32.845  29.765  1.00  0.00     0.148 A 
ATOM     73  C   UNL A   1      35.081  32.340  32.231  1.00  0.00     0.002 A 
ATOM     74  C   UNL A   1      35.016  33.232  29.977  1.00  0.00     0.091 A 
ATOM     75  F   UNL A   1      36.947  33.039  28.589  1.00  0.00    -0.205 F 
ATOM     76  C   UNL A   1      34.384  32.968  31.202  1.00  0.00     0.022 A 
BRANCH  74  77
ATOM     77  S   UNL A   1      34.057  34.123  28.746  1.00  0.00     0.127 S 
ATOM     78  O   UNL A   1      33.786  33.072  27.766  1.00  0.00    -0.237 OA
ATOM     79  O   UNL A   1      32.890  34.551  29.519  1.00  0.00    -0.237 OA
ATOM     80  O   UNL A   1      34.908  35.208  28.279  1.00  0.00    -0.744 OA
ENDBRANCH  74  77
ENDBRANCH  56  70
BRANCH  57  81
ATOM     81  C   UNL A   1      46.564  29.695  29.045  1.00  0.00     0.023 A 
ATOM     82  C   UNL A   1      47.133  30.114  27.826  1.00  0.00     0.012 A 
ATOM     83  C   UNL A   1      47.357  28.980  29.962  1.00  0.00     0.148 A 
ATOM     84  C   UNL A   1      48.453  29.794  27.510  1.00  0.00     0.002 A 
ATOM     85  C   UNL A   1      48.689  28.714  29.668  1.00  0.00     0.091 A 
ATOM     86  F   UNL A   1      46.795  28.585  31.114  1.00  0.00    -0.205 F 
ATOM     87  C   UNL A   1      49.234  29.103  28.434  1.00  0.00     0.022 A 
BRANCH  85  88
ATOM     88  S   UNL A   1      49.805  27.948  30.847  1.00  0.00     0.127 S 
ATOM     89  O   UNL A   1      49.087  26.723  31.188  1.00  0.00    -0.237 OA
ATOM     90  O   UNL A   1      51.009  27.754  30.039  1.00  0.00    -0.237 OA
ATOM     91  O   UNL A   1      49.958  28.913  31.929  1.00  0.00    -0.744 OA
ENDBRANCH  85  88
ENDBRANCH  57  81
BRANCH  69  92
ATOM     92  C   UNL A   1      43.510  35.017  32.386  1.00  0.00     0.023 A 
ATOM     93  C   UNL A   1      43.630  36.250  31.717  1.00  0.00     0.012 A 
ATOM     94  C   UNL A   1      43.828  34.938  33.755  1.00  0.00     0.148 A 
ATOM     95  C   UNL A   1      44.091  37.379  32.393  1.00  0.00     0.002 A 
ATOM     96  C   UNL A   1      44.235  36.079  34.436  1.00  0.00     0.091 A 
ATOM     97  F   UNL A   1      43.724  33.749  34.370  1.00  0.00    -0.205 F 
ATOM     98  C   UNL A   1      44.381  37.297  33.753  1.00  0.00     0.022 A 
BRANCH  96  99
ATOM     99  S   UNL A   1      44.531  36.091  36.207  1.00  0.00     0.127 S 
ATOM    100  O   UNL A   1      43.260  35.588  36.726  1.00  0.00    -0.237 OA
ATOM    101  O   UNL A   1      45.654  35.162  36.338  1.00  0.00    -0.237 OA
ATOM    102  O   UNL A   1      44.843  37.470  36.555  1.00  0.00    -0.744 OA
ENDBRANCH  96  99
ENDBRANCH  69  92
ENDBRANCH  43  44
ENDBRANCH  35  38
ENDBRANCH  33  34
ENDBRANCH   1  33
TORSDOF 17
ENDMDL
