MODEL 1
REMARK VINA RESULT:     -12.7      0.000      0.000
REMARK SMILES C[C@H]1OCC[C@@H]1C(=O)Nc1sc2c(c1C(=O)NCCCNC(=O)c1ccc(-c3c4nc(c(-c5cccc(S(=O)(=O)[O-])c5F)c5ccc([nH]5)c(-c5cccc(S(=O)(=O)[O-])c5F)c5nc(c(-c6cccc(S(=O)(=O)[O-])c6F)c6ccc3[nH]6)C=C5)C=C4)cc1)CCC2
REMARK SMILES IDX 19 1 18 2 17 3 15 4 16 5 14 7 10 8 11 9 12 10 13 11 89 12
REMARK SMILES IDX 87 13 88 14 9 15 7 16 8 17 6 19 1 20 2 21 3 22 4 23 5 24
REMARK SMILES IDX 20 25 21 26 22 27 23 29 24 30 25 31 86 32 26 33 85 34 27 35
REMARK SMILES IDX 28 36 29 37 79 38 30 39 84 40 78 41 80 42 31 43 83 44 77 45
REMARK SMILES IDX 76 46 32 48 64 49 44 50 63 51 45 52 48 53 62 54 81 55 46 56
REMARK SMILES IDX 47 57 61 59 82 60 49 61 33 62 34 63 42 64 35 65 37 66 43 67
REMARK SMILES IDX 36 68 38 69 39 70 40 71 41 72 65 73 66 74 74 75 67 76 69 77
REMARK SMILES IDX 75 78 68 79 70 80 71 81 72 82 73 83 50 84 51 85 59 86 52 87
REMARK SMILES IDX 54 88 60 89 53 90 55 91 56 92 57 93 58 94
REMARK H PARENT 17 6 9 18 21 28 80 47 48 58
REMARK Flexibility Score: inf
ROOT
ATOM      1  C   UNL A   1      37.792  20.070  24.652  1.00  0.00     0.042 C 
ENDROOT
BRANCH   1   2
ATOM      2  C   UNL A   1      36.366  20.379  25.106  1.00  0.00     0.118 C 
BRANCH   2   3
ATOM      3  N   UNL A   1      36.236  21.567  25.910  1.00  0.00    -0.352 N 
ATOM      4  C   UNL A   1      35.123  22.301  26.232  1.00  0.00     0.254 C 
ATOM      5  O   UNL A   1      35.103  22.732  27.389  1.00  0.00    -0.269 OA
ATOM      6  H   UNL A   1      37.080  21.907  26.288  1.00  0.00     0.163 HD
BRANCH   4   7
ATOM      7  C   UNL A   1      34.024  22.597  25.305  1.00  0.00     0.078 A 
ATOM      8  C   UNL A   1      33.007  21.651  25.112  1.00  0.00     0.108 A 
ATOM      9  S   UNL A   1      32.149  21.852  23.639  1.00  0.00    -0.122 S 
ATOM     10  C   UNL A   1      32.833  23.354  23.448  1.00  0.00     0.011 A 
ATOM     11  C   UNL A   1      33.770  23.684  24.396  1.00  0.00    -0.019 A 
ATOM     12  C   UNL A   1      32.634  24.363  22.382  1.00  0.00     0.047 C 
ATOM     13  C   UNL A   1      34.300  25.037  24.073  1.00  0.00     0.038 C 
ATOM     14  C   UNL A   1      33.297  25.596  23.028  1.00  0.00     0.010 C 
BRANCH   8  15
ATOM     15  N   UNL A   1      32.641  20.485  25.735  1.00  0.00    -0.317 N 
ATOM     16  C   UNL A   1      32.757  19.185  25.346  1.00  0.00     0.230 C 
ATOM     17  O   UNL A   1      32.422  18.358  26.210  1.00  0.00    -0.274 OA
ATOM     18  H   UNL A   1      32.223  20.609  26.616  1.00  0.00     0.170 HD
BRANCH  16  19
ATOM     19  C   UNL A   1      33.397  18.669  24.058  1.00  0.00     0.110 C 
ATOM     20  C   UNL A   1      32.415  18.519  21.726  1.00  0.00     0.039 C 
ATOM     21  C   UNL A   1      32.413  17.948  23.144  1.00  0.00     0.127 C 
ATOM     22  O   UNL A   1      32.839  16.574  23.099  1.00  0.00    -0.378 OA
ATOM     23  C   UNL A   1      34.259  16.571  23.290  1.00  0.00     0.161 C 
ATOM     24  C   UNL A   1      34.585  17.748  24.184  1.00  0.00     0.044 C 
ENDBRANCH  16  19
ENDBRANCH   8  15
ENDBRANCH   4   7
ENDBRANCH   2   3
ENDBRANCH   1   2
BRANCH   1  25
ATOM     25  C   UNL A   1      38.808  20.372  25.732  1.00  0.00     0.118 C 
BRANCH  25  26
ATOM     26  N   UNL A   1      39.846  19.334  25.786  1.00  0.00    -0.352 N 
ATOM     27  C   UNL A   1      41.202  19.467  26.008  1.00  0.00     0.251 C 
ATOM     28  H   UNL A   1      39.530  18.413  25.643  1.00  0.00     0.163 HD
ATOM     29  O   UNL A   1      41.971  18.564  25.728  1.00  0.00    -0.269 OA
BRANCH  27  30
ATOM     30  C   UNL A   1      41.692  20.725  26.591  1.00  0.00     0.039 A 
ATOM     31  C   UNL A   1      42.286  21.711  25.799  1.00  0.00     0.014 A 
ATOM     32  C   UNL A   1      41.510  20.912  27.957  1.00  0.00     0.014 A 
ATOM     33  C   UNL A   1      42.632  22.920  26.390  1.00  0.00     0.010 A 
ATOM     34  C   UNL A   1      41.660  22.159  28.488  1.00  0.00     0.010 A 
ATOM     35  C   UNL A   1      42.298  23.135  27.734  1.00  0.00    -0.014 A 
BRANCH  35  36
ATOM     36  C   UNL A   1      42.471  24.434  28.367  1.00  0.00     0.031 A 
ATOM     37  C   UNL A   1      41.339  25.365  28.112  1.00  0.00     0.074 A 
ATOM     38  C   UNL A   1      43.428  24.614  29.306  1.00  0.00     0.049 A 
ATOM     39  N   UNL A   1      41.378  26.496  27.490  1.00  0.00    -0.248 NA
ATOM     40  C   UNL A   1      39.969  24.906  28.412  1.00  0.00     0.031 C 
ATOM     41  C   UNL A   1      44.375  23.610  29.818  1.00  0.00     0.029 A 
ATOM     42  N   UNL A   1      43.631  25.660  30.151  1.00  0.00    -0.354 N 
ATOM     43  C   UNL A   1      40.087  27.010  27.584  1.00  0.00     0.074 A 
ATOM     44  C   UNL A   1      39.235  25.898  27.905  1.00  0.00     0.031 C 
ATOM     45  C   UNL A   1      44.813  23.986  31.038  1.00  0.00     0.029 A 
ATOM     46  C   UNL A   1      44.304  25.311  31.326  1.00  0.00     0.049 A 
ATOM     47  H   UNL A   1      43.333  26.577  29.954  1.00  0.00     0.167 HD
ATOM     48  C   UNL A   1      39.879  28.350  27.715  1.00  0.00     0.034 A 
ATOM     49  C   UNL A   1      44.352  26.024  32.482  1.00  0.00     0.034 A 
ATOM     50  C   UNL A   1      41.072  29.089  27.374  1.00  0.00     0.049 A 
ATOM     51  C   UNL A   1      43.985  27.418  32.145  1.00  0.00     0.074 A 
ATOM     52  C   UNL A   1      41.897  29.151  26.268  1.00  0.00     0.029 A 
ATOM     53  N   UNL A   1      41.805  29.595  28.423  1.00  0.00    -0.354 N 
ATOM     54  N   UNL A   1      44.708  28.179  31.373  1.00  0.00    -0.248 NA
ATOM     55  C   UNL A   1      42.585  27.793  32.268  1.00  0.00     0.031 C 
ATOM     56  C   UNL A   1      43.217  29.224  26.803  1.00  0.00     0.029 A 
ATOM     57  C   UNL A   1      43.121  29.305  28.194  1.00  0.00     0.049 A 
ATOM     58  H   UNL A   1      41.445  30.080  29.201  1.00  0.00     0.167 HD
ATOM     59  C   UNL A   1      43.778  28.789  30.542  1.00  0.00     0.074 A 
ATOM     60  C   UNL A   1      42.488  28.604  31.209  1.00  0.00     0.031 C 
ATOM     61  C   UNL A   1      44.090  29.096  29.247  1.00  0.00     0.034 A 
BRANCH  48  62
ATOM     62  C   UNL A   1      38.777  28.987  28.538  1.00  0.00     0.023 A 
ATOM     63  C   UNL A   1      37.985  29.963  27.893  1.00  0.00     0.012 A 
ATOM     64  C   UNL A   1      38.661  28.904  29.946  1.00  0.00     0.148 A 
ATOM     65  C   UNL A   1      37.183  30.856  28.613  1.00  0.00     0.002 A 
ATOM     66  C   UNL A   1      37.804  29.742  30.651  1.00  0.00     0.091 A 
ATOM     67  F   UNL A   1      39.471  28.108  30.646  1.00  0.00    -0.205 F 
ATOM     68  C   UNL A   1      37.091  30.744  29.993  1.00  0.00     0.022 A 
BRANCH  66  69
ATOM     69  S   UNL A   1      37.614  29.613  32.435  1.00  0.00     0.127 S 
ATOM     70  O   UNL A   1      38.817  30.293  32.906  1.00  0.00    -0.237 OA
ATOM     71  O   UNL A   1      36.363  30.339  32.652  1.00  0.00    -0.237 OA
ATOM     72  O   UNL A   1      37.533  28.186  32.721  1.00  0.00    -0.744 OA
ENDBRANCH  66  69
ENDBRANCH  48  62
BRANCH  49  73
ATOM     73  C   UNL A   1      44.372  25.536  33.887  1.00  0.00     0.023 A 
ATOM     74  C   UNL A   1      43.318  24.731  34.366  1.00  0.00     0.012 A 
ATOM     75  C   UNL A   1      45.549  25.609  34.665  1.00  0.00     0.148 A 
ATOM     76  C   UNL A   1      43.445  24.000  35.556  1.00  0.00     0.002 A 
ATOM     77  C   UNL A   1      45.669  24.889  35.850  1.00  0.00     0.091 A 
ATOM     78  F   UNL A   1      46.596  26.301  34.197  1.00  0.00    -0.205 F 
ATOM     79  C   UNL A   1      44.623  24.073  36.295  1.00  0.00     0.022 A 
BRANCH  77  80
ATOM     80  S   UNL A   1      47.184  24.918  36.820  1.00  0.00     0.127 S 
ATOM     81  O   UNL A   1      46.808  24.126  37.991  1.00  0.00    -0.237 OA
ATOM     82  O   UNL A   1      48.131  24.273  35.915  1.00  0.00    -0.237 OA
ATOM     83  O   UNL A   1      47.441  26.324  37.105  1.00  0.00    -0.744 OA
ENDBRANCH  77  80
ENDBRANCH  49  73
BRANCH  61  84
ATOM     84  C   UNL A   1      45.530  28.983  28.810  1.00  0.00     0.023 A 
ATOM     85  C   UNL A   1      46.504  29.958  29.113  1.00  0.00     0.012 A 
ATOM     86  C   UNL A   1      45.944  27.767  28.244  1.00  0.00     0.148 A 
ATOM     87  C   UNL A   1      47.857  29.732  28.840  1.00  0.00     0.002 A 
ATOM     88  C   UNL A   1      47.293  27.526  28.019  1.00  0.00     0.091 A 
ATOM     89  F   UNL A   1      45.008  26.849  27.965  1.00  0.00    -0.205 F 
ATOM     90  C   UNL A   1      48.254  28.509  28.307  1.00  0.00     0.022 A 
BRANCH  88  91
ATOM     91  S   UNL A   1      47.869  25.924  27.456  1.00  0.00     0.127 S 
ATOM     92  O   UNL A   1      47.318  25.030  28.472  1.00  0.00    -0.237 OA
ATOM     93  O   UNL A   1      47.245  25.812  26.137  1.00  0.00    -0.237 OA
ATOM     94  O   UNL A   1      49.323  26.012  27.419  1.00  0.00    -0.744 OA
ENDBRANCH  88  91
ENDBRANCH  61  84
ENDBRANCH  35  36
ENDBRANCH  27  30
ENDBRANCH  25  26
ENDBRANCH   1  25
TORSDOF 15
ENDMDL
MODEL 2
REMARK VINA RESULT:     -12.3      3.271      7.127
REMARK SMILES C[C@H]1OCC[C@@H]1C(=O)Nc1sc2c(c1C(=O)NCCCNC(=O)c1ccc(-c3c4nc(c(-c5cccc(S(=O)(=O)[O-])c5F)c5ccc([nH]5)c(-c5cccc(S(=O)(=O)[O-])c5F)c5nc(c(-c6cccc(S(=O)(=O)[O-])c6F)c6ccc3[nH]6)C=C5)C=C4)cc1)CCC2
REMARK SMILES IDX 19 1 18 2 17 3 15 4 16 5 14 7 10 8 11 9 12 10 13 11 89 12
REMARK SMILES IDX 87 13 88 14 9 15 7 16 8 17 6 19 1 20 2 21 3 22 4 23 5 24
REMARK SMILES IDX 20 25 21 26 22 27 23 29 24 30 25 31 86 32 26 33 85 34 27 35
REMARK SMILES IDX 28 36 29 37 79 38 30 39 84 40 78 41 80 42 31 43 83 44 77 45
REMARK SMILES IDX 76 46 32 48 64 49 44 50 63 51 45 52 48 53 62 54 81 55 46 56
REMARK SMILES IDX 47 57 61 59 82 60 49 61 33 62 34 63 42 64 35 65 37 66 43 67
REMARK SMILES IDX 36 68 38 69 39 70 40 71 41 72 65 73 66 74 74 75 67 76 69 77
REMARK SMILES IDX 75 78 68 79 70 80 71 81 72 82 73 83 50 84 51 85 59 86 52 87
REMARK SMILES IDX 54 88 60 89 53 90 55 91 56 92 57 93 58 94
REMARK H PARENT 17 6 9 18 21 28 80 47 48 58
REMARK Flexibility Score: inf
ROOT
ATOM      1  C   UNL A   1      32.894  28.150  27.311  1.00  0.00     0.042 C 
ENDROOT
BRANCH   1   2
ATOM      2  C   UNL A   1      31.572  27.895  26.586  1.00  0.00     0.118 C 
BRANCH   2   3
ATOM      3  N   UNL A   1      31.026  26.576  26.782  1.00  0.00    -0.352 N 
ATOM      4  C   UNL A   1      31.521  25.351  26.416  1.00  0.00     0.254 C 
ATOM      5  O   UNL A   1      31.341  24.452  27.244  1.00  0.00    -0.269 OA
ATOM      6  H   UNL A   1      30.161  26.551  27.251  1.00  0.00     0.163 HD
BRANCH   4   7
ATOM      7  C   UNL A   1      32.198  25.072  25.144  1.00  0.00     0.078 A 
ATOM      8  C   UNL A   1      33.313  24.222  25.127  1.00  0.00     0.108 A 
ATOM      9  S   UNL A   1      34.323  24.438  23.755  1.00  0.00    -0.122 S 
ATOM     10  C   UNL A   1      33.134  25.340  23.025  1.00  0.00     0.011 A 
ATOM     11  C   UNL A   1      32.033  25.582  23.808  1.00  0.00    -0.019 A 
ATOM     12  C   UNL A   1      33.105  25.974  21.686  1.00  0.00     0.047 C 
ATOM     13  C   UNL A   1      31.080  26.415  23.025  1.00  0.00     0.038 C 
ATOM     14  C   UNL A   1      31.608  26.325  21.568  1.00  0.00     0.010 C 
BRANCH   8  15
ATOM     15  N   UNL A   1      33.898  23.375  26.033  1.00  0.00    -0.317 N 
ATOM     16  C   UNL A   1      34.166  22.041  25.972  1.00  0.00     0.230 C 
ATOM     17  O   UNL A   1      34.815  21.602  26.937  1.00  0.00    -0.274 OA
ATOM     18  H   UNL A   1      34.172  23.805  26.874  1.00  0.00     0.170 HD
BRANCH  16  19
ATOM     19  C   UNL A   1      33.902  21.108  24.791  1.00  0.00     0.110 C 
ATOM     20  C   UNL A   1      32.074  21.215  23.039  1.00  0.00     0.039 C 
ATOM     21  C   UNL A   1      32.419  20.913  24.498  1.00  0.00     0.127 C 
ATOM     22  O   UNL A   1      32.133  19.531  24.775  1.00  0.00    -0.378 OA
ATOM     23  C   UNL A   1      33.337  18.797  24.522  1.00  0.00     0.161 C 
ATOM     24  C   UNL A   1      34.491  19.720  24.847  1.00  0.00     0.044 C 
ENDBRANCH  16  19
ENDBRANCH   8  15
ENDBRANCH   4   7
ENDBRANCH   2   3
ENDBRANCH   1   2
BRANCH   1  25
ATOM     25  C   UNL A   1      33.872  28.916  26.447  1.00  0.00     0.118 C 
BRANCH  25  26
ATOM     26  N   UNL A   1      33.733  30.365  26.648  1.00  0.00    -0.352 N 
ATOM     27  C   UNL A   1      34.424  31.197  27.505  1.00  0.00     0.251 C 
ATOM     28  H   UNL A   1      33.048  30.804  26.093  1.00  0.00     0.163 HD
ATOM     29  O   UNL A   1      33.998  32.307  27.775  1.00  0.00    -0.269 OA
BRANCH  27  30
ATOM     30  C   UNL A   1      35.687  30.711  28.080  1.00  0.00     0.039 A 
ATOM     31  C   UNL A   1      36.021  29.354  28.059  1.00  0.00     0.014 A 
ATOM     32  C   UNL A   1      36.554  31.657  28.615  1.00  0.00     0.014 A 
ATOM     33  C   UNL A   1      37.274  28.970  28.521  1.00  0.00     0.010 A 
ATOM     34  C   UNL A   1      37.847  31.309  28.875  1.00  0.00     0.010 A 
ATOM     35  C   UNL A   1      38.183  29.962  28.913  1.00  0.00    -0.014 A 
BRANCH  35  36
ATOM     36  C   UNL A   1      39.565  29.647  29.240  1.00  0.00     0.031 A 
ATOM     37  C   UNL A   1      39.876  29.810  30.685  1.00  0.00     0.074 A 
ATOM     38  C   UNL A   1      40.349  29.004  28.344  1.00  0.00     0.049 A 
ATOM     39  N   UNL A   1      40.720  30.630  31.219  1.00  0.00    -0.248 NA
ATOM     40  C   UNL A   1      39.021  29.123  31.672  1.00  0.00     0.031 C 
ATOM     41  C   UNL A   1      39.972  28.539  27.000  1.00  0.00     0.029 A 
ATOM     42  N   UNL A   1      41.578  28.446  28.508  1.00  0.00    -0.354 N 
ATOM     43  C   UNL A   1      40.696  30.345  32.582  1.00  0.00     0.074 A 
ATOM     44  C   UNL A   1      39.473  29.630  32.820  1.00  0.00     0.031 C 
ATOM     45  C   UNL A   1      40.802  27.548  26.617  1.00  0.00     0.029 A 
ATOM     46  C   UNL A   1      41.850  27.411  27.608  1.00  0.00     0.049 A 
ATOM     47  H   UNL A   1      42.217  28.741  29.196  1.00  0.00     0.167 HD
ATOM     48  C   UNL A   1      41.832  30.430  33.330  1.00  0.00     0.034 A 
ATOM     49  C   UNL A   1      42.810  26.455  27.727  1.00  0.00     0.034 A 
ATOM     50  C   UNL A   1      42.854  31.169  32.628  1.00  0.00     0.049 A 
ATOM     51  C   UNL A   1      43.804  26.961  28.700  1.00  0.00     0.074 A 
ATOM     52  C   UNL A   1      42.929  32.425  32.058  1.00  0.00     0.029 A 
ATOM     53  N   UNL A   1      43.868  30.434  32.060  1.00  0.00    -0.354 N 
ATOM     54  N   UNL A   1      44.547  28.010  28.482  1.00  0.00    -0.248 NA
ATOM     55  C   UNL A   1      43.624  26.597  30.097  1.00  0.00     0.031 C 
ATOM     56  C   UNL A   1      43.651  32.231  30.844  1.00  0.00     0.029 A 
ATOM     57  C   UNL A   1      44.061  30.897  30.788  1.00  0.00     0.049 A 
ATOM     58  H   UNL A   1      44.365  29.702  32.492  1.00  0.00     0.167 HD
ATOM     59  C   UNL A   1      44.498  28.708  29.681  1.00  0.00     0.074 A 
ATOM     60  C   UNL A   1      44.014  27.740  30.668  1.00  0.00     0.031 C 
ATOM     61  C   UNL A   1      44.538  30.074  29.700  1.00  0.00     0.034 A 
BRANCH  48  62
ATOM     62  C   UNL A   1      42.187  29.514  34.485  1.00  0.00     0.023 A 
ATOM     63  C   UNL A   1      42.724  30.126  35.640  1.00  0.00     0.012 A 
ATOM     64  C   UNL A   1      42.300  28.106  34.402  1.00  0.00     0.148 A 
ATOM     65  C   UNL A   1      43.402  29.391  36.618  1.00  0.00     0.002 A 
ATOM     66  C   UNL A   1      42.905  27.369  35.415  1.00  0.00     0.091 A 
ATOM     67  F   UNL A   1      41.945  27.463  33.289  1.00  0.00    -0.205 F 
ATOM     68  C   UNL A   1      43.490  28.010  36.507  1.00  0.00     0.022 A 
BRANCH  66  69
ATOM     69  S   UNL A   1      43.011  25.575  35.342  1.00  0.00     0.127 S 
ATOM     70  O   UNL A   1      41.601  25.201  35.311  1.00  0.00    -0.237 OA
ATOM     71  O   UNL A   1      43.738  25.373  34.088  1.00  0.00    -0.237 OA
ATOM     72  O   UNL A   1      43.752  25.174  36.532  1.00  0.00    -0.744 OA
ENDBRANCH  66  69
ENDBRANCH  48  62
BRANCH  49  73
ATOM     73  C   UNL A   1      42.768  25.026  27.320  1.00  0.00     0.023 A 
ATOM     74  C   UNL A   1      41.557  24.307  27.405  1.00  0.00     0.012 A 
ATOM     75  C   UNL A   1      43.824  24.450  26.580  1.00  0.00     0.148 A 
ATOM     76  C   UNL A   1      41.395  23.078  26.749  1.00  0.00     0.002 A 
ATOM     77  C   UNL A   1      43.662  23.226  25.937  1.00  0.00     0.091 A 
ATOM     78  F   UNL A   1      44.956  25.144  26.414  1.00  0.00    -0.205 F 
ATOM     79  C   UNL A   1      42.445  22.540  26.009  1.00  0.00     0.022 A 
BRANCH  77  80
ATOM     80  S   UNL A   1      44.973  22.508  24.936  1.00  0.00     0.127 S 
ATOM     81  O   UNL A   1      45.227  23.570  23.962  1.00  0.00    -0.237 OA
ATOM     82  O   UNL A   1      46.030  22.309  25.924  1.00  0.00    -0.237 OA
ATOM     83  O   UNL A   1      44.409  21.291  24.363  1.00  0.00    -0.744 OA
ENDBRANCH  77  80
ENDBRANCH  49  73
BRANCH  61  84
ATOM     84  C   UNL A   1      44.880  30.798  28.420  1.00  0.00     0.023 A 
ATOM     85  C   UNL A   1      43.903  31.248  27.507  1.00  0.00     0.012 A 
ATOM     86  C   UNL A   1      46.213  31.197  28.235  1.00  0.00     0.148 A 
ATOM     87  C   UNL A   1      44.251  32.063  26.426  1.00  0.00     0.002 A 
ATOM     88  C   UNL A   1      46.548  32.046  27.189  1.00  0.00     0.091 A 
ATOM     89  F   UNL A   1      47.130  30.764  29.113  1.00  0.00    -0.205 F 
ATOM     90  C   UNL A   1      45.573  32.475  26.275  1.00  0.00     0.022 A 
BRANCH  88  91
ATOM     91  S   UNL A   1      48.206  32.708  27.025  1.00  0.00     0.127 S 
ATOM     92  O   UNL A   1      48.980  31.512  26.701  1.00  0.00    -0.237 OA
ATOM     93  O   UNL A   1      48.057  33.659  25.922  1.00  0.00    -0.237 OA
ATOM     94  O   UNL A   1      48.518  33.330  28.306  1.00  0.00    -0.744 OA
ENDBRANCH  88  91
ENDBRANCH  61  84
ENDBRANCH  35  36
ENDBRANCH  27  30
ENDBRANCH  25  26
ENDBRANCH   1  25
TORSDOF 15
ENDMDL
MODEL 3
REMARK VINA RESULT:     -12.2      3.243      7.776
REMARK SMILES C[C@H]1OCC[C@@H]1C(=O)Nc1sc2c(c1C(=O)NCCCNC(=O)c1ccc(-c3c4nc(c(-c5cccc(S(=O)(=O)[O-])c5F)c5ccc([nH]5)c(-c5cccc(S(=O)(=O)[O-])c5F)c5nc(c(-c6cccc(S(=O)(=O)[O-])c6F)c6ccc3[nH]6)C=C5)C=C4)cc1)CCC2
REMARK SMILES IDX 19 1 18 2 17 3 15 4 16 5 14 7 10 8 11 9 12 10 13 11 89 12
REMARK SMILES IDX 87 13 88 14 9 15 7 16 8 17 6 19 1 20 2 21 3 22 4 23 5 24
REMARK SMILES IDX 20 25 21 26 22 27 23 29 24 30 25 31 86 32 26 33 85 34 27 35
REMARK SMILES IDX 28 36 29 37 79 38 30 39 84 40 78 41 80 42 31 43 83 44 77 45
REMARK SMILES IDX 76 46 32 48 64 49 44 50 63 51 45 52 48 53 62 54 81 55 46 56
REMARK SMILES IDX 47 57 61 59 82 60 49 61 33 62 34 63 42 64 35 65 37 66 43 67
REMARK SMILES IDX 36 68 38 69 39 70 40 71 41 72 65 73 66 74 74 75 67 76 69 77
REMARK SMILES IDX 75 78 68 79 70 80 71 81 72 82 73 83 50 84 51 85 59 86 52 87
REMARK SMILES IDX 54 88 60 89 53 90 55 91 56 92 57 93 58 94
REMARK H PARENT 17 6 9 18 21 28 80 47 48 58
REMARK Flexibility Score: inf
ROOT
ATOM      1  C   UNL A   1      35.101  29.600  27.486  1.00  0.00     0.042 C 
ENDROOT
BRANCH   1   2
ATOM      2  C   UNL A   1      33.827  29.484  26.649  1.00  0.00     0.118 C 
BRANCH   2   3
ATOM      3  N   UNL A   1      32.633  29.212  27.408  1.00  0.00    -0.352 N 
ATOM      4  C   UNL A   1      31.718  28.199  27.283  1.00  0.00     0.254 C 
ATOM      5  O   UNL A   1      31.289  27.754  28.352  1.00  0.00    -0.269 OA
ATOM      6  H   UNL A   1      32.445  29.854  28.130  1.00  0.00     0.163 HD
BRANCH   4   7
ATOM      7  C   UNL A   1      31.236  27.665  26.003  1.00  0.00     0.078 A 
ATOM      8  C   UNL A   1      31.109  26.279  25.836  1.00  0.00     0.108 A 
ATOM      9  S   UNL A   1      31.109  25.779  24.194  1.00  0.00    -0.122 S 
ATOM     10  C   UNL A   1      30.896  27.355  23.716  1.00  0.00     0.011 A 
ATOM     11  C   UNL A   1      30.926  28.275  24.736  1.00  0.00    -0.019 A 
ATOM     12  C   UNL A   1      30.742  27.927  22.359  1.00  0.00     0.047 C 
ATOM     13  C   UNL A   1      30.748  29.630  24.146  1.00  0.00     0.038 C 
ATOM     14  C   UNL A   1      30.253  29.350  22.701  1.00  0.00     0.010 C 
BRANCH   8  15
ATOM     15  N   UNL A   1      31.161  25.195  26.676  1.00  0.00    -0.317 N 
ATOM     16  C   UNL A   1      31.968  24.098  26.676  1.00  0.00     0.230 C 
ATOM     17  O   UNL A   1      31.822  23.352  27.659  1.00  0.00    -0.274 OA
ATOM     18  H   UNL A   1      30.502  25.213  27.406  1.00  0.00     0.170 HD
BRANCH  16  19
ATOM     19  C   UNL A   1      33.110  23.802  25.705  1.00  0.00     0.110 C 
ATOM     20  C   UNL A   1      33.543  21.722  24.323  1.00  0.00     0.039 C 
ATOM     21  C   UNL A   1      33.550  22.343  25.720  1.00  0.00     0.127 C 
ATOM     22  O   UNL A   1      34.894  22.334  26.234  1.00  0.00    -0.378 OA
ATOM     23  C   UNL A   1      35.489  23.585  25.867  1.00  0.00     0.161 C 
ATOM     24  C   UNL A   1      34.377  24.610  25.842  1.00  0.00     0.044 C 
ENDBRANCH  16  19
ENDBRANCH   8  15
ENDBRANCH   4   7
ENDBRANCH   2   3
ENDBRANCH   1   2
BRANCH   1  25
ATOM     25  C   UNL A   1      35.493  31.043  27.722  1.00  0.00     0.118 C 
BRANCH  25  26
ATOM     26  N   UNL A   1      35.217  31.445  29.107  1.00  0.00    -0.352 N 
ATOM     27  C   UNL A   1      35.923  31.155  30.257  1.00  0.00     0.251 C 
ATOM     28  H   UNL A   1      34.414  32.000  29.233  1.00  0.00     0.163 HD
ATOM     29  O   UNL A   1      35.414  31.303  31.355  1.00  0.00    -0.269 OA
BRANCH  27  30
ATOM     30  C   UNL A   1      37.303  30.666  30.123  1.00  0.00     0.039 A 
ATOM     31  C   UNL A   1      38.381  31.550  30.026  1.00  0.00     0.014 A 
ATOM     32  C   UNL A   1      37.500  29.290  30.131  1.00  0.00     0.014 A 
ATOM     33  C   UNL A   1      39.670  31.028  30.009  1.00  0.00     0.010 A 
ATOM     34  C   UNL A   1      38.755  28.794  30.319  1.00  0.00     0.010 A 
ATOM     35  C   UNL A   1      39.841  29.647  30.171  1.00  0.00    -0.014 A 
BRANCH  35  36
ATOM     36  C   UNL A   1      41.159  29.055  30.338  1.00  0.00     0.031 A 
ATOM     37  C   UNL A   1      41.553  28.892  31.763  1.00  0.00     0.074 A 
ATOM     38  C   UNL A   1      41.783  28.470  29.288  1.00  0.00     0.049 A 
ATOM     39  N   UNL A   1      42.548  29.449  32.371  1.00  0.00    -0.248 NA
ATOM     40  C   UNL A   1      40.632  28.183  32.672  1.00  0.00     0.031 C 
ATOM     41  C   UNL A   1      41.276  28.332  27.914  1.00  0.00     0.029 A 
ATOM     42  N   UNL A   1      42.901  27.697  29.262  1.00  0.00    -0.354 N 
ATOM     43  C   UNL A   1      42.530  28.922  33.660  1.00  0.00     0.074 A 
ATOM     44  C   UNL A   1      41.212  28.386  33.856  1.00  0.00     0.031 C 
ATOM     45  C   UNL A   1      41.904  27.307  27.303  1.00  0.00     0.029 A 
ATOM     46  C   UNL A   1      42.951  26.818  28.176  1.00  0.00     0.049 A 
ATOM     47  H   UNL A   1      43.609  27.750  29.944  1.00  0.00     0.167 HD
ATOM     48  C   UNL A   1      43.692  28.679  34.328  1.00  0.00     0.034 A 
ATOM     49  C   UNL A   1      43.733  25.713  28.055  1.00  0.00     0.034 A 
ATOM     50  C   UNL A   1      44.799  29.359  33.696  1.00  0.00     0.049 A 
ATOM     51  C   UNL A   1      44.840  25.858  29.029  1.00  0.00     0.074 A 
ATOM     52  C   UNL A   1      45.069  30.669  33.353  1.00  0.00     0.029 A 
ATOM     53  N   UNL A   1      45.645  28.585  32.936  1.00  0.00    -0.354 N 
ATOM     54  N   UNL A   1      45.744  26.793  28.946  1.00  0.00    -0.248 NA
ATOM     55  C   UNL A   1      44.656  25.274  30.348  1.00  0.00     0.031 C 
ATOM     56  C   UNL A   1      45.695  30.589  32.075  1.00  0.00     0.029 A 
ATOM     57  C   UNL A   1      45.864  29.240  31.755  1.00  0.00     0.049 A 
ATOM     58  H   UNL A   1      46.024  27.715  33.195  1.00  0.00     0.167 HD
ATOM     59  C   UNL A   1      45.867  27.254  30.250  1.00  0.00     0.074 A 
ATOM     60  C   UNL A   1      45.262  26.212  31.083  1.00  0.00     0.031 C 
ATOM     61  C   UNL A   1      46.146  28.567  30.507  1.00  0.00     0.034 A 
BRANCH  48  62
ATOM     62  C   UNL A   1      43.929  27.518  35.274  1.00  0.00     0.023 A 
ATOM     63  C   UNL A   1      44.468  27.832  36.543  1.00  0.00     0.012 A 
ATOM     64  C   UNL A   1      43.933  26.153  34.903  1.00  0.00     0.148 A 
ATOM     65  C   UNL A   1      45.047  26.856  37.361  1.00  0.00     0.002 A 
ATOM     66  C   UNL A   1      44.439  25.175  35.753  1.00  0.00     0.091 A 
ATOM     67  F   UNL A   1      43.571  25.785  33.673  1.00  0.00    -0.205 F 
ATOM     68  C   UNL A   1      45.030  25.525  36.967  1.00  0.00     0.022 A 
BRANCH  66  69
ATOM     69  S   UNL A   1      44.405  23.431  35.311  1.00  0.00     0.127 S 
ATOM     70  O   UNL A   1      44.995  22.819  36.497  1.00  0.00    -0.237 OA
ATOM     71  O   UNL A   1      42.971  23.199  35.137  1.00  0.00    -0.237 OA
ATOM     72  O   UNL A   1      45.180  23.321  34.081  1.00  0.00    -0.744 OA
ENDBRANCH  66  69
ENDBRANCH  48  62
BRANCH  49  73
ATOM     73  C   UNL A   1      43.426  24.411  27.406  1.00  0.00     0.023 A 
ATOM     74  C   UNL A   1      42.105  23.917  27.413  1.00  0.00     0.012 A 
ATOM     75  C   UNL A   1      44.353  23.796  26.535  1.00  0.00     0.148 A 
ATOM     76  C   UNL A   1      41.715  22.875  26.560  1.00  0.00     0.002 A 
ATOM     77  C   UNL A   1      43.964  22.757  25.694  1.00  0.00     0.091 A 
ATOM     78  F   UNL A   1      45.592  24.295  26.447  1.00  0.00    -0.205 F 
ATOM     79  C   UNL A   1      42.642  22.299  25.694  1.00  0.00     0.022 A 
BRANCH  77  80
ATOM     80  S   UNL A   1      45.113  22.007  24.531  1.00  0.00     0.127 S 
ATOM     81  O   UNL A   1      45.250  23.057  23.521  1.00  0.00    -0.237 OA
ATOM     82  O   UNL A   1      46.291  21.796  25.367  1.00  0.00    -0.237 OA
ATOM     83  O   UNL A   1      44.454  20.797  24.053  1.00  0.00    -0.744 OA
ENDBRANCH  77  80
ENDBRANCH  49  73
BRANCH  61  84
ATOM     84  C   UNL A   1      46.556  29.450  29.354  1.00  0.00     0.023 A 
ATOM     85  C   UNL A   1      47.845  29.416  28.781  1.00  0.00     0.012 A 
ATOM     86  C   UNL A   1      45.552  30.196  28.717  1.00  0.00     0.148 A 
ATOM     87  C   UNL A   1      48.129  30.125  27.609  1.00  0.00     0.002 A 
ATOM     88  C   UNL A   1      45.824  30.858  27.528  1.00  0.00     0.091 A 
ATOM     89  F   UNL A   1      44.331  30.216  29.272  1.00  0.00    -0.205 F 
ATOM     90  C   UNL A   1      47.114  30.834  26.973  1.00  0.00     0.022 A 
BRANCH  88  91
ATOM     91  S   UNL A   1      44.525  31.677  26.603  1.00  0.00     0.127 S 
ATOM     92  O   UNL A   1      45.248  32.165  25.431  1.00  0.00    -0.237 OA
ATOM     93  O   UNL A   1      43.591  30.582  26.335  1.00  0.00    -0.237 OA
ATOM     94  O   UNL A   1      43.992  32.707  27.486  1.00  0.00    -0.744 OA
ENDBRANCH  88  91
ENDBRANCH  61  84
ENDBRANCH  35  36
ENDBRANCH  27  30
ENDBRANCH  25  26
ENDBRANCH   1  25
TORSDOF 15
ENDMDL
