MODEL 1
REMARK VINA RESULT:     -14.6      0.000      0.000
REMARK SMILES Cc1c(C(=O)NCCCNC(=O)c2ccc(-c3c4nc(c(-c5cccc(S(=O)(=O)[O-])c5F)c5ccc([nH]5)c(-c5cccc(S(=O)(=O)[O-])c5F)c5nc(c(-c6cccc(S(=O)(=O)[O-])c6F)c6ccc3[nH]6)C=C5)C=C4)cc2)cccc1-n1c(C)cc(/C=C2/C(=O)NC(=S)N=C2O)c1C
REMARK SMILES IDX 8 1 7 2 6 3 4 4 5 5 3 7 1 8 2 9 79 10 76 11 78 12 77 13
REMARK SMILES IDX 80 14 81 15 95 16 82 17 83 18 84 19 96 20 85 21 86 22 87 23
REMARK SMILES IDX 93 24 88 25 89 26 92 27 90 28 91 30 94 31 9 33 10 34 11 35
REMARK SMILES IDX 12 37 13 38 14 39 75 40 15 41 74 42 16 43 17 44 18 45 68 46
REMARK SMILES IDX 19 47 73 48 67 49 69 50 20 51 72 52 66 53 65 54 21 56 53 57
REMARK SMILES IDX 33 58 52 59 34 60 37 61 51 62 70 63 35 64 36 65 50 67 71 68
REMARK SMILES IDX 38 69 22 70 23 71 31 72 24 73 26 74 32 75 25 76 27 77 28 78
REMARK SMILES IDX 29 79 30 80 54 81 55 82 63 83 56 84 58 85 64 86 57 87 59 88
REMARK SMILES IDX 60 89 61 90 62 91 39 92 40 93 48 94 41 95 43 96 49 97 42 98
REMARK SMILES IDX 44 99 45 100 46 101 47 102
REMARK H PARENT 6 6 89 29 94 32 10 36 69 55 37 66
REMARK Flexibility Score: inf
ROOT
ATOM      1  C   UNL A   1      32.294  31.059  26.476  1.00  0.00     0.042 C 
ENDROOT
BRANCH   1   2
ATOM      2  C   UNL A   1      31.399  30.014  25.808  1.00  0.00     0.118 C 
BRANCH   2   3
ATOM      3  N   UNL A   1      31.855  29.762  24.447  1.00  0.00    -0.352 N 
ATOM      4  C   UNL A   1      32.541  28.765  23.805  1.00  0.00     0.251 C 
ATOM      5  O   UNL A   1      32.783  28.971  22.610  1.00  0.00    -0.269 OA
ATOM      6  H   UNL A   1      31.608  30.492  23.836  1.00  0.00     0.163 HD
BRANCH   4   7
ATOM      7  C   UNL A   1      32.963  27.433  24.363  1.00  0.00     0.044 A 
ATOM      8  C   UNL A   1      31.227  25.930  23.251  1.00  0.00     0.047 C 
ATOM      9  C   UNL A   1      32.406  26.160  24.131  1.00  0.00    -0.014 A 
ATOM     10  C   UNL A   1      32.930  25.043  24.830  1.00  0.00     0.049 A 
ATOM     11  C   UNL A   1      33.945  27.538  25.378  1.00  0.00     0.014 A 
ATOM     12  C   UNL A   1      33.898  25.172  25.824  1.00  0.00     0.027 A 
ATOM     13  C   UNL A   1      34.395  26.433  26.109  1.00  0.00     0.003 A 
BRANCH  10  14
ATOM     14  N   UNL A   1      32.364  23.760  24.631  1.00  0.00    -0.318 N 
ATOM     15  C   UNL A   1      31.341  23.217  25.392  1.00  0.00     0.020 A 
ATOM     16  C   UNL A   1      32.974  22.739  23.902  1.00  0.00     0.027 A 
ATOM     17  C   UNL A   1      30.665  23.936  26.509  1.00  0.00     0.065 C 
ATOM     18  C   UNL A   1      31.144  21.927  24.946  1.00  0.00     0.031 A 
ATOM     19  C   UNL A   1      32.156  21.624  23.993  1.00  0.00    -0.003 A 
ATOM     20  C   UNL A   1      34.330  22.941  23.295  1.00  0.00     0.065 C 
BRANCH  19  21
ATOM     21  C   UNL A   1      32.344  20.308  23.466  1.00  0.00     0.029 C 
ATOM     22  C   UNL A   1      32.642  19.131  24.045  1.00  0.00     0.102 C 
ATOM     23  C   UNL A   1      32.619  17.945  23.150  1.00  0.00     0.262 C 
ATOM     24  C   UNL A   1      32.918  18.797  25.442  1.00  0.00     0.226 C 
ATOM     25  O   UNL A   1      32.662  17.997  21.925  1.00  0.00    -0.269 OA
ATOM     26  N   UNL A   1      32.527  16.751  23.813  1.00  0.00    -0.297 N 
ATOM     27  N   UNL A   1      32.880  17.632  25.977  1.00  0.00    -0.184 NA
ATOM     28  C   UNL A   1      32.585  16.564  25.172  1.00  0.00     0.203 C 
ATOM     29  H   UNL A   1      32.409  15.946  23.260  1.00  0.00     0.172 HD
ATOM     30  S   UNL A   1      32.361  15.008  25.751  1.00  0.00    -0.038 S 
BRANCH  24  31
ATOM     31  O   UNL A   1      33.320  19.798  26.227  1.00  0.00    -0.493 OA
ATOM     32  H   UNL A   1      33.250  19.720  27.158  1.00  0.00     0.295 HD
ENDBRANCH  24  31
ENDBRANCH  19  21
ENDBRANCH  10  14
ENDBRANCH   4   7
ENDBRANCH   2   3
ENDBRANCH   1   2
BRANCH   1  33
ATOM     33  C   UNL A   1      33.410  30.557  27.355  1.00  0.00     0.118 C 
BRANCH  33  34
ATOM     34  N   UNL A   1      34.035  31.624  28.135  1.00  0.00    -0.352 N 
ATOM     35  C   UNL A   1      35.200  31.581  28.896  1.00  0.00     0.251 C 
ATOM     36  H   UNL A   1      33.571  32.492  28.118  1.00  0.00     0.163 HD
ATOM     37  O   UNL A   1      35.558  32.543  29.532  1.00  0.00    -0.269 OA
BRANCH  35  38
ATOM     38  C   UNL A   1      36.031  30.355  28.777  1.00  0.00     0.039 A 
ATOM     39  C   UNL A   1      36.348  29.695  29.967  1.00  0.00     0.014 A 
ATOM     40  C   UNL A   1      36.799  30.182  27.634  1.00  0.00     0.014 A 
ATOM     41  C   UNL A   1      37.600  29.103  30.095  1.00  0.00     0.010 A 
ATOM     42  C   UNL A   1      38.093  29.752  27.813  1.00  0.00     0.010 A 
ATOM     43  C   UNL A   1      38.511  29.258  29.060  1.00  0.00    -0.014 A 
BRANCH  43  44
ATOM     44  C   UNL A   1      39.922  28.906  29.108  1.00  0.00     0.031 A 
ATOM     45  C   UNL A   1      40.277  27.488  28.882  1.00  0.00     0.074 A 
ATOM     46  C   UNL A   1      40.883  29.860  29.112  1.00  0.00     0.049 A 
ATOM     47  N   UNL A   1      41.481  27.041  28.892  1.00  0.00    -0.248 NA
ATOM     48  C   UNL A   1      39.278  26.444  28.660  1.00  0.00     0.031 C 
ATOM     49  C   UNL A   1      42.263  29.710  28.654  1.00  0.00     0.029 A 
ATOM     50  N   UNL A   1      40.881  31.103  29.756  1.00  0.00    -0.354 N 
ATOM     51  C   UNL A   1      41.452  25.745  28.438  1.00  0.00     0.074 A 
ATOM     52  C   UNL A   1      40.056  25.393  28.394  1.00  0.00     0.031 C 
ATOM     53  C   UNL A   1      43.027  30.630  29.259  1.00  0.00     0.029 A 
ATOM     54  C   UNL A   1      42.193  31.277  30.252  1.00  0.00     0.049 A 
ATOM     55  H   UNL A   1      40.124  31.726  29.843  1.00  0.00     0.167 HD
ATOM     56  C   UNL A   1      42.629  25.176  28.066  1.00  0.00     0.034 A 
ATOM     57  C   UNL A   1      42.500  31.393  31.578  1.00  0.00     0.034 A 
ATOM     58  C   UNL A   1      43.764  25.971  28.560  1.00  0.00     0.049 A 
ATOM     59  C   UNL A   1      43.477  30.339  32.090  1.00  0.00     0.074 A 
ATOM     60  C   UNL A   1      44.692  26.840  28.017  1.00  0.00     0.029 A 
ATOM     61  N   UNL A   1      43.896  26.084  29.931  1.00  0.00    -0.354 N 
ATOM     62  N   UNL A   1      44.057  29.430  31.353  1.00  0.00    -0.248 NA
ATOM     63  C   UNL A   1      43.791  30.171  33.511  1.00  0.00     0.031 C 
ATOM     64  C   UNL A   1      45.362  27.497  29.098  1.00  0.00     0.029 A 
ATOM     65  C   UNL A   1      44.859  27.003  30.289  1.00  0.00     0.049 A 
ATOM     66  H   UNL A   1      43.362  25.569  30.578  1.00  0.00     0.167 HD
ATOM     67  C   UNL A   1      44.610  28.472  32.169  1.00  0.00     0.074 A 
ATOM     68  C   UNL A   1      44.474  29.014  33.509  1.00  0.00     0.031 C 
ATOM     69  C   UNL A   1      45.054  27.261  31.709  1.00  0.00     0.034 A 
BRANCH  56  70
ATOM     70  C   UNL A   1      42.811  23.951  27.191  1.00  0.00     0.023 A 
ATOM     71  C   UNL A   1      43.649  24.099  26.064  1.00  0.00     0.012 A 
ATOM     72  C   UNL A   1      42.151  22.705  27.310  1.00  0.00     0.148 A 
ATOM     73  C   UNL A   1      43.799  23.098  25.099  1.00  0.00     0.002 A 
ATOM     74  C   UNL A   1      42.326  21.689  26.367  1.00  0.00     0.091 A 
ATOM     75  F   UNL A   1      41.284  22.491  28.300  1.00  0.00    -0.205 F 
ATOM     76  C   UNL A   1      43.140  21.889  25.251  1.00  0.00     0.022 A 
BRANCH  74  77
ATOM     77  S   UNL A   1      41.497  20.092  26.497  1.00  0.00     0.127 S 
ATOM     78  O   UNL A   1      41.936  19.631  27.815  1.00  0.00    -0.237 OA
ATOM     79  O   UNL A   1      40.085  20.462  26.422  1.00  0.00    -0.237 OA
ATOM     80  O   UNL A   1      41.971  19.285  25.378  1.00  0.00    -0.744 OA
ENDBRANCH  74  77
ENDBRANCH  56  70
BRANCH  57  81
ATOM     81  C   UNL A   1      41.396  31.989  32.383  1.00  0.00     0.023 A 
ATOM     82  C   UNL A   1      41.110  33.358  32.174  1.00  0.00     0.012 A 
ATOM     83  C   UNL A   1      40.427  31.174  32.994  1.00  0.00     0.148 A 
ATOM     84  C   UNL A   1      39.842  33.871  32.444  1.00  0.00     0.002 A 
ATOM     85  C   UNL A   1      39.164  31.694  33.261  1.00  0.00     0.091 A 
ATOM     86  F   UNL A   1      40.719  29.886  33.214  1.00  0.00    -0.205 F 
ATOM     87  C   UNL A   1      38.859  33.030  32.953  1.00  0.00     0.022 A 
BRANCH  85  88
ATOM     88  S   UNL A   1      37.822  30.654  33.851  1.00  0.00     0.127 S 
ATOM     89  O   UNL A   1      37.903  30.867  35.293  1.00  0.00    -0.237 OA
ATOM     90  O   UNL A   1      36.660  31.257  33.197  1.00  0.00    -0.237 OA
ATOM     91  O   UNL A   1      38.146  29.319  33.373  1.00  0.00    -0.744 OA
ENDBRANCH  85  88
ENDBRANCH  57  81
BRANCH  69  92
ATOM     92  C   UNL A   1      45.672  26.192  32.595  1.00  0.00     0.023 A 
ATOM     93  C   UNL A   1      47.067  26.000  32.618  1.00  0.00     0.012 A 
ATOM     94  C   UNL A   1      44.887  25.251  33.315  1.00  0.00     0.148 A 
ATOM     95  C   UNL A   1      47.656  24.960  33.350  1.00  0.00     0.002 A 
ATOM     96  C   UNL A   1      45.468  24.163  33.958  1.00  0.00     0.091 A 
ATOM     97  F   UNL A   1      43.567  25.433  33.426  1.00  0.00    -0.205 F 
ATOM     98  C   UNL A   1      46.857  24.029  34.001  1.00  0.00     0.022 A 
BRANCH  96  99
ATOM     99  S   UNL A   1      44.494  22.822  34.663  1.00  0.00     0.127 S 
ATOM    100  O   UNL A   1      45.485  21.748  34.742  1.00  0.00    -0.237 OA
ATOM    101  O   UNL A   1      44.102  23.385  35.954  1.00  0.00    -0.237 OA
ATOM    102  O   UNL A   1      43.408  22.576  33.726  1.00  0.00    -0.744 OA
ENDBRANCH  96  99
ENDBRANCH  69  92
ENDBRANCH  43  44
ENDBRANCH  35  38
ENDBRANCH  33  34
ENDBRANCH   1  33
TORSDOF 16
ENDMDL
MODEL 2
REMARK VINA RESULT:     -14.5      1.570      1.915
REMARK SMILES Cc1c(C(=O)NCCCNC(=O)c2ccc(-c3c4nc(c(-c5cccc(S(=O)(=O)[O-])c5F)c5ccc([nH]5)c(-c5cccc(S(=O)(=O)[O-])c5F)c5nc(c(-c6cccc(S(=O)(=O)[O-])c6F)c6ccc3[nH]6)C=C5)C=C4)cc2)cccc1-n1c(C)cc(/C=C2/C(=O)NC(=S)N=C2O)c1C
REMARK SMILES IDX 8 1 7 2 6 3 4 4 5 5 3 7 1 8 2 9 79 10 76 11 78 12 77 13
REMARK SMILES IDX 80 14 81 15 95 16 82 17 83 18 84 19 96 20 85 21 86 22 87 23
REMARK SMILES IDX 93 24 88 25 89 26 92 27 90 28 91 30 94 31 9 33 10 34 11 35
REMARK SMILES IDX 12 37 13 38 14 39 75 40 15 41 74 42 16 43 17 44 18 45 68 46
REMARK SMILES IDX 19 47 73 48 67 49 69 50 20 51 72 52 66 53 65 54 21 56 53 57
REMARK SMILES IDX 33 58 52 59 34 60 37 61 51 62 70 63 35 64 36 65 50 67 71 68
REMARK SMILES IDX 38 69 22 70 23 71 31 72 24 73 26 74 32 75 25 76 27 77 28 78
REMARK SMILES IDX 29 79 30 80 54 81 55 82 63 83 56 84 58 85 64 86 57 87 59 88
REMARK SMILES IDX 60 89 61 90 62 91 39 92 40 93 48 94 41 95 43 96 49 97 42 98
REMARK SMILES IDX 44 99 45 100 46 101 47 102
REMARK H PARENT 6 6 89 29 94 32 10 36 69 55 37 66
REMARK Flexibility Score: inf
ROOT
ATOM      1  C   UNL A   1      32.262  30.994  26.540  1.00  0.00     0.042 C 
ENDROOT
BRANCH   1   2
ATOM      2  C   UNL A   1      31.418  29.937  25.827  1.00  0.00     0.118 C 
BRANCH   2   3
ATOM      3  N   UNL A   1      31.924  29.719  24.478  1.00  0.00    -0.352 N 
ATOM      4  C   UNL A   1      32.637  28.740  23.837  1.00  0.00     0.251 C 
ATOM      5  O   UNL A   1      32.921  28.976  22.657  1.00  0.00    -0.269 OA
ATOM      6  H   UNL A   1      31.696  30.463  23.876  1.00  0.00     0.163 HD
BRANCH   4   7
ATOM      7  C   UNL A   1      33.045  27.397  24.378  1.00  0.00     0.044 A 
ATOM      8  C   UNL A   1      31.296  25.926  23.243  1.00  0.00     0.047 C 
ATOM      9  C   UNL A   1      32.475  26.132  24.129  1.00  0.00    -0.014 A 
ATOM     10  C   UNL A   1      32.987  25.002  24.813  1.00  0.00     0.049 A 
ATOM     11  C   UNL A   1      34.026  27.479  25.395  1.00  0.00     0.014 A 
ATOM     12  C   UNL A   1      33.955  25.107  25.810  1.00  0.00     0.027 A 
ATOM     13  C   UNL A   1      34.464  26.360  26.113  1.00  0.00     0.003 A 
BRANCH  10  14
ATOM     14  N   UNL A   1      32.408  23.727  24.596  1.00  0.00    -0.318 N 
ATOM     15  C   UNL A   1      31.357  23.198  25.327  1.00  0.00     0.020 A 
ATOM     16  C   UNL A   1      33.025  22.698  23.883  1.00  0.00     0.027 A 
ATOM     17  C   UNL A   1      30.660  23.925  26.425  1.00  0.00     0.065 C 
ATOM     18  C   UNL A   1      31.154  21.911  24.873  1.00  0.00     0.031 A 
ATOM     19  C   UNL A   1      32.188  21.594  23.949  1.00  0.00    -0.003 A 
ATOM     20  C   UNL A   1      34.399  22.881  23.314  1.00  0.00     0.065 C 
BRANCH  19  21
ATOM     21  C   UNL A   1      32.372  20.277  23.426  1.00  0.00     0.029 C 
ATOM     22  C   UNL A   1      32.662  19.099  24.008  1.00  0.00     0.102 C 
ATOM     23  C   UNL A   1      32.637  17.912  23.115  1.00  0.00     0.262 C 
ATOM     24  C   UNL A   1      32.930  18.767  25.407  1.00  0.00     0.226 C 
ATOM     25  O   UNL A   1      32.686  17.962  21.891  1.00  0.00    -0.269 OA
ATOM     26  N   UNL A   1      32.537  16.720  23.780  1.00  0.00    -0.297 N 
ATOM     27  N   UNL A   1      32.884  17.604  25.944  1.00  0.00    -0.184 NA
ATOM     28  C   UNL A   1      32.587  16.535  25.139  1.00  0.00     0.203 C 
ATOM     29  H   UNL A   1      32.417  15.914  23.229  1.00  0.00     0.172 HD
ATOM     30  S   UNL A   1      32.354  14.981  25.721  1.00  0.00    -0.038 S 
BRANCH  24  31
ATOM     31  O   UNL A   1      33.333  19.768  26.192  1.00  0.00    -0.493 OA
ATOM     32  H   UNL A   1      34.209  19.779  26.524  1.00  0.00     0.295 HD
ENDBRANCH  24  31
ENDBRANCH  19  21
ENDBRANCH  10  14
ENDBRANCH   4   7
ENDBRANCH   2   3
ENDBRANCH   1   2
BRANCH   1  33
ATOM     33  C   UNL A   1      33.560  30.544  27.159  1.00  0.00     0.118 C 
BRANCH  33  34
ATOM     34  N   UNL A   1      34.356  31.660  27.670  1.00  0.00    -0.352 N 
ATOM     35  C   UNL A   1      35.587  31.627  28.320  1.00  0.00     0.251 C 
ATOM     36  H   UNL A   1      33.969  32.555  27.535  1.00  0.00     0.163 HD
ATOM     37  O   UNL A   1      36.092  32.643  28.734  1.00  0.00    -0.269 OA
BRANCH  35  38
ATOM     38  C   UNL A   1      36.289  30.320  28.355  1.00  0.00     0.039 A 
ATOM     39  C   UNL A   1      36.359  29.679  29.595  1.00  0.00     0.014 A 
ATOM     40  C   UNL A   1      37.192  30.023  27.344  1.00  0.00     0.014 A 
ATOM     41  C   UNL A   1      37.508  28.967  29.921  1.00  0.00     0.010 A 
ATOM     42  C   UNL A   1      38.393  29.471  27.722  1.00  0.00     0.010 A 
ATOM     43  C   UNL A   1      38.571  28.987  29.029  1.00  0.00    -0.014 A 
BRANCH  43  44
ATOM     44  C   UNL A   1      39.914  28.495  29.294  1.00  0.00     0.031 A 
ATOM     45  C   UNL A   1      40.219  27.103  28.895  1.00  0.00     0.074 A 
ATOM     46  C   UNL A   1      40.910  29.336  29.658  1.00  0.00     0.049 A 
ATOM     47  N   UNL A   1      41.363  26.543  29.066  1.00  0.00    -0.248 NA
ATOM     48  C   UNL A   1      39.227  26.212  28.296  1.00  0.00     0.031 C 
ATOM     49  C   UNL A   1      42.344  29.126  29.466  1.00  0.00     0.029 A 
ATOM     50  N   UNL A   1      40.849  30.453  30.499  1.00  0.00    -0.354 N 
ATOM     51  C   UNL A   1      41.350  25.346  28.392  1.00  0.00     0.074 A 
ATOM     52  C   UNL A   1      39.976  25.146  28.009  1.00  0.00     0.031 C 
ATOM     53  C   UNL A   1      43.017  29.857  30.365  1.00  0.00     0.029 A 
ATOM     54  C   UNL A   1      42.033  30.415  31.270  1.00  0.00     0.049 A 
ATOM     55  H   UNL A   1      40.132  31.126  30.543  1.00  0.00     0.167 HD
ATOM     56  C   UNL A   1      42.541  24.732  28.167  1.00  0.00     0.034 A 
ATOM     57  C   UNL A   1      42.057  30.286  32.630  1.00  0.00     0.034 A 
ATOM     58  C   UNL A   1      43.592  25.321  29.010  1.00  0.00     0.049 A 
ATOM     59  C   UNL A   1      42.835  29.072  33.130  1.00  0.00     0.074 A 
ATOM     60  C   UNL A   1      44.668  26.170  28.826  1.00  0.00     0.029 A 
ATOM     61  N   UNL A   1      43.436  25.200  30.378  1.00  0.00    -0.354 N 
ATOM     62  N   UNL A   1      43.500  28.241  32.375  1.00  0.00    -0.248 NA
ATOM     63  C   UNL A   1      42.828  28.649  34.534  1.00  0.00     0.031 C 
ATOM     64  C   UNL A   1      45.132  26.577  30.119  1.00  0.00     0.029 A 
ATOM     65  C   UNL A   1      44.356  25.950  31.079  1.00  0.00     0.049 A 
ATOM     66  H   UNL A   1      42.744  24.642  30.804  1.00  0.00     0.167 HD
ATOM     67  C   UNL A   1      43.804  27.115  33.101  1.00  0.00     0.074 A 
ATOM     68  C   UNL A   1      43.421  27.445  34.462  1.00  0.00     0.031 C 
ATOM     69  C   UNL A   1      44.260  25.956  32.532  1.00  0.00     0.034 A 
BRANCH  56  70
ATOM     70  C   UNL A   1      42.828  23.651  27.143  1.00  0.00     0.023 A 
ATOM     71  C   UNL A   1      43.478  24.062  25.958  1.00  0.00     0.012 A 
ATOM     72  C   UNL A   1      42.421  22.296  27.186  1.00  0.00     0.148 A 
ATOM     73  C   UNL A   1      43.683  23.202  24.874  1.00  0.00     0.002 A 
ATOM     74  C   UNL A   1      42.656  21.426  26.118  1.00  0.00     0.091 A 
ATOM     75  F   UNL A   1      41.737  21.829  28.230  1.00  0.00    -0.205 F 
ATOM     76  C   UNL A   1      43.274  21.881  24.954  1.00  0.00     0.022 A 
BRANCH  74  77
ATOM     77  S   UNL A   1      42.148  19.695  26.150  1.00  0.00     0.127 S 
ATOM     78  O   UNL A   1      40.701  19.801  25.962  1.00  0.00    -0.237 OA
ATOM     79  O   UNL A   1      42.870  19.133  25.009  1.00  0.00    -0.237 OA
ATOM     80  O   UNL A   1      42.559  19.165  27.445  1.00  0.00    -0.744 OA
ENDBRANCH  74  77
ENDBRANCH  56  70
BRANCH  57  81
ATOM     81  C   UNL A   1      40.847  30.851  33.291  1.00  0.00     0.023 A 
ATOM     82  C   UNL A   1      39.630  30.151  33.118  1.00  0.00     0.012 A 
ATOM     83  C   UNL A   1      40.965  31.764  34.353  1.00  0.00     0.148 A 
ATOM     84  C   UNL A   1      38.606  30.259  34.058  1.00  0.00     0.002 A 
ATOM     85  C   UNL A   1      39.937  31.867  35.286  1.00  0.00     0.091 A 
ATOM     86  F   UNL A   1      42.111  32.444  34.491  1.00  0.00    -0.205 F 
ATOM     87  C   UNL A   1      38.774  31.089  35.160  1.00  0.00     0.022 A 
BRANCH  85  88
ATOM     88  S   UNL A   1      40.109  32.862  36.773  1.00  0.00     0.127 S 
ATOM     89  O   UNL A   1      40.622  34.114  36.226  1.00  0.00    -0.237 OA
ATOM     90  O   UNL A   1      38.732  32.915  37.264  1.00  0.00    -0.237 OA
ATOM     91  O   UNL A   1      41.015  32.107  37.626  1.00  0.00    -0.744 OA
ENDBRANCH  85  88
ENDBRANCH  57  81
BRANCH  69  92
ATOM     92  C   UNL A   1      44.606  24.702  33.319  1.00  0.00     0.023 A 
ATOM     93  C   UNL A   1      43.589  23.848  33.787  1.00  0.00     0.012 A 
ATOM     94  C   UNL A   1      45.930  24.412  33.745  1.00  0.00     0.148 A 
ATOM     95  C   UNL A   1      43.873  22.740  34.597  1.00  0.00     0.002 A 
ATOM     96  C   UNL A   1      46.195  23.370  34.628  1.00  0.00     0.091 A 
ATOM     97  F   UNL A   1      46.956  25.115  33.254  1.00  0.00    -0.205 F 
ATOM     98  C   UNL A   1      45.171  22.514  35.036  1.00  0.00     0.022 A 
BRANCH  96  99
ATOM     99  S   UNL A   1      47.813  23.129  35.383  1.00  0.00     0.127 S 
ATOM    100  O   UNL A   1      48.025  24.417  36.045  1.00  0.00    -0.237 OA
ATOM    101  O   UNL A   1      47.555  22.013  36.291  1.00  0.00    -0.237 OA
ATOM    102  O   UNL A   1      48.731  22.853  34.288  1.00  0.00    -0.744 OA
ENDBRANCH  96  99
ENDBRANCH  69  92
ENDBRANCH  43  44
ENDBRANCH  35  38
ENDBRANCH  33  34
ENDBRANCH   1  33
TORSDOF 16
ENDMDL
MODEL 3
REMARK VINA RESULT:     -14.4      4.166      9.764
REMARK SMILES Cc1c(C(=O)NCCCNC(=O)c2ccc(-c3c4nc(c(-c5cccc(S(=O)(=O)[O-])c5F)c5ccc([nH]5)c(-c5cccc(S(=O)(=O)[O-])c5F)c5nc(c(-c6cccc(S(=O)(=O)[O-])c6F)c6ccc3[nH]6)C=C5)C=C4)cc2)cccc1-n1c(C)cc(/C=C2/C(=O)NC(=S)N=C2O)c1C
REMARK SMILES IDX 8 1 7 2 6 3 4 4 5 5 3 7 1 8 2 9 79 10 76 11 78 12 77 13
REMARK SMILES IDX 80 14 81 15 95 16 82 17 83 18 84 19 96 20 85 21 86 22 87 23
REMARK SMILES IDX 93 24 88 25 89 26 92 27 90 28 91 30 94 31 9 33 10 34 11 35
REMARK SMILES IDX 12 37 13 38 14 39 75 40 15 41 74 42 16 43 17 44 18 45 68 46
REMARK SMILES IDX 19 47 73 48 67 49 69 50 20 51 72 52 66 53 65 54 21 56 53 57
REMARK SMILES IDX 33 58 52 59 34 60 37 61 51 62 70 63 35 64 36 65 50 67 71 68
REMARK SMILES IDX 38 69 22 70 23 71 31 72 24 73 26 74 32 75 25 76 27 77 28 78
REMARK SMILES IDX 29 79 30 80 54 81 55 82 63 83 56 84 58 85 64 86 57 87 59 88
REMARK SMILES IDX 60 89 61 90 62 91 39 92 40 93 48 94 41 95 43 96 49 97 42 98
REMARK SMILES IDX 44 99 45 100 46 101 47 102
REMARK H PARENT 6 6 89 29 94 32 10 36 69 55 37 66
REMARK Flexibility Score: inf
ROOT
ATOM      1  C   UNL A   1      37.777  20.775  25.380  1.00  0.00     0.042 C 
ENDROOT
BRANCH   1   2
ATOM      2  C   UNL A   1      36.399  20.769  24.719  1.00  0.00     0.118 C 
BRANCH   2   3
ATOM      3  N   UNL A   1      35.357  20.686  25.734  1.00  0.00    -0.352 N 
ATOM      4  C   UNL A   1      34.453  21.551  26.295  1.00  0.00     0.251 C 
ATOM      5  O   UNL A   1      33.758  21.079  27.202  1.00  0.00    -0.269 OA
ATOM      6  H   UNL A   1      35.284  19.781  26.113  1.00  0.00     0.163 HD
BRANCH   4   7
ATOM      7  C   UNL A   1      34.166  22.970  25.887  1.00  0.00     0.044 A 
ATOM      8  C   UNL A   1      32.029  22.606  24.539  1.00  0.00     0.047 C 
ATOM      9  C   UNL A   1      33.097  23.470  25.116  1.00  0.00    -0.014 A 
ATOM     10  C   UNL A   1      33.069  24.850  24.795  1.00  0.00     0.049 A 
ATOM     11  C   UNL A   1      35.218  23.865  26.197  1.00  0.00     0.014 A 
ATOM     12  C   UNL A   1      34.117  25.713  25.112  1.00  0.00     0.027 A 
ATOM     13  C   UNL A   1      35.206  25.209  25.804  1.00  0.00     0.003 A 
BRANCH  10  14
ATOM     14  N   UNL A   1      32.017  25.365  23.996  1.00  0.00    -0.318 N 
ATOM     15  C   UNL A   1      32.028  25.425  22.612  1.00  0.00     0.020 A 
ATOM     16  C   UNL A   1      31.005  26.197  24.477  1.00  0.00     0.027 A 
ATOM     17  C   UNL A   1      33.143  24.913  21.767  1.00  0.00     0.065 C 
ATOM     18  C   UNL A   1      30.873  26.075  22.226  1.00  0.00     0.031 A 
ATOM     19  C   UNL A   1      30.213  26.547  23.394  1.00  0.00    -0.003 A 
ATOM     20  C   UNL A   1      30.993  26.634  25.910  1.00  0.00     0.065 C 
BRANCH  19  21
ATOM     21  C   UNL A   1      29.077  27.413  23.336  1.00  0.00     0.029 C 
ATOM     22  C   UNL A   1      28.920  28.679  22.909  1.00  0.00     0.102 C 
ATOM     23  C   UNL A   1      27.524  29.188  22.891  1.00  0.00     0.262 C 
ATOM     24  C   UNL A   1      29.893  29.635  22.381  1.00  0.00     0.226 C 
ATOM     25  O   UNL A   1      26.592  28.681  23.506  1.00  0.00    -0.269 OA
ATOM     26  N   UNL A   1      27.346  30.291  22.101  1.00  0.00    -0.297 N 
ATOM     27  N   UNL A   1      29.640  30.694  21.703  1.00  0.00    -0.184 NA
ATOM     28  C   UNL A   1      28.328  31.006  21.462  1.00  0.00     0.203 C 
ATOM     29  H   UNL A   1      26.421  30.604  21.979  1.00  0.00     0.172 HD
ATOM     30  S   UNL A   1      27.849  32.274  20.477  1.00  0.00    -0.038 S 
BRANCH  24  31
ATOM     31  O   UNL A   1      31.172  29.423  22.696  1.00  0.00    -0.493 OA
ATOM     32  H   UNL A   1      31.575  28.603  22.488  1.00  0.00     0.295 HD
ENDBRANCH  24  31
ENDBRANCH  19  21
ENDBRANCH  10  14
ENDBRANCH   4   7
ENDBRANCH   2   3
ENDBRANCH   1   2
BRANCH   1  33
ATOM     33  C   UNL A   1      38.395  22.114  25.686  1.00  0.00     0.118 C 
BRANCH  33  34
ATOM     34  N   UNL A   1      39.834  22.026  25.932  1.00  0.00    -0.352 N 
ATOM     35  C   UNL A   1      40.723  23.041  26.276  1.00  0.00     0.251 C 
ATOM     36  H   UNL A   1      40.227  21.128  25.844  1.00  0.00     0.163 HD
ATOM     37  O   UNL A   1      41.904  22.814  26.392  1.00  0.00    -0.269 OA
BRANCH  35  38
ATOM     38  C   UNL A   1      40.133  24.360  26.616  1.00  0.00     0.039 A 
ATOM     39  C   UNL A   1      40.687  25.477  25.985  1.00  0.00     0.014 A 
ATOM     40  C   UNL A   1      39.427  24.486  27.805  1.00  0.00     0.014 A 
ATOM     41  C   UNL A   1      40.793  26.668  26.695  1.00  0.00     0.010 A 
ATOM     42  C   UNL A   1      39.684  25.601  28.567  1.00  0.00     0.010 A 
ATOM     43  C   UNL A   1      40.413  26.676  28.030  1.00  0.00    -0.014 A 
BRANCH  43  44
ATOM     44  C   UNL A   1      40.658  27.751  28.979  1.00  0.00     0.031 A 
ATOM     45  C   UNL A   1      39.752  28.920  28.930  1.00  0.00     0.074 A 
ATOM     46  C   UNL A   1      41.510  27.589  30.017  1.00  0.00     0.049 A 
ATOM     47  N   UNL A   1      39.851  29.935  29.711  1.00  0.00    -0.248 NA
ATOM     48  C   UNL A   1      38.671  29.048  27.954  1.00  0.00     0.031 C 
ATOM     49  C   UNL A   1      41.487  28.314  31.287  1.00  0.00     0.029 A 
ATOM     50  N   UNL A   1      42.729  26.901  30.051  1.00  0.00    -0.354 N 
ATOM     51  C   UNL A   1      38.734  30.714  29.531  1.00  0.00     0.074 A 
ATOM     52  C   UNL A   1      38.079  30.169  28.369  1.00  0.00     0.031 C 
ATOM     53  C   UNL A   1      42.711  28.284  31.830  1.00  0.00     0.029 A 
ATOM     54  C   UNL A   1      43.592  27.694  30.842  1.00  0.00     0.049 A 
ATOM     55  H   UNL A   1      42.940  26.043  29.617  1.00  0.00     0.167 HD
ATOM     56  C   UNL A   1      38.466  31.665  30.464  1.00  0.00     0.034 A 
ATOM     57  C   UNL A   1      44.745  28.263  30.380  1.00  0.00     0.034 A 
ATOM     58  C   UNL A   1      39.643  31.897  31.315  1.00  0.00     0.049 A 
ATOM     59  C   UNL A   1      44.792  29.782  30.516  1.00  0.00     0.074 A 
ATOM     60  C   UNL A   1      40.027  31.581  32.605  1.00  0.00     0.029 A 
ATOM     61  N   UNL A   1      40.776  32.386  30.692  1.00  0.00    -0.354 N 
ATOM     62  N   UNL A   1      43.873  30.515  31.084  1.00  0.00    -0.248 NA
ATOM     63  C   UNL A   1      45.850  30.600  29.917  1.00  0.00     0.031 C 
ATOM     64  C   UNL A   1      41.424  31.865  32.730  1.00  0.00     0.029 A 
ATOM     65  C   UNL A   1      41.874  32.379  31.526  1.00  0.00     0.049 A 
ATOM     66  H   UNL A   1      40.797  32.700  29.760  1.00  0.00     0.167 HD
ATOM     67  C   UNL A   1      44.079  31.834  30.755  1.00  0.00     0.074 A 
ATOM     68  C   UNL A   1      45.364  31.843  30.079  1.00  0.00     0.031 C 
ATOM     69  C   UNL A   1      43.148  32.815  30.970  1.00  0.00     0.034 A 
BRANCH  56  70
ATOM     70  C   UNL A   1      37.138  32.357  30.702  1.00  0.00     0.023 A 
ATOM     71  C   UNL A   1      36.623  32.298  32.016  1.00  0.00     0.012 A 
ATOM     72  C   UNL A   1      36.300  32.963  29.736  1.00  0.00     0.148 A 
ATOM     73  C   UNL A   1      35.350  32.773  32.349  1.00  0.00     0.002 A 
ATOM     74  C   UNL A   1      35.042  33.471  30.073  1.00  0.00     0.091 A 
ATOM     75  F   UNL A   1      36.665  33.005  28.456  1.00  0.00    -0.205 F 
ATOM     76  C   UNL A   1      34.558  33.363  31.377  1.00  0.00     0.022 A 
BRANCH  74  77
ATOM     77  S   UNL A   1      33.955  34.248  28.860  1.00  0.00     0.127 S 
ATOM     78  O   UNL A   1      34.814  35.302  28.318  1.00  0.00    -0.237 OA
ATOM     79  O   UNL A   1      33.680  33.151  27.934  1.00  0.00    -0.237 OA
ATOM     80  O   UNL A   1      32.789  34.727  29.594  1.00  0.00    -0.744 OA
ENDBRANCH  74  77
ENDBRANCH  56  70
BRANCH  57  81
ATOM     81  C   UNL A   1      45.374  27.490  29.271  1.00  0.00     0.023 A 
ATOM     82  C   UNL A   1      45.993  26.264  29.608  1.00  0.00     0.012 A 
ATOM     83  C   UNL A   1      45.022  27.733  27.932  1.00  0.00     0.148 A 
ATOM     84  C   UNL A   1      46.135  25.253  28.660  1.00  0.00     0.002 A 
ATOM     85  C   UNL A   1      45.168  26.717  26.991  1.00  0.00     0.091 A 
ATOM     86  F   UNL A   1      44.463  28.908  27.618  1.00  0.00    -0.205 F 
ATOM     87  C   UNL A   1      45.689  25.467  27.361  1.00  0.00     0.022 A 
BRANCH  85  88
ATOM     88  S   UNL A   1      44.551  26.893  25.312  1.00  0.00     0.127 S 
ATOM     89  O   UNL A   1      45.784  27.154  24.576  1.00  0.00    -0.237 OA
ATOM     90  O   UNL A   1      43.948  25.582  25.071  1.00  0.00    -0.237 OA
ATOM     91  O   UNL A   1      43.592  27.985  25.378  1.00  0.00    -0.744 OA
ENDBRANCH  85  88
ENDBRANCH  57  81
BRANCH  69  92
ATOM     92  C   UNL A   1      43.361  34.278  30.618  1.00  0.00     0.023 A 
ATOM     93  C   UNL A   1      43.698  35.212  31.616  1.00  0.00     0.012 A 
ATOM     94  C   UNL A   1      43.090  34.796  29.322  1.00  0.00     0.148 A 
ATOM     95  C   UNL A   1      43.803  36.582  31.337  1.00  0.00     0.002 A 
ATOM     96  C   UNL A   1      43.099  36.165  29.074  1.00  0.00     0.091 A 
ATOM     97  F   UNL A   1      42.869  33.960  28.304  1.00  0.00    -0.205 F 
ATOM     98  C   UNL A   1      43.483  37.061  30.073  1.00  0.00     0.022 A 
BRANCH  96  99
ATOM     99  S   UNL A   1      42.521  36.871  27.521  1.00  0.00     0.127 S 
ATOM    100  O   UNL A   1      41.384  36.002  27.208  1.00  0.00    -0.237 OA
ATOM    101  O   UNL A   1      42.156  38.226  27.927  1.00  0.00    -0.237 OA
ATOM    102  O   UNL A   1      43.635  36.768  26.590  1.00  0.00    -0.744 OA
ENDBRANCH  96  99
ENDBRANCH  69  92
ENDBRANCH  43  44
ENDBRANCH  35  38
ENDBRANCH  33  34
ENDBRANCH   1  33
TORSDOF 16
ENDMDL
