MODEL 1
REMARK VINA RESULT:     -11.6      0.000      0.000
REMARK SMILES C=CCN1C(=O)/C(=C/c2ccccc2[N+](=O)[O-])S/C1=[NH+]\c1ccc(O)cc1C(=O)NCCCNC(=O)c1ccc(-c2c3nc(c(-c4cccc(S(=O)(=O)[O-])c4F)c4ccc([nH]4)c(-c4cccc(S(=O)(=O)[O-])c4F)c4nc(c(-c5cccc(S(=O)(=O)[O-])c5F)c5ccc2[nH]5)C=C4)C=C3)cc1
REMARK SMILES IDX 32 1 31 2 30 3 28 4 29 5 27 7 21 8 22 9 23 10 26 11 24 12
REMARK SMILES IDX 20 13 4 14 5 15 19 16 6 17 7 18 18 19 8 20 3 22 2 23 1 24
REMARK SMILES IDX 9 25 10 26 14 27 11 28 13 29 12 30 15 31 16 32 17 33 25 34
REMARK SMILES IDX 33 36 34 37 35 38 36 40 37 41 38 42 99 43 39 44 98 45 40 46
REMARK SMILES IDX 41 47 42 48 92 49 43 50 97 51 91 52 93 53 44 54 96 55 90 56
REMARK SMILES IDX 89 57 45 59 77 60 57 61 76 62 58 63 61 64 75 65 94 66 59 67
REMARK SMILES IDX 60 68 74 70 95 71 62 72 46 73 47 74 55 75 48 76 50 77 56 78
REMARK SMILES IDX 49 79 51 80 52 81 53 82 54 83 78 84 79 85 87 86 80 87 82 88
REMARK SMILES IDX 88 89 81 90 83 91 84 92 85 93 86 94 63 95 64 96 72 97 65 98
REMARK SMILES IDX 67 99 73 100 66 101 68 102 69 103 70 104 71 105
REMARK H PARENT 30 6 20 21 25 35 34 39 93 58 61 69
REMARK Flexibility Score: inf
ROOT
ATOM      1  C   UNL A   1      36.340  22.316  23.981  1.00  0.00     0.042 C 
ENDROOT
BRANCH   1   2
ATOM      2  C   UNL A   1      34.860  22.506  24.174  1.00  0.00     0.118 C 
BRANCH   2   3
ATOM      3  N   UNL A   1      34.068  21.335  24.403  1.00  0.00    -0.352 N 
ATOM      4  C   UNL A   1      32.722  21.238  24.659  1.00  0.00     0.255 C 
ATOM      5  O   UNL A   1      32.263  20.089  24.623  1.00  0.00    -0.269 OA
ATOM      6  H   UNL A   1      34.557  20.481  24.371  1.00  0.00     0.163 HD
BRANCH   4   7
ATOM      7  C   UNL A   1      31.790  22.363  25.049  1.00  0.00     0.090 A 
ATOM      8  C   UNL A   1      31.442  23.569  24.385  1.00  0.00     0.138 A 
ATOM      9  C   UNL A   1      30.523  24.444  25.008  1.00  0.00     0.056 A 
ATOM     10  C   UNL A   1      29.916  24.149  26.225  1.00  0.00     0.050 A 
ATOM     11  C   UNL A   1      31.148  22.088  26.288  1.00  0.00     0.064 A 
ATOM     12  C   UNL A   1      30.230  22.965  26.856  1.00  0.00     0.116 A 
BRANCH   8  13
ATOM     13  N   UNL A   1      31.960  24.113  23.194  1.00  0.00    -0.234 N 
ATOM     14  N   UNL A   1      33.076  25.734  21.949  1.00  0.00    -0.182 N 
ATOM     15  C   UNL A   1      33.541  27.035  22.012  1.00  0.00     0.348 C 
ATOM     16  C   UNL A   1      32.667  25.188  23.139  1.00  0.00     0.324 C 
ATOM     17  O   UNL A   1      34.022  27.683  21.105  1.00  0.00    -0.240 OA
ATOM     18  C   UNL A   1      33.395  27.541  23.411  1.00  0.00     0.110 C 
ATOM     19  S   UNL A   1      33.112  26.217  24.474  1.00  0.00     0.007 SA
ATOM     20  C   UNL A   1      33.417  28.842  23.738  1.00  0.00     0.039 C 
ATOM     21  H   UNL A   1      31.769  23.641  22.351  1.00  0.00     0.313 HD
BRANCH  14  22
ATOM     22  C   UNL A   1      33.072  25.014  20.681  1.00  0.00     0.275 C 
BRANCH  22  23
ATOM     23  C   UNL A   1      31.974  25.486  19.770  1.00  0.00     0.011 C 
ATOM     24  C   UNL A   1      32.053  25.536  18.433  1.00  0.00     0.008 C 
ENDBRANCH  22  23
ENDBRANCH  14  22
BRANCH  20  25
ATOM     25  C   UNL A   1      33.316  29.368  25.113  1.00  0.00     0.054 A 
ATOM     26  C   UNL A   1      34.443  29.280  25.947  1.00  0.00     0.015 A 
ATOM     27  C   UNL A   1      32.159  29.967  25.648  1.00  0.00     0.276 A 
ATOM     28  C   UNL A   1      34.412  29.783  27.255  1.00  0.00     0.001 A 
ATOM     29  C   UNL A   1      32.129  30.488  26.952  1.00  0.00     0.086 A 
ATOM     30  C   UNL A   1      33.260  30.391  27.754  1.00  0.00     0.007 A 
BRANCH  27  31
ATOM     31  N   UNL A   1      30.924  30.050  24.877  1.00  0.00     0.063 N 
ATOM     32  O   UNL A   1      30.514  29.005  24.350  1.00  0.00    -0.258 OA
ATOM     33  O   UNL A   1      30.389  31.161  24.762  1.00  0.00    -0.258 OA
ENDBRANCH  27  31
ENDBRANCH  20  25
ENDBRANCH   8  13
BRANCH  12  34
ATOM     34  O   UNL A   1      29.621  22.692  28.044  1.00  0.00    -0.508 OA
ATOM     35  H   UNL A   1      29.619  23.332  28.728  1.00  0.00     0.293 HD
ENDBRANCH  12  34
ENDBRANCH   4   7
ENDBRANCH   2   3
ENDBRANCH   1   2
BRANCH   1  36
ATOM     36  C   UNL A   1      37.284  23.001  24.964  1.00  0.00     0.118 C 
BRANCH  36  37
ATOM     37  N   UNL A   1      38.427  22.262  25.505  1.00  0.00    -0.352 N 
ATOM     38  C   UNL A   1      39.376  22.610  26.455  1.00  0.00     0.251 C 
ATOM     39  H   UNL A   1      38.543  21.359  25.128  1.00  0.00     0.163 HD
ATOM     40  O   UNL A   1      40.117  21.744  26.911  1.00  0.00    -0.269 OA
BRANCH  38  41
ATOM     41  C   UNL A   1      39.520  24.014  26.909  1.00  0.00     0.039 A 
ATOM     42  C   UNL A   1      39.222  24.373  28.231  1.00  0.00     0.014 A 
ATOM     43  C   UNL A   1      40.000  24.976  26.033  1.00  0.00     0.014 A 
ATOM     44  C   UNL A   1      39.542  25.658  28.697  1.00  0.00     0.010 A 
ATOM     45  C   UNL A   1      40.461  26.182  26.527  1.00  0.00     0.010 A 
ATOM     46  C   UNL A   1      40.211  26.555  27.855  1.00  0.00    -0.014 A 
BRANCH  46  47
ATOM     47  C   UNL A   1      40.597  27.938  28.236  1.00  0.00     0.031 A 
ATOM     48  C   UNL A   1      42.065  28.237  28.411  1.00  0.00     0.074 A 
ATOM     49  C   UNL A   1      39.668  28.841  28.604  1.00  0.00     0.049 A 
ATOM     50  N   UNL A   1      42.643  29.248  28.999  1.00  0.00    -0.248 NA
ATOM     51  C   UNL A   1      43.007  27.212  27.917  1.00  0.00     0.031 C 
ATOM     52  C   UNL A   1      38.218  28.650  28.545  1.00  0.00     0.029 A 
ATOM     53  N   UNL A   1      39.816  30.089  29.158  1.00  0.00    -0.354 N 
ATOM     54  C   UNL A   1      44.002  28.948  29.007  1.00  0.00     0.074 A 
ATOM     55  C   UNL A   1      44.154  27.636  28.422  1.00  0.00     0.031 C 
ATOM     56  C   UNL A   1      37.610  29.737  29.051  1.00  0.00     0.029 A 
ATOM     57  C   UNL A   1      38.624  30.683  29.509  1.00  0.00     0.049 A 
ATOM     58  H   UNL A   1      40.691  30.520  29.292  1.00  0.00     0.167 HD
ATOM     59  C   UNL A   1      45.036  29.709  29.431  1.00  0.00     0.034 A 
ATOM     60  C   UNL A   1      38.384  31.849  30.142  1.00  0.00     0.034 A 
ATOM     61  C   UNL A   1      44.880  31.037  29.949  1.00  0.00     0.049 A 
ATOM     62  C   UNL A   1      39.553  32.704  30.561  1.00  0.00     0.074 A 
ATOM     63  C   UNL A   1      45.861  31.941  30.313  1.00  0.00     0.029 A 
ATOM     64  N   UNL A   1      43.660  31.655  30.171  1.00  0.00    -0.354 N 
ATOM     65  N   UNL A   1      40.837  32.467  30.438  1.00  0.00    -0.248 NA
ATOM     66  C   UNL A   1      39.242  34.004  31.174  1.00  0.00     0.031 C 
ATOM     67  C   UNL A   1      45.231  33.097  30.782  1.00  0.00     0.029 A 
ATOM     68  C   UNL A   1      43.859  32.927  30.670  1.00  0.00     0.049 A 
ATOM     69  H   UNL A   1      42.780  31.247  29.997  1.00  0.00     0.167 HD
ATOM     70  C   UNL A   1      41.484  33.605  30.907  1.00  0.00     0.074 A 
ATOM     71  C   UNL A   1      40.449  34.535  31.310  1.00  0.00     0.031 C 
ATOM     72  C   UNL A   1      42.812  33.860  31.002  1.00  0.00     0.034 A 
BRANCH  59  73
ATOM     73  C   UNL A   1      46.425  29.137  29.296  1.00  0.00     0.023 A 
ATOM     74  C   UNL A   1      46.949  28.323  30.323  1.00  0.00     0.012 A 
ATOM     75  C   UNL A   1      47.201  29.382  28.148  1.00  0.00     0.148 A 
ATOM     76  C   UNL A   1      48.241  27.809  30.235  1.00  0.00     0.002 A 
ATOM     77  C   UNL A   1      48.467  28.820  28.041  1.00  0.00     0.091 A 
ATOM     78  F   UNL A   1      46.696  30.174  27.191  1.00  0.00    -0.205 F 
ATOM     79  C   UNL A   1      48.995  28.048  29.091  1.00  0.00     0.022 A 
BRANCH  77  80
ATOM     80  S   UNL A   1      49.487  28.996  26.574  1.00  0.00     0.127 S 
ATOM     81  O   UNL A   1      50.606  28.108  26.884  1.00  0.00    -0.237 OA
ATOM     82  O   UNL A   1      48.595  28.508  25.522  1.00  0.00    -0.237 OA
ATOM     83  O   UNL A   1      49.820  30.411  26.482  1.00  0.00    -0.744 OA
ENDBRANCH  77  80
ENDBRANCH  59  73
BRANCH  60  84
ATOM     84  C   UNL A   1      36.984  32.316  30.358  1.00  0.00     0.023 A 
ATOM     85  C   UNL A   1      36.351  32.036  31.587  1.00  0.00     0.012 A 
ATOM     86  C   UNL A   1      36.278  33.035  29.375  1.00  0.00     0.148 A 
ATOM     87  C   UNL A   1      35.031  32.425  31.816  1.00  0.00     0.002 A 
ATOM     88  C   UNL A   1      34.981  33.466  29.629  1.00  0.00     0.091 A 
ATOM     89  F   UNL A   1      36.894  33.289  28.211  1.00  0.00    -0.205 F 
ATOM     90  C   UNL A   1      34.348  33.146  30.842  1.00  0.00     0.022 A 
BRANCH  88  91
ATOM     91  S   UNL A   1      34.060  34.501  28.485  1.00  0.00     0.127 S 
ATOM     92  O   UNL A   1      34.092  33.699  27.264  1.00  0.00    -0.237 OA
ATOM     93  O   UNL A   1      32.753  34.579  29.137  1.00  0.00    -0.237 OA
ATOM     94  O   UNL A   1      34.782  35.765  28.428  1.00  0.00    -0.744 OA
ENDBRANCH  88  91
ENDBRANCH  60  84
BRANCH  72  95
ATOM     95  C   UNL A   1      43.239  35.217  31.495  1.00  0.00     0.023 A 
ATOM     96  C   UNL A   1      43.451  35.438  32.869  1.00  0.00     0.012 A 
ATOM     97  C   UNL A   1      43.529  36.243  30.573  1.00  0.00     0.148 A 
ATOM     98  C   UNL A   1      43.921  36.672  33.320  1.00  0.00     0.002 A 
ATOM     99  C   UNL A   1      44.050  37.447  31.025  1.00  0.00     0.091 A 
ATOM    100  F   UNL A   1      43.305  36.013  29.270  1.00  0.00    -0.205 F 
ATOM    101  C   UNL A   1      44.234  37.668  32.398  1.00  0.00     0.022 A 
BRANCH  99 102
ATOM    102  S   UNL A   1      44.583  38.746  29.904  1.00  0.00     0.127 S 
ATOM    103  O   UNL A   1      43.319  39.140  29.283  1.00  0.00    -0.237 OA
ATOM    104  O   UNL A   1      45.145  39.735  30.824  1.00  0.00    -0.237 OA
ATOM    105  O   UNL A   1      45.553  38.134  29.007  1.00  0.00    -0.744 OA
ENDBRANCH  99 102
ENDBRANCH  72  95
ENDBRANCH  46  47
ENDBRANCH  38  41
ENDBRANCH  36  37
ENDBRANCH   1  36
TORSDOF 19
ENDMDL
MODEL 2
REMARK VINA RESULT:     -11.4      2.298      3.220
REMARK SMILES C=CCN1C(=O)/C(=C/c2ccccc2[N+](=O)[O-])S/C1=[NH+]\c1ccc(O)cc1C(=O)NCCCNC(=O)c1ccc(-c2c3nc(c(-c4cccc(S(=O)(=O)[O-])c4F)c4ccc([nH]4)c(-c4cccc(S(=O)(=O)[O-])c4F)c4nc(c(-c5cccc(S(=O)(=O)[O-])c5F)c5ccc2[nH]5)C=C4)C=C3)cc1
REMARK SMILES IDX 32 1 31 2 30 3 28 4 29 5 27 7 21 8 22 9 23 10 26 11 24 12
REMARK SMILES IDX 20 13 4 14 5 15 19 16 6 17 7 18 18 19 8 20 3 22 2 23 1 24
REMARK SMILES IDX 9 25 10 26 14 27 11 28 13 29 12 30 15 31 16 32 17 33 25 34
REMARK SMILES IDX 33 36 34 37 35 38 36 40 37 41 38 42 99 43 39 44 98 45 40 46
REMARK SMILES IDX 41 47 42 48 92 49 43 50 97 51 91 52 93 53 44 54 96 55 90 56
REMARK SMILES IDX 89 57 45 59 77 60 57 61 76 62 58 63 61 64 75 65 94 66 59 67
REMARK SMILES IDX 60 68 74 70 95 71 62 72 46 73 47 74 55 75 48 76 50 77 56 78
REMARK SMILES IDX 49 79 51 80 52 81 53 82 54 83 78 84 79 85 87 86 80 87 82 88
REMARK SMILES IDX 88 89 81 90 83 91 84 92 85 93 86 94 63 95 64 96 72 97 65 98
REMARK SMILES IDX 67 99 73 100 66 101 68 102 69 103 70 104 71 105
REMARK H PARENT 30 6 20 21 25 35 34 39 93 58 61 69
REMARK Flexibility Score: inf
ROOT
ATOM      1  C   UNL A   1      36.260  22.402  24.055  1.00  0.00     0.042 C 
ENDROOT
BRANCH   1   2
ATOM      2  C   UNL A   1      35.517  23.708  23.995  1.00  0.00     0.118 C 
BRANCH   2   3
ATOM      3  N   UNL A   1      34.501  23.845  22.995  1.00  0.00    -0.352 N 
ATOM      4  C   UNL A   1      33.157  24.080  23.152  1.00  0.00     0.255 C 
ATOM      5  O   UNL A   1      32.545  24.348  22.110  1.00  0.00    -0.269 OA
ATOM      6  H   UNL A   1      34.811  23.759  22.064  1.00  0.00     0.163 HD
BRANCH   4   7
ATOM      7  C   UNL A   1      32.362  23.967  24.433  1.00  0.00     0.090 A 
ATOM      8  C   UNL A   1      31.197  24.646  24.881  1.00  0.00     0.138 A 
ATOM      9  C   UNL A   1      30.669  24.319  26.150  1.00  0.00     0.056 A 
ATOM     10  C   UNL A   1      31.221  23.330  26.959  1.00  0.00     0.050 A 
ATOM     11  C   UNL A   1      32.899  22.958  25.280  1.00  0.00     0.064 A 
ATOM     12  C   UNL A   1      32.334  22.650  26.513  1.00  0.00     0.116 A 
BRANCH   8  13
ATOM     13  N   UNL A   1      30.501  25.713  24.281  1.00  0.00    -0.234 N 
ATOM     14  N   UNL A   1      30.182  27.954  23.733  1.00  0.00    -0.182 N 
ATOM     15  C   UNL A   1      30.615  29.229  24.045  1.00  0.00     0.348 C 
ATOM     16  C   UNL A   1      30.932  26.926  24.247  1.00  0.00     0.324 C 
ATOM     17  O   UNL A   1      30.156  30.277  23.638  1.00  0.00    -0.240 OA
ATOM     18  C   UNL A   1      31.794  29.137  24.961  1.00  0.00     0.110 C 
ATOM     19  S   UNL A   1      32.412  27.531  24.940  1.00  0.00     0.007 SA
ATOM     20  C   UNL A   1      32.228  30.155  25.719  1.00  0.00     0.039 C 
ATOM     21  H   UNL A   1      29.632  25.519  23.862  1.00  0.00     0.313 HD
BRANCH  14  22
ATOM     22  C   UNL A   1      29.017  27.760  22.879  1.00  0.00     0.275 C 
BRANCH  22  23
ATOM     23  C   UNL A   1      27.730  27.904  23.643  1.00  0.00     0.011 C 
ATOM     24  C   UNL A   1      26.666  28.606  23.229  1.00  0.00     0.008 C 
ENDBRANCH  22  23
ENDBRANCH  14  22
BRANCH  20  25
ATOM     25  C   UNL A   1      33.411  30.105  26.601  1.00  0.00     0.054 A 
ATOM     26  C   UNL A   1      34.173  28.926  26.631  1.00  0.00     0.015 A 
ATOM     27  C   UNL A   1      33.837  31.174  27.413  1.00  0.00     0.276 A 
ATOM     28  C   UNL A   1      35.320  28.830  27.432  1.00  0.00     0.001 A 
ATOM     29  C   UNL A   1      34.993  31.088  28.205  1.00  0.00     0.086 A 
ATOM     30  C   UNL A   1      35.732  29.910  28.213  1.00  0.00     0.007 A 
BRANCH  27  31
ATOM     31  N   UNL A   1      33.076  32.415  27.492  1.00  0.00     0.063 N 
ATOM     32  O   UNL A   1      33.676  33.423  27.893  1.00  0.00    -0.258 OA
ATOM     33  O   UNL A   1      31.874  32.375  27.196  1.00  0.00    -0.258 OA
ENDBRANCH  27  31
ENDBRANCH  20  25
ENDBRANCH   8  13
BRANCH  12  34
ATOM     34  O   UNL A   1      32.856  21.682  27.316  1.00  0.00    -0.508 OA
ATOM     35  H   UNL A   1      32.689  21.696  28.238  1.00  0.00     0.293 HD
ENDBRANCH  12  34
ENDBRANCH   4   7
ENDBRANCH   2   3
ENDBRANCH   1   2
BRANCH   1  36
ATOM     36  C   UNL A   1      36.742  21.913  25.417  1.00  0.00     0.118 C 
BRANCH  36  37
ATOM     37  N   UNL A   1      37.902  21.022  25.500  1.00  0.00    -0.352 N 
ATOM     38  C   UNL A   1      39.136  21.179  26.111  1.00  0.00     0.251 C 
ATOM     39  H   UNL A   1      37.784  20.159  25.039  1.00  0.00     0.163 HD
ATOM     40  O   UNL A   1      39.875  20.205  26.235  1.00  0.00    -0.269 OA
BRANCH  38  41
ATOM     41  C   UNL A   1      39.582  22.505  26.598  1.00  0.00     0.039 A 
ATOM     42  C   UNL A   1      40.558  22.610  27.600  1.00  0.00     0.014 A 
ATOM     43  C   UNL A   1      39.066  23.659  26.027  1.00  0.00     0.014 A 
ATOM     44  C   UNL A   1      41.106  23.863  27.915  1.00  0.00     0.010 A 
ATOM     45  C   UNL A   1      39.711  24.865  26.218  1.00  0.00     0.010 A 
ATOM     46  C   UNL A   1      40.718  24.994  27.187  1.00  0.00    -0.014 A 
BRANCH  46  47
ATOM     47  C   UNL A   1      41.226  26.368  27.433  1.00  0.00     0.031 A 
ATOM     48  C   UNL A   1      42.637  26.685  27.003  1.00  0.00     0.074 A 
ATOM     49  C   UNL A   1      40.529  27.242  28.185  1.00  0.00     0.049 A 
ATOM     50  N   UNL A   1      43.405  27.682  27.344  1.00  0.00    -0.248 NA
ATOM     51  C   UNL A   1      43.293  25.695  26.126  1.00  0.00     0.031 C 
ATOM     52  C   UNL A   1      39.182  27.029  28.716  1.00  0.00     0.029 A 
ATOM     53  N   UNL A   1      40.891  28.470  28.680  1.00  0.00    -0.354 N 
ATOM     54  C   UNL A   1      44.648  27.405  26.784  1.00  0.00     0.074 A 
ATOM     55  C   UNL A   1      44.546  26.119  26.134  1.00  0.00     0.031 C 
ATOM     56  C   UNL A   1      38.835  28.086  29.471  1.00  0.00     0.029 A 
ATOM     57  C   UNL A   1      39.947  29.031  29.512  1.00  0.00     0.049 A 
ATOM     58  H   UNL A   1      41.744  28.910  28.462  1.00  0.00     0.167 HD
ATOM     59  C   UNL A   1      45.765  28.167  26.778  1.00  0.00     0.034 A 
ATOM     60  C   UNL A   1      39.988  30.168  30.235  1.00  0.00     0.034 A 
ATOM     61  C   UNL A   1      45.836  29.472  27.368  1.00  0.00     0.049 A 
ATOM     62  C   UNL A   1      41.227  31.027  30.173  1.00  0.00     0.074 A 
ATOM     63  C   UNL A   1      46.880  30.377  27.336  1.00  0.00     0.029 A 
ATOM     64  N   UNL A   1      44.813  30.060  28.095  1.00  0.00    -0.354 N 
ATOM     65  N   UNL A   1      42.347  30.815  29.526  1.00  0.00    -0.248 NA
ATOM     66  C   UNL A   1      41.194  32.297  30.913  1.00  0.00     0.031 C 
ATOM     67  C   UNL A   1      46.497  31.504  28.068  1.00  0.00     0.029 A 
ATOM     68  C   UNL A   1      45.200  31.316  28.520  1.00  0.00     0.049 A 
ATOM     69  H   UNL A   1      43.939  29.645  28.280  1.00  0.00     0.167 HD
ATOM     70  C   UNL A   1      43.130  31.946  29.735  1.00  0.00     0.074 A 
ATOM     71  C   UNL A   1      42.351  32.843  30.565  1.00  0.00     0.031 C 
ATOM     72  C   UNL A   1      44.381  32.218  29.289  1.00  0.00     0.034 A 
BRANCH  59  73
ATOM     73  C   UNL A   1      46.977  27.623  26.064  1.00  0.00     0.023 A 
ATOM     74  C   UNL A   1      47.132  27.846  24.679  1.00  0.00     0.012 A 
ATOM     75  C   UNL A   1      47.971  26.913  26.763  1.00  0.00     0.148 A 
ATOM     76  C   UNL A   1      48.228  27.326  23.993  1.00  0.00     0.002 A 
ATOM     77  C   UNL A   1      49.089  26.446  26.082  1.00  0.00     0.091 A 
ATOM     78  F   UNL A   1      47.798  26.690  28.074  1.00  0.00    -0.205 F 
ATOM     79  C   UNL A   1      49.211  26.636  24.695  1.00  0.00     0.022 A 
BRANCH  77  80
ATOM     80  S   UNL A   1      50.453  25.618  26.908  1.00  0.00     0.127 S 
ATOM     81  O   UNL A   1      50.855  26.623  27.891  1.00  0.00    -0.237 OA
ATOM     82  O   UNL A   1      49.796  24.440  27.474  1.00  0.00    -0.237 OA
ATOM     83  O   UNL A   1      51.436  25.330  25.873  1.00  0.00    -0.744 OA
ENDBRANCH  77  80
ENDBRANCH  59  73
BRANCH  60  84
ATOM     84  C   UNL A   1      38.800  30.604  31.024  1.00  0.00     0.023 A 
ATOM     85  C   UNL A   1      38.494  29.935  32.227  1.00  0.00     0.012 A 
ATOM     86  C   UNL A   1      37.978  31.668  30.607  1.00  0.00     0.148 A 
ATOM     87  C   UNL A   1      37.372  30.288  32.977  1.00  0.00     0.002 A 
ATOM     88  C   UNL A   1      36.891  32.051  31.386  1.00  0.00     0.091 A 
ATOM     89  F   UNL A   1      38.281  32.291  29.459  1.00  0.00    -0.205 F 
ATOM     90  C   UNL A   1      36.575  31.350  32.562  1.00  0.00     0.022 A 
BRANCH  88  91
ATOM     91  S   UNL A   1      35.874  33.480  30.998  1.00  0.00     0.127 S 
ATOM     92  O   UNL A   1      34.527  32.919  31.080  1.00  0.00    -0.237 OA
ATOM     93  O   UNL A   1      36.226  34.401  32.078  1.00  0.00    -0.237 OA
ATOM     94  O   UNL A   1      36.295  33.914  29.673  1.00  0.00    -0.744 OA
ENDBRANCH  88  91
ENDBRANCH  60  84
BRANCH  72  95
ATOM     95  C   UNL A   1      44.972  33.563  29.620  1.00  0.00     0.023 A 
ATOM     96  C   UNL A   1      45.750  33.730  30.781  1.00  0.00     0.012 A 
ATOM     97  C   UNL A   1      44.837  34.634  28.713  1.00  0.00     0.148 A 
ATOM     98  C   UNL A   1      46.363  34.954  31.049  1.00  0.00     0.002 A 
ATOM     99  C   UNL A   1      45.497  35.831  28.959  1.00  0.00     0.091 A 
ATOM    100  F   UNL A   1      44.079  34.455  27.621  1.00  0.00    -0.205 F 
ATOM    101  C   UNL A   1      46.249  35.997  30.132  1.00  0.00     0.022 A 
BRANCH  99 102
ATOM    102  S   UNL A   1      45.495  37.189  27.784  1.00  0.00     0.127 S 
ATOM    103  O   UNL A   1      46.330  38.176  28.468  1.00  0.00    -0.237 OA
ATOM    104  O   UNL A   1      46.114  36.579  26.607  1.00  0.00    -0.237 OA
ATOM    105  O   UNL A   1      44.101  37.570  27.606  1.00  0.00    -0.744 OA
ENDBRANCH  99 102
ENDBRANCH  72  95
ENDBRANCH  46  47
ENDBRANCH  38  41
ENDBRANCH  36  37
ENDBRANCH   1  36
TORSDOF 19
ENDMDL
MODEL 3
REMARK VINA RESULT:     -11.3      4.698      7.955
REMARK SMILES C=CCN1C(=O)/C(=C/c2ccccc2[N+](=O)[O-])S/C1=[NH+]\c1ccc(O)cc1C(=O)NCCCNC(=O)c1ccc(-c2c3nc(c(-c4cccc(S(=O)(=O)[O-])c4F)c4ccc([nH]4)c(-c4cccc(S(=O)(=O)[O-])c4F)c4nc(c(-c5cccc(S(=O)(=O)[O-])c5F)c5ccc2[nH]5)C=C4)C=C3)cc1
REMARK SMILES IDX 32 1 31 2 30 3 28 4 29 5 27 7 21 8 22 9 23 10 26 11 24 12
REMARK SMILES IDX 20 13 4 14 5 15 19 16 6 17 7 18 18 19 8 20 3 22 2 23 1 24
REMARK SMILES IDX 9 25 10 26 14 27 11 28 13 29 12 30 15 31 16 32 17 33 25 34
REMARK SMILES IDX 33 36 34 37 35 38 36 40 37 41 38 42 99 43 39 44 98 45 40 46
REMARK SMILES IDX 41 47 42 48 92 49 43 50 97 51 91 52 93 53 44 54 96 55 90 56
REMARK SMILES IDX 89 57 45 59 77 60 57 61 76 62 58 63 61 64 75 65 94 66 59 67
REMARK SMILES IDX 60 68 74 70 95 71 62 72 46 73 47 74 55 75 48 76 50 77 56 78
REMARK SMILES IDX 49 79 51 80 52 81 53 82 54 83 78 84 79 85 87 86 80 87 82 88
REMARK SMILES IDX 88 89 81 90 83 91 84 92 85 93 86 94 63 95 64 96 72 97 65 98
REMARK SMILES IDX 67 99 73 100 66 101 68 102 69 103 70 104 71 105
REMARK H PARENT 30 6 20 21 25 35 34 39 93 58 61 69
REMARK Flexibility Score: inf
ROOT
ATOM      1  C   UNL A   1      33.079  27.824  25.391  1.00  0.00     0.042 C 
ENDROOT
BRANCH   1   2
ATOM      2  C   UNL A   1      31.578  27.744  25.446  1.00  0.00     0.118 C 
BRANCH   2   3
ATOM      3  N   UNL A   1      30.850  28.202  24.300  1.00  0.00    -0.352 N 
ATOM      4  C   UNL A   1      30.612  27.556  23.112  1.00  0.00     0.255 C 
ATOM      5  O   UNL A   1      29.787  28.107  22.371  1.00  0.00    -0.269 OA
ATOM      6  H   UNL A   1      30.466  29.105  24.377  1.00  0.00     0.163 HD
BRANCH   4   7
ATOM      7  C   UNL A   1      31.304  26.311  22.603  1.00  0.00     0.090 A 
ATOM      8  C   UNL A   1      31.405  25.003  23.146  1.00  0.00     0.138 A 
ATOM      9  C   UNL A   1      32.130  24.026  22.427  1.00  0.00     0.056 A 
ATOM     10  C   UNL A   1      32.712  24.286  21.190  1.00  0.00     0.050 A 
ATOM     11  C   UNL A   1      31.904  26.543  21.334  1.00  0.00     0.064 A 
ATOM     12  C   UNL A   1      32.589  25.547  20.647  1.00  0.00     0.116 A 
BRANCH   8  13
ATOM     13  N   UNL A   1      30.963  24.518  24.392  1.00  0.00    -0.234 N 
ATOM     14  N   UNL A   1      31.280  23.589  26.505  1.00  0.00    -0.182 N 
ATOM     15  C   UNL A   1      32.219  22.942  27.286  1.00  0.00     0.348 C 
ATOM     16  C   UNL A   1      31.750  24.141  25.339  1.00  0.00     0.324 C 
ATOM     17  O   UNL A   1      32.044  22.454  28.384  1.00  0.00    -0.240 OA
ATOM     18  C   UNL A   1      33.538  22.957  26.581  1.00  0.00     0.110 C 
ATOM     19  S   UNL A   1      33.492  24.107  25.302  1.00  0.00     0.007 SA
ATOM     20  C   UNL A   1      34.552  22.133  26.885  1.00  0.00     0.039 C 
ATOM     21  H   UNL A   1      29.993  24.464  24.548  1.00  0.00     0.313 HD
BRANCH  14  22
ATOM     22  C   UNL A   1      29.894  23.685  26.946  1.00  0.00     0.275 C 
BRANCH  22  23
ATOM     23  C   UNL A   1      29.191  22.358  26.883  1.00  0.00     0.011 C 
ATOM     24  C   UNL A   1      28.156  21.999  27.656  1.00  0.00     0.008 C 
ENDBRANCH  22  23
ENDBRANCH  14  22
BRANCH  20  25
ATOM     25  C   UNL A   1      35.878  22.152  26.235  1.00  0.00     0.054 A 
ATOM     26  C   UNL A   1      36.757  23.203  26.541  1.00  0.00     0.015 A 
ATOM     27  C   UNL A   1      36.327  21.173  25.327  1.00  0.00     0.276 A 
ATOM     28  C   UNL A   1      38.037  23.260  25.970  1.00  0.00     0.001 A 
ATOM     29  C   UNL A   1      37.613  21.217  24.767  1.00  0.00     0.086 A 
ATOM     30  C   UNL A   1      38.466  22.266  25.090  1.00  0.00     0.007 A 
BRANCH  27  31
ATOM     31  N   UNL A   1      35.461  20.078  24.905  1.00  0.00     0.063 N 
ATOM     32  O   UNL A   1      35.959  18.942  24.876  1.00  0.00    -0.258 OA
ATOM     33  O   UNL A   1      34.304  20.356  24.563  1.00  0.00    -0.258 OA
ENDBRANCH  27  31
ENDBRANCH  20  25
ENDBRANCH   8  13
BRANCH  12  34
ATOM     34  O   UNL A   1      33.160  25.780  19.433  1.00  0.00    -0.508 OA
ATOM     35  H   UNL A   1      33.858  26.399  19.354  1.00  0.00     0.293 HD
ENDBRANCH  12  34
ENDBRANCH   4   7
ENDBRANCH   2   3
ENDBRANCH   1   2
BRANCH   1  36
ATOM     36  C   UNL A   1      33.727  29.202  25.477  1.00  0.00     0.118 C 
BRANCH  36  37
ATOM     37  N   UNL A   1      33.050  30.278  26.205  1.00  0.00    -0.352 N 
ATOM     38  C   UNL A   1      33.520  31.191  27.136  1.00  0.00     0.251 C 
ATOM     39  H   UNL A   1      32.091  30.368  25.997  1.00  0.00     0.163 HD
ATOM     40  O   UNL A   1      32.816  32.146  27.452  1.00  0.00    -0.269 OA
BRANCH  38  41
ATOM     41  C   UNL A   1      34.849  31.018  27.769  1.00  0.00     0.039 A 
ATOM     42  C   UNL A   1      35.768  32.077  27.806  1.00  0.00     0.014 A 
ATOM     43  C   UNL A   1      35.175  29.813  28.372  1.00  0.00     0.014 A 
ATOM     44  C   UNL A   1      36.940  31.961  28.570  1.00  0.00     0.010 A 
ATOM     45  C   UNL A   1      36.241  29.752  29.249  1.00  0.00     0.010 A 
ATOM     46  C   UNL A   1      37.157  30.810  29.338  1.00  0.00    -0.014 A 
BRANCH  46  47
ATOM     47  C   UNL A   1      38.359  30.574  30.179  1.00  0.00     0.031 A 
ATOM     48  C   UNL A   1      39.354  29.541  29.712  1.00  0.00     0.074 A 
ATOM     49  C   UNL A   1      38.463  31.115  31.408  1.00  0.00     0.049 A 
ATOM     50  N   UNL A   1      40.311  28.950  30.373  1.00  0.00    -0.248 NA
ATOM     51  C   UNL A   1      39.195  29.056  28.326  1.00  0.00     0.031 C 
ATOM     52  C   UNL A   1      37.532  32.076  32.001  1.00  0.00     0.029 A 
ATOM     53  N   UNL A   1      39.380  30.884  32.403  1.00  0.00    -0.354 N 
ATOM     54  C   UNL A   1      40.817  27.982  29.511  1.00  0.00     0.074 A 
ATOM     55  C   UNL A   1      40.022  28.025  28.305  1.00  0.00     0.031 C 
ATOM     56  C   UNL A   1      37.920  32.344  33.260  1.00  0.00     0.029 A 
ATOM     57  C   UNL A   1      39.100  31.545  33.578  1.00  0.00     0.049 A 
ATOM     58  H   UNL A   1      40.165  30.300  32.289  1.00  0.00     0.167 HD
ATOM     59  C   UNL A   1      41.871  27.154  29.690  1.00  0.00     0.034 A 
ATOM     60  C   UNL A   1      39.718  31.495  34.775  1.00  0.00     0.034 A 
ATOM     61  C   UNL A   1      42.695  27.166  30.864  1.00  0.00     0.049 A 
ATOM     62  C   UNL A   1      40.923  30.602  34.937  1.00  0.00     0.074 A 
ATOM     63  C   UNL A   1      43.849  26.446  31.115  1.00  0.00     0.029 A 
ATOM     64  N   UNL A   1      42.453  27.945  31.985  1.00  0.00    -0.354 N 
ATOM     65  N   UNL A   1      41.473  29.791  34.066  1.00  0.00    -0.248 NA
ATOM     66  C   UNL A   1      41.613  30.642  36.235  1.00  0.00     0.031 C 
ATOM     67  C   UNL A   1      44.289  26.771  32.401  1.00  0.00     0.029 A 
ATOM     68  C   UNL A   1      43.433  27.723  32.933  1.00  0.00     0.049 A 
ATOM     69  H   UNL A   1      41.695  28.565  32.090  1.00  0.00     0.167 HD
ATOM     70  C   UNL A   1      42.601  29.267  34.688  1.00  0.00     0.074 A 
ATOM     71  C   UNL A   1      42.658  29.858  36.010  1.00  0.00     0.031 C 
ATOM     72  C   UNL A   1      43.505  28.374  34.216  1.00  0.00     0.034 A 
BRANCH  59  73
ATOM     73  C   UNL A   1      42.217  26.211  28.565  1.00  0.00     0.023 A 
ATOM     74  C   UNL A   1      41.410  25.079  28.328  1.00  0.00     0.012 A 
ATOM     75  C   UNL A   1      43.324  26.456  27.731  1.00  0.00     0.148 A 
ATOM     76  C   UNL A   1      41.729  24.177  27.314  1.00  0.00     0.002 A 
ATOM     77  C   UNL A   1      43.603  25.583  26.686  1.00  0.00     0.091 A 
ATOM     78  F   UNL A   1      44.093  27.525  27.983  1.00  0.00    -0.205 F 
ATOM     79  C   UNL A   1      42.818  24.435  26.488  1.00  0.00     0.022 A 
BRANCH  77  80
ATOM     80  S   UNL A   1      44.931  25.868  25.511  1.00  0.00     0.127 S 
ATOM     81  O   UNL A   1      44.577  27.183  24.979  1.00  0.00    -0.237 OA
ATOM     82  O   UNL A   1      46.110  25.858  26.377  1.00  0.00    -0.237 OA
ATOM     83  O   UNL A   1      44.867  24.771  24.556  1.00  0.00    -0.744 OA
ENDBRANCH  77  80
ENDBRANCH  59  73
BRANCH  60  84
ATOM     84  C   UNL A   1      39.260  32.364  35.898  1.00  0.00     0.023 A 
ATOM     85  C   UNL A   1      38.312  31.859  36.811  1.00  0.00     0.012 A 
ATOM     86  C   UNL A   1      39.753  33.671  36.077  1.00  0.00     0.148 A 
ATOM     87  C   UNL A   1      37.832  32.652  37.854  1.00  0.00     0.002 A 
ATOM     88  C   UNL A   1      39.310  34.437  37.149  1.00  0.00     0.091 A 
ATOM     89  F   UNL A   1      40.651  34.136  35.197  1.00  0.00    -0.205 F 
ATOM     90  C   UNL A   1      38.336  33.937  38.028  1.00  0.00     0.022 A 
BRANCH  88  91
ATOM     91  S   UNL A   1      39.984  36.060  37.527  1.00  0.00     0.127 S 
ATOM     92  O   UNL A   1      39.118  36.497  38.620  1.00  0.00    -0.237 OA
ATOM     93  O   UNL A   1      41.354  35.731  37.919  1.00  0.00    -0.237 OA
ATOM     94  O   UNL A   1      39.877  36.827  36.293  1.00  0.00    -0.744 OA
ENDBRANCH  88  91
ENDBRANCH  60  84
BRANCH  72  95
ATOM     95  C   UNL A   1      44.678  28.025  35.093  1.00  0.00     0.023 A 
ATOM     96  C   UNL A   1      45.905  28.698  34.939  1.00  0.00     0.012 A 
ATOM     97  C   UNL A   1      44.521  27.097  36.144  1.00  0.00     0.148 A 
ATOM     98  C   UNL A   1      46.968  28.432  35.802  1.00  0.00     0.002 A 
ATOM     99  C   UNL A   1      45.566  26.880  37.031  1.00  0.00     0.091 A 
ATOM    100  F   UNL A   1      43.348  26.458  36.261  1.00  0.00    -0.205 F 
ATOM    101  C   UNL A   1      46.794  27.536  36.854  1.00  0.00     0.022 A 
BRANCH  99 102
ATOM    102  S   UNL A   1      45.397  25.828  38.477  1.00  0.00     0.127 S 
ATOM    103  O   UNL A   1      46.708  25.975  39.107  1.00  0.00    -0.237 OA
ATOM    104  O   UNL A   1      44.298  26.470  39.199  1.00  0.00    -0.237 OA
ATOM    105  O   UNL A   1      45.093  24.495  37.975  1.00  0.00    -0.744 OA
ENDBRANCH  99 102
ENDBRANCH  72  95
ENDBRANCH  46  47
ENDBRANCH  38  41
ENDBRANCH  36  37
ENDBRANCH   1  36
TORSDOF 19
ENDMDL
