MODEL 1
REMARK VINA RESULT:     -12.2      0.000      0.000
REMARK SMILES Cc1sc(-c2ccco2)nc1C(=O)N[C@@H](C(=O)NCCCNC(=O)c1ccc(-c2c3nc(c(-c4cccc(S(=O)(=O)[O-])c4F)c4ccc([nH]4)c(-c4cccc(S(=O)(=O)[O-])c4F)c4nc(c(-c5cccc(S(=O)(=O)[O-])c5F)c5ccc2[nH]5)C=C4)C=C3)cc1)C(C)C
REMARK SMILES IDX 20 1 19 2 18 3 16 4 17 5 15 7 14 8 12 9 13 10 11 12 1 13
REMARK SMILES IDX 2 14 3 15 4 16 10 17 5 18 6 19 9 20 7 21 8 22 88 23 89 24
REMARK SMILES IDX 90 25 21 26 22 27 23 28 24 30 25 31 26 32 87 33 27 34 86 35
REMARK SMILES IDX 28 36 29 37 30 38 80 39 31 40 85 41 79 42 81 43 32 44 84 45
REMARK SMILES IDX 78 46 77 47 33 49 65 50 45 51 64 52 46 53 49 54 63 55 82 56
REMARK SMILES IDX 47 57 48 58 62 60 83 61 50 62 34 63 35 64 43 65 36 66 38 67
REMARK SMILES IDX 44 68 37 69 39 70 40 71 41 72 42 73 66 74 67 75 75 76 68 77
REMARK SMILES IDX 70 78 76 79 69 80 71 81 72 82 73 83 74 84 51 85 52 86 60 87
REMARK SMILES IDX 53 88 55 89 61 90 54 91 56 92 57 93 58 94 59 95
REMARK H PARENT 18 6 14 11 22 29 81 48 49 59
REMARK Flexibility Score: inf
ROOT
ATOM      1  C   UNL A   1      32.842  29.341  24.810  1.00  0.00     0.042 C 
ENDROOT
BRANCH   1   2
ATOM      2  C   UNL A   1      31.359  29.664  24.884  1.00  0.00     0.117 C 
BRANCH   2   3
ATOM      3  N   UNL A   1      30.704  29.524  23.598  1.00  0.00    -0.354 N 
ATOM      4  C   UNL A   1      30.555  28.426  22.796  1.00  0.00     0.242 C 
ATOM      5  O   UNL A   1      29.952  28.586  21.735  1.00  0.00    -0.273 OA
ATOM      6  H   UNL A   1      30.302  30.351  23.246  1.00  0.00     0.163 HD
BRANCH   4   7
ATOM      7  C   UNL A   1      30.994  27.025  23.302  1.00  0.00     0.174 C 
BRANCH   7   8
ATOM      8  N   UNL A   1      31.719  26.304  22.275  1.00  0.00    -0.339 N 
ATOM      9  C   UNL A   1      32.511  25.186  22.254  1.00  0.00     0.271 C 
ATOM     10  O   UNL A   1      32.927  24.924  21.119  1.00  0.00    -0.267 OA
ATOM     11  H   UNL A   1      31.619  26.714  21.385  1.00  0.00     0.164 HD
BRANCH   9  12
ATOM     12  C   UNL A   1      32.900  24.313  23.405  1.00  0.00     0.142 A 
ATOM     13  C   UNL A   1      34.155  25.624  25.402  1.00  0.00     0.059 C 
ATOM     14  C   UNL A   1      33.503  24.508  24.658  1.00  0.00     0.035 A 
ATOM     15  S   UNL A   1      33.468  23.024  25.563  1.00  0.00    -0.115 S 
ATOM     16  C   UNL A   1      32.989  22.181  24.178  1.00  0.00     0.160 A 
ATOM     17  N   UNL A   1      32.700  22.931  23.148  1.00  0.00    -0.227 NA
BRANCH  16  18
ATOM     18  C   UNL A   1      32.991  20.752  24.160  1.00  0.00     0.162 A 
ATOM     19  C   UNL A   1      32.328  19.906  23.285  1.00  0.00     0.053 A 
ATOM     20  O   UNL A   1      33.766  19.992  25.003  1.00  0.00    -0.462 OA
ATOM     21  C   UNL A   1      32.732  18.585  23.596  1.00  0.00     0.043 A 
ATOM     22  C   UNL A   1      33.588  18.692  24.664  1.00  0.00     0.196 A 
ENDBRANCH  16  18
ENDBRANCH   9  12
ENDBRANCH   7   8
BRANCH   7  23
ATOM     23  C   UNL A   1      29.825  26.204  23.899  1.00  0.00     0.015 C 
ATOM     24  C   UNL A   1      30.022  25.906  25.392  1.00  0.00     0.010 C 
ATOM     25  C   UNL A   1      28.506  26.977  23.734  1.00  0.00     0.010 C 
ENDBRANCH   7  23
ENDBRANCH   4   7
ENDBRANCH   2   3
ENDBRANCH   1   2
BRANCH   1  26
ATOM     26  C   UNL A   1      33.569  29.674  26.103  1.00  0.00     0.118 C 
BRANCH  26  27
ATOM     27  N   UNL A   1      33.329  31.048  26.532  1.00  0.00    -0.352 N 
ATOM     28  C   UNL A   1      33.958  31.775  27.507  1.00  0.00     0.251 C 
ATOM     29  H   UNL A   1      32.612  31.520  26.050  1.00  0.00     0.163 HD
ATOM     30  O   UNL A   1      33.491  32.866  27.841  1.00  0.00    -0.269 OA
BRANCH  28  31
ATOM     31  C   UNL A   1      35.174  31.253  28.158  1.00  0.00     0.039 A 
ATOM     32  C   UNL A   1      36.340  32.021  28.130  1.00  0.00     0.014 A 
ATOM     33  C   UNL A   1      35.173  30.000  28.780  1.00  0.00     0.014 A 
ATOM     34  C   UNL A   1      37.496  31.546  28.751  1.00  0.00     0.010 A 
ATOM     35  C   UNL A   1      36.294  29.575  29.481  1.00  0.00     0.010 A 
ATOM     36  C   UNL A   1      37.478  30.326  29.447  1.00  0.00    -0.014 A 
BRANCH  36  37
ATOM     37  C   UNL A   1      38.696  29.795  30.105  1.00  0.00     0.031 A 
ATOM     38  C   UNL A   1      39.084  30.289  31.475  1.00  0.00     0.074 A 
ATOM     39  C   UNL A   1      39.488  28.927  29.447  1.00  0.00     0.049 A 
ATOM     40  N   UNL A   1      40.128  29.977  32.199  1.00  0.00    -0.248 NA
ATOM     41  C   UNL A   1      38.200  31.287  32.102  1.00  0.00     0.031 C 
ATOM     42  C   UNL A   1      39.265  28.441  28.083  1.00  0.00     0.029 A 
ATOM     43  N   UNL A   1      40.655  28.316  29.831  1.00  0.00    -0.354 N 
ATOM     44  C   UNL A   1      40.049  30.769  33.339  1.00  0.00     0.074 A 
ATOM     45  C   UNL A   1      38.880  31.606  33.193  1.00  0.00     0.031 C 
ATOM     46  C   UNL A   1      40.256  27.598  27.749  1.00  0.00     0.029 A 
ATOM     47  C   UNL A   1      41.195  27.503  28.862  1.00  0.00     0.049 A 
ATOM     48  H   UNL A   1      41.066  28.446  30.716  1.00  0.00     0.167 HD
ATOM     49  C   UNL A   1      40.853  30.773  34.428  1.00  0.00     0.034 A 
ATOM     50  C   UNL A   1      42.321  26.765  28.873  1.00  0.00     0.034 A 
ATOM     51  C   UNL A   1      41.984  29.902  34.591  1.00  0.00     0.049 A 
ATOM     52  C   UNL A   1      43.162  26.738  30.121  1.00  0.00     0.074 A 
ATOM     53  C   UNL A   1      42.817  29.767  35.687  1.00  0.00     0.029 A 
ATOM     54  N   UNL A   1      42.441  29.015  33.629  1.00  0.00    -0.354 N 
ATOM     55  N   UNL A   1      42.986  27.380  31.251  1.00  0.00    -0.248 NA
ATOM     56  C   UNL A   1      44.331  25.847  30.113  1.00  0.00     0.031 C 
ATOM     57  C   UNL A   1      43.791  28.811  35.379  1.00  0.00     0.029 A 
ATOM     58  C   UNL A   1      43.544  28.327  34.105  1.00  0.00     0.049 A 
ATOM     59  H   UNL A   1      42.042  28.893  32.738  1.00  0.00     0.167 HD
ATOM     60  C   UNL A   1      43.992  26.937  32.102  1.00  0.00     0.074 A 
ATOM     61  C   UNL A   1      44.761  25.958  31.363  1.00  0.00     0.031 C 
ATOM     62  C   UNL A   1      44.262  27.313  33.377  1.00  0.00     0.034 A 
BRANCH  49  63
ATOM     63  C   UNL A   1      40.503  31.716  35.551  1.00  0.00     0.023 A 
ATOM     64  C   UNL A   1      41.286  32.871  35.762  1.00  0.00     0.012 A 
ATOM     65  C   UNL A   1      39.379  31.488  36.369  1.00  0.00     0.148 A 
ATOM     66  C   UNL A   1      40.982  33.759  36.793  1.00  0.00     0.002 A 
ATOM     67  C   UNL A   1      39.054  32.404  37.363  1.00  0.00     0.091 A 
ATOM     68  F   UNL A   1      38.659  30.374  36.170  1.00  0.00    -0.205 F 
ATOM     69  C   UNL A   1      39.861  33.531  37.585  1.00  0.00     0.022 A 
BRANCH  67  70
ATOM     70  S   UNL A   1      37.583  32.246  38.381  1.00  0.00     0.127 S 
ATOM     71  O   UNL A   1      38.066  32.733  39.673  1.00  0.00    -0.237 OA
ATOM     72  O   UNL A   1      36.644  33.142  37.705  1.00  0.00    -0.237 OA
ATOM     73  O   UNL A   1      37.214  30.839  38.342  1.00  0.00    -0.744 OA
ENDBRANCH  67  70
ENDBRANCH  49  63
BRANCH  50  74
ATOM     74  C   UNL A   1      42.675  25.924  27.695  1.00  0.00     0.023 A 
ATOM     75  C   UNL A   1      43.511  26.454  26.692  1.00  0.00     0.012 A 
ATOM     76  C   UNL A   1      42.207  24.603  27.569  1.00  0.00     0.148 A 
ATOM     77  C   UNL A   1      43.840  25.699  25.566  1.00  0.00     0.002 A 
ATOM     78  C   UNL A   1      42.582  23.837  26.473  1.00  0.00     0.091 A 
ATOM     79  F   UNL A   1      41.408  24.119  28.531  1.00  0.00    -0.205 F 
ATOM     80  C   UNL A   1      43.383  24.389  25.460  1.00  0.00     0.022 A 
BRANCH  78  81
ATOM     81  S   UNL A   1      42.145  22.103  26.311  1.00  0.00     0.127 S 
ATOM     82  O   UNL A   1      40.703  22.176  26.092  1.00  0.00    -0.237 OA
ATOM     83  O   UNL A   1      42.927  21.703  25.139  1.00  0.00    -0.237 OA
ATOM     84  O   UNL A   1      42.566  21.474  27.555  1.00  0.00    -0.744 OA
ENDBRANCH  78  81
ENDBRANCH  50  74
BRANCH  62  85
ATOM     85  C   UNL A   1      45.402  26.622  34.079  1.00  0.00     0.023 A 
ATOM     86  C   UNL A   1      46.705  27.153  34.007  1.00  0.00     0.012 A 
ATOM     87  C   UNL A   1      45.167  25.471  34.856  1.00  0.00     0.148 A 
ATOM     88  C   UNL A   1      47.763  26.522  34.660  1.00  0.00     0.002 A 
ATOM     89  C   UNL A   1      46.216  24.879  35.549  1.00  0.00     0.091 A 
ATOM     90  F   UNL A   1      43.924  24.968  34.899  1.00  0.00    -0.205 F 
ATOM     91  C   UNL A   1      47.517  25.394  35.438  1.00  0.00     0.022 A 
BRANCH  89  92
ATOM     92  S   UNL A   1      45.966  23.487  36.655  1.00  0.00     0.127 S 
ATOM     93  O   UNL A   1      47.329  23.216  37.107  1.00  0.00    -0.237 OA
ATOM     94  O   UNL A   1      45.085  24.054  37.677  1.00  0.00    -0.237 OA
ATOM     95  O   UNL A   1      45.353  22.442  35.846  1.00  0.00    -0.744 OA
ENDBRANCH  89  92
ENDBRANCH  62  85
ENDBRANCH  36  37
ENDBRANCH  28  31
ENDBRANCH  26  27
ENDBRANCH   1  26
TORSDOF 17
ENDMDL
MODEL 2
REMARK VINA RESULT:     -12.2      2.134      2.756
REMARK SMILES Cc1sc(-c2ccco2)nc1C(=O)N[C@@H](C(=O)NCCCNC(=O)c1ccc(-c2c3nc(c(-c4cccc(S(=O)(=O)[O-])c4F)c4ccc([nH]4)c(-c4cccc(S(=O)(=O)[O-])c4F)c4nc(c(-c5cccc(S(=O)(=O)[O-])c5F)c5ccc2[nH]5)C=C4)C=C3)cc1)C(C)C
REMARK SMILES IDX 20 1 19 2 18 3 16 4 17 5 15 7 14 8 12 9 13 10 11 12 1 13
REMARK SMILES IDX 2 14 3 15 4 16 10 17 5 18 6 19 9 20 7 21 8 22 88 23 89 24
REMARK SMILES IDX 90 25 21 26 22 27 23 28 24 30 25 31 26 32 87 33 27 34 86 35
REMARK SMILES IDX 28 36 29 37 30 38 80 39 31 40 85 41 79 42 81 43 32 44 84 45
REMARK SMILES IDX 78 46 77 47 33 49 65 50 45 51 64 52 46 53 49 54 63 55 82 56
REMARK SMILES IDX 47 57 48 58 62 60 83 61 50 62 34 63 35 64 43 65 36 66 38 67
REMARK SMILES IDX 44 68 37 69 39 70 40 71 41 72 42 73 66 74 67 75 75 76 68 77
REMARK SMILES IDX 70 78 76 79 69 80 71 81 72 82 73 83 74 84 51 85 52 86 60 87
REMARK SMILES IDX 53 88 55 89 61 90 54 91 56 92 57 93 58 94 59 95
REMARK H PARENT 18 6 14 11 22 29 81 48 49 59
REMARK Flexibility Score: inf
ROOT
ATOM      1  C   UNL A   1      32.839  28.781  27.075  1.00  0.00     0.042 C 
ENDROOT
BRANCH   1   2
ATOM      2  C   UNL A   1      32.113  29.385  25.885  1.00  0.00     0.117 C 
BRANCH   2   3
ATOM      3  N   UNL A   1      32.999  29.612  24.760  1.00  0.00    -0.354 N 
ATOM      4  C   UNL A   1      33.108  28.942  23.572  1.00  0.00     0.242 C 
ATOM      5  O   UNL A   1      33.962  29.344  22.781  1.00  0.00    -0.273 OA
ATOM      6  H   UNL A   1      33.620  30.367  24.868  1.00  0.00     0.163 HD
BRANCH   4   7
ATOM      7  C   UNL A   1      32.082  27.838  23.201  1.00  0.00     0.174 C 
BRANCH   7   8
ATOM      8  N   UNL A   1      32.449  27.182  21.962  1.00  0.00    -0.339 N 
ATOM      9  C   UNL A   1      32.840  25.914  21.618  1.00  0.00     0.271 C 
ATOM     10  O   UNL A   1      33.051  25.799  20.404  1.00  0.00    -0.267 OA
ATOM     11  H   UNL A   1      32.407  27.788  21.187  1.00  0.00     0.164 HD
BRANCH   9  12
ATOM     12  C   UNL A   1      33.032  24.735  22.518  1.00  0.00     0.142 A 
ATOM     13  C   UNL A   1      30.729  23.637  23.395  1.00  0.00     0.059 C 
ATOM     14  C   UNL A   1      32.191  23.818  23.170  1.00  0.00     0.035 A 
ATOM     15  S   UNL A   1      33.148  22.571  23.913  1.00  0.00    -0.115 S 
ATOM     16  C   UNL A   1      34.554  23.465  23.625  1.00  0.00     0.160 A 
ATOM     17  N   UNL A   1      34.388  24.530  22.886  1.00  0.00    -0.227 NA
BRANCH  16  18
ATOM     18  C   UNL A   1      35.792  23.089  24.232  1.00  0.00     0.162 A 
ATOM     19  C   UNL A   1      36.557  23.811  25.134  1.00  0.00     0.053 A 
ATOM     20  O   UNL A   1      36.371  21.857  24.052  1.00  0.00    -0.462 OA
ATOM     21  C   UNL A   1      37.628  22.976  25.534  1.00  0.00     0.043 A 
ATOM     22  C   UNL A   1      37.482  21.808  24.827  1.00  0.00     0.196 A 
ENDBRANCH  16  18
ENDBRANCH   9  12
ENDBRANCH   7   8
BRANCH   7  23
ATOM     23  C   UNL A   1      30.620  28.345  23.201  1.00  0.00     0.015 C 
ATOM     24  C   UNL A   1      30.300  29.211  21.975  1.00  0.00     0.010 C 
ATOM     25  C   UNL A   1      29.652  27.150  23.210  1.00  0.00     0.010 C 
ENDBRANCH   7  23
ENDBRANCH   4   7
ENDBRANCH   2   3
ENDBRANCH   1   2
BRANCH   1  26
ATOM     26  C   UNL A   1      34.181  29.448  27.330  1.00  0.00     0.118 C 
BRANCH  26  27
ATOM     27  N   UNL A   1      34.033  30.771  27.930  1.00  0.00    -0.352 N 
ATOM     28  C   UNL A   1      34.835  31.406  28.841  1.00  0.00     0.251 C 
ATOM     29  H   UNL A   1      33.243  31.279  27.637  1.00  0.00     0.163 HD
ATOM     30  O   UNL A   1      34.444  32.452  29.362  1.00  0.00    -0.269 OA
BRANCH  28  31
ATOM     31  C   UNL A   1      36.147  30.836  29.202  1.00  0.00     0.039 A 
ATOM     32  C   UNL A   1      36.205  29.832  30.172  1.00  0.00     0.014 A 
ATOM     33  C   UNL A   1      37.321  31.301  28.602  1.00  0.00     0.014 A 
ATOM     34  C   UNL A   1      37.437  29.275  30.516  1.00  0.00     0.010 A 
ATOM     35  C   UNL A   1      38.532  30.678  28.875  1.00  0.00     0.010 A 
ATOM     36  C   UNL A   1      38.610  29.681  29.858  1.00  0.00    -0.014 A 
BRANCH  36  37
ATOM     37  C   UNL A   1      39.931  29.112  30.215  1.00  0.00     0.031 A 
ATOM     38  C   UNL A   1      40.739  29.734  31.325  1.00  0.00     0.074 A 
ATOM     39  C   UNL A   1      40.435  28.088  29.502  1.00  0.00     0.049 A 
ATOM     40  N   UNL A   1      41.929  29.409  31.762  1.00  0.00    -0.248 NA
ATOM     41  C   UNL A   1      40.148  30.894  32.015  1.00  0.00     0.031 C 
ATOM     42  C   UNL A   1      39.786  27.456  28.350  1.00  0.00     0.029 A 
ATOM     43  N   UNL A   1      41.621  27.409  29.628  1.00  0.00    -0.354 N 
ATOM     44  C   UNL A   1      42.243  30.345  32.741  1.00  0.00     0.074 A 
ATOM     45  C   UNL A   1      41.140  31.277  32.806  1.00  0.00     0.031 C 
ATOM     46  C   UNL A   1      40.577  26.476  27.883  1.00  0.00     0.029 A 
ATOM     47  C   UNL A   1      41.795  26.425  28.684  1.00  0.00     0.049 A 
ATOM     48  H   UNL A   1      42.283  27.607  30.329  1.00  0.00     0.167 HD
ATOM     49  C   UNL A   1      43.333  30.403  33.542  1.00  0.00     0.034 A 
ATOM     50  C   UNL A   1      42.824  25.578  28.488  1.00  0.00     0.034 A 
ATOM     51  C   UNL A   1      44.402  29.444  33.510  1.00  0.00     0.049 A 
ATOM     52  C   UNL A   1      43.993  25.622  29.434  1.00  0.00     0.074 A 
ATOM     53  C   UNL A   1      45.513  29.363  34.331  1.00  0.00     0.029 A 
ATOM     54  N   UNL A   1      44.495  28.397  32.606  1.00  0.00    -0.354 N 
ATOM     55  N   UNL A   1      44.203  26.420  30.454  1.00  0.00    -0.248 NA
ATOM     56  C   UNL A   1      45.048  24.618  29.232  1.00  0.00     0.031 C 
ATOM     57  C   UNL A   1      46.287  28.277  33.911  1.00  0.00     0.029 A 
ATOM     58  C   UNL A   1      45.642  27.661  32.850  1.00  0.00     0.049 A 
ATOM     59  H   UNL A   1      43.842  28.204  31.895  1.00  0.00     0.167 HD
ATOM     60  C   UNL A   1      45.385  25.985  31.042  1.00  0.00     0.074 A 
ATOM     61  C   UNL A   1      45.835  24.842  30.275  1.00  0.00     0.031 C 
ATOM     62  C   UNL A   1      46.045  26.491  32.114  1.00  0.00     0.034 A 
BRANCH  49  63
ATOM     63  C   UNL A   1      43.394  31.515  34.558  1.00  0.00     0.023 A 
ATOM     64  C   UNL A   1      44.156  32.670  34.285  1.00  0.00     0.012 A 
ATOM     65  C   UNL A   1      42.665  31.441  35.762  1.00  0.00     0.148 A 
ATOM     66  C   UNL A   1      44.227  33.713  35.207  1.00  0.00     0.002 A 
ATOM     67  C   UNL A   1      42.701  32.506  36.655  1.00  0.00     0.091 A 
ATOM     68  F   UNL A   1      41.963  30.327  36.017  1.00  0.00    -0.205 F 
ATOM     69  C   UNL A   1      43.492  33.635  36.386  1.00  0.00     0.022 A 
BRANCH  67  70
ATOM     70  S   UNL A   1      41.724  32.541  38.161  1.00  0.00     0.127 S 
ATOM     71  O   UNL A   1      42.407  31.539  38.979  1.00  0.00    -0.237 OA
ATOM     72  O   UNL A   1      41.903  33.922  38.612  1.00  0.00    -0.237 OA
ATOM     73  O   UNL A   1      40.363  32.203  37.767  1.00  0.00    -0.744 OA
ENDBRANCH  67  70
ENDBRANCH  49  63
BRANCH  50  74
ATOM     74  C   UNL A   1      42.757  24.559  27.403  1.00  0.00     0.023 A 
ATOM     75  C   UNL A   1      43.334  24.845  26.149  1.00  0.00     0.012 A 
ATOM     76  C   UNL A   1      42.146  23.308  27.608  1.00  0.00     0.148 A 
ATOM     77  C   UNL A   1      43.266  23.921  25.107  1.00  0.00     0.002 A 
ATOM     78  C   UNL A   1      42.130  22.370  26.583  1.00  0.00     0.091 A 
ATOM     79  F   UNL A   1      41.598  23.059  28.805  1.00  0.00    -0.205 F 
ATOM     80  C   UNL A   1      42.672  22.681  25.325  1.00  0.00     0.022 A 
BRANCH  78  81
ATOM     81  S   UNL A   1      41.498  20.704  26.808  1.00  0.00     0.127 S 
ATOM     82  O   UNL A   1      40.091  20.956  27.110  1.00  0.00    -0.237 OA
ATOM     83  O   UNL A   1      41.751  20.107  25.496  1.00  0.00    -0.237 OA
ATOM     84  O   UNL A   1      42.285  20.130  27.891  1.00  0.00    -0.744 OA
ENDBRANCH  78  81
ENDBRANCH  50  74
BRANCH  62  85
ATOM     85  C   UNL A   1      47.295  25.779  32.561  1.00  0.00     0.023 A 
ATOM     86  C   UNL A   1      48.547  26.141  32.027  1.00  0.00     0.012 A 
ATOM     87  C   UNL A   1      47.229  24.782  33.554  1.00  0.00     0.148 A 
ATOM     88  C   UNL A   1      49.708  25.490  32.441  1.00  0.00     0.002 A 
ATOM     89  C   UNL A   1      48.397  24.176  34.002  1.00  0.00     0.091 A 
ATOM     90  F   UNL A   1      46.027  24.436  34.038  1.00  0.00    -0.205 F 
ATOM     91  C   UNL A   1      49.635  24.518  33.435  1.00  0.00     0.022 A 
BRANCH  89  92
ATOM     92  S   UNL A   1      48.401  22.989  35.350  1.00  0.00     0.127 S 
ATOM     93  O   UNL A   1      47.567  23.663  36.343  1.00  0.00    -0.237 OA
ATOM     94  O   UNL A   1      47.785  21.813  34.732  1.00  0.00    -0.237 OA
ATOM     95  O   UNL A   1      49.798  22.811  35.718  1.00  0.00    -0.744 OA
ENDBRANCH  89  92
ENDBRANCH  62  85
ENDBRANCH  36  37
ENDBRANCH  28  31
ENDBRANCH  26  27
ENDBRANCH   1  26
TORSDOF 17
ENDMDL
MODEL 3
REMARK VINA RESULT:     -12.1      1.607      1.969
REMARK SMILES Cc1sc(-c2ccco2)nc1C(=O)N[C@@H](C(=O)NCCCNC(=O)c1ccc(-c2c3nc(c(-c4cccc(S(=O)(=O)[O-])c4F)c4ccc([nH]4)c(-c4cccc(S(=O)(=O)[O-])c4F)c4nc(c(-c5cccc(S(=O)(=O)[O-])c5F)c5ccc2[nH]5)C=C4)C=C3)cc1)C(C)C
REMARK SMILES IDX 20 1 19 2 18 3 16 4 17 5 15 7 14 8 12 9 13 10 11 12 1 13
REMARK SMILES IDX 2 14 3 15 4 16 10 17 5 18 6 19 9 20 7 21 8 22 88 23 89 24
REMARK SMILES IDX 90 25 21 26 22 27 23 28 24 30 25 31 26 32 87 33 27 34 86 35
REMARK SMILES IDX 28 36 29 37 30 38 80 39 31 40 85 41 79 42 81 43 32 44 84 45
REMARK SMILES IDX 78 46 77 47 33 49 65 50 45 51 64 52 46 53 49 54 63 55 82 56
REMARK SMILES IDX 47 57 48 58 62 60 83 61 50 62 34 63 35 64 43 65 36 66 38 67
REMARK SMILES IDX 44 68 37 69 39 70 40 71 41 72 42 73 66 74 67 75 75 76 68 77
REMARK SMILES IDX 70 78 76 79 69 80 71 81 72 82 73 83 74 84 51 85 52 86 60 87
REMARK SMILES IDX 53 88 55 89 61 90 54 91 56 92 57 93 58 94 59 95
REMARK H PARENT 18 6 14 11 22 29 81 48 49 59
REMARK Flexibility Score: inf
ROOT
ATOM      1  C   UNL A   1      33.352  29.039  25.008  1.00  0.00     0.042 C 
ENDROOT
BRANCH   1   2
ATOM      2  C   UNL A   1      31.859  29.298  25.112  1.00  0.00     0.117 C 
BRANCH   2   3
ATOM      3  N   UNL A   1      31.201  29.236  23.821  1.00  0.00    -0.354 N 
ATOM      4  C   UNL A   1      30.974  28.170  22.995  1.00  0.00     0.242 C 
ATOM      5  O   UNL A   1      30.390  28.398  21.936  1.00  0.00    -0.273 OA
ATOM      6  H   UNL A   1      30.864  30.098  23.487  1.00  0.00     0.163 HD
BRANCH   4   7
ATOM      7  C   UNL A   1      31.304  26.729  23.471  1.00  0.00     0.174 C 
BRANCH   7   8
ATOM      8  N   UNL A   1      31.943  25.966  22.418  1.00  0.00    -0.339 N 
ATOM      9  C   UNL A   1      32.673  24.807  22.369  1.00  0.00     0.271 C 
ATOM     10  O   UNL A   1      33.023  24.519  21.218  1.00  0.00    -0.267 OA
ATOM     11  H   UNL A   1      31.824  26.376  21.530  1.00  0.00     0.164 HD
BRANCH   9  12
ATOM     12  C   UNL A   1      33.069  23.921  23.507  1.00  0.00     0.142 A 
ATOM     13  C   UNL A   1      34.222  25.227  25.567  1.00  0.00     0.059 C 
ATOM     14  C   UNL A   1      33.632  24.107  24.780  1.00  0.00     0.035 A 
ATOM     15  S   UNL A   1      33.634  22.600  25.646  1.00  0.00    -0.115 S 
ATOM     16  C   UNL A   1      33.222  21.774  24.230  1.00  0.00     0.160 A 
ATOM     17  N   UNL A   1      32.929  22.540  23.211  1.00  0.00    -0.227 NA
BRANCH  16  18
ATOM     18  C   UNL A   1      33.282  20.348  24.176  1.00  0.00     0.162 A 
ATOM     19  C   UNL A   1      32.413  19.478  23.536  1.00  0.00     0.053 A 
ATOM     20  O   UNL A   1      34.316  19.619  24.711  1.00  0.00    -0.462 OA
ATOM     21  C   UNL A   1      32.952  18.176  23.669  1.00  0.00     0.043 A 
ATOM     22  C   UNL A   1      34.097  18.315  24.414  1.00  0.00     0.196 A 
ENDBRANCH  16  18
ENDBRANCH   9  12
ENDBRANCH   7   8
BRANCH   7  23
ATOM     23  C   UNL A   1      30.085  26.000  24.085  1.00  0.00     0.015 C 
ATOM     24  C   UNL A   1      30.220  25.809  25.602  1.00  0.00     0.010 C 
ATOM     25  C   UNL A   1      28.804  26.807  23.815  1.00  0.00     0.010 C 
ENDBRANCH   7  23
ENDBRANCH   4   7
ENDBRANCH   2   3
ENDBRANCH   1   2
BRANCH   1  26
ATOM     26  C   UNL A   1      34.052  29.151  26.353  1.00  0.00     0.118 C 
BRANCH  26  27
ATOM     27  N   UNL A   1      33.801  30.436  26.999  1.00  0.00    -0.352 N 
ATOM     28  C   UNL A   1      34.503  31.057  27.998  1.00  0.00     0.251 C 
ATOM     29  H   UNL A   1      33.016  30.928  26.667  1.00  0.00     0.163 HD
ATOM     30  O   UNL A   1      34.029  32.061  28.533  1.00  0.00    -0.269 OA
BRANCH  28  31
ATOM     31  C   UNL A   1      35.805  30.521  28.437  1.00  0.00     0.039 A 
ATOM     32  C   UNL A   1      36.963  30.925  27.769  1.00  0.00     0.014 A 
ATOM     33  C   UNL A   1      35.886  29.607  29.493  1.00  0.00     0.014 A 
ATOM     34  C   UNL A   1      38.204  30.436  28.180  1.00  0.00     0.010 A 
ATOM     35  C   UNL A   1      37.128  29.200  29.962  1.00  0.00     0.010 A 
ATOM     36  C   UNL A   1      38.299  29.582  29.292  1.00  0.00    -0.014 A 
BRANCH  36  37
ATOM     37  C   UNL A   1      39.604  29.041  29.739  1.00  0.00     0.031 A 
ATOM     38  C   UNL A   1      40.349  29.713  30.863  1.00  0.00     0.074 A 
ATOM     39  C   UNL A   1      40.152  27.993  29.094  1.00  0.00     0.049 A 
ATOM     40  N   UNL A   1      41.517  29.417  31.372  1.00  0.00    -0.248 NA
ATOM     41  C   UNL A   1      39.714  30.893  31.476  1.00  0.00     0.031 C 
ATOM     42  C   UNL A   1      39.568  27.311  27.936  1.00  0.00     0.029 A 
ATOM     43  N   UNL A   1      41.335  27.332  29.307  1.00  0.00    -0.354 N 
ATOM     44  C   UNL A   1      41.773  30.393  32.329  1.00  0.00     0.074 A 
ATOM     45  C   UNL A   1      40.661  31.316  32.300  1.00  0.00     0.031 C 
ATOM     46  C   UNL A   1      40.389  26.321  27.549  1.00  0.00     0.029 A 
ATOM     47  C   UNL A   1      41.565  26.313  28.412  1.00  0.00     0.049 A 
ATOM     48  H   UNL A   1      41.959  27.564  30.032  1.00  0.00     0.167 HD
ATOM     49  C   UNL A   1      42.820  30.494  33.182  1.00  0.00     0.034 A 
ATOM     50  C   UNL A   1      42.609  25.469  28.303  1.00  0.00     0.034 A 
ATOM     51  C   UNL A   1      43.896  29.544  33.242  1.00  0.00     0.049 A 
ATOM     52  C   UNL A   1      43.728  25.562  29.306  1.00  0.00     0.074 A 
ATOM     53  C   UNL A   1      44.964  29.506  34.122  1.00  0.00     0.029 A 
ATOM     54  N   UNL A   1      44.044  28.464  32.387  1.00  0.00    -0.354 N 
ATOM     55  N   UNL A   1      43.878  26.401  30.302  1.00  0.00    -0.248 NA
ATOM     56  C   UNL A   1      44.799  24.561  29.198  1.00  0.00     0.031 C 
ATOM     57  C   UNL A   1      45.768  28.412  33.785  1.00  0.00     0.029 A 
ATOM     58  C   UNL A   1      45.183  27.749  32.718  1.00  0.00     0.049 A 
ATOM     59  H   UNL A   1      43.430  28.237  31.651  1.00  0.00     0.167 HD
ATOM     60  C   UNL A   1      45.032  26.001  30.967  1.00  0.00     0.074 A 
ATOM     61  C   UNL A   1      45.530  24.833  30.270  1.00  0.00     0.031 C 
ATOM     62  C   UNL A   1      45.632  26.555  32.050  1.00  0.00     0.034 A 
BRANCH  49  63
ATOM     63  C   UNL A   1      42.820  31.645  34.155  1.00  0.00     0.023 A 
ATOM     64  C   UNL A   1      43.335  32.896  33.756  1.00  0.00     0.012 A 
ATOM     65  C   UNL A   1      42.271  31.506  35.445  1.00  0.00     0.148 A 
ATOM     66  C   UNL A   1      43.345  33.977  34.637  1.00  0.00     0.002 A 
ATOM     67  C   UNL A   1      42.239  32.602  36.301  1.00  0.00     0.091 A 
ATOM     68  F   UNL A   1      41.806  30.305  35.817  1.00  0.00    -0.205 F 
ATOM     69  C   UNL A   1      42.788  33.832  35.903  1.00  0.00     0.022 A 
BRANCH  67  70
ATOM     70  S   UNL A   1      41.468  32.543  37.921  1.00  0.00     0.127 S 
ATOM     71  O   UNL A   1      41.603  33.931  38.362  1.00  0.00    -0.237 OA
ATOM     72  O   UNL A   1      40.099  32.138  37.595  1.00  0.00    -0.237 OA
ATOM     73  O   UNL A   1      42.222  31.566  38.692  1.00  0.00    -0.744 OA
ENDBRANCH  67  70
ENDBRANCH  49  63
BRANCH  50  74
ATOM     74  C   UNL A   1      42.606  24.408  27.257  1.00  0.00     0.023 A 
ATOM     75  C   UNL A   1      43.238  24.653  26.022  1.00  0.00     0.012 A 
ATOM     76  C   UNL A   1      42.001  23.158  27.483  1.00  0.00     0.148 A 
ATOM     77  C   UNL A   1      43.230  23.688  25.015  1.00  0.00     0.002 A 
ATOM     78  C   UNL A   1      42.045  22.181  26.496  1.00  0.00     0.091 A 
ATOM     79  F   UNL A   1      41.401  22.947  28.662  1.00  0.00    -0.205 F 
ATOM     80  C   UNL A   1      42.642  22.450  25.254  1.00  0.00     0.022 A 
BRANCH  78  81
ATOM     81  S   UNL A   1      41.424  20.516  26.757  1.00  0.00     0.127 S 
ATOM     82  O   UNL A   1      39.992  20.754  26.927  1.00  0.00    -0.237 OA
ATOM     83  O   UNL A   1      41.796  19.856  25.505  1.00  0.00    -0.237 OA
ATOM     84  O   UNL A   1      42.126  20.015  27.931  1.00  0.00    -0.744 OA
ENDBRANCH  78  81
ENDBRANCH  50  74
BRANCH  62  85
ATOM     85  C   UNL A   1      46.862  25.873  32.589  1.00  0.00     0.023 A 
ATOM     86  C   UNL A   1      48.140  26.250  32.130  1.00  0.00     0.012 A 
ATOM     87  C   UNL A   1      46.750  24.891  33.592  1.00  0.00     0.148 A 
ATOM     88  C   UNL A   1      49.283  25.627  32.629  1.00  0.00     0.002 A 
ATOM     89  C   UNL A   1      47.897  24.314  34.124  1.00  0.00     0.091 A 
ATOM     90  F   UNL A   1      45.525  24.530  34.004  1.00  0.00    -0.205 F 
ATOM     91  C   UNL A   1      49.163  24.669  33.632  1.00  0.00     0.022 A 
BRANCH  89  92
ATOM     92  S   UNL A   1      47.834  23.148  35.489  1.00  0.00     0.127 S 
ATOM     93  O   UNL A   1      47.133  22.017  34.884  1.00  0.00    -0.237 OA
ATOM     94  O   UNL A   1      49.253  22.910  35.762  1.00  0.00    -0.237 OA
ATOM     95  O   UNL A   1      47.123  23.829  36.561  1.00  0.00    -0.744 OA
ENDBRANCH  89  92
ENDBRANCH  62  85
ENDBRANCH  36  37
ENDBRANCH  28  31
ENDBRANCH  26  27
ENDBRANCH   1  26
TORSDOF 17
ENDMDL
