MODEL 1
REMARK VINA RESULT:     -12.4      0.000      0.000
REMARK SMILES O=C(NCCCNC(=O)[C@@H]1[C@H](C(=O)Nc2ccccc2OC(F)F)[C@@H]2C=C[C@H]1C2)c1ccc(-c2c3nc(c(-c4cccc(S(=O)(=O)[O-])c4F)c4ccc([nH]4)c(-c4cccc(S(=O)(=O)[O-])c4F)c4nc(c(-c5cccc(S(=O)(=O)[O-])c5F)c5ccc2[nH]5)C=C4)C=C3)cc1
REMARK SMILES IDX 5 1 4 2 3 3 1 4 2 5 30 7 31 8 92 9 32 10 91 11 33 12 34 13
REMARK SMILES IDX 35 14 85 15 36 16 90 17 84 18 86 19 37 20 89 21 83 22 82 23
REMARK SMILES IDX 38 25 70 26 50 27 69 28 51 29 54 30 68 31 87 32 52 33 53 34
REMARK SMILES IDX 67 36 88 37 55 38 39 39 40 40 48 41 41 42 43 43 49 44 42 45
REMARK SMILES IDX 44 46 45 47 46 48 47 49 71 50 72 51 80 52 73 53 75 54 81 55
REMARK SMILES IDX 74 56 76 57 77 58 78 59 79 60 56 61 57 62 65 63 58 64 60 65
REMARK SMILES IDX 66 66 59 67 61 68 62 69 63 70 64 71 6 72 7 73 8 74 9 76
REMARK SMILES IDX 10 77 11 78 28 79 25 80 27 81 29 82 26 83 12 84 13 85 14 86
REMARK SMILES IDX 15 88 16 89 20 90 17 91 19 92 18 93 21 94 22 95 23 96 24 97
REMARK H PARENT 3 6 86 24 54 35 7 75 14 87
REMARK Flexibility Score: inf
ROOT
ATOM      1  C   UNL A   1      31.763  28.626  26.550  1.00  0.00     0.042 C 
ENDROOT
BRANCH   1   2
ATOM      2  C   UNL A   1      32.650  29.699  25.928  1.00  0.00     0.118 C 
BRANCH   2   3
ATOM      3  N   UNL A   1      32.363  31.045  26.409  1.00  0.00    -0.352 N 
ATOM      4  O   UNL A   1      32.576  32.917  27.645  1.00  0.00    -0.269 OA
ATOM      5  C   UNL A   1      33.081  31.875  27.249  1.00  0.00     0.251 C 
ATOM      6  H   UNL A   1      31.517  31.427  26.081  1.00  0.00     0.163 HD
BRANCH   5   7
ATOM      7  C   UNL A   1      34.434  31.476  27.702  1.00  0.00     0.039 A 
ATOM      8  C   UNL A   1      34.710  30.148  28.011  1.00  0.00     0.014 A 
ATOM      9  C   UNL A   1      35.432  32.444  27.855  1.00  0.00     0.014 A 
ATOM     10  C   UNL A   1      35.864  29.833  28.716  1.00  0.00     0.010 A 
ATOM     11  C   UNL A   1      36.658  32.094  28.438  1.00  0.00     0.010 A 
ATOM     12  C   UNL A   1      36.857  30.800  28.944  1.00  0.00    -0.014 A 
BRANCH  12  13
ATOM     13  C   UNL A   1      38.083  30.406  29.696  1.00  0.00     0.031 A 
ATOM     14  C   UNL A   1      38.310  30.846  31.121  1.00  0.00     0.074 A 
ATOM     15  C   UNL A   1      38.972  29.584  29.100  1.00  0.00     0.049 A 
ATOM     16  N   UNL A   1      39.283  30.521  31.934  1.00  0.00    -0.248 NA
ATOM     17  C   UNL A   1      37.333  31.776  31.710  1.00  0.00     0.031 C 
ATOM     18  C   UNL A   1      38.889  29.120  27.713  1.00  0.00     0.029 A 
ATOM     19  N   UNL A   1      40.100  28.971  29.583  1.00  0.00    -0.354 N 
ATOM     20  C   UNL A   1      39.072  31.250  33.101  1.00  0.00     0.074 A 
ATOM     21  C   UNL A   1      37.875  32.033  32.893  1.00  0.00     0.031 C 
ATOM     22  C   UNL A   1      39.874  28.243  27.479  1.00  0.00     0.029 A 
ATOM     23  C   UNL A   1      40.705  28.138  28.670  1.00  0.00     0.049 A 
ATOM     24  H   UNL A   1      40.444  29.114  30.494  1.00  0.00     0.167 HD
ATOM     25  C   UNL A   1      39.801  31.257  34.244  1.00  0.00     0.034 A 
ATOM     26  C   UNL A   1      41.811  27.376  28.772  1.00  0.00     0.034 A 
ATOM     27  C   UNL A   1      40.956  30.427  34.471  1.00  0.00     0.049 A 
ATOM     28  C   UNL A   1      42.563  27.360  30.070  1.00  0.00     0.074 A 
ATOM     29  C   UNL A   1      41.718  30.310  35.621  1.00  0.00     0.029 A 
ATOM     30  N   UNL A   1      41.517  29.572  33.534  1.00  0.00    -0.354 N 
ATOM     31  N   UNL A   1      42.279  27.972  31.194  1.00  0.00    -0.248 NA
ATOM     32  C   UNL A   1      43.777  26.535  30.121  1.00  0.00     0.031 C 
ATOM     33  C   UNL A   1      42.750  29.399  35.371  1.00  0.00     0.029 A 
ATOM     34  C   UNL A   1      42.618  28.931  34.074  1.00  0.00     0.049 A 
ATOM     35  H   UNL A   1      41.180  29.442  32.618  1.00  0.00     0.167 HD
ATOM     36  C   UNL A   1      43.265  27.587  32.094  1.00  0.00     0.074 A 
ATOM     37  C   UNL A   1      44.135  26.665  31.391  1.00  0.00     0.031 C 
ATOM     38  C   UNL A   1      43.445  27.978  33.379  1.00  0.00     0.034 A 
BRANCH  25  39
ATOM     39  C   UNL A   1      39.359  32.169  35.361  1.00  0.00     0.023 A 
ATOM     40  C   UNL A   1      38.510  31.681  36.374  1.00  0.00     0.012 A 
ATOM     41  C   UNL A   1      39.843  33.491  35.446  1.00  0.00     0.148 A 
ATOM     42  C   UNL A   1      38.126  32.500  37.436  1.00  0.00     0.002 A 
ATOM     43  C   UNL A   1      39.490  34.288  36.529  1.00  0.00     0.091 A 
ATOM     44  F   UNL A   1      40.633  33.947  34.463  1.00  0.00    -0.205 F 
ATOM     45  C   UNL A   1      38.623  33.798  37.519  1.00  0.00     0.022 A 
BRANCH  43  46
ATOM     46  S   UNL A   1      40.143  35.946  36.763  1.00  0.00     0.127 S 
ATOM     47  O   UNL A   1      41.575  35.682  36.900  1.00  0.00    -0.237 OA
ATOM     48  O   UNL A   1      39.763  36.608  35.514  1.00  0.00    -0.237 OA
ATOM     49  O   UNL A   1      39.484  36.471  37.950  1.00  0.00    -0.744 OA
ENDBRANCH  43  46
ENDBRANCH  25  39
BRANCH  26  50
ATOM     50  C   UNL A   1      42.234  26.530  27.621  1.00  0.00     0.023 A 
ATOM     51  C   UNL A   1      43.124  27.055  26.663  1.00  0.00     0.012 A 
ATOM     52  C   UNL A   1      41.806  25.194  27.499  1.00  0.00     0.148 A 
ATOM     53  C   UNL A   1      43.563  26.269  25.597  1.00  0.00     0.002 A 
ATOM     54  C   UNL A   1      42.298  24.398  26.472  1.00  0.00     0.091 A 
ATOM     55  F   UNL A   1      40.942  24.719  28.409  1.00  0.00    -0.205 F 
ATOM     56  C   UNL A   1      43.163  24.938  25.509  1.00  0.00     0.022 A 
BRANCH  54  57
ATOM     57  S   UNL A   1      41.955  22.638  26.384  1.00  0.00     0.127 S 
ATOM     58  O   UNL A   1      42.573  22.151  27.614  1.00  0.00    -0.237 OA
ATOM     59  O   UNL A   1      40.492  22.612  26.376  1.00  0.00    -0.237 OA
ATOM     60  O   UNL A   1      42.564  22.185  25.141  1.00  0.00    -0.744 OA
ENDBRANCH  54  57
ENDBRANCH  26  50
BRANCH  38  61
ATOM     61  C   UNL A   1      44.613  27.387  34.121  1.00  0.00     0.023 A 
ATOM     62  C   UNL A   1      45.871  28.016  34.061  1.00  0.00     0.012 A 
ATOM     63  C   UNL A   1      44.450  26.236  34.916  1.00  0.00     0.148 A 
ATOM     64  C   UNL A   1      46.961  27.488  34.752  1.00  0.00     0.002 A 
ATOM     65  C   UNL A   1      45.529  25.743  35.641  1.00  0.00     0.091 A 
ATOM     66  F   UNL A   1      43.251  25.638  34.942  1.00  0.00    -0.205 F 
ATOM     67  C   UNL A   1      46.787  26.360  35.550  1.00  0.00     0.022 A 
BRANCH  65  68
ATOM     68  S   UNL A   1      45.366  24.350  36.764  1.00  0.00     0.127 S 
ATOM     69  O   UNL A   1      44.267  24.787  37.624  1.00  0.00    -0.237 OA
ATOM     70  O   UNL A   1      45.029  23.253  35.855  1.00  0.00    -0.237 OA
ATOM     71  O   UNL A   1      46.662  24.214  37.415  1.00  0.00    -0.744 OA
ENDBRANCH  65  68
ENDBRANCH  38  61
ENDBRANCH  12  13
ENDBRANCH   5   7
ENDBRANCH   2   3
ENDBRANCH   1   2
BRANCH   1  72
ATOM     72  C   UNL A   1      32.486  27.314  26.817  1.00  0.00     0.117 C 
BRANCH  72  73
ATOM     73  N   UNL A   1      31.773  26.158  26.301  1.00  0.00    -0.356 N 
ATOM     74  C   UNL A   1      32.215  24.905  26.017  1.00  0.00     0.224 C 
ATOM     75  H   UNL A   1      30.816  26.306  26.129  1.00  0.00     0.163 HD
ATOM     76  O   UNL A   1      31.356  24.015  26.028  1.00  0.00    -0.275 OA
BRANCH  74  77
ATOM     77  C   UNL A   1      33.598  24.598  25.496  1.00  0.00     0.098 C 
ATOM     78  C   UNL A   1      33.835  24.251  23.994  1.00  0.00     0.099 C 
ATOM     79  C   UNL A   1      34.671  23.757  26.218  1.00  0.00     0.025 C 
ATOM     80  C   UNL A   1      35.111  23.356  24.053  1.00  0.00     0.025 C 
ATOM     81  C   UNL A   1      34.486  22.279  25.981  1.00  0.00    -0.027 C 
ATOM     82  C   UNL A   1      35.853  23.973  25.247  1.00  0.00     0.017 C 
ATOM     83  C   UNL A   1      34.797  22.037  24.701  1.00  0.00    -0.027 C 
BRANCH  78  84
ATOM     84  C   UNL A   1      32.843  23.820  22.902  1.00  0.00     0.229 C 
ATOM     85  O   UNL A   1      33.066  22.738  22.328  1.00  0.00    -0.274 OA
ATOM     86  N   UNL A   1      31.603  24.330  22.663  1.00  0.00    -0.323 N 
ATOM     87  H   UNL A   1      31.007  23.688  22.215  1.00  0.00     0.170 HD
BRANCH  86  88
ATOM     88  C   UNL A   1      30.986  25.559  22.910  1.00  0.00     0.084 A 
ATOM     89  C   UNL A   1      29.639  25.520  23.300  1.00  0.00     0.030 A 
ATOM     90  C   UNL A   1      31.588  26.799  22.714  1.00  0.00     0.149 A 
ATOM     91  C   UNL A   1      28.974  26.688  23.687  1.00  0.00     0.002 A 
ATOM     92  C   UNL A   1      30.928  27.967  23.122  1.00  0.00     0.049 A 
ATOM     93  C   UNL A   1      29.634  27.910  23.635  1.00  0.00     0.004 A 
BRANCH  90  94
ATOM     94  O   UNL A   1      32.789  26.991  22.104  1.00  0.00    -0.433 OA
BRANCH  94  95
ATOM     95  C   UNL A   1      33.619  28.008  22.672  1.00  0.00     0.542 C 
ATOM     96  F   UNL A   1      34.277  27.540  23.754  1.00  0.00    -0.167 F 
ATOM     97  F   UNL A   1      34.543  28.430  21.774  1.00  0.00    -0.167 F 
ENDBRANCH  94  95
ENDBRANCH  90  94
ENDBRANCH  86  88
ENDBRANCH  78  84
ENDBRANCH  74  77
ENDBRANCH  72  73
ENDBRANCH   1  72
TORSDOF 17
ENDMDL
MODEL 2
REMARK VINA RESULT:     -12.4      4.677      9.669
REMARK SMILES O=C(NCCCNC(=O)[C@@H]1[C@H](C(=O)Nc2ccccc2OC(F)F)[C@@H]2C=C[C@H]1C2)c1ccc(-c2c3nc(c(-c4cccc(S(=O)(=O)[O-])c4F)c4ccc([nH]4)c(-c4cccc(S(=O)(=O)[O-])c4F)c4nc(c(-c5cccc(S(=O)(=O)[O-])c5F)c5ccc2[nH]5)C=C4)C=C3)cc1
REMARK SMILES IDX 5 1 4 2 3 3 1 4 2 5 30 7 31 8 92 9 32 10 91 11 33 12 34 13
REMARK SMILES IDX 35 14 85 15 36 16 90 17 84 18 86 19 37 20 89 21 83 22 82 23
REMARK SMILES IDX 38 25 70 26 50 27 69 28 51 29 54 30 68 31 87 32 52 33 53 34
REMARK SMILES IDX 67 36 88 37 55 38 39 39 40 40 48 41 41 42 43 43 49 44 42 45
REMARK SMILES IDX 44 46 45 47 46 48 47 49 71 50 72 51 80 52 73 53 75 54 81 55
REMARK SMILES IDX 74 56 76 57 77 58 78 59 79 60 56 61 57 62 65 63 58 64 60 65
REMARK SMILES IDX 66 66 59 67 61 68 62 69 63 70 64 71 6 72 7 73 8 74 9 76
REMARK SMILES IDX 10 77 11 78 28 79 25 80 27 81 29 82 26 83 12 84 13 85 14 86
REMARK SMILES IDX 15 88 16 89 20 90 17 91 19 92 18 93 21 94 22 95 23 96 24 97
REMARK H PARENT 3 6 86 24 54 35 7 75 14 87
REMARK Flexibility Score: inf
ROOT
ATOM      1  C   UNL A   1      35.068  22.042  26.451  1.00  0.00     0.042 C 
ENDROOT
BRANCH   1   2
ATOM      2  C   UNL A   1      36.190  22.285  25.448  1.00  0.00     0.118 C 
BRANCH   2   3
ATOM      3  N   UNL A   1      37.195  21.227  25.428  1.00  0.00    -0.352 N 
ATOM      4  O   UNL A   1      39.229  20.270  25.569  1.00  0.00    -0.269 OA
ATOM      5  C   UNL A   1      38.522  21.237  25.815  1.00  0.00     0.251 C 
ATOM      6  H   UNL A   1      36.875  20.363  25.082  1.00  0.00     0.163 HD
BRANCH   5   7
ATOM      7  C   UNL A   1      39.089  22.435  26.479  1.00  0.00     0.039 A 
ATOM      8  C   UNL A   1      38.558  23.696  26.229  1.00  0.00     0.014 A 
ATOM      9  C   UNL A   1      40.187  22.303  27.334  1.00  0.00     0.014 A 
ATOM     10  C   UNL A   1      39.272  24.826  26.602  1.00  0.00     0.010 A 
ATOM     11  C   UNL A   1      40.825  23.448  27.830  1.00  0.00     0.010 A 
ATOM     12  C   UNL A   1      40.418  24.723  27.408  1.00  0.00    -0.014 A 
BRANCH  12  13
ATOM     13  C   UNL A   1      41.141  25.970  27.791  1.00  0.00     0.031 A 
ATOM     14  C   UNL A   1      42.528  26.267  27.278  1.00  0.00     0.074 A 
ATOM     15  C   UNL A   1      40.505  26.877  28.561  1.00  0.00     0.049 A 
ATOM     16  N   UNL A   1      43.255  27.342  27.454  1.00  0.00    -0.248 NA
ATOM     17  C   UNL A   1      43.195  25.228  26.476  1.00  0.00     0.031 C 
ATOM     18  C   UNL A   1      39.177  26.692  29.154  1.00  0.00     0.029 A 
ATOM     19  N   UNL A   1      40.868  28.139  28.958  1.00  0.00    -0.354 N 
ATOM     20  C   UNL A   1      44.479  27.086  26.844  1.00  0.00     0.074 A 
ATOM     21  C   UNL A   1      44.398  25.754  26.288  1.00  0.00     0.031 C 
ATOM     22  C   UNL A   1      38.807  27.820  29.774  1.00  0.00     0.029 A 
ATOM     23  C   UNL A   1      39.897  28.783  29.691  1.00  0.00     0.049 A 
ATOM     24  H   UNL A   1      41.737  28.544  28.740  1.00  0.00     0.167 HD
ATOM     25  C   UNL A   1      45.566  27.891  26.744  1.00  0.00     0.034 A 
ATOM     26  C   UNL A   1      39.883  30.011  30.245  1.00  0.00     0.034 A 
ATOM     27  C   UNL A   1      45.620  29.240  27.243  1.00  0.00     0.049 A 
ATOM     28  C   UNL A   1      41.079  30.900  30.068  1.00  0.00     0.074 A 
ATOM     29  C   UNL A   1      46.649  30.159  27.128  1.00  0.00     0.029 A 
ATOM     30  N   UNL A   1      44.605  29.867  27.950  1.00  0.00    -0.354 N 
ATOM     31  N   UNL A   1      42.178  30.675  29.391  1.00  0.00    -0.248 NA
ATOM     32  C   UNL A   1      41.024  32.218  30.714  1.00  0.00     0.031 C 
ATOM     33  C   UNL A   1      46.264  31.334  27.782  1.00  0.00     0.029 A 
ATOM     34  C   UNL A   1      44.985  31.156  28.285  1.00  0.00     0.049 A 
ATOM     35  H   UNL A   1      43.741  29.455  28.181  1.00  0.00     0.167 HD
ATOM     36  C   UNL A   1      42.938  31.833  29.509  1.00  0.00     0.074 A 
ATOM     37  C   UNL A   1      42.158  32.766  30.296  1.00  0.00     0.031 C 
ATOM     38  C   UNL A   1      44.178  32.091  29.026  1.00  0.00     0.034 A 
BRANCH  25  39
ATOM     39  C   UNL A   1      46.786  27.349  26.043  1.00  0.00     0.023 A 
ATOM     40  C   UNL A   1      46.948  27.551  24.657  1.00  0.00     0.012 A 
ATOM     41  C   UNL A   1      47.808  26.704  26.768  1.00  0.00     0.148 A 
ATOM     42  C   UNL A   1      48.091  27.094  24.001  1.00  0.00     0.002 A 
ATOM     43  C   UNL A   1      48.963  26.287  26.115  1.00  0.00     0.091 A 
ATOM     44  F   UNL A   1      47.629  26.501  28.082  1.00  0.00    -0.205 F 
ATOM     45  C   UNL A   1      49.102  26.472  24.730  1.00  0.00     0.022 A 
BRANCH  43  46
ATOM     46  S   UNL A   1      50.352  25.549  26.984  1.00  0.00     0.127 S 
ATOM     47  O   UNL A   1      51.297  25.323  25.890  1.00  0.00    -0.237 OA
ATOM     48  O   UNL A   1      50.738  26.612  27.912  1.00  0.00    -0.237 OA
ATOM     49  O   UNL A   1      49.831  24.349  27.622  1.00  0.00    -0.744 OA
ENDBRANCH  43  46
ENDBRANCH  25  39
BRANCH  26  50
ATOM     50  C   UNL A   1      38.670  30.479  30.972  1.00  0.00     0.023 A 
ATOM     51  C   UNL A   1      38.589  30.310  32.368  1.00  0.00     0.012 A 
ATOM     52  C   UNL A   1      37.624  31.140  30.300  1.00  0.00     0.148 A 
ATOM     53  C   UNL A   1      37.479  30.774  33.076  1.00  0.00     0.002 A 
ATOM     54  C   UNL A   1      36.553  31.657  31.020  1.00  0.00     0.091 A 
ATOM     55  F   UNL A   1      37.709  31.274  28.968  1.00  0.00    -0.205 F 
ATOM     56  C   UNL A   1      36.470  31.460  32.405  1.00  0.00     0.022 A 
BRANCH  54  57
ATOM     57  S   UNL A   1      35.299  32.687  30.251  1.00  0.00     0.127 S 
ATOM     58  O   UNL A   1      36.081  33.842  29.822  1.00  0.00    -0.237 OA
ATOM     59  O   UNL A   1      34.820  31.827  29.168  1.00  0.00    -0.237 OA
ATOM     60  O   UNL A   1      34.310  32.936  31.292  1.00  0.00    -0.744 OA
ENDBRANCH  54  57
ENDBRANCH  26  50
BRANCH  38  61
ATOM     61  C   UNL A   1      44.758  33.450  29.311  1.00  0.00     0.023 A 
ATOM     62  C   UNL A   1      45.470  33.670  30.506  1.00  0.00     0.012 A 
ATOM     63  C   UNL A   1      44.639  34.493  28.373  1.00  0.00     0.148 A 
ATOM     64  C   UNL A   1      46.024  34.919  30.780  1.00  0.00     0.002 A 
ATOM     65  C   UNL A   1      45.235  35.721  28.630  1.00  0.00     0.091 A 
ATOM     66  F   UNL A   1      43.937  34.271  27.252  1.00  0.00    -0.205 F 
ATOM     67  C   UNL A   1      45.917  35.941  29.839  1.00  0.00     0.022 A 
BRANCH  65  68
ATOM     68  S   UNL A   1      45.222  37.058  27.430  1.00  0.00     0.127 S 
ATOM     69  O   UNL A   1      45.951  36.462  26.312  1.00  0.00    -0.237 OA
ATOM     70  O   UNL A   1      43.791  37.250  27.191  1.00  0.00    -0.237 OA
ATOM     71  O   UNL A   1      45.877  38.182  28.084  1.00  0.00    -0.744 OA
ENDBRANCH  65  68
ENDBRANCH  38  61
ENDBRANCH  12  13
ENDBRANCH   5   7
ENDBRANCH   2   3
ENDBRANCH   1   2
BRANCH   1  72
ATOM     72  C   UNL A   1      34.066  23.185  26.535  1.00  0.00     0.117 C 
BRANCH  72  73
ATOM     73  N   UNL A   1      33.992  23.964  25.310  1.00  0.00    -0.356 N 
ATOM     74  C   UNL A   1      33.991  25.310  25.122  1.00  0.00     0.224 C 
ATOM     75  H   UNL A   1      33.934  23.432  24.485  1.00  0.00     0.163 HD
ATOM     76  O   UNL A   1      34.369  25.699  24.009  1.00  0.00    -0.275 OA
BRANCH  74  77
ATOM     77  C   UNL A   1      33.369  26.294  26.082  1.00  0.00     0.098 C 
ATOM     78  C   UNL A   1      31.901  26.116  26.579  1.00  0.00     0.099 C 
ATOM     79  C   UNL A   1      33.537  27.826  26.043  1.00  0.00     0.025 C 
ATOM     80  C   UNL A   1      31.471  27.583  26.889  1.00  0.00     0.025 C 
ATOM     81  C   UNL A   1      32.572  28.478  25.084  1.00  0.00    -0.027 C 
ATOM     82  C   UNL A   1      32.803  28.192  27.352  1.00  0.00     0.017 C 
ATOM     83  C   UNL A   1      31.347  28.374  25.617  1.00  0.00    -0.027 C 
BRANCH  78  84
ATOM     84  C   UNL A   1      30.755  25.256  26.019  1.00  0.00     0.229 C 
ATOM     85  O   UNL A   1      29.910  24.840  26.832  1.00  0.00    -0.274 OA
ATOM     86  N   UNL A   1      30.392  25.112  24.715  1.00  0.00    -0.323 N 
ATOM     87  H   UNL A   1      29.446  24.860  24.610  1.00  0.00     0.170 HD
BRANCH  86  88
ATOM     88  C   UNL A   1      31.056  25.239  23.494  1.00  0.00     0.084 A 
ATOM     89  C   UNL A   1      30.977  26.488  22.860  1.00  0.00     0.030 A 
ATOM     90  C   UNL A   1      31.709  24.199  22.837  1.00  0.00     0.149 A 
ATOM     91  C   UNL A   1      31.710  26.747  21.699  1.00  0.00     0.002 A 
ATOM     92  C   UNL A   1      32.461  24.465  21.684  1.00  0.00     0.049 A 
ATOM     93  C   UNL A   1      32.486  25.743  21.131  1.00  0.00     0.004 A 
BRANCH  90  94
ATOM     94  O   UNL A   1      31.650  22.891  23.205  1.00  0.00    -0.433 OA
BRANCH  94  95
ATOM     95  C   UNL A   1      32.586  22.021  22.562  1.00  0.00     0.542 C 
ATOM     96  F   UNL A   1      33.376  21.411  23.471  1.00  0.00    -0.167 F 
ATOM     97  F   UNL A   1      31.942  21.057  21.859  1.00  0.00    -0.167 F 
ENDBRANCH  94  95
ENDBRANCH  90  94
ENDBRANCH  86  88
ENDBRANCH  78  84
ENDBRANCH  74  77
ENDBRANCH  72  73
ENDBRANCH   1  72
TORSDOF 17
ENDMDL
MODEL 3
REMARK VINA RESULT:     -12.0      1.875      3.254
REMARK SMILES O=C(NCCCNC(=O)[C@@H]1[C@H](C(=O)Nc2ccccc2OC(F)F)[C@@H]2C=C[C@H]1C2)c1ccc(-c2c3nc(c(-c4cccc(S(=O)(=O)[O-])c4F)c4ccc([nH]4)c(-c4cccc(S(=O)(=O)[O-])c4F)c4nc(c(-c5cccc(S(=O)(=O)[O-])c5F)c5ccc2[nH]5)C=C4)C=C3)cc1
REMARK SMILES IDX 5 1 4 2 3 3 1 4 2 5 30 7 31 8 92 9 32 10 91 11 33 12 34 13
REMARK SMILES IDX 35 14 85 15 36 16 90 17 84 18 86 19 37 20 89 21 83 22 82 23
REMARK SMILES IDX 38 25 70 26 50 27 69 28 51 29 54 30 68 31 87 32 52 33 53 34
REMARK SMILES IDX 67 36 88 37 55 38 39 39 40 40 48 41 41 42 43 43 49 44 42 45
REMARK SMILES IDX 44 46 45 47 46 48 47 49 71 50 72 51 80 52 73 53 75 54 81 55
REMARK SMILES IDX 74 56 76 57 77 58 78 59 79 60 56 61 57 62 65 63 58 64 60 65
REMARK SMILES IDX 66 66 59 67 61 68 62 69 63 70 64 71 6 72 7 73 8 74 9 76
REMARK SMILES IDX 10 77 11 78 28 79 25 80 27 81 29 82 26 83 12 84 13 85 14 86
REMARK SMILES IDX 15 88 16 89 20 90 17 91 19 92 18 93 21 94 22 95 23 96 24 97
REMARK H PARENT 3 6 86 24 54 35 7 75 14 87
REMARK Flexibility Score: inf
ROOT
ATOM      1  C   UNL A   1      31.473  28.980  25.584  1.00  0.00     0.042 C 
ENDROOT
BRANCH   1   2
ATOM      2  C   UNL A   1      32.731  29.785  25.894  1.00  0.00     0.118 C 
BRANCH   2   3
ATOM      3  N   UNL A   1      32.457  31.117  26.421  1.00  0.00    -0.352 N 
ATOM      4  O   UNL A   1      32.690  32.943  27.719  1.00  0.00    -0.269 OA
ATOM      5  C   UNL A   1      33.184  31.911  27.287  1.00  0.00     0.251 C 
ATOM      6  H   UNL A   1      31.614  31.518  26.108  1.00  0.00     0.163 HD
BRANCH   5   7
ATOM      7  C   UNL A   1      34.534  31.484  27.724  1.00  0.00     0.039 A 
ATOM      8  C   UNL A   1      34.789  30.149  28.021  1.00  0.00     0.014 A 
ATOM      9  C   UNL A   1      35.551  32.432  27.874  1.00  0.00     0.014 A 
ATOM     10  C   UNL A   1      35.943  29.808  28.712  1.00  0.00     0.010 A 
ATOM     11  C   UNL A   1      36.776  32.056  28.442  1.00  0.00     0.010 A 
ATOM     12  C   UNL A   1      36.956  30.755  28.937  1.00  0.00    -0.014 A 
BRANCH  12  13
ATOM     13  C   UNL A   1      38.182  30.333  29.674  1.00  0.00     0.031 A 
ATOM     14  C   UNL A   1      38.416  30.734  31.109  1.00  0.00     0.074 A 
ATOM     15  C   UNL A   1      39.064  29.522  29.054  1.00  0.00     0.049 A 
ATOM     16  N   UNL A   1      39.391  30.381  31.910  1.00  0.00    -0.248 NA
ATOM     17  C   UNL A   1      37.447  31.653  31.727  1.00  0.00     0.031 C 
ATOM     18  C   UNL A   1      38.973  29.095  27.654  1.00  0.00     0.029 A 
ATOM     19  N   UNL A   1      40.189  28.889  29.516  1.00  0.00    -0.354 N 
ATOM     20  C   UNL A   1      39.188  31.079  33.096  1.00  0.00     0.074 A 
ATOM     21  C   UNL A   1      37.995  31.875  32.914  1.00  0.00     0.031 C 
ATOM     22  C   UNL A   1      39.951  28.218  27.394  1.00  0.00     0.029 A 
ATOM     23  C   UNL A   1      40.786  28.076  28.579  1.00  0.00     0.049 A 
ATOM     24  H   UNL A   1      40.537  29.005  30.429  1.00  0.00     0.167 HD
ATOM     25  C   UNL A   1      39.921  31.051  34.237  1.00  0.00     0.034 A 
ATOM     26  C   UNL A   1      41.887  27.304  28.657  1.00  0.00     0.034 A 
ATOM     27  C   UNL A   1      41.071  30.208  34.438  1.00  0.00     0.049 A 
ATOM     28  C   UNL A   1      42.644  27.250  29.951  1.00  0.00     0.074 A 
ATOM     29  C   UNL A   1      41.836  30.056  35.581  1.00  0.00     0.029 A 
ATOM     30  N   UNL A   1      41.623  29.375  33.476  1.00  0.00    -0.354 N 
ATOM     31  N   UNL A   1      42.367  27.833  31.092  1.00  0.00    -0.248 NA
ATOM     32  C   UNL A   1      43.852  26.415  29.976  1.00  0.00     0.031 C 
ATOM     33  C   UNL A   1      42.862  29.145  35.304  1.00  0.00     0.029 A 
ATOM     34  C   UNL A   1      42.722  28.713  33.996  1.00  0.00     0.049 A 
ATOM     35  H   UNL A   1      41.283  29.272  32.558  1.00  0.00     0.167 HD
ATOM     36  C   UNL A   1      43.353  27.418  31.978  1.00  0.00     0.074 A 
ATOM     37  C   UNL A   1      44.215  26.510  31.248  1.00  0.00     0.031 C 
ATOM     38  C   UNL A   1      43.540  27.773  33.272  1.00  0.00     0.034 A 
BRANCH  25  39
ATOM     39  C   UNL A   1      39.489  31.937  35.379  1.00  0.00     0.023 A 
ATOM     40  C   UNL A   1      39.809  33.309  35.365  1.00  0.00     0.012 A 
ATOM     41  C   UNL A   1      38.702  31.424  36.431  1.00  0.00     0.148 A 
ATOM     42  C   UNL A   1      39.381  34.150  36.392  1.00  0.00     0.002 A 
ATOM     43  C   UNL A   1      38.244  32.277  37.430  1.00  0.00     0.091 A 
ATOM     44  F   UNL A   1      38.424  30.113  36.441  1.00  0.00    -0.205 F 
ATOM     45  C   UNL A   1      38.591  33.637  37.418  1.00  0.00     0.022 A 
BRANCH  43  46
ATOM     46  S   UNL A   1      37.156  31.723  38.749  1.00  0.00     0.127 S 
ATOM     47  O   UNL A   1      38.003  31.908  39.927  1.00  0.00    -0.237 OA
ATOM     48  O   UNL A   1      36.040  32.665  38.646  1.00  0.00    -0.237 OA
ATOM     49  O   UNL A   1      36.814  30.344  38.431  1.00  0.00    -0.744 OA
ENDBRANCH  43  46
ENDBRANCH  25  39
BRANCH  26  50
ATOM     50  C   UNL A   1      42.301  26.487  27.482  1.00  0.00     0.023 A 
ATOM     51  C   UNL A   1      43.127  27.058  26.494  1.00  0.00     0.012 A 
ATOM     52  C   UNL A   1      41.929  25.134  27.366  1.00  0.00     0.148 A 
ATOM     53  C   UNL A   1      43.557  26.301  25.404  1.00  0.00     0.002 A 
ATOM     54  C   UNL A   1      42.414  24.369  26.312  1.00  0.00     0.091 A 
ATOM     55  F   UNL A   1      41.125  24.613  28.305  1.00  0.00    -0.205 F 
ATOM     56  C   UNL A   1      43.214  24.954  25.321  1.00  0.00     0.022 A 
BRANCH  54  57
ATOM     57  S   UNL A   1      42.148  22.595  26.223  1.00  0.00     0.127 S 
ATOM     58  O   UNL A   1      42.813  22.255  24.969  1.00  0.00    -0.237 OA
ATOM     59  O   UNL A   1      42.827  22.123  27.431  1.00  0.00    -0.237 OA
ATOM     60  O   UNL A   1      40.702  22.418  26.247  1.00  0.00    -0.744 OA
ENDBRANCH  54  57
ENDBRANCH  26  50
BRANCH  38  61
ATOM     61  C   UNL A   1      44.707  27.155  33.995  1.00  0.00     0.023 A 
ATOM     62  C   UNL A   1      45.979  27.752  33.907  1.00  0.00     0.012 A 
ATOM     63  C   UNL A   1      44.530  26.012  34.798  1.00  0.00     0.148 A 
ATOM     64  C   UNL A   1      47.068  27.198  34.579  1.00  0.00     0.002 A 
ATOM     65  C   UNL A   1      45.610  25.494  35.504  1.00  0.00     0.091 A 
ATOM     66  F   UNL A   1      43.316  25.445  34.849  1.00  0.00    -0.205 F 
ATOM     67  C   UNL A   1      46.882  26.078  35.386  1.00  0.00     0.022 A 
BRANCH  65  68
ATOM     68  S   UNL A   1      45.433  24.111  36.635  1.00  0.00     0.127 S 
ATOM     69  O   UNL A   1      44.434  24.618  37.574  1.00  0.00    -0.237 OA
ATOM     70  O   UNL A   1      44.954  23.044  35.754  1.00  0.00    -0.237 OA
ATOM     71  O   UNL A   1      46.760  23.880  37.188  1.00  0.00    -0.744 OA
ENDBRANCH  65  68
ENDBRANCH  38  61
ENDBRANCH  12  13
ENDBRANCH   5   7
ENDBRANCH   2   3
ENDBRANCH   1   2
BRANCH   1  72
ATOM     72  C   UNL A   1      31.104  28.968  24.108  1.00  0.00     0.117 C 
BRANCH  72  73
ATOM     73  N   UNL A   1      29.983  28.093  23.810  1.00  0.00    -0.356 N 
ATOM     74  C   UNL A   1      29.939  26.745  23.640  1.00  0.00     0.224 C 
ATOM     75  H   UNL A   1      29.116  28.549  23.717  1.00  0.00     0.163 HD
ATOM     76  O   UNL A   1      28.841  26.212  23.845  1.00  0.00    -0.275 OA
BRANCH  74  77
ATOM     77  C   UNL A   1      31.056  25.938  23.027  1.00  0.00     0.098 C 
ATOM     78  C   UNL A   1      32.014  25.084  23.914  1.00  0.00     0.099 C 
ATOM     79  C   UNL A   1      31.969  26.390  21.869  1.00  0.00     0.025 C 
ATOM     80  C   UNL A   1      33.321  25.052  23.062  1.00  0.00     0.025 C 
ATOM     81  C   UNL A   1      33.127  27.226  22.354  1.00  0.00    -0.027 C 
ATOM     82  C   UNL A   1      32.749  25.077  21.638  1.00  0.00     0.017 C 
ATOM     83  C   UNL A   1      33.956  26.414  23.023  1.00  0.00    -0.027 C 
BRANCH  78  84
ATOM     84  C   UNL A   1      32.279  25.132  25.428  1.00  0.00     0.229 C 
ATOM     85  O   UNL A   1      31.481  25.787  26.123  1.00  0.00    -0.274 OA
ATOM     86  N   UNL A   1      33.115  24.331  26.145  1.00  0.00    -0.323 N 
ATOM     87  H   UNL A   1      32.853  24.257  27.091  1.00  0.00     0.170 HD
BRANCH  86  88
ATOM     88  C   UNL A   1      34.261  23.592  25.844  1.00  0.00     0.084 A 
ATOM     89  C   UNL A   1      35.436  24.322  25.606  1.00  0.00     0.030 A 
ATOM     90  C   UNL A   1      34.291  22.210  25.684  1.00  0.00     0.149 A 
ATOM     91  C   UNL A   1      36.657  23.667  25.420  1.00  0.00     0.002 A 
ATOM     92  C   UNL A   1      35.519  21.553  25.517  1.00  0.00     0.049 A 
ATOM     93  C   UNL A   1      36.704  22.278  25.415  1.00  0.00     0.004 A 
BRANCH  90  94
ATOM     94  O   UNL A   1      33.192  21.410  25.634  1.00  0.00    -0.433 OA
BRANCH  94  95
ATOM     95  C   UNL A   1      32.558  21.304  24.356  1.00  0.00     0.542 C 
ATOM     96  F   UNL A   1      31.435  22.052  24.315  1.00  0.00    -0.167 F 
ATOM     97  F   UNL A   1      33.383  21.738  23.372  1.00  0.00    -0.167 F 
ENDBRANCH  94  95
ENDBRANCH  90  94
ENDBRANCH  86  88
ENDBRANCH  78  84
ENDBRANCH  74  77
ENDBRANCH  72  73
ENDBRANCH   1  72
TORSDOF 17
ENDMDL
