MODEL 1
REMARK VINA RESULT:     -12.5      0.000      0.000
REMARK SMILES Cc1c(C(=O)NCCCNC(=O)c2ccc(-c3c4nc(c(-c5cccc(S(=O)(=O)[O-])c5F)c5ccc([nH]5)c(-c5cccc(S(=O)(=O)[O-])c5F)c5nc(c(-c6cccc(S(=O)(=O)[O-])c6F)c6ccc3[nH]6)C=C5)C=C4)cc2)sc2ncnc(NCc3cn4c(n3)SCC4)c12
REMARK SMILES IDX 8 1 7 2 6 3 4 4 5 5 3 7 1 8 2 9 92 10 76 11 77 12 81 13
REMARK SMILES IDX 78 14 80 15 79 16 82 17 83 19 84 20 85 21 88 22 86 23 87 24
REMARK SMILES IDX 91 25 89 26 90 27 9 28 10 29 11 30 12 32 13 33 14 34 75 35
REMARK SMILES IDX 15 36 74 37 16 38 17 39 18 40 68 41 19 42 73 43 67 44 69 45
REMARK SMILES IDX 20 46 72 47 66 48 65 49 21 51 53 52 33 53 52 54 34 55 37 56
REMARK SMILES IDX 51 57 70 58 35 59 36 60 50 62 71 63 38 64 22 65 23 66 31 67
REMARK SMILES IDX 24 68 26 69 32 70 25 71 27 72 28 73 29 74 30 75 54 76 55 77
REMARK SMILES IDX 63 78 56 79 58 80 64 81 57 82 59 83 60 84 61 85 62 86 39 87
REMARK SMILES IDX 40 88 48 89 41 90 43 91 49 92 42 93 44 94 45 95 46 96 47 97
REMARK H PARENT 6 6 82 18 10 31 69 50 37 61
REMARK Flexibility Score: inf
ROOT
ATOM      1  C   UNL A   1      31.327  31.814  26.402  1.00  0.00     0.042 C 
ENDROOT
BRANCH   1   2
ATOM      2  C   UNL A   1      31.698  30.463  25.787  1.00  0.00     0.118 C 
BRANCH   2   3
ATOM      3  N   UNL A   1      32.962  29.959  26.287  1.00  0.00    -0.351 N 
ATOM      4  C   UNL A   1      33.759  28.904  25.916  1.00  0.00     0.261 C 
ATOM      5  O   UNL A   1      34.868  28.914  26.459  1.00  0.00    -0.268 OA
ATOM      6  H   UNL A   1      33.319  30.476  27.045  1.00  0.00     0.163 HD
BRANCH   4   7
ATOM      7  C   UNL A   1      33.383  27.900  24.912  1.00  0.00     0.098 A 
ATOM      8  C   UNL A   1      32.256  26.284  26.492  1.00  0.00     0.047 C 
ATOM      9  C   UNL A   1      32.793  26.646  25.145  1.00  0.00    -0.014 A 
ATOM     10  C   UNL A   1      32.841  25.778  23.954  1.00  0.00     0.057 A 
ATOM     11  S   UNL A   1      33.487  28.173  23.240  1.00  0.00    -0.110 S 
ATOM     12  C   UNL A   1      33.240  26.552  22.870  1.00  0.00     0.129 A 
ATOM     13  C   UNL A   1      32.601  24.413  23.625  1.00  0.00     0.138 A 
ATOM     14  N   UNL A   1      33.438  26.175  21.599  1.00  0.00    -0.225 NA
ATOM     15  N   UNL A   1      32.817  24.015  22.341  1.00  0.00    -0.219 NA
ATOM     16  C   UNL A   1      33.215  24.887  21.417  1.00  0.00     0.225 A 
BRANCH  13  17
ATOM     17  N   UNL A   1      32.243  23.331  24.367  1.00  0.00    -0.364 N 
ATOM     18  H   UNL A   1      31.273  23.166  24.346  1.00  0.00     0.162 HD
BRANCH  17  19
ATOM     19  C   UNL A   1      32.940  22.373  25.172  1.00  0.00     0.172 C 
BRANCH  19  20
ATOM     20  C   UNL A   1      32.702  20.924  24.862  1.00  0.00     0.079 A 
ATOM     21  C   UNL A   1      32.901  19.799  25.655  1.00  0.00     0.113 A 
ATOM     22  N   UNL A   1      32.319  20.555  23.572  1.00  0.00    -0.226 NA
ATOM     23  N   UNL A   1      32.737  18.762  24.801  1.00  0.00    -0.325 N 
ATOM     24  C   UNL A   1      32.377  19.254  23.589  1.00  0.00     0.168 A 
ATOM     25  C   UNL A   1      33.151  17.376  24.849  1.00  0.00     0.135 C 
ATOM     26  S   UNL A   1      32.497  18.079  22.336  1.00  0.00    -0.086 SA
ATOM     27  C   UNL A   1      33.573  17.041  23.417  1.00  0.00     0.100 C 
ENDBRANCH  19  20
ENDBRANCH  17  19
ENDBRANCH  13  17
ENDBRANCH   4   7
ENDBRANCH   2   3
ENDBRANCH   1   2
BRANCH   1  28
ATOM     28  C   UNL A   1      32.460  32.359  27.251  1.00  0.00     0.118 C 
BRANCH  28  29
ATOM     29  N   UNL A   1      32.236  33.763  27.602  1.00  0.00    -0.352 N 
ATOM     30  C   UNL A   1      32.967  34.560  28.450  1.00  0.00     0.251 C 
ATOM     31  H   UNL A   1      31.460  34.192  27.175  1.00  0.00     0.163 HD
ATOM     32  O   UNL A   1      32.518  35.633  28.847  1.00  0.00    -0.269 OA
BRANCH  30  33
ATOM     33  C   UNL A   1      34.289  34.092  28.883  1.00  0.00     0.039 A 
ATOM     34  C   UNL A   1      34.433  33.391  30.083  1.00  0.00     0.014 A 
ATOM     35  C   UNL A   1      35.374  34.311  28.037  1.00  0.00     0.014 A 
ATOM     36  C   UNL A   1      35.672  32.844  30.392  1.00  0.00     0.010 A 
ATOM     37  C   UNL A   1      36.552  33.653  28.272  1.00  0.00     0.010 A 
ATOM     38  C   UNL A   1      36.722  32.966  29.473  1.00  0.00    -0.014 A 
BRANCH  38  39
ATOM     39  C   UNL A   1      37.993  32.295  29.705  1.00  0.00     0.031 A 
ATOM     40  C   UNL A   1      38.086  30.903  29.184  1.00  0.00     0.074 A 
ATOM     41  C   UNL A   1      39.082  32.972  30.127  1.00  0.00     0.049 A 
ATOM     42  N   UNL A   1      38.281  29.814  29.855  1.00  0.00    -0.248 NA
ATOM     43  C   UNL A   1      37.825  30.682  27.752  1.00  0.00     0.031 C 
ATOM     44  C   UNL A   1      39.224  34.419  30.344  1.00  0.00     0.029 A 
ATOM     45  N   UNL A   1      40.352  32.520  30.288  1.00  0.00    -0.354 N 
ATOM     46  C   UNL A   1      38.380  28.798  28.905  1.00  0.00     0.074 A 
ATOM     47  C   UNL A   1      37.916  29.355  27.662  1.00  0.00     0.031 C 
ATOM     48  C   UNL A   1      40.534  34.747  30.330  1.00  0.00     0.029 A 
ATOM     49  C   UNL A   1      41.313  33.526  30.297  1.00  0.00     0.049 A 
ATOM     50  H   UNL A   1      40.574  31.567  30.388  1.00  0.00     0.167 HD
ATOM     51  C   UNL A   1      39.047  27.637  29.157  1.00  0.00     0.034 A 
ATOM     52  C   UNL A   1      42.653  33.354  30.226  1.00  0.00     0.034 A 
ATOM     53  C   UNL A   1      39.311  27.465  30.561  1.00  0.00     0.049 A 
ATOM     54  C   UNL A   1      42.928  31.954  30.622  1.00  0.00     0.074 A 
ATOM     55  C   UNL A   1      38.531  27.372  31.696  1.00  0.00     0.029 A 
ATOM     56  N   UNL A   1      40.577  27.766  31.000  1.00  0.00    -0.354 N 
ATOM     57  N   UNL A   1      42.714  31.485  31.819  1.00  0.00    -0.248 NA
ATOM     58  C   UNL A   1      43.055  30.960  29.571  1.00  0.00     0.031 C 
ATOM     59  C   UNL A   1      39.247  28.101  32.692  1.00  0.00     0.029 A 
ATOM     60  C   UNL A   1      40.445  28.542  32.124  1.00  0.00     0.049 A 
ATOM     61  H   UNL A   1      41.422  27.479  30.586  1.00  0.00     0.167 HD
ATOM     62  C   UNL A   1      42.230  30.201  31.606  1.00  0.00     0.074 A 
ATOM     63  C   UNL A   1      42.580  29.893  30.220  1.00  0.00     0.031 C 
ATOM     64  C   UNL A   1      41.342  29.625  32.471  1.00  0.00     0.034 A 
BRANCH  51  65
ATOM     65  C   UNL A   1      39.735  26.795  28.111  1.00  0.00     0.023 A 
ATOM     66  C   UNL A   1      39.351  25.443  27.982  1.00  0.00     0.012 A 
ATOM     67  C   UNL A   1      40.893  27.200  27.407  1.00  0.00     0.148 A 
ATOM     68  C   UNL A   1      40.084  24.541  27.203  1.00  0.00     0.002 A 
ATOM     69  C   UNL A   1      41.563  26.326  26.558  1.00  0.00     0.091 A 
ATOM     70  F   UNL A   1      41.438  28.395  27.656  1.00  0.00    -0.205 F 
ATOM     71  C   UNL A   1      41.180  24.987  26.474  1.00  0.00     0.022 A 
BRANCH  69  72
ATOM     72  S   UNL A   1      42.927  26.880  25.528  1.00  0.00     0.127 S 
ATOM     73  O   UNL A   1      43.297  25.648  24.839  1.00  0.00    -0.237 OA
ATOM     74  O   UNL A   1      42.280  27.890  24.690  1.00  0.00    -0.237 OA
ATOM     75  O   UNL A   1      43.913  27.422  26.456  1.00  0.00    -0.744 OA
ENDBRANCH  69  72
ENDBRANCH  51  65
BRANCH  52  76
ATOM     76  C   UNL A   1      43.693  34.202  29.605  1.00  0.00     0.023 A 
ATOM     77  C   UNL A   1      44.534  34.969  30.434  1.00  0.00     0.012 A 
ATOM     78  C   UNL A   1      44.066  34.022  28.254  1.00  0.00     0.148 A 
ATOM     79  C   UNL A   1      45.738  35.493  29.953  1.00  0.00     0.002 A 
ATOM     80  C   UNL A   1      45.267  34.543  27.781  1.00  0.00     0.091 A 
ATOM     81  F   UNL A   1      43.297  33.259  27.466  1.00  0.00    -0.205 F 
ATOM     82  C   UNL A   1      46.112  35.268  28.632  1.00  0.00     0.022 A 
BRANCH  80  83
ATOM     83  S   UNL A   1      45.846  34.256  26.101  1.00  0.00     0.127 S 
ATOM     84  O   UNL A   1      46.971  35.186  26.003  1.00  0.00    -0.237 OA
ATOM     85  O   UNL A   1      46.221  32.846  26.149  1.00  0.00    -0.237 OA
ATOM     86  O   UNL A   1      44.720  34.583  25.234  1.00  0.00    -0.744 OA
ENDBRANCH  80  83
ENDBRANCH  52  76
BRANCH  64  87
ATOM     87  C   UNL A   1      41.063  30.331  33.783  1.00  0.00     0.023 A 
ATOM     88  C   UNL A   1      41.974  30.302  34.862  1.00  0.00     0.012 A 
ATOM     89  C   UNL A   1      39.952  31.187  33.868  1.00  0.00     0.148 A 
ATOM     90  C   UNL A   1      41.770  31.083  36.003  1.00  0.00     0.002 A 
ATOM     91  C   UNL A   1      39.779  32.000  34.983  1.00  0.00     0.091 A 
ATOM     92  F   UNL A   1      39.092  31.214  32.838  1.00  0.00    -0.205 F 
ATOM     93  C   UNL A   1      40.680  31.944  36.058  1.00  0.00     0.022 A 
BRANCH  91  94
ATOM     94  S   UNL A   1      38.470  33.227  35.055  1.00  0.00     0.127 S 
ATOM     95  O   UNL A   1      38.673  33.966  33.812  1.00  0.00    -0.237 OA
ATOM     96  O   UNL A   1      37.262  32.400  35.084  1.00  0.00    -0.237 OA
ATOM     97  O   UNL A   1      38.700  33.981  36.282  1.00  0.00    -0.744 OA
ENDBRANCH  91  94
ENDBRANCH  64  87
ENDBRANCH  38  39
ENDBRANCH  30  33
ENDBRANCH  28  29
ENDBRANCH   1  28
TORSDOF 16
ENDMDL
MODEL 2
REMARK VINA RESULT:     -12.0      1.397      1.699
REMARK SMILES Cc1c(C(=O)NCCCNC(=O)c2ccc(-c3c4nc(c(-c5cccc(S(=O)(=O)[O-])c5F)c5ccc([nH]5)c(-c5cccc(S(=O)(=O)[O-])c5F)c5nc(c(-c6cccc(S(=O)(=O)[O-])c6F)c6ccc3[nH]6)C=C5)C=C4)cc2)sc2ncnc(NCc3cn4c(n3)SCC4)c12
REMARK SMILES IDX 8 1 7 2 6 3 4 4 5 5 3 7 1 8 2 9 92 10 76 11 77 12 81 13
REMARK SMILES IDX 78 14 80 15 79 16 82 17 83 19 84 20 85 21 88 22 86 23 87 24
REMARK SMILES IDX 91 25 89 26 90 27 9 28 10 29 11 30 12 32 13 33 14 34 75 35
REMARK SMILES IDX 15 36 74 37 16 38 17 39 18 40 68 41 19 42 73 43 67 44 69 45
REMARK SMILES IDX 20 46 72 47 66 48 65 49 21 51 53 52 33 53 52 54 34 55 37 56
REMARK SMILES IDX 51 57 70 58 35 59 36 60 50 62 71 63 38 64 22 65 23 66 31 67
REMARK SMILES IDX 24 68 26 69 32 70 25 71 27 72 28 73 29 74 30 75 54 76 55 77
REMARK SMILES IDX 63 78 56 79 58 80 64 81 57 82 59 83 60 84 61 85 62 86 39 87
REMARK SMILES IDX 40 88 48 89 41 90 43 91 49 92 42 93 44 94 45 95 46 96 47 97
REMARK H PARENT 6 6 82 18 10 31 69 50 37 61
REMARK Flexibility Score: inf
ROOT
ATOM      1  C   UNL A   1      31.310  31.841  26.430  1.00  0.00     0.042 C 
ENDROOT
BRANCH   1   2
ATOM      2  C   UNL A   1      31.669  30.469  25.855  1.00  0.00     0.118 C 
BRANCH   2   3
ATOM      3  N   UNL A   1      32.940  29.980  26.350  1.00  0.00    -0.351 N 
ATOM      4  C   UNL A   1      33.755  28.943  25.967  1.00  0.00     0.261 C 
ATOM      5  O   UNL A   1      34.864  28.964  26.510  1.00  0.00    -0.268 OA
ATOM      6  H   UNL A   1      33.289  30.494  27.114  1.00  0.00     0.163 HD
BRANCH   4   7
ATOM      7  C   UNL A   1      33.395  27.943  24.952  1.00  0.00     0.098 A 
ATOM      8  C   UNL A   1      32.345  26.267  26.521  1.00  0.00     0.047 C 
ATOM      9  C   UNL A   1      32.848  26.668  25.173  1.00  0.00    -0.014 A 
ATOM     10  C   UNL A   1      32.905  25.822  23.967  1.00  0.00     0.057 A 
ATOM     11  S   UNL A   1      33.464  28.247  23.283  1.00  0.00    -0.110 S 
ATOM     12  C   UNL A   1      33.263  26.626  22.890  1.00  0.00     0.129 A 
ATOM     13  C   UNL A   1      32.704  24.455  23.618  1.00  0.00     0.138 A 
ATOM     14  N   UNL A   1      33.452  26.276  21.609  1.00  0.00    -0.225 NA
ATOM     15  N   UNL A   1      32.912  24.085  22.325  1.00  0.00    -0.219 NA
ATOM     16  C   UNL A   1      33.268  24.985  21.409  1.00  0.00     0.225 A 
BRANCH  13  17
ATOM     17  N   UNL A   1      32.393  23.350  24.347  1.00  0.00    -0.364 N 
ATOM     18  H   UNL A   1      31.442  23.104  24.268  1.00  0.00     0.162 HD
BRANCH  17  19
ATOM     19  C   UNL A   1      33.115  22.457  25.202  1.00  0.00     0.172 C 
BRANCH  19  20
ATOM     20  C   UNL A   1      33.195  21.021  24.773  1.00  0.00     0.079 A 
ATOM     21  C   UNL A   1      32.176  20.109  24.522  1.00  0.00     0.113 A 
ATOM     22  N   UNL A   1      34.442  20.402  24.687  1.00  0.00    -0.226 NA
ATOM     23  N   UNL A   1      32.820  18.926  24.391  1.00  0.00    -0.325 N 
ATOM     24  C   UNL A   1      34.155  19.149  24.477  1.00  0.00     0.168 A 
ATOM     25  C   UNL A   1      32.377  17.551  24.491  1.00  0.00     0.135 C 
ATOM     26  S   UNL A   1      35.056  17.697  24.694  1.00  0.00    -0.086 SA
ATOM     27  C   UNL A   1      33.515  16.822  25.209  1.00  0.00     0.100 C 
ENDBRANCH  19  20
ENDBRANCH  17  19
ENDBRANCH  13  17
ENDBRANCH   4   7
ENDBRANCH   2   3
ENDBRANCH   1   2
BRANCH   1  28
ATOM     28  C   UNL A   1      32.501  32.469  27.130  1.00  0.00     0.118 C 
BRANCH  28  29
ATOM     29  N   UNL A   1      32.202  33.835  27.567  1.00  0.00    -0.352 N 
ATOM     30  C   UNL A   1      32.886  34.612  28.471  1.00  0.00     0.251 C 
ATOM     31  H   UNL A   1      31.409  34.250  27.160  1.00  0.00     0.163 HD
ATOM     32  O   UNL A   1      32.380  35.633  28.930  1.00  0.00    -0.269 OA
BRANCH  30  33
ATOM     33  C   UNL A   1      34.227  34.185  28.887  1.00  0.00     0.039 A 
ATOM     34  C   UNL A   1      34.411  33.507  30.095  1.00  0.00     0.014 A 
ATOM     35  C   UNL A   1      35.291  34.419  28.018  1.00  0.00     0.014 A 
ATOM     36  C   UNL A   1      35.669  32.997  30.389  1.00  0.00     0.010 A 
ATOM     37  C   UNL A   1      36.490  33.795  28.241  1.00  0.00     0.010 A 
ATOM     38  C   UNL A   1      36.699  33.131  29.448  1.00  0.00    -0.014 A 
BRANCH  38  39
ATOM     39  C   UNL A   1      37.991  32.498  29.668  1.00  0.00     0.031 A 
ATOM     40  C   UNL A   1      38.083  31.072  29.246  1.00  0.00     0.074 A 
ATOM     41  C   UNL A   1      39.087  33.219  29.985  1.00  0.00     0.049 A 
ATOM     42  N   UNL A   1      38.329  30.039  29.985  1.00  0.00    -0.248 NA
ATOM     43  C   UNL A   1      37.759  30.742  27.849  1.00  0.00     0.031 C 
ATOM     44  C   UNL A   1      39.214  34.679  30.088  1.00  0.00     0.029 A 
ATOM     45  N   UNL A   1      40.371  32.798  30.117  1.00  0.00    -0.354 N 
ATOM     46  C   UNL A   1      38.401  28.956  29.109  1.00  0.00     0.074 A 
ATOM     47  C   UNL A   1      37.868  29.413  27.852  1.00  0.00     0.031 C 
ATOM     48  C   UNL A   1      40.516  35.024  29.986  1.00  0.00     0.029 A 
ATOM     49  C   UNL A   1      41.314  33.815  30.005  1.00  0.00     0.049 A 
ATOM     50  H   UNL A   1      40.614  31.857  30.276  1.00  0.00     0.167 HD
ATOM     51  C   UNL A   1      39.098  27.826  29.412  1.00  0.00     0.034 A 
ATOM     52  C   UNL A   1      42.651  33.656  29.882  1.00  0.00     0.034 A 
ATOM     53  C   UNL A   1      39.432  27.763  30.811  1.00  0.00     0.049 A 
ATOM     54  C   UNL A   1      42.969  32.293  30.367  1.00  0.00     0.074 A 
ATOM     55  C   UNL A   1      38.709  27.744  31.986  1.00  0.00     0.029 A 
ATOM     56  N   UNL A   1      40.712  28.113  31.164  1.00  0.00    -0.354 N 
ATOM     57  N   UNL A   1      42.820  31.912  31.604  1.00  0.00    -0.248 NA
ATOM     58  C   UNL A   1      43.064  31.226  29.387  1.00  0.00     0.031 C 
ATOM     59  C   UNL A   1      39.458  28.554  32.890  1.00  0.00     0.029 A 
ATOM     60  C   UNL A   1      40.620  28.969  32.233  1.00  0.00     0.049 A 
ATOM     61  H   UNL A   1      41.541  27.808  30.732  1.00  0.00     0.167 HD
ATOM     62  C   UNL A   1      42.349  30.609  31.509  1.00  0.00     0.074 A 
ATOM     63  C   UNL A   1      42.638  30.204  30.134  1.00  0.00     0.031 C 
ATOM     64  C   UNL A   1      41.513  30.086  32.456  1.00  0.00     0.034 A 
BRANCH  51  65
ATOM     65  C   UNL A   1      39.751  26.919  28.399  1.00  0.00     0.023 A 
ATOM     66  C   UNL A   1      39.437  25.543  28.434  1.00  0.00     0.012 A 
ATOM     67  C   UNL A   1      40.825  27.308  27.565  1.00  0.00     0.148 A 
ATOM     68  C   UNL A   1      40.158  24.605  27.687  1.00  0.00     0.002 A 
ATOM     69  C   UNL A   1      41.477  26.387  26.752  1.00  0.00     0.091 A 
ATOM     70  F   UNL A   1      41.318  28.548  27.652  1.00  0.00    -0.205 F 
ATOM     71  C   UNL A   1      41.167  25.029  26.830  1.00  0.00     0.022 A 
BRANCH  69  72
ATOM     72  S   UNL A   1      42.722  26.902  25.564  1.00  0.00     0.127 S 
ATOM     73  O   UNL A   1      43.848  27.224  26.435  1.00  0.00    -0.237 OA
ATOM     74  O   UNL A   1      42.887  25.691  24.758  1.00  0.00    -0.237 OA
ATOM     75  O   UNL A   1      42.125  28.018  24.841  1.00  0.00    -0.744 OA
ENDBRANCH  69  72
ENDBRANCH  51  65
BRANCH  52  76
ATOM     76  C   UNL A   1      43.646  34.470  29.150  1.00  0.00     0.023 A 
ATOM     77  C   UNL A   1      43.943  34.146  27.812  1.00  0.00     0.012 A 
ATOM     78  C   UNL A   1      44.058  35.729  29.643  1.00  0.00     0.148 A 
ATOM     79  C   UNL A   1      44.579  35.065  26.972  1.00  0.00     0.002 A 
ATOM     80  C   UNL A   1      44.689  36.641  28.801  1.00  0.00     0.091 A 
ATOM     81  F   UNL A   1      43.745  36.066  30.901  1.00  0.00    -0.205 F 
ATOM     82  C   UNL A   1      44.938  36.317  27.461  1.00  0.00     0.022 A 
BRANCH  80  83
ATOM     83  S   UNL A   1      45.141  38.297  29.342  1.00  0.00     0.127 S 
ATOM     84  O   UNL A   1      46.295  38.032  30.204  1.00  0.00    -0.237 OA
ATOM     85  O   UNL A   1      45.461  38.951  28.077  1.00  0.00    -0.237 OA
ATOM     86  O   UNL A   1      43.974  38.814  30.046  1.00  0.00    -0.744 OA
ENDBRANCH  80  83
ENDBRANCH  52  76
BRANCH  64  87
ATOM     87  C   UNL A   1      41.285  30.884  33.724  1.00  0.00     0.023 A 
ATOM     88  C   UNL A   1      42.189  30.848  34.809  1.00  0.00     0.012 A 
ATOM     89  C   UNL A   1      40.240  31.823  33.754  1.00  0.00     0.148 A 
ATOM     90  C   UNL A   1      42.041  31.705  35.903  1.00  0.00     0.002 A 
ATOM     91  C   UNL A   1      40.125  32.709  34.821  1.00  0.00     0.091 A 
ATOM     92  F   UNL A   1      39.387  31.855  32.719  1.00  0.00    -0.205 F 
ATOM     93  C   UNL A   1      41.017  32.647  35.903  1.00  0.00     0.022 A 
BRANCH  91  94
ATOM     94  S   UNL A   1      38.910  34.031  34.816  1.00  0.00     0.127 S 
ATOM     95  O   UNL A   1      39.204  34.722  36.069  1.00  0.00    -0.237 OA
ATOM     96  O   UNL A   1      39.262  34.779  33.608  1.00  0.00    -0.237 OA
ATOM     97  O   UNL A   1      37.610  33.374  34.748  1.00  0.00    -0.744 OA
ENDBRANCH  91  94
ENDBRANCH  64  87
ENDBRANCH  38  39
ENDBRANCH  30  33
ENDBRANCH  28  29
ENDBRANCH   1  28
TORSDOF 16
ENDMDL
MODEL 3
REMARK VINA RESULT:     -11.9      3.500      7.386
REMARK SMILES Cc1c(C(=O)NCCCNC(=O)c2ccc(-c3c4nc(c(-c5cccc(S(=O)(=O)[O-])c5F)c5ccc([nH]5)c(-c5cccc(S(=O)(=O)[O-])c5F)c5nc(c(-c6cccc(S(=O)(=O)[O-])c6F)c6ccc3[nH]6)C=C5)C=C4)cc2)sc2ncnc(NCc3cn4c(n3)SCC4)c12
REMARK SMILES IDX 8 1 7 2 6 3 4 4 5 5 3 7 1 8 2 9 92 10 76 11 77 12 81 13
REMARK SMILES IDX 78 14 80 15 79 16 82 17 83 19 84 20 85 21 88 22 86 23 87 24
REMARK SMILES IDX 91 25 89 26 90 27 9 28 10 29 11 30 12 32 13 33 14 34 75 35
REMARK SMILES IDX 15 36 74 37 16 38 17 39 18 40 68 41 19 42 73 43 67 44 69 45
REMARK SMILES IDX 20 46 72 47 66 48 65 49 21 51 53 52 33 53 52 54 34 55 37 56
REMARK SMILES IDX 51 57 70 58 35 59 36 60 50 62 71 63 38 64 22 65 23 66 31 67
REMARK SMILES IDX 24 68 26 69 32 70 25 71 27 72 28 73 29 74 30 75 54 76 55 77
REMARK SMILES IDX 63 78 56 79 58 80 64 81 57 82 59 83 60 84 61 85 62 86 39 87
REMARK SMILES IDX 40 88 48 89 41 90 43 91 49 92 42 93 44 94 45 95 46 96 47 97
REMARK H PARENT 6 6 82 18 10 31 69 50 37 61
REMARK Flexibility Score: inf
ROOT
ATOM      1  C   UNL A   1      34.765  30.128  27.610  1.00  0.00     0.042 C 
ENDROOT
BRANCH   1   2
ATOM      2  C   UNL A   1      33.481  30.128  26.777  1.00  0.00     0.118 C 
BRANCH   2   3
ATOM      3  N   UNL A   1      32.400  29.417  27.431  1.00  0.00    -0.351 N 
ATOM      4  C   UNL A   1      31.673  28.304  27.088  1.00  0.00     0.261 C 
ATOM      5  O   UNL A   1      30.962  27.882  28.005  1.00  0.00    -0.268 OA
ATOM      6  H   UNL A   1      32.134  29.812  28.293  1.00  0.00     0.163 HD
BRANCH   4   7
ATOM      7  C   UNL A   1      31.776  27.619  25.793  1.00  0.00     0.098 A 
ATOM      8  C   UNL A   1      31.534  25.262  26.664  1.00  0.00     0.047 C 
ATOM      9  C   UNL A   1      31.823  26.233  25.566  1.00  0.00    -0.014 A 
ATOM     10  C   UNL A   1      32.239  25.908  24.190  1.00  0.00     0.057 A 
ATOM     11  S   UNL A   1      31.715  28.432  24.304  1.00  0.00    -0.110 S 
ATOM     12  C   UNL A   1      32.224  27.082  23.444  1.00  0.00     0.129 A 
ATOM     13  C   UNL A   1      32.640  24.761  23.445  1.00  0.00     0.138 A 
ATOM     14  N   UNL A   1      32.549  27.260  22.155  1.00  0.00    -0.225 NA
ATOM     15  N   UNL A   1      32.990  24.934  22.140  1.00  0.00    -0.219 NA
ATOM     16  C   UNL A   1      32.932  26.138  21.574  1.00  0.00     0.225 A 
BRANCH  13  17
ATOM     17  N   UNL A   1      32.826  23.456  23.781  1.00  0.00    -0.364 N 
ATOM     18  H   UNL A   1      33.716  23.126  23.522  1.00  0.00     0.162 HD
BRANCH  17  19
ATOM     19  C   UNL A   1      32.037  22.448  24.422  1.00  0.00     0.172 C 
BRANCH  19  20
ATOM     20  C   UNL A   1      32.724  21.156  24.752  1.00  0.00     0.079 A 
ATOM     21  C   UNL A   1      34.062  20.800  24.622  1.00  0.00     0.113 A 
ATOM     22  N   UNL A   1      31.962  20.061  25.159  1.00  0.00    -0.226 NA
ATOM     23  N   UNL A   1      34.071  19.467  24.852  1.00  0.00    -0.325 N 
ATOM     24  C   UNL A   1      32.815  19.077  25.183  1.00  0.00     0.168 A 
ATOM     25  C   UNL A   1      35.018  18.421  24.526  1.00  0.00     0.135 C 
ATOM     26  S   UNL A   1      32.620  17.367  25.140  1.00  0.00    -0.086 SA
ATOM     27  C   UNL A   1      34.156  17.220  24.129  1.00  0.00     0.100 C 
ENDBRANCH  19  20
ENDBRANCH  17  19
ENDBRANCH  13  17
ENDBRANCH   4   7
ENDBRANCH   2   3
ENDBRANCH   1   2
BRANCH   1  28
ATOM     28  C   UNL A   1      35.282  31.539  27.818  1.00  0.00     0.118 C 
BRANCH  28  29
ATOM     29  N   UNL A   1      34.831  32.088  29.098  1.00  0.00    -0.352 N 
ATOM     30  C   UNL A   1      35.326  31.841  30.357  1.00  0.00     0.251 C 
ATOM     31  H   UNL A   1      34.075  32.716  29.051  1.00  0.00     0.163 HD
ATOM     32  O   UNL A   1      34.691  32.168  31.356  1.00  0.00    -0.269 OA
BRANCH  30  33
ATOM     33  C   UNL A   1      36.622  31.163  30.478  1.00  0.00     0.039 A 
ATOM     34  C   UNL A   1      36.684  29.773  30.604  1.00  0.00     0.014 A 
ATOM     35  C   UNL A   1      37.778  31.936  30.401  1.00  0.00     0.014 A 
ATOM     36  C   UNL A   1      37.928  29.156  30.577  1.00  0.00     0.010 A 
ATOM     37  C   UNL A   1      38.989  31.318  30.230  1.00  0.00     0.010 A 
ATOM     38  C   UNL A   1      39.074  29.934  30.373  1.00  0.00    -0.014 A 
BRANCH  38  39
ATOM     39  C   UNL A   1      40.378  29.307  30.209  1.00  0.00     0.031 A 
ATOM     40  C   UNL A   1      41.101  28.998  31.475  1.00  0.00     0.074 A 
ATOM     41  C   UNL A   1      40.780  28.813  29.020  1.00  0.00     0.049 A 
ATOM     42  N   UNL A   1      42.242  29.459  31.871  1.00  0.00    -0.248 NA
ATOM     43  C   UNL A   1      40.422  28.151  32.469  1.00  0.00     0.031 C 
ATOM     44  C   UNL A   1      40.019  28.736  27.765  1.00  0.00     0.029 A 
ATOM     45  N   UNL A   1      41.906  28.113  28.729  1.00  0.00    -0.354 N 
ATOM     46  C   UNL A   1      42.524  28.797  33.066  1.00  0.00     0.074 A 
ATOM     47  C   UNL A   1      41.302  28.151  33.471  1.00  0.00     0.031 C 
ATOM     48  C   UNL A   1      40.577  27.806  26.959  1.00  0.00     0.029 A 
ATOM     49  C   UNL A   1      41.824  27.372  27.554  1.00  0.00     0.049 A 
ATOM     50  H   UNL A   1      42.709  28.127  29.298  1.00  0.00     0.167 HD
ATOM     51  C   UNL A   1      43.797  28.640  33.522  1.00  0.00     0.034 A 
ATOM     52  C   UNL A   1      42.701  26.429  27.140  1.00  0.00     0.034 A 
ATOM     53  C   UNL A   1      44.722  29.501  32.835  1.00  0.00     0.049 A 
ATOM     54  C   UNL A   1      43.966  26.666  27.873  1.00  0.00     0.074 A 
ATOM     55  C   UNL A   1      44.849  30.867  32.674  1.00  0.00     0.029 A 
ATOM     56  N   UNL A   1      45.483  28.935  31.842  1.00  0.00    -0.354 N 
ATOM     57  N   UNL A   1      44.703  27.729  27.718  1.00  0.00    -0.248 NA
ATOM     58  C   UNL A   1      44.201  25.909  29.089  1.00  0.00     0.031 C 
ATOM     59  C   UNL A   1      45.262  31.038  31.320  1.00  0.00     0.029 A 
ATOM     60  C   UNL A   1      45.421  29.770  30.754  1.00  0.00     0.049 A 
ATOM     61  H   UNL A   1      45.981  28.089  31.899  1.00  0.00     0.167 HD
ATOM     62  C   UNL A   1      45.156  28.024  28.997  1.00  0.00     0.074 A 
ATOM     63  C   UNL A   1      44.919  26.806  29.770  1.00  0.00     0.031 C 
ATOM     64  C   UNL A   1      45.408  29.312  29.381  1.00  0.00     0.034 A 
BRANCH  51  65
ATOM     65  C   UNL A   1      44.269  27.491  34.379  1.00  0.00     0.023 A 
ATOM     66  C   UNL A   1      45.132  27.775  35.460  1.00  0.00     0.012 A 
ATOM     67  C   UNL A   1      44.094  26.129  34.042  1.00  0.00     0.148 A 
ATOM     68  C   UNL A   1      45.791  26.758  36.161  1.00  0.00     0.002 A 
ATOM     69  C   UNL A   1      44.674  25.118  34.800  1.00  0.00     0.091 A 
ATOM     70  F   UNL A   1      43.476  25.801  32.903  1.00  0.00    -0.205 F 
ATOM     71  C   UNL A   1      45.547  25.428  35.844  1.00  0.00     0.022 A 
BRANCH  69  72
ATOM     72  S   UNL A   1      44.316  23.386  34.485  1.00  0.00     0.127 S 
ATOM     73  O   UNL A   1      45.037  22.732  35.572  1.00  0.00    -0.237 OA
ATOM     74  O   UNL A   1      42.857  23.355  34.601  1.00  0.00    -0.237 OA
ATOM     75  O   UNL A   1      44.809  23.132  33.136  1.00  0.00    -0.744 OA
ENDBRANCH  69  72
ENDBRANCH  51  65
BRANCH  52  76
ATOM     76  C   UNL A   1      42.475  25.190  26.364  1.00  0.00     0.023 A 
ATOM     77  C   UNL A   1      43.384  24.848  25.344  1.00  0.00     0.012 A 
ATOM     78  C   UNL A   1      41.575  24.201  26.821  1.00  0.00     0.148 A 
ATOM     79  C   UNL A   1      43.436  23.547  24.833  1.00  0.00     0.002 A 
ATOM     80  C   UNL A   1      41.634  22.907  26.311  1.00  0.00     0.091 A 
ATOM     81  F   UNL A   1      40.735  24.502  27.820  1.00  0.00    -0.205 F 
ATOM     82  C   UNL A   1      42.574  22.574  25.326  1.00  0.00     0.022 A 
BRANCH  80  83
ATOM     83  S   UNL A   1      40.587  21.580  26.929  1.00  0.00     0.127 S 
ATOM     84  O   UNL A   1      39.250  22.056  26.573  1.00  0.00    -0.237 OA
ATOM     85  O   UNL A   1      41.057  20.438  26.149  1.00  0.00    -0.237 OA
ATOM     86  O   UNL A   1      40.838  21.514  28.363  1.00  0.00    -0.744 OA
ENDBRANCH  80  83
ENDBRANCH  52  76
BRANCH  64  87
ATOM     87  C   UNL A   1      45.393  30.389  28.315  1.00  0.00     0.023 A 
ATOM     88  C   UNL A   1      44.190  30.915  27.793  1.00  0.00     0.012 A 
ATOM     89  C   UNL A   1      46.603  31.010  27.962  1.00  0.00     0.148 A 
ATOM     90  C   UNL A   1      44.195  32.011  26.926  1.00  0.00     0.002 A 
ATOM     91  C   UNL A   1      46.601  32.131  27.139  1.00  0.00     0.091 A 
ATOM     92  F   UNL A   1      47.742  30.509  28.464  1.00  0.00    -0.205 F 
ATOM     93  C   UNL A   1      45.400  32.630  26.610  1.00  0.00     0.022 A 
BRANCH  91  94
ATOM     94  S   UNL A   1      48.105  33.052  26.804  1.00  0.00     0.127 S 
ATOM     95  O   UNL A   1      47.697  33.914  25.697  1.00  0.00    -0.237 OA
ATOM     96  O   UNL A   1      48.337  33.751  28.069  1.00  0.00    -0.237 OA
ATOM     97  O   UNL A   1      49.118  32.053  26.485  1.00  0.00    -0.744 OA
ENDBRANCH  91  94
ENDBRANCH  64  87
ENDBRANCH  38  39
ENDBRANCH  30  33
ENDBRANCH  28  29
ENDBRANCH   1  28
TORSDOF 16
ENDMDL
