MODEL 1
REMARK VINA RESULT:     -12.8      0.000      0.000
REMARK SMILES O=C(CCn1cc(/C=C\C(=O)c2ccc(F)cc2)c(-c2cccc(Cl)c2)n1)NCCCNC(=O)c1ccc(-c2c3nc(c(-c4cccc(S(=O)(=O)[O-])c4F)c4ccc([nH]4)c(-c4cccc(S(=O)(=O)[O-])c4F)c4nc(c(-c5cccc(S(=O)(=O)[O-])c5F)c5ccc2[nH]5)C=C4)C=C3)cc1
REMARK SMILES IDX 29 1 28 2 1 3 2 4 3 6 4 7 5 8 6 9 27 10 7 11 19 12 8 13 9 14
REMARK SMILES IDX 10 15 11 16 12 17 13 18 18 19 14 20 17 21 15 22 16 23 20 24
REMARK SMILES IDX 21 25 26 26 22 27 24 28 23 29 25 30 30 31 31 32 32 33 33 34
REMARK SMILES IDX 34 36 35 37 36 38 97 39 37 40 96 41 38 42 39 43 40 44 90 45
REMARK SMILES IDX 41 46 95 47 89 48 91 49 42 50 94 51 88 52 87 53 43 55 75 56
REMARK SMILES IDX 55 57 74 58 56 59 59 60 73 61 92 62 57 63 58 64 72 66 93 67
REMARK SMILES IDX 60 68 44 69 45 70 53 71 46 72 48 73 54 74 47 75 49 76 50 77
REMARK SMILES IDX 51 78 52 79 76 80 77 81 85 82 78 83 80 84 86 85 79 86 81 87
REMARK SMILES IDX 82 88 83 89 84 90 61 91 62 92 70 93 63 94 65 95 71 96 64 97
REMARK SMILES IDX 66 98 67 99 68 100 69 101
REMARK H PARENT 28 5 32 35 91 54 59 65
REMARK Flexibility Score: inf
ROOT
ATOM      1  C   UNL A   1      34.300  32.534  27.940  1.00  0.00     0.117 C 
ENDROOT
BRANCH   1   2
ATOM      2  N   UNL A   1      33.324  31.621  27.342  1.00  0.00    -0.356 N 
ATOM      3  O   UNL A   1      34.655  29.747  27.128  1.00  0.00    -0.275 OA
ATOM      4  C   UNL A   1      33.533  30.253  27.166  1.00  0.00     0.221 C 
ATOM      5  H   UNL A   1      32.463  31.996  27.045  1.00  0.00     0.163 HD
BRANCH   4   6
ATOM      6  C   UNL A   1      32.269  29.356  27.084  1.00  0.00     0.123 C 
BRANCH   6   7
ATOM      7  C   UNL A   1      32.545  27.812  27.220  1.00  0.00     0.154 C 
BRANCH   7   8
ATOM      8  N   UNL A   1      32.253  27.066  26.010  1.00  0.00    -0.271 N 
ATOM      9  C   UNL A   1      32.972  26.456  24.998  1.00  0.00     0.117 A 
ATOM     10  N   UNL A   1      30.978  27.079  25.733  1.00  0.00    -0.172 NA
ATOM     11  C   UNL A   1      32.097  26.332  23.919  1.00  0.00     0.021 A 
ATOM     12  C   UNL A   1      30.964  26.967  24.444  1.00  0.00     0.100 A 
BRANCH  11  13
ATOM     13  C   UNL A   1      32.262  25.743  22.598  1.00  0.00     0.016 C 
ATOM     14  C   UNL A   1      32.976  24.677  22.136  1.00  0.00     0.053 C 
BRANCH  14  15
ATOM     15  C   UNL A   1      33.860  23.603  22.763  1.00  0.00     0.185 C 
ATOM     16  O   UNL A   1      35.080  23.717  22.760  1.00  0.00    -0.289 OA
BRANCH  15  17
ATOM     17  C   UNL A   1      33.147  22.377  23.312  1.00  0.00     0.022 A 
ATOM     18  C   UNL A   1      33.747  22.384  25.025  1.00  0.00     0.015 A 
ATOM     19  C   UNL A   1      32.277  20.649  22.643  1.00  0.00     0.015 A 
ATOM     20  C   UNL A   1      33.631  20.903  25.980  1.00  0.00     0.040 A 
ATOM     21  C   UNL A   1      32.198  19.239  23.775  1.00  0.00     0.040 A 
ATOM     22  C   UNL A   1      32.894  19.411  25.364  1.00  0.00     0.123 A 
ATOM     23  F   UNL A   1      32.648  18.426  26.240  1.00  0.00    -0.207 F 
ENDBRANCH  15  17
ENDBRANCH  14  15
ENDBRANCH  11  13
BRANCH  12  24
ATOM     24  C   UNL A   1      29.799  27.379  23.767  1.00  0.00     0.004 A 
ATOM     25  C   UNL A   1      27.848  26.867  23.820  1.00  0.00     0.010 A 
ATOM     26  C   UNL A   1      30.178  29.126  23.364  1.00  0.00     0.031 A 
ATOM     27  C   UNL A   1      26.728  28.097  23.504  1.00  0.00     0.002 A 
ATOM     28  C   UNL A   1      28.864  30.255  23.187  1.00  0.00     0.041 A 
ATOM     29  C   UNL A   1      27.212  29.763  23.288  1.00  0.00     0.020 A 
ATOM     30  Cl  UNL A   1      29.187  31.937  23.001  1.00  0.00    -0.084 Cl
ENDBRANCH  12  24
ENDBRANCH   7   8
ENDBRANCH   6   7
ENDBRANCH   4   6
ENDBRANCH   1   2
BRANCH   1  31
ATOM     31  C   UNL A   1      33.750  33.586  28.923  1.00  0.00     0.042 C 
BRANCH  31  32
ATOM     32  C   UNL A   1      34.653  34.130  30.043  1.00  0.00     0.118 C 
BRANCH  32  33
ATOM     33  N   UNL A   1      34.888  33.368  31.269  1.00  0.00    -0.352 N 
ATOM     34  C   UNL A   1      35.683  32.236  31.529  1.00  0.00     0.251 C 
ATOM     35  H   UNL A   1      34.400  33.708  32.053  1.00  0.00     0.163 HD
ATOM     36  O   UNL A   1      35.659  31.814  32.689  1.00  0.00    -0.269 OA
BRANCH  34  37
ATOM     37  C   UNL A   1      36.690  31.623  30.551  1.00  0.00     0.039 A 
ATOM     38  C   UNL A   1      36.574  30.266  30.168  1.00  0.00     0.014 A 
ATOM     39  C   UNL A   1      37.903  32.213  30.258  1.00  0.00     0.014 A 
ATOM     40  C   UNL A   1      37.724  29.474  29.832  1.00  0.00     0.010 A 
ATOM     41  C   UNL A   1      39.046  31.406  30.100  1.00  0.00     0.010 A 
ATOM     42  C   UNL A   1      39.019  29.994  30.005  1.00  0.00    -0.014 A 
BRANCH  42  43
ATOM     43  C   UNL A   1      40.409  29.313  29.751  1.00  0.00     0.031 A 
ATOM     44  C   UNL A   1      40.796  29.106  31.171  1.00  0.00     0.074 A 
ATOM     45  C   UNL A   1      41.211  28.873  28.662  1.00  0.00     0.049 A 
ATOM     46  N   UNL A   1      41.374  30.087  31.804  1.00  0.00    -0.248 NA
ATOM     47  C   UNL A   1      40.090  28.198  32.110  1.00  0.00     0.031 C 
ATOM     48  C   UNL A   1      41.262  29.108  27.151  1.00  0.00     0.029 A 
ATOM     49  N   UNL A   1      42.022  27.726  28.630  1.00  0.00    -0.354 N 
ATOM     50  C   UNL A   1      41.561  29.565  33.060  1.00  0.00     0.074 A 
ATOM     51  C   UNL A   1      40.411  28.750  33.288  1.00  0.00     0.031 C 
ATOM     52  C   UNL A   1      41.596  27.997  26.434  1.00  0.00     0.029 A 
ATOM     53  C   UNL A   1      42.100  26.999  27.355  1.00  0.00     0.049 A 
ATOM     54  H   UNL A   1      42.516  27.422  29.425  1.00  0.00     0.167 HD
ATOM     55  C   UNL A   1      42.851  29.321  33.422  1.00  0.00     0.034 A 
ATOM     56  C   UNL A   1      43.080  26.137  26.886  1.00  0.00     0.034 A 
ATOM     57  C   UNL A   1      43.758  30.052  32.539  1.00  0.00     0.049 A 
ATOM     58  C   UNL A   1      44.279  26.412  27.724  1.00  0.00     0.074 A 
ATOM     59  C   UNL A   1      43.809  31.367  32.105  1.00  0.00     0.029 A 
ATOM     60  N   UNL A   1      44.392  29.301  31.575  1.00  0.00    -0.354 N 
ATOM     61  N   UNL A   1      44.948  27.531  27.604  1.00  0.00    -0.248 NA
ATOM     62  C   UNL A   1      44.252  25.807  29.051  1.00  0.00     0.031 C 
ATOM     63  C   UNL A   1      44.138  31.302  30.720  1.00  0.00     0.029 A 
ATOM     64  C   UNL A   1      44.501  29.996  30.394  1.00  0.00     0.049 A 
ATOM     65  H   UNL A   1      44.725  28.385  31.714  1.00  0.00     0.167 HD
ATOM     66  C   UNL A   1      44.981  28.045  28.895  1.00  0.00     0.074 A 
ATOM     67  C   UNL A   1      44.557  26.907  29.754  1.00  0.00     0.031 C 
ATOM     68  C   UNL A   1      44.887  29.400  29.121  1.00  0.00     0.034 A 
BRANCH  55  69
ATOM     69  C   UNL A   1      43.284  28.098  34.196  1.00  0.00     0.023 A 
ATOM     70  C   UNL A   1      43.758  28.347  35.495  1.00  0.00     0.012 A 
ATOM     71  C   UNL A   1      43.447  26.777  33.698  1.00  0.00     0.148 A 
ATOM     72  C   UNL A   1      44.368  27.345  36.251  1.00  0.00     0.002 A 
ATOM     73  C   UNL A   1      43.984  25.765  34.480  1.00  0.00     0.091 A 
ATOM     74  F   UNL A   1      43.198  26.483  32.424  1.00  0.00    -0.205 F 
ATOM     75  C   UNL A   1      44.469  26.052  35.753  1.00  0.00     0.022 A 
BRANCH  73  76
ATOM     76  S   UNL A   1      44.100  24.064  33.896  1.00  0.00     0.127 S 
ATOM     77  O   UNL A   1      45.283  23.587  34.608  1.00  0.00    -0.237 OA
ATOM     78  O   UNL A   1      42.829  23.510  34.363  1.00  0.00    -0.237 OA
ATOM     79  O   UNL A   1      44.223  24.137  32.445  1.00  0.00    -0.744 OA
ENDBRANCH  73  76
ENDBRANCH  55  69
BRANCH  56  80
ATOM     80  C   UNL A   1      42.903  24.800  26.186  1.00  0.00     0.023 A 
ATOM     81  C   UNL A   1      43.856  24.283  25.264  1.00  0.00     0.012 A 
ATOM     82  C   UNL A   1      41.869  23.924  26.572  1.00  0.00     0.148 A 
ATOM     83  C   UNL A   1      43.818  22.941  24.819  1.00  0.00     0.002 A 
ATOM     84  C   UNL A   1      41.853  22.585  26.158  1.00  0.00     0.091 A 
ATOM     85  F   UNL A   1      40.918  24.397  27.387  1.00  0.00    -0.205 F 
ATOM     86  C   UNL A   1      42.831  22.083  25.292  1.00  0.00     0.022 A 
BRANCH  84  87
ATOM     87  S   UNL A   1      40.629  21.417  26.775  1.00  0.00     0.127 S 
ATOM     88  O   UNL A   1      39.375  22.002  26.298  1.00  0.00    -0.237 OA
ATOM     89  O   UNL A   1      41.028  20.184  26.101  1.00  0.00    -0.237 OA
ATOM     90  O   UNL A   1      40.781  21.424  28.224  1.00  0.00    -0.744 OA
ENDBRANCH  84  87
ENDBRANCH  56  80
BRANCH  68  91
ATOM     91  C   UNL A   1      45.031  30.395  27.959  1.00  0.00     0.023 A 
ATOM     92  C   UNL A   1      43.950  30.957  27.252  1.00  0.00     0.012 A 
ATOM     93  C   UNL A   1      46.270  30.996  27.752  1.00  0.00     0.148 A 
ATOM     94  C   UNL A   1      44.057  32.039  26.367  1.00  0.00     0.002 A 
ATOM     95  C   UNL A   1      46.393  32.094  26.897  1.00  0.00     0.091 A 
ATOM     96  F   UNL A   1      47.307  30.523  28.454  1.00  0.00    -0.205 F 
ATOM     97  C   UNL A   1      45.297  32.611  26.185  1.00  0.00     0.022 A 
BRANCH  95  98
ATOM     98  S   UNL A   1      47.930  32.994  26.762  1.00  0.00     0.127 S 
ATOM     99  O   UNL A   1      47.617  33.959  25.711  1.00  0.00    -0.237 OA
ATOM    100  O   UNL A   1      48.072  33.567  28.101  1.00  0.00    -0.237 OA
ATOM    101  O   UNL A   1      48.943  32.002  26.425  1.00  0.00    -0.744 OA
ENDBRANCH  95  98
ENDBRANCH  68  91
ENDBRANCH  42  43
ENDBRANCH  34  37
ENDBRANCH  32  33
ENDBRANCH  31  32
ENDBRANCH   1  31
TORSDOF 19
ENDMDL
MODEL 2
REMARK VINA RESULT:     -12.6      2.771      4.566
REMARK SMILES O=C(CCn1cc(/C=C\C(=O)c2ccc(F)cc2)c(-c2cccc(Cl)c2)n1)NCCCNC(=O)c1ccc(-c2c3nc(c(-c4cccc(S(=O)(=O)[O-])c4F)c4ccc([nH]4)c(-c4cccc(S(=O)(=O)[O-])c4F)c4nc(c(-c5cccc(S(=O)(=O)[O-])c5F)c5ccc2[nH]5)C=C4)C=C3)cc1
REMARK SMILES IDX 29 1 28 2 1 3 2 4 3 6 4 7 5 8 6 9 27 10 7 11 19 12 8 13 9 14
REMARK SMILES IDX 10 15 11 16 12 17 13 18 18 19 14 20 17 21 15 22 16 23 20 24
REMARK SMILES IDX 21 25 26 26 22 27 24 28 23 29 25 30 30 31 31 32 32 33 33 34
REMARK SMILES IDX 34 36 35 37 36 38 97 39 37 40 96 41 38 42 39 43 40 44 90 45
REMARK SMILES IDX 41 46 95 47 89 48 91 49 42 50 94 51 88 52 87 53 43 55 75 56
REMARK SMILES IDX 55 57 74 58 56 59 59 60 73 61 92 62 57 63 58 64 72 66 93 67
REMARK SMILES IDX 60 68 44 69 45 70 53 71 46 72 48 73 54 74 47 75 49 76 50 77
REMARK SMILES IDX 51 78 52 79 76 80 77 81 85 82 78 83 80 84 86 85 79 86 81 87
REMARK SMILES IDX 82 88 83 89 84 90 61 91 62 92 70 93 63 94 65 95 71 96 64 97
REMARK SMILES IDX 66 98 67 99 68 100 69 101
REMARK H PARENT 28 5 32 35 91 54 59 65
REMARK Flexibility Score: inf
ROOT
ATOM      1  C   UNL A   1      31.411  28.774  25.567  1.00  0.00     0.117 C 
ENDROOT
BRANCH   1   2
ATOM      2  N   UNL A   1      31.356  27.361  25.187  1.00  0.00    -0.356 N 
ATOM      3  O   UNL A   1      31.296  26.417  27.292  1.00  0.00    -0.275 OA
ATOM      4  C   UNL A   1      31.110  26.317  26.079  1.00  0.00     0.221 C 
ATOM      5  H   UNL A   1      31.500  27.132  24.240  1.00  0.00     0.163 HD
BRANCH   4   6
ATOM      6  C   UNL A   1      30.515  25.013  25.485  1.00  0.00     0.123 C 
BRANCH   6   7
ATOM      7  C   UNL A   1      30.470  23.794  26.480  1.00  0.00     0.154 C 
BRANCH   7   8
ATOM      8  N   UNL A   1      31.621  22.918  26.368  1.00  0.00    -0.271 N 
ATOM      9  C   UNL A   1      32.998  23.048  26.386  1.00  0.00     0.117 A 
ATOM     10  N   UNL A   1      31.272  21.704  26.040  1.00  0.00    -0.172 NA
ATOM     11  C   UNL A   1      33.506  21.905  25.767  1.00  0.00     0.021 A 
ATOM     12  C   UNL A   1      32.311  21.269  25.402  1.00  0.00     0.100 A 
BRANCH  11  13
ATOM     13  C   UNL A   1      34.868  21.456  25.522  1.00  0.00     0.016 C 
ATOM     14  C   UNL A   1      35.808  21.796  24.595  1.00  0.00     0.053 C 
BRANCH  14  15
ATOM     15  C   UNL A   1      35.898  22.805  23.454  1.00  0.00     0.185 C 
ATOM     16  O   UNL A   1      36.843  22.786  22.674  1.00  0.00    -0.289 OA
BRANCH  15  17
ATOM     17  C   UNL A   1      34.801  23.857  23.394  1.00  0.00     0.022 A 
ATOM     18  C   UNL A   1      33.730  23.147  22.113  1.00  0.00     0.015 A 
ATOM     19  C   UNL A   1      34.503  25.827  23.863  1.00  0.00     0.015 A 
ATOM     20  C   UNL A   1      32.568  24.193  21.290  1.00  0.00     0.040 A 
ATOM     21  C   UNL A   1      33.232  26.739  22.951  1.00  0.00     0.040 A 
ATOM     22  C   UNL A   1      32.350  25.906  21.700  1.00  0.00     0.123 A 
ATOM     23  F   UNL A   1      31.290  26.544  21.182  1.00  0.00    -0.207 F 
ENDBRANCH  15  17
ENDBRANCH  14  15
ENDBRANCH  11  13
BRANCH  12  24
ATOM     24  C   UNL A   1      32.132  20.172  24.537  1.00  0.00     0.004 A 
ATOM     25  C   UNL A   1      32.136  19.901  22.538  1.00  0.00     0.010 A 
ATOM     26  C   UNL A   1      32.726  18.770  25.557  1.00  0.00     0.031 A 
ATOM     27  C   UNL A   1      32.704  18.409  21.972  1.00  0.00     0.002 A 
ATOM     28  C   UNL A   1      33.376  17.363  24.760  1.00  0.00     0.041 A 
ATOM     29  C   UNL A   1      33.393  17.210  23.041  1.00  0.00     0.020 A 
ATOM     30  Cl  UNL A   1      34.119  16.113  25.682  1.00  0.00    -0.084 Cl
ENDBRANCH  12  24
ENDBRANCH   7   8
ENDBRANCH   6   7
ENDBRANCH   4   6
ENDBRANCH   1   2
BRANCH   1  31
ATOM     31  C   UNL A   1      32.194  29.114  26.850  1.00  0.00     0.042 C 
BRANCH  31  32
ATOM     32  C   UNL A   1      33.675  29.518  26.756  1.00  0.00     0.118 C 
BRANCH  32  33
ATOM     33  N   UNL A   1      34.101  30.903  26.948  1.00  0.00    -0.352 N 
ATOM     34  C   UNL A   1      35.132  31.466  27.725  1.00  0.00     0.251 C 
ATOM     35  H   UNL A   1      33.570  31.561  26.445  1.00  0.00     0.163 HD
ATOM     36  O   UNL A   1      35.229  32.696  27.684  1.00  0.00    -0.269 OA
BRANCH  34  37
ATOM     37  C   UNL A   1      36.225  30.672  28.446  1.00  0.00     0.039 A 
ATOM     38  C   UNL A   1      37.098  31.322  29.351  1.00  0.00     0.014 A 
ATOM     39  C   UNL A   1      36.632  29.417  28.038  1.00  0.00     0.014 A 
ATOM     40  C   UNL A   1      38.449  30.878  29.548  1.00  0.00     0.010 A 
ATOM     41  C   UNL A   1      37.999  29.081  28.093  1.00  0.00     0.010 A 
ATOM     42  C   UNL A   1      38.987  29.859  28.742  1.00  0.00    -0.014 A 
BRANCH  42  43
ATOM     43  C   UNL A   1      40.430  29.245  28.742  1.00  0.00     0.031 A 
ATOM     44  C   UNL A   1      40.568  29.051  30.209  1.00  0.00     0.074 A 
ATOM     45  C   UNL A   1      41.434  28.849  27.816  1.00  0.00     0.049 A 
ATOM     46  N   UNL A   1      40.977  30.056  30.931  1.00  0.00    -0.248 NA
ATOM     47  C   UNL A   1      39.749  28.107  31.011  1.00  0.00     0.031 C 
ATOM     48  C   UNL A   1      41.741  29.092  26.336  1.00  0.00     0.029 A 
ATOM     49  N   UNL A   1      42.290  27.741  27.933  1.00  0.00    -0.354 N 
ATOM     50  C   UNL A   1      40.962  29.537  32.202  1.00  0.00     0.074 A 
ATOM     51  C   UNL A   1      39.829  28.668  32.225  1.00  0.00     0.031 C 
ATOM     52  C   UNL A   1      42.250  28.001  25.695  1.00  0.00     0.029 A 
ATOM     53  C   UNL A   1      42.628  27.024  26.696  1.00  0.00     0.049 A 
ATOM     54  H   UNL A   1      42.648  27.458  28.805  1.00  0.00     0.167 HD
ATOM     55  C   UNL A   1      42.176  29.353  32.789  1.00  0.00     0.034 A 
ATOM     56  C   UNL A   1      43.716  26.211  26.412  1.00  0.00     0.034 A 
ATOM     57  C   UNL A   1      43.191  30.130  32.079  1.00  0.00     0.049 A 
ATOM     58  C   UNL A   1      44.732  26.538  27.449  1.00  0.00     0.074 A 
ATOM     59  C   UNL A   1      43.257  31.447  31.655  1.00  0.00     0.029 A 
ATOM     60  N   UNL A   1      44.021  29.413  31.246  1.00  0.00    -0.354 N 
ATOM     61  N   UNL A   1      45.358  27.688  27.445  1.00  0.00    -0.248 NA
ATOM     62  C   UNL A   1      44.497  25.927  28.752  1.00  0.00     0.031 C 
ATOM     63  C   UNL A   1      43.830  31.404  30.351  1.00  0.00     0.029 A 
ATOM     64  C   UNL A   1      44.306  30.117  30.101  1.00  0.00     0.049 A 
ATOM     65  H   UNL A   1      44.367  28.513  31.446  1.00  0.00     0.167 HD
ATOM     66  C   UNL A   1      45.136  28.197  28.720  1.00  0.00     0.074 A 
ATOM     67  C   UNL A   1      44.620  27.038  29.494  1.00  0.00     0.031 C 
ATOM     68  C   UNL A   1      44.940  29.545  28.919  1.00  0.00     0.034 A 
BRANCH  55  69
ATOM     69  C   UNL A   1      42.522  28.149  33.634  1.00  0.00     0.023 A 
ATOM     70  C   UNL A   1      43.344  27.195  33.011  1.00  0.00     0.012 A 
ATOM     71  C   UNL A   1      41.959  27.787  34.888  1.00  0.00     0.148 A 
ATOM     72  C   UNL A   1      43.585  25.950  33.595  1.00  0.00     0.002 A 
ATOM     73  C   UNL A   1      42.262  26.581  35.501  1.00  0.00     0.091 A 
ATOM     74  F   UNL A   1      41.029  28.540  35.471  1.00  0.00    -0.205 F 
ATOM     75  C   UNL A   1      43.059  25.647  34.845  1.00  0.00     0.022 A 
BRANCH  73  76
ATOM     76  S   UNL A   1      41.638  26.156  37.138  1.00  0.00     0.127 S 
ATOM     77  O   UNL A   1      41.320  24.740  36.974  1.00  0.00    -0.237 OA
ATOM     78  O   UNL A   1      42.805  26.437  37.975  1.00  0.00    -0.237 OA
ATOM     79  O   UNL A   1      40.501  27.034  37.382  1.00  0.00    -0.744 OA
ENDBRANCH  73  76
ENDBRANCH  55  69
BRANCH  56  80
ATOM     80  C   UNL A   1      43.728  24.870  25.698  1.00  0.00     0.023 A 
ATOM     81  C   UNL A   1      44.741  24.506  24.765  1.00  0.00     0.012 A 
ATOM     82  C   UNL A   1      42.834  23.850  26.078  1.00  0.00     0.148 A 
ATOM     83  C   UNL A   1      44.893  23.177  24.305  1.00  0.00     0.002 A 
ATOM     84  C   UNL A   1      43.009  22.527  25.648  1.00  0.00     0.091 A 
ATOM     85  F   UNL A   1      41.831  24.172  26.903  1.00  0.00    -0.205 F 
ATOM     86  C   UNL A   1      44.044  22.180  24.772  1.00  0.00     0.022 A 
BRANCH  84  87
ATOM     87  S   UNL A   1      41.971  21.188  26.258  1.00  0.00     0.127 S 
ATOM     88  O   UNL A   1      40.629  21.646  25.893  1.00  0.00    -0.237 OA
ATOM     89  O   UNL A   1      42.463  20.053  25.482  1.00  0.00    -0.237 OA
ATOM     90  O   UNL A   1      42.215  21.129  27.693  1.00  0.00    -0.744 OA
ENDBRANCH  84  87
ENDBRANCH  56  80
BRANCH  68  91
ATOM     91  C   UNL A   1      45.242  30.551  27.798  1.00  0.00     0.023 A 
ATOM     92  C   UNL A   1      44.262  31.167  26.994  1.00  0.00     0.012 A 
ATOM     93  C   UNL A   1      46.517  31.105  27.731  1.00  0.00     0.148 A 
ATOM     94  C   UNL A   1      44.502  32.256  26.145  1.00  0.00     0.002 A 
ATOM     95  C   UNL A   1      46.771  32.210  26.913  1.00  0.00     0.091 A 
ATOM     96  F   UNL A   1      47.458  30.580  28.526  1.00  0.00    -0.205 F 
ATOM     97  C   UNL A   1      45.775  32.780  26.103  1.00  0.00     0.022 A 
BRANCH  95  98
ATOM     98  S   UNL A   1      48.348  33.048  26.954  1.00  0.00     0.127 S 
ATOM     99  O   UNL A   1      48.060  34.256  26.183  1.00  0.00    -0.237 OA
ATOM    100  O   UNL A   1      48.545  33.266  28.388  1.00  0.00    -0.237 OA
ATOM    101  O   UNL A   1      49.303  32.128  26.350  1.00  0.00    -0.744 OA
ENDBRANCH  95  98
ENDBRANCH  68  91
ENDBRANCH  42  43
ENDBRANCH  34  37
ENDBRANCH  32  33
ENDBRANCH  31  32
ENDBRANCH   1  31
TORSDOF 19
ENDMDL
MODEL 3
REMARK VINA RESULT:     -12.5      3.190      8.930
REMARK SMILES O=C(CCn1cc(/C=C\C(=O)c2ccc(F)cc2)c(-c2cccc(Cl)c2)n1)NCCCNC(=O)c1ccc(-c2c3nc(c(-c4cccc(S(=O)(=O)[O-])c4F)c4ccc([nH]4)c(-c4cccc(S(=O)(=O)[O-])c4F)c4nc(c(-c5cccc(S(=O)(=O)[O-])c5F)c5ccc2[nH]5)C=C4)C=C3)cc1
REMARK SMILES IDX 29 1 28 2 1 3 2 4 3 6 4 7 5 8 6 9 27 10 7 11 19 12 8 13 9 14
REMARK SMILES IDX 10 15 11 16 12 17 13 18 18 19 14 20 17 21 15 22 16 23 20 24
REMARK SMILES IDX 21 25 26 26 22 27 24 28 23 29 25 30 30 31 31 32 32 33 33 34
REMARK SMILES IDX 34 36 35 37 36 38 97 39 37 40 96 41 38 42 39 43 40 44 90 45
REMARK SMILES IDX 41 46 95 47 89 48 91 49 42 50 94 51 88 52 87 53 43 55 75 56
REMARK SMILES IDX 55 57 74 58 56 59 59 60 73 61 92 62 57 63 58 64 72 66 93 67
REMARK SMILES IDX 60 68 44 69 45 70 53 71 46 72 48 73 54 74 47 75 49 76 50 77
REMARK SMILES IDX 51 78 52 79 76 80 77 81 85 82 78 83 80 84 86 85 79 86 81 87
REMARK SMILES IDX 82 88 83 89 84 90 61 91 62 92 70 93 63 94 65 95 71 96 64 97
REMARK SMILES IDX 66 98 67 99 68 100 69 101
REMARK H PARENT 28 5 32 35 91 54 59 65
REMARK Flexibility Score: inf
ROOT
ATOM      1  C   UNL A   1      40.344  19.882  26.418  1.00  0.00     0.117 C 
ENDROOT
BRANCH   1   2
ATOM      2  N   UNL A   1      39.966  21.297  26.397  1.00  0.00    -0.356 N 
ATOM      3  O   UNL A   1      38.144  21.169  24.985  1.00  0.00    -0.275 OA
ATOM      4  C   UNL A   1      38.785  21.785  25.836  1.00  0.00     0.221 C 
ATOM      5  H   UNL A   1      40.583  21.945  26.806  1.00  0.00     0.163 HD
BRANCH   4   6
ATOM      6  C   UNL A   1      38.258  23.138  26.383  1.00  0.00     0.123 C 
BRANCH   6   7
ATOM      7  C   UNL A   1      37.256  23.891  25.430  1.00  0.00     0.154 C 
BRANCH   7   8
ATOM      8  N   UNL A   1      35.864  23.689  25.783  1.00  0.00    -0.271 N 
ATOM      9  C   UNL A   1      35.022  22.614  26.012  1.00  0.00     0.117 A 
ATOM     10  N   UNL A   1      35.193  24.808  25.756  1.00  0.00    -0.172 NA
ATOM     11  C   UNL A   1      33.723  23.095  25.847  1.00  0.00     0.021 A 
ATOM     12  C   UNL A   1      33.993  24.417  25.467  1.00  0.00     0.100 A 
BRANCH  11  13
ATOM     13  C   UNL A   1      32.425  22.453  25.992  1.00  0.00     0.016 C 
ATOM     14  C   UNL A   1      31.846  21.377  25.388  1.00  0.00     0.053 C 
BRANCH  14  15
ATOM     15  C   UNL A   1      32.282  20.340  24.357  1.00  0.00     0.185 C 
ATOM     16  O   UNL A   1      32.159  20.557  23.158  1.00  0.00    -0.289 OA
BRANCH  15  17
ATOM     17  C   UNL A   1      32.800  19.019  24.906  1.00  0.00     0.022 A 
ATOM     18  C   UNL A   1      34.590  19.273  24.747  1.00  0.00     0.015 A 
ATOM     19  C   UNL A   1      32.161  17.098  25.209  1.00  0.00     0.015 A 
ATOM     20  C   UNL A   1      35.661  17.868  24.772  1.00  0.00     0.040 A 
ATOM     21  C   UNL A   1      33.404  15.782  25.257  1.00  0.00     0.040 A 
ATOM     22  C   UNL A   1      35.076  16.210  25.011  1.00  0.00     0.123 A 
ATOM     23  F   UNL A   1      35.984  15.252  25.245  1.00  0.00    -0.207 F 
ENDBRANCH  15  17
ENDBRANCH  14  15
ENDBRANCH  11  13
BRANCH  12  24
ATOM     24  C   UNL A   1      33.107  25.372  24.932  1.00  0.00     0.004 A 
ATOM     25  C   UNL A   1      32.673  27.304  25.318  1.00  0.00     0.010 A 
ATOM     26  C   UNL A   1      32.951  24.827  23.190  1.00  0.00     0.031 A 
ATOM     27  C   UNL A   1      32.217  28.261  23.996  1.00  0.00     0.002 A 
ATOM     28  C   UNL A   1      32.577  26.010  21.966  1.00  0.00     0.041 A 
ATOM     29  C   UNL A   1      32.258  27.662  22.355  1.00  0.00     0.020 A 
ATOM     30  Cl  UNL A   1      32.612  25.573  20.301  1.00  0.00    -0.084 Cl
ENDBRANCH  12  24
ENDBRANCH   7   8
ENDBRANCH   6   7
ENDBRANCH   4   6
ENDBRANCH   1   2
BRANCH   1  31
ATOM     31  C   UNL A   1      41.804  19.552  26.049  1.00  0.00     0.042 C 
BRANCH  31  32
ATOM     32  C   UNL A   1      42.923  20.548  26.398  1.00  0.00     0.118 C 
BRANCH  32  33
ATOM     33  N   UNL A   1      43.426  21.504  25.412  1.00  0.00    -0.352 N 
ATOM     34  C   UNL A   1      43.175  22.877  25.228  1.00  0.00     0.251 C 
ATOM     35  H   UNL A   1      44.052  21.117  24.759  1.00  0.00     0.163 HD
ATOM     36  O   UNL A   1      43.755  23.409  24.278  1.00  0.00    -0.269 OA
BRANCH  34  37
ATOM     37  C   UNL A   1      42.404  23.771  26.205  1.00  0.00     0.039 A 
ATOM     38  C   UNL A   1      41.439  24.686  25.722  1.00  0.00     0.014 A 
ATOM     39  C   UNL A   1      42.809  23.979  27.508  1.00  0.00     0.014 A 
ATOM     40  C   UNL A   1      41.171  25.926  26.395  1.00  0.00     0.010 A 
ATOM     41  C   UNL A   1      42.680  25.261  28.077  1.00  0.00     0.010 A 
ATOM     42  C   UNL A   1      41.961  26.327  27.487  1.00  0.00    -0.014 A 
BRANCH  42  43
ATOM     43  C   UNL A   1      41.886  27.639  28.342  1.00  0.00     0.031 A 
ATOM     44  C   UNL A   1      43.130  28.279  27.841  1.00  0.00     0.074 A 
ATOM     45  C   UNL A   1      41.020  28.269  29.279  1.00  0.00     0.049 A 
ATOM     46  N   UNL A   1      44.261  27.958  28.402  1.00  0.00    -0.248 NA
ATOM     47  C   UNL A   1      43.332  28.743  26.445  1.00  0.00     0.031 C 
ATOM     48  C   UNL A   1      39.845  27.848  30.165  1.00  0.00     0.029 A 
ATOM     49  N   UNL A   1      40.760  29.646  29.384  1.00  0.00    -0.354 N 
ATOM     50  C   UNL A   1      45.171  28.700  27.690  1.00  0.00     0.074 A 
ATOM     51  C   UNL A   1      44.668  28.704  26.354  1.00  0.00     0.031 C 
ATOM     52  C   UNL A   1      38.869  28.796  30.267  1.00  0.00     0.029 A 
ATOM     53  C   UNL A   1      39.391  30.042  29.742  1.00  0.00     0.049 A 
ATOM     54  H   UNL A   1      41.463  30.315  29.225  1.00  0.00     0.167 HD
ATOM     55  C   UNL A   1      45.775  29.716  28.365  1.00  0.00     0.034 A 
ATOM     56  C   UNL A   1      38.930  31.217  30.317  1.00  0.00     0.034 A 
ATOM     57  C   UNL A   1      45.609  29.520  29.804  1.00  0.00     0.049 A 
ATOM     58  C   UNL A   1      40.131  31.855  30.923  1.00  0.00     0.074 A 
ATOM     59  C   UNL A   1      45.807  28.439  30.647  1.00  0.00     0.029 A 
ATOM     60  N   UNL A   1      44.666  30.318  30.414  1.00  0.00    -0.354 N 
ATOM     61  N   UNL A   1      40.705  31.345  31.984  1.00  0.00    -0.248 NA
ATOM     62  C   UNL A   1      41.000  32.548  29.979  1.00  0.00     0.031 C 
ATOM     63  C   UNL A   1      44.700  28.441  31.543  1.00  0.00     0.029 A 
ATOM     64  C   UNL A   1      43.984  29.628  31.387  1.00  0.00     0.049 A 
ATOM     65  H   UNL A   1      44.503  31.261  30.182  1.00  0.00     0.167 HD
ATOM     66  C   UNL A   1      42.034  31.186  31.604  1.00  0.00     0.074 A 
ATOM     67  C   UNL A   1      42.157  31.983  30.356  1.00  0.00     0.031 C 
ATOM     68  C   UNL A   1      42.767  30.103  32.033  1.00  0.00     0.034 A 
BRANCH  55  69
ATOM     69  C   UNL A   1      46.056  31.071  27.758  1.00  0.00     0.023 A 
ATOM     70  C   UNL A   1      47.407  31.453  27.740  1.00  0.00     0.012 A 
ATOM     71  C   UNL A   1      45.106  32.064  27.393  1.00  0.00     0.148 A 
ATOM     72  C   UNL A   1      47.793  32.747  27.390  1.00  0.00     0.002 A 
ATOM     73  C   UNL A   1      45.497  33.326  26.972  1.00  0.00     0.091 A 
ATOM     74  F   UNL A   1      43.800  31.862  27.549  1.00  0.00    -0.205 F 
ATOM     75  C   UNL A   1      46.843  33.680  26.991  1.00  0.00     0.022 A 
BRANCH  73  76
ATOM     76  S   UNL A   1      44.308  34.557  26.406  1.00  0.00     0.127 S 
ATOM     77  O   UNL A   1      43.483  34.740  27.597  1.00  0.00    -0.237 OA
ATOM     78  O   UNL A   1      45.187  35.681  26.082  1.00  0.00    -0.237 OA
ATOM     79  O   UNL A   1      43.633  33.974  25.254  1.00  0.00    -0.744 OA
ENDBRANCH  73  76
ENDBRANCH  55  69
BRANCH  56  80
ATOM     80  C   UNL A   1      37.717  32.043  29.927  1.00  0.00     0.023 A 
ATOM     81  C   UNL A   1      37.194  32.064  28.603  1.00  0.00     0.012 A 
ATOM     82  C   UNL A   1      36.939  32.680  30.915  1.00  0.00     0.148 A 
ATOM     83  C   UNL A   1      35.928  32.620  28.305  1.00  0.00     0.002 A 
ATOM     84  C   UNL A   1      35.670  33.199  30.624  1.00  0.00     0.091 A 
ATOM     85  F   UNL A   1      37.430  32.736  32.159  1.00  0.00    -0.205 F 
ATOM     86  C   UNL A   1      35.152  33.161  29.325  1.00  0.00     0.022 A 
BRANCH  84  87
ATOM     87  S   UNL A   1      34.601  33.866  31.911  1.00  0.00     0.127 S 
ATOM     88  O   UNL A   1      33.568  34.548  31.131  1.00  0.00    -0.237 OA
ATOM     89  O   UNL A   1      34.156  32.651  32.589  1.00  0.00    -0.237 OA
ATOM     90  O   UNL A   1      35.446  34.757  32.695  1.00  0.00    -0.744 OA
ENDBRANCH  84  87
ENDBRANCH  56  80
BRANCH  68  91
ATOM     91  C   UNL A   1      42.239  29.200  33.158  1.00  0.00     0.023 A 
ATOM     92  C   UNL A   1      41.268  28.194  32.984  1.00  0.00     0.012 A 
ATOM     93  C   UNL A   1      42.933  29.170  34.364  1.00  0.00     0.148 A 
ATOM     94  C   UNL A   1      40.962  27.212  33.937  1.00  0.00     0.002 A 
ATOM     95  C   UNL A   1      42.664  28.182  35.316  1.00  0.00     0.091 A 
ATOM     96  F   UNL A   1      43.903  30.077  34.537  1.00  0.00    -0.205 F 
ATOM     97  C   UNL A   1      41.668  27.212  35.120  1.00  0.00     0.022 A 
BRANCH  95  98
ATOM     98  S   UNL A   1      43.669  28.014  36.783  1.00  0.00     0.127 S 
ATOM     99  O   UNL A   1      42.983  26.934  37.489  1.00  0.00    -0.237 OA
ATOM    100  O   UNL A   1      44.973  27.654  36.226  1.00  0.00    -0.237 OA
ATOM    101  O   UNL A   1      43.636  29.315  37.439  1.00  0.00    -0.744 OA
ENDBRANCH  95  98
ENDBRANCH  68  91
ENDBRANCH  42  43
ENDBRANCH  34  37
ENDBRANCH  32  33
ENDBRANCH  31  32
ENDBRANCH   1  31
TORSDOF 19
ENDMDL
