MODEL 1
REMARK VINA RESULT:     -11.5      0.000      0.000
REMARK SMILES CC(=O)N[C@@H](C)C(=O)N1CCC[C@H]1C(=O)NCCCNC(=O)c1ccc(-c2c3nc(c(-c4cccc(S(=O)(=O)[O-])c4F)c4ccc([nH]4)c(-c4cccc(S(=O)(=O)[O-])c4F)c4nc(c(-c5cccc(S(=O)(=O)[O-])c5F)c5ccc2[nH]5)C=C4)C=C3)cc1
REMARK SMILES IDX 18 1 17 2 16 3 14 4 15 5 13 7 9 8 10 9 11 10 12 11 7 12 8 13
REMARK SMILES IDX 5 14 6 15 4 16 1 17 2 18 3 19 19 21 20 22 21 23 22 25 23 26
REMARK SMILES IDX 24 27 85 28 25 29 84 30 26 31 27 32 28 33 78 34 29 35 83 36
REMARK SMILES IDX 77 37 79 38 30 39 82 40 76 41 75 42 31 44 63 45 43 46 62 47
REMARK SMILES IDX 44 48 47 49 61 50 80 51 45 52 46 53 60 55 81 56 48 57 32 58
REMARK SMILES IDX 33 59 41 60 34 61 36 62 42 63 35 64 37 65 38 66 39 67 40 68
REMARK SMILES IDX 64 69 65 70 73 71 66 72 68 73 74 74 67 75 69 76 70 77 71 78
REMARK SMILES IDX 72 79 49 80 50 81 58 82 51 83 53 84 59 85 52 86 54 87 55 88
REMARK SMILES IDX 56 89 57 90
REMARK H PARENT 16 6 4 20 20 24 79 43 47 54
REMARK Flexibility Score: inf
ROOT
ATOM      1  C   UNL A   1      31.549  32.158  26.746  1.00  0.00     0.042 C 
ENDROOT
BRANCH   1   2
ATOM      2  C   UNL A   1      31.785  30.647  26.717  1.00  0.00     0.117 C 
BRANCH   2   3
ATOM      3  N   UNL A   1      32.463  30.241  25.498  1.00  0.00    -0.354 N 
ATOM      4  C   UNL A   1      32.156  29.280  24.573  1.00  0.00     0.242 C 
ATOM      5  O   UNL A   1      33.029  29.036  23.736  1.00  0.00    -0.273 OA
ATOM      6  H   UNL A   1      33.286  30.744  25.304  1.00  0.00     0.163 HD
BRANCH   4   7
ATOM      7  C   UNL A   1      30.744  28.630  24.525  1.00  0.00     0.174 C 
ATOM      8  N   UNL A   1      30.308  28.323  23.146  1.00  0.00    -0.329 N 
ATOM      9  C   UNL A   1      30.399  26.895  22.924  1.00  0.00     0.120 C 
ATOM     10  C   UNL A   1      29.955  26.336  24.254  1.00  0.00     0.024 C 
ATOM     11  C   UNL A   1      30.642  27.269  25.235  1.00  0.00     0.037 C 
BRANCH   8  12
ATOM     12  C   UNL A   1      29.777  29.315  22.350  1.00  0.00     0.245 C 
ATOM     13  O   UNL A   1      30.421  29.726  21.372  1.00  0.00    -0.272 OA
BRANCH  12  14
ATOM     14  C   UNL A   1      28.578  30.186  22.829  1.00  0.00     0.168 C 
ATOM     15  C   UNL A   1      27.437  29.208  23.128  1.00  0.00     0.041 C 
BRANCH  14  16
ATOM     16  N   UNL A   1      28.050  31.285  22.021  1.00  0.00    -0.345 N 
ATOM     17  C   UNL A   1      29.246  33.122  23.151  1.00  0.00     0.114 C 
ATOM     18  C   UNL A   1      28.278  32.621  22.123  1.00  0.00     0.217 C 
ATOM     19  O   UNL A   1      27.652  33.389  21.393  1.00  0.00    -0.275 OA
ATOM     20  H   UNL A   1      27.440  31.018  21.295  1.00  0.00     0.164 HD
ENDBRANCH  14  16
ENDBRANCH  12  14
ENDBRANCH   8  12
ENDBRANCH   4   7
ENDBRANCH   2   3
ENDBRANCH   1   2
BRANCH   1  21
ATOM     21  C   UNL A   1      32.814  32.970  26.991  1.00  0.00     0.118 C 
BRANCH  21  22
ATOM     22  N   UNL A   1      32.544  34.202  27.719  1.00  0.00    -0.352 N 
ATOM     23  C   UNL A   1      33.114  34.665  28.880  1.00  0.00     0.251 C 
ATOM     24  H   UNL A   1      31.856  34.785  27.324  1.00  0.00     0.163 HD
ATOM     25  O   UNL A   1      32.614  35.625  29.463  1.00  0.00    -0.269 OA
BRANCH  23  26
ATOM     26  C   UNL A   1      34.313  33.999  29.436  1.00  0.00     0.039 A 
ATOM     27  C   UNL A   1      35.580  34.432  29.035  1.00  0.00     0.014 A 
ATOM     28  C   UNL A   1      34.188  32.950  30.352  1.00  0.00     0.014 A 
ATOM     29  C   UNL A   1      36.721  33.860  29.604  1.00  0.00     0.010 A 
ATOM     30  C   UNL A   1      35.321  32.437  30.973  1.00  0.00     0.010 A 
ATOM     31  C   UNL A   1      36.600  32.884  30.606  1.00  0.00    -0.014 A 
BRANCH  31  32
ATOM     32  C   UNL A   1      37.787  32.322  31.300  1.00  0.00     0.031 A 
ATOM     33  C   UNL A   1      38.546  31.176  30.688  1.00  0.00     0.074 A 
ATOM     34  C   UNL A   1      38.105  32.759  32.535  1.00  0.00     0.049 A 
ATOM     35  N   UNL A   1      39.520  30.467  31.194  1.00  0.00    -0.248 NA
ATOM     36  C   UNL A   1      38.134  30.752  29.339  1.00  0.00     0.031 C 
ATOM     37  C   UNL A   1      37.401  33.813  33.268  1.00  0.00     0.029 A 
ATOM     38  N   UNL A   1      39.077  32.341  33.411  1.00  0.00    -0.354 N 
ATOM     39  C   UNL A   1      39.806  29.485  30.252  1.00  0.00     0.074 A 
ATOM     40  C   UNL A   1      38.884  29.675  29.154  1.00  0.00     0.031 C 
ATOM     41  C   UNL A   1      37.956  33.953  34.481  1.00  0.00     0.029 A 
ATOM     42  C   UNL A   1      39.028  32.974  34.631  1.00  0.00     0.049 A 
ATOM     43  H   UNL A   1      39.746  31.653  33.187  1.00  0.00     0.167 HD
ATOM     44  C   UNL A   1      40.761  28.526  30.288  1.00  0.00     0.034 A 
ATOM     45  C   UNL A   1      39.749  32.776  35.753  1.00  0.00     0.034 A 
ATOM     46  C   UNL A   1      41.702  28.370  31.364  1.00  0.00     0.049 A 
ATOM     47  C   UNL A   1      40.831  31.732  35.753  1.00  0.00     0.074 A 
ATOM     48  C   UNL A   1      42.768  27.493  31.452  1.00  0.00     0.029 A 
ATOM     49  N   UNL A   1      41.686  29.100  32.542  1.00  0.00    -0.354 N 
ATOM     50  N   UNL A   1      41.185  30.913  34.792  1.00  0.00    -0.248 NA
ATOM     51  C   UNL A   1      41.638  31.606  36.976  1.00  0.00     0.031 C 
ATOM     52  C   UNL A   1      43.379  27.672  32.697  1.00  0.00     0.029 A 
ATOM     53  C   UNL A   1      42.717  28.687  33.368  1.00  0.00     0.049 A 
ATOM     54  H   UNL A   1      41.037  29.808  32.759  1.00  0.00     0.167 HD
ATOM     55  C   UNL A   1      42.280  30.207  35.277  1.00  0.00     0.074 A 
ATOM     56  C   UNL A   1      42.539  30.701  36.614  1.00  0.00     0.031 C 
ATOM     57  C   UNL A   1      43.000  29.230  34.673  1.00  0.00     0.034 A 
BRANCH  44  58
ATOM     58  C   UNL A   1      40.864  27.593  29.109  1.00  0.00     0.023 A 
ATOM     59  C   UNL A   1      40.028  26.461  29.038  1.00  0.00     0.012 A 
ATOM     60  C   UNL A   1      41.745  27.868  28.044  1.00  0.00     0.148 A 
ATOM     61  C   UNL A   1      40.094  25.594  27.947  1.00  0.00     0.002 A 
ATOM     62  C   UNL A   1      41.771  27.027  26.938  1.00  0.00     0.091 A 
ATOM     63  F   UNL A   1      42.548  28.938  28.137  1.00  0.00    -0.205 F 
ATOM     64  C   UNL A   1      40.957  25.884  26.894  1.00  0.00     0.022 A 
BRANCH  62  65
ATOM     65  S   UNL A   1      42.787  27.358  25.493  1.00  0.00     0.127 S 
ATOM     66  O   UNL A   1      42.192  28.595  24.992  1.00  0.00    -0.237 OA
ATOM     67  O   UNL A   1      44.117  27.516  26.082  1.00  0.00    -0.237 OA
ATOM     68  O   UNL A   1      42.641  26.197  24.626  1.00  0.00    -0.744 OA
ENDBRANCH  62  65
ENDBRANCH  44  58
BRANCH  45  69
ATOM     69  C   UNL A   1      39.503  33.627  36.953  1.00  0.00     0.023 A 
ATOM     70  C   UNL A   1      39.917  34.974  36.941  1.00  0.00     0.012 A 
ATOM     71  C   UNL A   1      38.830  33.125  38.083  1.00  0.00     0.148 A 
ATOM     72  C   UNL A   1      39.695  35.795  38.047  1.00  0.00     0.002 A 
ATOM     73  C   UNL A   1      38.560  33.965  39.157  1.00  0.00     0.091 A 
ATOM     74  F   UNL A   1      38.451  31.840  38.077  1.00  0.00    -0.205 F 
ATOM     75  C   UNL A   1      39.008  35.295  39.149  1.00  0.00     0.022 A 
BRANCH  73  76
ATOM     76  S   UNL A   1      37.562  33.448  40.559  1.00  0.00     0.127 S 
ATOM     77  O   UNL A   1      37.509  34.669  41.358  1.00  0.00    -0.237 OA
ATOM     78  O   UNL A   1      36.302  33.079  39.911  1.00  0.00    -0.237 OA
ATOM     79  O   UNL A   1      38.275  32.328  41.158  1.00  0.00    -0.744 OA
ENDBRANCH  73  76
ENDBRANCH  45  69
BRANCH  57  80
ATOM     80  C   UNL A   1      44.178  28.659  35.417  1.00  0.00     0.023 A 
ATOM     81  C   UNL A   1      45.460  29.216  35.244  1.00  0.00     0.012 A 
ATOM     82  C   UNL A   1      43.991  27.629  36.360  1.00  0.00     0.148 A 
ATOM     83  C   UNL A   1      46.544  28.737  35.981  1.00  0.00     0.002 A 
ATOM     84  C   UNL A   1      45.064  27.192  37.127  1.00  0.00     0.091 A 
ATOM     85  F   UNL A   1      42.766  27.101  36.496  1.00  0.00    -0.205 F 
ATOM     86  C   UNL A   1      46.344  27.736  36.930  1.00  0.00     0.022 A 
BRANCH  84  87
ATOM     87  S   UNL A   1      44.880  25.982  38.442  1.00  0.00     0.127 S 
ATOM     88  O   UNL A   1      44.623  24.757  37.685  1.00  0.00    -0.237 OA
ATOM     89  O   UNL A   1      46.189  26.032  39.095  1.00  0.00    -0.237 OA
ATOM     90  O   UNL A   1      43.774  26.449  39.266  1.00  0.00    -0.744 OA
ENDBRANCH  84  87
ENDBRANCH  57  80
ENDBRANCH  31  32
ENDBRANCH  23  26
ENDBRANCH  21  22
ENDBRANCH   1  21
TORSDOF 16
ENDMDL
MODEL 2
REMARK VINA RESULT:     -11.4      1.480      2.799
REMARK SMILES CC(=O)N[C@@H](C)C(=O)N1CCC[C@H]1C(=O)NCCCNC(=O)c1ccc(-c2c3nc(c(-c4cccc(S(=O)(=O)[O-])c4F)c4ccc([nH]4)c(-c4cccc(S(=O)(=O)[O-])c4F)c4nc(c(-c5cccc(S(=O)(=O)[O-])c5F)c5ccc2[nH]5)C=C4)C=C3)cc1
REMARK SMILES IDX 18 1 17 2 16 3 14 4 15 5 13 7 9 8 10 9 11 10 12 11 7 12 8 13
REMARK SMILES IDX 5 14 6 15 4 16 1 17 2 18 3 19 19 21 20 22 21 23 22 25 23 26
REMARK SMILES IDX 24 27 85 28 25 29 84 30 26 31 27 32 28 33 78 34 29 35 83 36
REMARK SMILES IDX 77 37 79 38 30 39 82 40 76 41 75 42 31 44 63 45 43 46 62 47
REMARK SMILES IDX 44 48 47 49 61 50 80 51 45 52 46 53 60 55 81 56 48 57 32 58
REMARK SMILES IDX 33 59 41 60 34 61 36 62 42 63 35 64 37 65 38 66 39 67 40 68
REMARK SMILES IDX 64 69 65 70 73 71 66 72 68 73 74 74 67 75 69 76 70 77 71 78
REMARK SMILES IDX 72 79 49 80 50 81 58 82 51 83 53 84 59 85 52 86 54 87 55 88
REMARK SMILES IDX 56 89 57 90
REMARK H PARENT 16 6 4 20 20 24 79 43 47 54
REMARK Flexibility Score: inf
ROOT
ATOM      1  C   UNL A   1      31.782  31.739  26.613  1.00  0.00     0.042 C 
ENDROOT
BRANCH   1   2
ATOM      2  C   UNL A   1      32.193  30.416  25.964  1.00  0.00     0.117 C 
BRANCH   2   3
ATOM      3  N   UNL A   1      31.330  30.087  24.844  1.00  0.00    -0.354 N 
ATOM      4  C   UNL A   1      31.490  29.204  23.810  1.00  0.00     0.242 C 
ATOM      5  O   UNL A   1      30.663  29.282  22.898  1.00  0.00    -0.273 OA
ATOM      6  H   UNL A   1      30.481  30.586  24.823  1.00  0.00     0.163 HD
BRANCH   4   7
ATOM      7  C   UNL A   1      32.585  28.101  23.857  1.00  0.00     0.174 C 
ATOM      8  N   UNL A   1      32.015  26.737  23.874  1.00  0.00    -0.329 N 
ATOM      9  C   UNL A   1      32.196  26.127  22.574  1.00  0.00     0.120 C 
ATOM     10  C   UNL A   1      33.563  26.627  22.174  1.00  0.00     0.024 C 
ATOM     11  C   UNL A   1      33.519  28.073  22.634  1.00  0.00     0.037 C 
BRANCH   8  12
ATOM     12  C   UNL A   1      31.550  26.196  25.053  1.00  0.00     0.245 C 
ATOM     13  O   UNL A   1      32.289  26.170  26.050  1.00  0.00    -0.272 OA
BRANCH  12  14
ATOM     14  C   UNL A   1      30.277  25.297  25.089  1.00  0.00     0.168 C 
ATOM     15  C   UNL A   1      29.123  26.179  24.602  1.00  0.00     0.041 C 
BRANCH  14  16
ATOM     16  N   UNL A   1      29.854  24.605  26.306  1.00  0.00    -0.345 N 
ATOM     17  C   UNL A   1      31.178  22.548  25.985  1.00  0.00     0.114 C 
ATOM     18  C   UNL A   1      30.189  23.367  26.757  1.00  0.00     0.217 C 
ATOM     19  O   UNL A   1      29.639  22.934  27.770  1.00  0.00    -0.275 OA
ATOM     20  H   UNL A   1      29.236  25.109  26.883  1.00  0.00     0.164 HD
ENDBRANCH  14  16
ENDBRANCH  12  14
ENDBRANCH   8  12
ENDBRANCH   4   7
ENDBRANCH   2   3
ENDBRANCH   1   2
BRANCH   1  21
ATOM     21  C   UNL A   1      32.917  32.436  27.352  1.00  0.00     0.118 C 
BRANCH  21  22
ATOM     22  N   UNL A   1      32.604  33.826  27.653  1.00  0.00    -0.352 N 
ATOM     23  C   UNL A   1      33.132  34.643  28.624  1.00  0.00     0.251 C 
ATOM     24  H   UNL A   1      31.919  34.239  27.080  1.00  0.00     0.163 HD
ATOM     25  O   UNL A   1      32.599  35.724  28.865  1.00  0.00    -0.269 OA
BRANCH  23  26
ATOM     26  C   UNL A   1      34.325  34.214  29.387  1.00  0.00     0.039 A 
ATOM     27  C   UNL A   1      34.154  33.612  30.637  1.00  0.00     0.014 A 
ATOM     28  C   UNL A   1      35.610  34.403  28.870  1.00  0.00     0.014 A 
ATOM     29  C   UNL A   1      35.267  33.138  31.337  1.00  0.00     0.010 A 
ATOM     30  C   UNL A   1      36.707  33.862  29.531  1.00  0.00     0.010 A 
ATOM     31  C   UNL A   1      36.550  33.226  30.772  1.00  0.00    -0.014 A 
BRANCH  31  32
ATOM     32  C   UNL A   1      37.743  32.649  31.444  1.00  0.00     0.031 A 
ATOM     33  C   UNL A   1      38.476  31.494  30.819  1.00  0.00     0.074 A 
ATOM     34  C   UNL A   1      38.090  33.083  32.673  1.00  0.00     0.049 A 
ATOM     35  N   UNL A   1      39.450  30.773  31.306  1.00  0.00    -0.248 NA
ATOM     36  C   UNL A   1      38.033  31.074  29.478  1.00  0.00     0.031 C 
ATOM     37  C   UNL A   1      37.413  34.147  33.417  1.00  0.00     0.029 A 
ATOM     38  N   UNL A   1      39.073  32.654  33.530  1.00  0.00    -0.354 N 
ATOM     39  C   UNL A   1      39.706  29.787  30.360  1.00  0.00     0.074 A 
ATOM     40  C   UNL A   1      38.766  29.988  29.279  1.00  0.00     0.031 C 
ATOM     41  C   UNL A   1      37.993  34.280  34.620  1.00  0.00     0.029 A 
ATOM     42  C   UNL A   1      39.055  33.288  34.751  1.00  0.00     0.049 A 
ATOM     43  H   UNL A   1      39.729  31.957  33.294  1.00  0.00     0.167 HD
ATOM     44  C   UNL A   1      40.650  28.817  30.379  1.00  0.00     0.034 A 
ATOM     45  C   UNL A   1      39.794  33.082  35.858  1.00  0.00     0.034 A 
ATOM     46  C   UNL A   1      41.609  28.649  31.436  1.00  0.00     0.049 A 
ATOM     47  C   UNL A   1      40.864  32.024  35.838  1.00  0.00     0.074 A 
ATOM     48  C   UNL A   1      42.666  27.759  31.505  1.00  0.00     0.029 A 
ATOM     49  N   UNL A   1      41.625  29.380  32.614  1.00  0.00    -0.354 N 
ATOM     50  N   UNL A   1      41.189  31.201  34.872  1.00  0.00    -0.248 NA
ATOM     51  C   UNL A   1      41.692  31.889  37.046  1.00  0.00     0.031 C 
ATOM     52  C   UNL A   1      43.302  27.931  32.738  1.00  0.00     0.029 A 
ATOM     53  C   UNL A   1      42.666  28.955  33.421  1.00  0.00     0.049 A 
ATOM     54  H   UNL A   1      40.989  30.096  32.843  1.00  0.00     0.167 HD
ATOM     55  C   UNL A   1      42.284  30.481  35.336  1.00  0.00     0.074 A 
ATOM     56  C   UNL A   1      42.574  30.973  36.668  1.00  0.00     0.031 C 
ATOM     57  C   UNL A   1      42.980  29.495  34.719  1.00  0.00     0.034 A 
BRANCH  44  58
ATOM     58  C   UNL A   1      40.719  27.882  29.199  1.00  0.00     0.023 A 
ATOM     59  C   UNL A   1      39.849  26.775  29.131  1.00  0.00     0.012 A 
ATOM     60  C   UNL A   1      41.602  28.130  28.130  1.00  0.00     0.148 A 
ATOM     61  C   UNL A   1      39.883  25.907  28.040  1.00  0.00     0.002 A 
ATOM     62  C   UNL A   1      41.597  27.290  27.023  1.00  0.00     0.091 A 
ATOM     63  F   UNL A   1      42.437  29.176  28.219  1.00  0.00    -0.205 F 
ATOM     64  C   UNL A   1      40.749  26.172  26.982  1.00  0.00     0.022 A 
BRANCH  62  65
ATOM     65  S   UNL A   1      42.615  27.591  25.573  1.00  0.00     0.127 S 
ATOM     66  O   UNL A   1      42.058  28.848  25.078  1.00  0.00    -0.237 OA
ATOM     67  O   UNL A   1      43.953  27.704  26.155  1.00  0.00    -0.237 OA
ATOM     68  O   UNL A   1      42.427  26.437  24.704  1.00  0.00    -0.744 OA
ENDBRANCH  62  65
ENDBRANCH  44  58
BRANCH  45  69
ATOM     69  C   UNL A   1      39.582  33.937  37.062  1.00  0.00     0.023 A 
ATOM     70  C   UNL A   1      39.985  35.286  37.030  1.00  0.00     0.012 A 
ATOM     71  C   UNL A   1      38.952  33.435  38.216  1.00  0.00     0.148 A 
ATOM     72  C   UNL A   1      39.794  36.111  38.139  1.00  0.00     0.002 A 
ATOM     73  C   UNL A   1      38.711  34.278  39.295  1.00  0.00     0.091 A 
ATOM     74  F   UNL A   1      38.582  32.147  38.229  1.00  0.00    -0.205 F 
ATOM     75  C   UNL A   1      39.148  35.611  39.266  1.00  0.00     0.022 A 
BRANCH  73  76
ATOM     76  S   UNL A   1      37.764  33.759  40.732  1.00  0.00     0.127 S 
ATOM     77  O   UNL A   1      36.572  33.184  40.115  1.00  0.00    -0.237 OA
ATOM     78  O   UNL A   1      38.668  32.789  41.353  1.00  0.00    -0.237 OA
ATOM     79  O   UNL A   1      37.551  34.966  41.519  1.00  0.00    -0.744 OA
ENDBRANCH  73  76
ENDBRANCH  45  69
BRANCH  57  80
ATOM     80  C   UNL A   1      44.165  28.910  35.442  1.00  0.00     0.023 A 
ATOM     81  C   UNL A   1      45.444  29.476  35.275  1.00  0.00     0.012 A 
ATOM     82  C   UNL A   1      43.988  27.855  36.359  1.00  0.00     0.148 A 
ATOM     83  C   UNL A   1      46.535  28.983  35.993  1.00  0.00     0.002 A 
ATOM     84  C   UNL A   1      45.068  27.403  37.108  1.00  0.00     0.091 A 
ATOM     85  F   UNL A   1      42.766  27.319  36.489  1.00  0.00    -0.205 F 
ATOM     86  C   UNL A   1      46.344  27.958  36.917  1.00  0.00     0.022 A 
BRANCH  84  87
ATOM     87  S   UNL A   1      44.897  26.159  38.392  1.00  0.00     0.127 S 
ATOM     88  O   UNL A   1      44.465  24.994  37.622  1.00  0.00    -0.237 OA
ATOM     89  O   UNL A   1      46.258  26.071  38.922  1.00  0.00    -0.237 OA
ATOM     90  O   UNL A   1      43.915  26.683  39.332  1.00  0.00    -0.744 OA
ENDBRANCH  84  87
ENDBRANCH  57  80
ENDBRANCH  31  32
ENDBRANCH  23  26
ENDBRANCH  21  22
ENDBRANCH   1  21
TORSDOF 16
ENDMDL
MODEL 3
REMARK VINA RESULT:     -11.0      1.682      2.215
REMARK SMILES CC(=O)N[C@@H](C)C(=O)N1CCC[C@H]1C(=O)NCCCNC(=O)c1ccc(-c2c3nc(c(-c4cccc(S(=O)(=O)[O-])c4F)c4ccc([nH]4)c(-c4cccc(S(=O)(=O)[O-])c4F)c4nc(c(-c5cccc(S(=O)(=O)[O-])c5F)c5ccc2[nH]5)C=C4)C=C3)cc1
REMARK SMILES IDX 18 1 17 2 16 3 14 4 15 5 13 7 9 8 10 9 11 10 12 11 7 12 8 13
REMARK SMILES IDX 5 14 6 15 4 16 1 17 2 18 3 19 19 21 20 22 21 23 22 25 23 26
REMARK SMILES IDX 24 27 85 28 25 29 84 30 26 31 27 32 28 33 78 34 29 35 83 36
REMARK SMILES IDX 77 37 79 38 30 39 82 40 76 41 75 42 31 44 63 45 43 46 62 47
REMARK SMILES IDX 44 48 47 49 61 50 80 51 45 52 46 53 60 55 81 56 48 57 32 58
REMARK SMILES IDX 33 59 41 60 34 61 36 62 42 63 35 64 37 65 38 66 39 67 40 68
REMARK SMILES IDX 64 69 65 70 73 71 66 72 68 73 74 74 67 75 69 76 70 77 71 78
REMARK SMILES IDX 72 79 49 80 50 81 58 82 51 83 53 84 59 85 52 86 54 87 55 88
REMARK SMILES IDX 56 89 57 90
REMARK H PARENT 16 6 4 20 20 24 79 43 47 54
REMARK Flexibility Score: inf
ROOT
ATOM      1  C   UNL A   1      31.391  31.781  26.751  1.00  0.00     0.042 C 
ENDROOT
BRANCH   1   2
ATOM      2  C   UNL A   1      31.563  30.308  26.374  1.00  0.00     0.117 C 
BRANCH   2   3
ATOM      3  N   UNL A   1      32.340  30.163  25.155  1.00  0.00    -0.354 N 
ATOM      4  C   UNL A   1      32.948  29.071  24.598  1.00  0.00     0.242 C 
ATOM      5  O   UNL A   1      33.702  29.297  23.648  1.00  0.00    -0.273 OA
ATOM      6  H   UNL A   1      32.449  30.995  24.640  1.00  0.00     0.163 HD
BRANCH   4   7
ATOM      7  C   UNL A   1      32.606  27.630  25.072  1.00  0.00     0.174 C 
ATOM      8  N   UNL A   1      32.567  26.660  23.957  1.00  0.00    -0.329 N 
ATOM      9  C   UNL A   1      33.754  25.832  24.003  1.00  0.00     0.120 C 
ATOM     10  C   UNL A   1      33.945  25.632  25.487  1.00  0.00     0.024 C 
ATOM     11  C   UNL A   1      33.633  27.012  26.036  1.00  0.00     0.037 C 
BRANCH   8  12
ATOM     12  C   UNL A   1      31.447  26.564  23.160  1.00  0.00     0.245 C 
ATOM     13  O   UNL A   1      31.486  25.879  22.126  1.00  0.00    -0.272 OA
BRANCH  12  14
ATOM     14  C   UNL A   1      30.257  27.560  23.308  1.00  0.00     0.168 C 
ATOM     15  C   UNL A   1      29.069  26.728  23.803  1.00  0.00     0.041 C 
BRANCH  14  16
ATOM     16  N   UNL A   1      29.809  28.399  22.197  1.00  0.00    -0.345 N 
ATOM     17  C   UNL A   1      29.167  30.377  23.523  1.00  0.00     0.114 C 
ATOM     18  C   UNL A   1      29.284  29.653  22.217  1.00  0.00     0.217 C 
ATOM     19  O   UNL A   1      28.880  30.145  21.164  1.00  0.00    -0.275 OA
ATOM     20  H   UNL A   1      29.901  27.997  21.303  1.00  0.00     0.164 HD
ENDBRANCH  14  16
ENDBRANCH  12  14
ENDBRANCH   8  12
ENDBRANCH   4   7
ENDBRANCH   2   3
ENDBRANCH   1   2
BRANCH   1  21
ATOM     21  C   UNL A   1      32.704  32.547  26.839  1.00  0.00     0.118 C 
BRANCH  21  22
ATOM     22  N   UNL A   1      32.550  33.825  27.519  1.00  0.00    -0.352 N 
ATOM     23  C   UNL A   1      33.243  34.323  28.596  1.00  0.00     0.251 C 
ATOM     24  H   UNL A   1      31.851  34.416  27.157  1.00  0.00     0.163 HD
ATOM     25  O   UNL A   1      32.837  35.333  29.167  1.00  0.00    -0.269 OA
BRANCH  23  26
ATOM     26  C   UNL A   1      34.463  33.636  29.075  1.00  0.00     0.039 A 
ATOM     27  C   UNL A   1      35.714  34.195  28.796  1.00  0.00     0.014 A 
ATOM     28  C   UNL A   1      34.374  32.445  29.801  1.00  0.00     0.014 A 
ATOM     29  C   UNL A   1      36.870  33.596  29.303  1.00  0.00     0.010 A 
ATOM     30  C   UNL A   1      35.518  31.894  30.368  1.00  0.00     0.010 A 
ATOM     31  C   UNL A   1      36.778  32.461  30.125  1.00  0.00    -0.014 A 
BRANCH  31  32
ATOM     32  C   UNL A   1      37.977  31.853  30.758  1.00  0.00     0.031 A 
ATOM     33  C   UNL A   1      38.750  30.783  30.037  1.00  0.00     0.074 A 
ATOM     34  C   UNL A   1      38.295  32.175  32.028  1.00  0.00     0.049 A 
ATOM     35  N   UNL A   1      39.736  30.043  30.469  1.00  0.00    -0.248 NA
ATOM     36  C   UNL A   1      38.337  30.483  28.655  1.00  0.00     0.031 C 
ATOM     37  C   UNL A   1      37.579  33.144  32.861  1.00  0.00     0.029 A 
ATOM     38  N   UNL A   1      39.277  31.690  32.857  1.00  0.00    -0.354 N 
ATOM     39  C   UNL A   1      40.032  29.160  29.437  1.00  0.00     0.074 A 
ATOM     40  C   UNL A   1      39.102  29.441  28.364  1.00  0.00     0.031 C 
ATOM     41  C   UNL A   1      38.137  33.174  34.080  1.00  0.00     0.029 A 
ATOM     42  C   UNL A   1      39.224  32.202  34.132  1.00  0.00     0.049 A 
ATOM     43  H   UNL A   1      39.954  31.036  32.566  1.00  0.00     0.167 HD
ATOM     44  C   UNL A   1      41.001  28.217  29.377  1.00  0.00     0.034 A 
ATOM     45  C   UNL A   1      39.953  31.908  35.228  1.00  0.00     0.034 A 
ATOM     46  C   UNL A   1      41.949  27.973  30.429  1.00  0.00     0.049 A 
ATOM     47  C   UNL A   1      41.051  30.885  35.124  1.00  0.00     0.074 A 
ATOM     48  C   UNL A   1      43.029  27.107  30.430  1.00  0.00     0.029 A 
ATOM     49  N   UNL A   1      41.929  28.586  31.672  1.00  0.00    -0.354 N 
ATOM     50  N   UNL A   1      41.412  30.168  34.088  1.00  0.00    -0.248 NA
ATOM     51  C   UNL A   1      41.865  30.655  36.326  1.00  0.00     0.031 C 
ATOM     52  C   UNL A   1      43.643  27.175  31.684  1.00  0.00     0.029 A 
ATOM     53  C   UNL A   1      42.969  28.111  32.452  1.00  0.00     0.049 A 
ATOM     54  H   UNL A   1      41.270  29.260  31.959  1.00  0.00     0.167 HD
ATOM     55  C   UNL A   1      42.519  29.435  34.499  1.00  0.00     0.074 A 
ATOM     56  C   UNL A   1      42.777  29.803  35.876  1.00  0.00     0.031 C 
ATOM     57  C   UNL A   1      43.250  28.531  33.801  1.00  0.00     0.034 A 
BRANCH  44  58
ATOM     58  C   UNL A   1      41.112  27.403  28.114  1.00  0.00     0.023 A 
ATOM     59  C   UNL A   1      41.735  27.958  26.977  1.00  0.00     0.012 A 
ATOM     60  C   UNL A   1      40.654  26.071  28.068  1.00  0.00     0.148 A 
ATOM     61  C   UNL A   1      41.865  27.216  25.803  1.00  0.00     0.002 A 
ATOM     62  C   UNL A   1      40.830  25.322  26.911  1.00  0.00     0.091 A 
ATOM     63  F   UNL A   1      40.046  25.566  29.151  1.00  0.00    -0.205 F 
ATOM     64  C   UNL A   1      41.422  25.896  25.775  1.00  0.00     0.022 A 
BRANCH  62  65
ATOM     65  S   UNL A   1      40.371  23.589  26.800  1.00  0.00     0.127 S 
ATOM     66  O   UNL A   1      41.253  23.118  25.733  1.00  0.00    -0.237 OA
ATOM     67  O   UNL A   1      40.712  23.095  28.135  1.00  0.00    -0.237 OA
ATOM     68  O   UNL A   1      38.949  23.569  26.491  1.00  0.00    -0.744 OA
ENDBRANCH  62  65
ENDBRANCH  44  58
BRANCH  45  69
ATOM     69  C   UNL A   1      39.700  32.637  36.504  1.00  0.00     0.023 A 
ATOM     70  C   UNL A   1      40.428  33.810  36.785  1.00  0.00     0.012 A 
ATOM     71  C   UNL A   1      38.722  32.200  37.417  1.00  0.00     0.148 A 
ATOM     72  C   UNL A   1      40.209  34.516  37.969  1.00  0.00     0.002 A 
ATOM     73  C   UNL A   1      38.467  32.940  38.566  1.00  0.00     0.091 A 
ATOM     74  F   UNL A   1      38.046  31.078  37.134  1.00  0.00    -0.205 F 
ATOM     75  C   UNL A   1      39.223  34.088  38.853  1.00  0.00     0.022 A 
BRANCH  73  76
ATOM     76  S   UNL A   1      37.124  32.543  39.691  1.00  0.00     0.127 S 
ATOM     77  O   UNL A   1      37.500  31.209  40.150  1.00  0.00    -0.237 OA
ATOM     78  O   UNL A   1      37.251  33.600  40.696  1.00  0.00    -0.237 OA
ATOM     79  O   UNL A   1      35.907  32.619  38.894  1.00  0.00    -0.744 OA
ENDBRANCH  73  76
ENDBRANCH  45  69
BRANCH  57  80
ATOM     80  C   UNL A   1      44.440  27.910  34.484  1.00  0.00     0.023 A 
ATOM     81  C   UNL A   1      45.695  28.549  34.439  1.00  0.00     0.012 A 
ATOM     82  C   UNL A   1      44.287  26.736  35.249  1.00  0.00     0.148 A 
ATOM     83  C   UNL A   1      46.786  28.014  35.126  1.00  0.00     0.002 A 
ATOM     84  C   UNL A   1      45.365  26.237  35.971  1.00  0.00     0.091 A 
ATOM     85  F   UNL A   1      43.090  26.133  35.263  1.00  0.00    -0.205 F 
ATOM     86  C   UNL A   1      46.618  26.869  35.900  1.00  0.00     0.022 A 
BRANCH  84  87
ATOM     87  S   UNL A   1      45.217  24.828  37.075  1.00  0.00     0.127 S 
ATOM     88  O   UNL A   1      44.195  25.292  38.013  1.00  0.00    -0.237 OA
ATOM     89  O   UNL A   1      44.776  23.769  36.167  1.00  0.00    -0.237 OA
ATOM     90  O   UNL A   1      46.541  24.623  37.646  1.00  0.00    -0.744 OA
ENDBRANCH  84  87
ENDBRANCH  57  80
ENDBRANCH  31  32
ENDBRANCH  23  26
ENDBRANCH  21  22
ENDBRANCH   1  21
TORSDOF 16
ENDMDL
