MODEL 1
REMARK VINA RESULT:     -11.8      0.000      0.000
REMARK SMILES CC(C)N1C(=O)C[C@@H](Sc2csc(C(=O)NCCCNC(=O)c3ccc(-c4c5nc(c(-c6cccc(S(=O)(=O)[O-])c6F)c6ccc([nH]6)c(-c6cccc(S(=O)(=O)[O-])c6F)c6nc(c(-c7cccc(S(=O)(=O)[O-])c7F)c7ccc4[nH]7)C=C6)C=C5)cc3)c2)C1=O
REMARK SMILES IDX 18 1 17 2 16 3 14 4 15 5 13 7 10 8 11 9 86 10 12 11 9 12
REMARK SMILES IDX 8 13 4 14 5 15 87 16 6 17 7 18 88 19 2 20 1 21 3 22 19 23
REMARK SMILES IDX 20 24 21 25 22 27 23 28 24 29 85 30 25 31 84 32 26 33 27 34
REMARK SMILES IDX 28 35 78 36 29 37 83 38 77 39 79 40 30 41 82 42 76 43 75 44
REMARK SMILES IDX 31 46 63 47 43 48 62 49 44 50 47 51 61 52 80 53 45 54 46 55
REMARK SMILES IDX 60 57 81 58 48 59 32 60 33 61 41 62 34 63 36 64 42 65 35 66
REMARK SMILES IDX 37 67 38 68 39 69 40 70 64 71 65 72 73 73 66 74 68 75 74 76
REMARK SMILES IDX 67 77 69 78 70 79 71 80 72 81 49 82 50 83 58 84 51 85 53 86
REMARK SMILES IDX 59 87 52 88 54 89 55 90 56 91 57 92
REMARK H PARENT 16 6 20 26 79 45 47 56
REMARK Flexibility Score: inf
ROOT
ATOM      1  C   UNL A   1      31.465  32.187  26.527  1.00  0.00     0.042 C 
ENDROOT
BRANCH   1   2
ATOM      2  C   UNL A   1      31.654  30.762  26.015  1.00  0.00     0.118 C 
BRANCH   2   3
ATOM      3  N   UNL A   1      31.542  29.798  27.090  1.00  0.00    -0.351 N 
ATOM      4  C   UNL A   1      31.749  28.442  27.124  1.00  0.00     0.261 C 
ATOM      5  O   UNL A   1      31.624  27.925  28.238  1.00  0.00    -0.268 OA
ATOM      6  H   UNL A   1      31.267  30.186  27.952  1.00  0.00     0.163 HD
BRANCH   4   7
ATOM      7  C   UNL A   1      32.129  27.696  25.931  1.00  0.00     0.093 A 
ATOM      8  C   UNL A   1      32.189  26.384  23.973  1.00  0.00     0.020 A 
ATOM      9  C   UNL A   1      33.463  26.882  24.012  1.00  0.00     0.080 A 
ATOM     10  C   UNL A   1      31.462  26.779  25.136  1.00  0.00     0.040 A 
ATOM     11  S   UNL A   1      33.729  27.925  25.338  1.00  0.00    -0.137 S 
BRANCH   8  12
ATOM     12  S   UNL A   1      31.400  25.366  22.778  1.00  0.00    -0.111 SA
BRANCH  12  13
ATOM     13  C   UNL A   1      31.791  23.636  23.114  1.00  0.00     0.150 C 
ATOM     14  N   UNL A   1      33.681  22.742  24.165  1.00  0.00    -0.279 N 
ATOM     15  C   UNL A   1      32.687  22.708  25.103  1.00  0.00     0.231 C 
ATOM     16  C   UNL A   1      33.254  23.302  22.986  1.00  0.00     0.243 C 
ATOM     17  O   UNL A   1      32.799  22.403  26.284  1.00  0.00    -0.274 OA
ATOM     18  C   UNL A   1      31.391  23.151  24.492  1.00  0.00     0.125 C 
ATOM     19  O   UNL A   1      33.944  23.498  21.996  1.00  0.00    -0.273 OA
BRANCH  14  20
ATOM     20  C   UNL A   1      35.095  22.431  24.403  1.00  0.00     0.087 C 
ATOM     21  C   UNL A   1      35.763  23.514  25.254  1.00  0.00     0.031 C 
ATOM     22  C   UNL A   1      35.327  21.053  25.020  1.00  0.00     0.031 C 
ENDBRANCH  14  20
ENDBRANCH  12  13
ENDBRANCH   8  12
ENDBRANCH   4   7
ENDBRANCH   2   3
ENDBRANCH   1   2
BRANCH   1  23
ATOM     23  C   UNL A   1      32.696  32.722  27.252  1.00  0.00     0.118 C 
BRANCH  23  24
ATOM     24  N   UNL A   1      32.532  34.122  27.632  1.00  0.00    -0.352 N 
ATOM     25  C   UNL A   1      33.079  34.824  28.674  1.00  0.00     0.251 C 
ATOM     26  H   UNL A   1      31.933  34.643  27.049  1.00  0.00     0.163 HD
ATOM     27  O   UNL A   1      32.605  35.914  28.982  1.00  0.00    -0.269 OA
BRANCH  25  28
ATOM     28  C   UNL A   1      34.231  34.276  29.417  1.00  0.00     0.039 A 
ATOM     29  C   UNL A   1      33.997  33.504  30.559  1.00  0.00     0.014 A 
ATOM     30  C   UNL A   1      35.538  34.555  29.012  1.00  0.00     0.014 A 
ATOM     31  C   UNL A   1      35.077  32.969  31.261  1.00  0.00     0.010 A 
ATOM     32  C   UNL A   1      36.608  33.954  29.664  1.00  0.00     0.010 A 
ATOM     33  C   UNL A   1      36.390  33.163  30.801  1.00  0.00    -0.014 A 
BRANCH  33  34
ATOM     34  C   UNL A   1      37.547  32.533  31.482  1.00  0.00     0.031 A 
ATOM     35  C   UNL A   1      38.286  31.396  30.832  1.00  0.00     0.074 A 
ATOM     36  C   UNL A   1      37.872  32.929  32.728  1.00  0.00     0.049 A 
ATOM     37  N   UNL A   1      39.280  30.686  31.297  1.00  0.00    -0.248 NA
ATOM     38  C   UNL A   1      37.828  30.983  29.495  1.00  0.00     0.031 C 
ATOM     39  C   UNL A   1      37.180  33.970  33.490  1.00  0.00     0.029 A 
ATOM     40  N   UNL A   1      38.848  32.484  33.583  1.00  0.00    -0.354 N 
ATOM     41  C   UNL A   1      39.543  29.723  30.332  1.00  0.00     0.074 A 
ATOM     42  C   UNL A   1      38.579  29.914  29.271  1.00  0.00     0.031 C 
ATOM     43  C   UNL A   1      37.760  34.093  34.694  1.00  0.00     0.029 A 
ATOM     44  C   UNL A   1      38.836  33.114  34.805  1.00  0.00     0.049 A 
ATOM     45  H   UNL A   1      39.495  31.782  33.345  1.00  0.00     0.167 HD
ATOM     46  C   UNL A   1      40.516  28.780  30.316  1.00  0.00     0.034 A 
ATOM     47  C   UNL A   1      39.599  32.919  35.897  1.00  0.00     0.034 A 
ATOM     48  C   UNL A   1      41.487  28.614  31.364  1.00  0.00     0.049 A 
ATOM     49  C   UNL A   1      40.684  31.878  35.851  1.00  0.00     0.074 A 
ATOM     50  C   UNL A   1      42.566  27.750  31.409  1.00  0.00     0.029 A 
ATOM     51  N   UNL A   1      41.486  29.314  32.563  1.00  0.00    -0.354 N 
ATOM     52  N   UNL A   1      41.021  31.081  34.865  1.00  0.00    -0.248 NA
ATOM     53  C   UNL A   1      41.516  31.733  37.053  1.00  0.00     0.031 C 
ATOM     54  C   UNL A   1      43.193  27.899  32.651  1.00  0.00     0.029 A 
ATOM     55  C   UNL A   1      42.532  28.887  33.362  1.00  0.00     0.049 A 
ATOM     56  H   UNL A   1      40.835  30.011  32.808  1.00  0.00     0.167 HD
ATOM     57  C   UNL A   1      42.123  30.363  35.314  1.00  0.00     0.074 A 
ATOM     58  C   UNL A   1      42.409  30.837  36.653  1.00  0.00     0.031 C 
ATOM     59  C   UNL A   1      42.828  29.395  34.679  1.00  0.00     0.034 A 
BRANCH  46  60
ATOM     60  C   UNL A   1      40.595  27.879  29.109  1.00  0.00     0.023 A 
ATOM     61  C   UNL A   1      39.735  26.766  29.009  1.00  0.00     0.012 A 
ATOM     62  C   UNL A   1      41.494  28.150  28.060  1.00  0.00     0.148 A 
ATOM     63  C   UNL A   1      39.803  25.909  27.911  1.00  0.00     0.002 A 
ATOM     64  C   UNL A   1      41.521  27.321  26.944  1.00  0.00     0.091 A 
ATOM     65  F   UNL A   1      42.319  29.201  28.178  1.00  0.00    -0.205 F 
ATOM     66  C   UNL A   1      40.688  26.192  26.875  1.00  0.00     0.022 A 
BRANCH  64  67
ATOM     67  S   UNL A   1      42.566  27.647  25.520  1.00  0.00     0.127 S 
ATOM     68  O   UNL A   1      43.897  27.637  26.123  1.00  0.00    -0.237 OA
ATOM     69  O   UNL A   1      42.278  26.500  24.659  1.00  0.00    -0.237 OA
ATOM     70  O   UNL A   1      42.129  28.929  24.987  1.00  0.00    -0.744 OA
ENDBRANCH  64  67
ENDBRANCH  46  60
BRANCH  47  71
ATOM     71  C   UNL A   1      39.402  33.773  37.101  1.00  0.00     0.023 A 
ATOM     72  C   UNL A   1      39.827  35.116  37.072  1.00  0.00     0.012 A 
ATOM     73  C   UNL A   1      38.756  33.282  38.252  1.00  0.00     0.148 A 
ATOM     74  C   UNL A   1      39.640  35.945  38.178  1.00  0.00     0.002 A 
ATOM     75  C   UNL A   1      38.521  34.128  39.329  1.00  0.00     0.091 A 
ATOM     76  F   UNL A   1      38.362  32.000  38.259  1.00  0.00    -0.205 F 
ATOM     77  C   UNL A   1      38.979  35.455  39.301  1.00  0.00     0.022 A 
BRANCH  75  78
ATOM     78  S   UNL A   1      37.564  33.626  40.763  1.00  0.00     0.127 S 
ATOM     79  O   UNL A   1      38.459  32.661  41.398  1.00  0.00    -0.237 OA
ATOM     80  O   UNL A   1      37.414  34.893  41.481  1.00  0.00    -0.237 OA
ATOM     81  O   UNL A   1      36.320  33.081  40.239  1.00  0.00    -0.744 OA
ENDBRANCH  75  78
ENDBRANCH  47  71
BRANCH  59  82
ATOM     82  C   UNL A   1      44.006  28.798  35.407  1.00  0.00     0.023 A 
ATOM     83  C   UNL A   1      45.280  29.389  35.292  1.00  0.00     0.012 A 
ATOM     84  C   UNL A   1      43.832  27.692  36.262  1.00  0.00     0.148 A 
ATOM     85  C   UNL A   1      46.368  28.868  35.990  1.00  0.00     0.002 A 
ATOM     86  C   UNL A   1      44.908  27.212  36.996  1.00  0.00     0.091 A 
ATOM     87  F   UNL A   1      42.615  27.133  36.344  1.00  0.00    -0.205 F 
ATOM     88  C   UNL A   1      46.180  27.789  36.851  1.00  0.00     0.022 A 
BRANCH  86  89
ATOM     89  S   UNL A   1      44.742  25.892  38.203  1.00  0.00     0.127 S 
ATOM     90  O   UNL A   1      43.808  26.481  39.161  1.00  0.00    -0.237 OA
ATOM     91  O   UNL A   1      44.186  24.805  37.397  1.00  0.00    -0.237 OA
ATOM     92  O   UNL A   1      46.083  25.642  38.714  1.00  0.00    -0.744 OA
ENDBRANCH  86  89
ENDBRANCH  59  82
ENDBRANCH  33  34
ENDBRANCH  25  28
ENDBRANCH  23  24
ENDBRANCH   1  23
TORSDOF 16
ENDMDL
MODEL 2
REMARK VINA RESULT:     -11.6      3.495      8.740
REMARK SMILES CC(C)N1C(=O)C[C@@H](Sc2csc(C(=O)NCCCNC(=O)c3ccc(-c4c5nc(c(-c6cccc(S(=O)(=O)[O-])c6F)c6ccc([nH]6)c(-c6cccc(S(=O)(=O)[O-])c6F)c6nc(c(-c7cccc(S(=O)(=O)[O-])c7F)c7ccc4[nH]7)C=C6)C=C5)cc3)c2)C1=O
REMARK SMILES IDX 18 1 17 2 16 3 14 4 15 5 13 7 10 8 11 9 86 10 12 11 9 12
REMARK SMILES IDX 8 13 4 14 5 15 87 16 6 17 7 18 88 19 2 20 1 21 3 22 19 23
REMARK SMILES IDX 20 24 21 25 22 27 23 28 24 29 85 30 25 31 84 32 26 33 27 34
REMARK SMILES IDX 28 35 78 36 29 37 83 38 77 39 79 40 30 41 82 42 76 43 75 44
REMARK SMILES IDX 31 46 63 47 43 48 62 49 44 50 47 51 61 52 80 53 45 54 46 55
REMARK SMILES IDX 60 57 81 58 48 59 32 60 33 61 41 62 34 63 36 64 42 65 35 66
REMARK SMILES IDX 37 67 38 68 39 69 40 70 64 71 65 72 73 73 66 74 68 75 74 76
REMARK SMILES IDX 67 77 69 78 70 79 71 80 72 81 49 82 50 83 58 84 51 85 53 86
REMARK SMILES IDX 59 87 52 88 54 89 55 90 56 91 57 92
REMARK H PARENT 16 6 20 26 79 45 47 56
REMARK Flexibility Score: inf
ROOT
ATOM      1  C   UNL A   1      33.182  29.230  24.954  1.00  0.00     0.042 C 
ENDROOT
BRANCH   1   2
ATOM      2  C   UNL A   1      31.679  29.003  25.092  1.00  0.00     0.118 C 
BRANCH   2   3
ATOM      3  N   UNL A   1      30.984  29.318  23.862  1.00  0.00    -0.351 N 
ATOM      4  C   UNL A   1      30.586  28.528  22.811  1.00  0.00     0.261 C 
ATOM      5  O   UNL A   1      29.949  29.116  21.932  1.00  0.00    -0.268 OA
ATOM      6  H   UNL A   1      30.755  30.270  23.759  1.00  0.00     0.163 HD
BRANCH   4   7
ATOM      7  C   UNL A   1      30.869  27.099  22.779  1.00  0.00     0.093 A 
ATOM      8  C   UNL A   1      31.809  24.957  22.483  1.00  0.00     0.020 A 
ATOM      9  C   UNL A   1      30.726  24.679  23.273  1.00  0.00     0.080 A 
ATOM     10  C   UNL A   1      31.823  26.338  22.124  1.00  0.00     0.040 A 
ATOM     11  S   UNL A   1      29.836  26.072  23.696  1.00  0.00    -0.137 S 
BRANCH   8  12
ATOM     12  S   UNL A   1      33.073  23.903  21.871  1.00  0.00    -0.111 SA
BRANCH  12  13
ATOM     13  C   UNL A   1      33.687  22.862  23.213  1.00  0.00     0.150 C 
ATOM     14  N   UNL A   1      32.985  22.789  25.444  1.00  0.00    -0.279 N 
ATOM     15  C   UNL A   1      32.421  21.698  24.844  1.00  0.00     0.231 C 
ATOM     16  C   UNL A   1      33.712  23.544  24.555  1.00  0.00     0.243 C 
ATOM     17  O   UNL A   1      31.610  20.925  25.337  1.00  0.00    -0.274 OA
ATOM     18  C   UNL A   1      32.907  21.583  23.430  1.00  0.00     0.125 C 
ATOM     19  O   UNL A   1      34.283  24.595  24.809  1.00  0.00    -0.273 OA
BRANCH  14  20
ATOM     20  C   UNL A   1      32.708  23.258  26.807  1.00  0.00     0.087 C 
ATOM     21  C   UNL A   1      31.220  23.562  26.994  1.00  0.00     0.031 C 
ATOM     22  C   UNL A   1      33.197  22.306  27.896  1.00  0.00     0.031 C 
ENDBRANCH  14  20
ENDBRANCH  12  13
ENDBRANCH   8  12
ENDBRANCH   4   7
ENDBRANCH   2   3
ENDBRANCH   1   2
BRANCH   1  23
ATOM     23  C   UNL A   1      33.899  29.272  26.300  1.00  0.00     0.118 C 
BRANCH  23  24
ATOM     24  N   UNL A   1      33.799  30.587  26.923  1.00  0.00    -0.352 N 
ATOM     25  C   UNL A   1      34.527  31.137  27.946  1.00  0.00     0.251 C 
ATOM     26  H   UNL A   1      33.099  31.171  26.551  1.00  0.00     0.163 HD
ATOM     27  O   UNL A   1      34.113  32.148  28.506  1.00  0.00    -0.269 OA
BRANCH  25  28
ATOM     28  C   UNL A   1      35.802  30.523  28.367  1.00  0.00     0.039 A 
ATOM     29  C   UNL A   1      36.960  30.792  27.631  1.00  0.00     0.014 A 
ATOM     30  C   UNL A   1      35.849  29.655  29.460  1.00  0.00     0.014 A 
ATOM     31  C   UNL A   1      38.174  30.229  28.027  1.00  0.00     0.010 A 
ATOM     32  C   UNL A   1      37.071  29.163  29.900  1.00  0.00     0.010 A 
ATOM     33  C   UNL A   1      38.244  29.436  29.184  1.00  0.00    -0.014 A 
BRANCH  33  34
ATOM     34  C   UNL A   1      39.538  28.899  29.672  1.00  0.00     0.031 A 
ATOM     35  C   UNL A   1      40.275  29.587  30.787  1.00  0.00     0.074 A 
ATOM     36  C   UNL A   1      40.089  27.841  29.044  1.00  0.00     0.049 A 
ATOM     37  N   UNL A   1      41.440  29.297  31.306  1.00  0.00    -0.248 NA
ATOM     38  C   UNL A   1      39.633  30.772  31.378  1.00  0.00     0.031 C 
ATOM     39  C   UNL A   1      39.503  27.138  27.901  1.00  0.00     0.029 A 
ATOM     40  N   UNL A   1      41.277  27.191  29.261  1.00  0.00    -0.354 N 
ATOM     41  C   UNL A   1      41.687  30.281  32.255  1.00  0.00     0.074 A 
ATOM     42  C   UNL A   1      40.569  31.197  32.214  1.00  0.00     0.031 C 
ATOM     43  C   UNL A   1      40.327  26.148  27.524  1.00  0.00     0.029 A 
ATOM     44  C   UNL A   1      41.515  26.171  28.371  1.00  0.00     0.049 A 
ATOM     45  H   UNL A   1      41.900  27.432  29.984  1.00  0.00     0.167 HD
ATOM     46  C   UNL A   1      42.737  30.398  33.103  1.00  0.00     0.034 A 
ATOM     47  C   UNL A   1      42.576  25.352  28.242  1.00  0.00     0.034 A 
ATOM     48  C   UNL A   1      43.832  29.467  33.155  1.00  0.00     0.049 A 
ATOM     49  C   UNL A   1      43.723  25.489  29.206  1.00  0.00     0.074 A 
ATOM     50  C   UNL A   1      44.901  29.442  34.032  1.00  0.00     0.029 A 
ATOM     51  N   UNL A   1      44.010  28.405  32.279  1.00  0.00    -0.354 N 
ATOM     52  N   UNL A   1      43.867  26.330  30.202  1.00  0.00    -0.248 NA
ATOM     53  C   UNL A   1      44.837  24.544  29.050  1.00  0.00     0.031 C 
ATOM     54  C   UNL A   1      45.746  28.390  33.662  1.00  0.00     0.029 A 
ATOM     55  C   UNL A   1      45.181  27.731  32.582  1.00  0.00     0.049 A 
ATOM     56  H   UNL A   1      43.393  28.166  31.550  1.00  0.00     0.167 HD
ATOM     57  C   UNL A   1      45.069  25.995  30.812  1.00  0.00     0.074 A 
ATOM     58  C   UNL A   1      45.602  24.860  30.086  1.00  0.00     0.031 C 
ATOM     59  C   UNL A   1      45.680  26.579  31.873  1.00  0.00     0.034 A 
BRANCH  46  60
ATOM     60  C   UNL A   1      42.730  31.558  34.067  1.00  0.00     0.023 A 
ATOM     61  C   UNL A   1      43.321  32.783  33.692  1.00  0.00     0.012 A 
ATOM     62  C   UNL A   1      42.112  31.450  35.327  1.00  0.00     0.148 A 
ATOM     63  C   UNL A   1      43.341  33.864  34.573  1.00  0.00     0.002 A 
ATOM     64  C   UNL A   1      42.092  32.548  36.181  1.00  0.00     0.091 A 
ATOM     65  F   UNL A   1      41.572  30.274  35.677  1.00  0.00    -0.205 F 
ATOM     66  C   UNL A   1      42.719  33.749  35.812  1.00  0.00     0.022 A 
BRANCH  64  67
ATOM     67  S   UNL A   1      41.243  32.528  37.764  1.00  0.00     0.127 S 
ATOM     68  O   UNL A   1      42.062  31.585  38.524  1.00  0.00    -0.237 OA
ATOM     69  O   UNL A   1      41.361  33.921  38.193  1.00  0.00    -0.237 OA
ATOM     70  O   UNL A   1      39.883  32.092  37.484  1.00  0.00    -0.744 OA
ENDBRANCH  64  67
ENDBRANCH  46  60
BRANCH  47  71
ATOM     71  C   UNL A   1      42.569  24.289  27.198  1.00  0.00     0.023 A 
ATOM     72  C   UNL A   1      43.239  24.515  25.980  1.00  0.00     0.012 A 
ATOM     73  C   UNL A   1      41.948  23.046  27.420  1.00  0.00     0.148 A 
ATOM     74  C   UNL A   1      43.265  23.532  24.990  1.00  0.00     0.002 A 
ATOM     75  C   UNL A   1      42.025  22.050  26.453  1.00  0.00     0.091 A 
ATOM     76  F   UNL A   1      41.313  22.854  28.585  1.00  0.00    -0.205 F 
ATOM     77  C   UNL A   1      42.668  22.298  25.231  1.00  0.00     0.022 A 
BRANCH  75  78
ATOM     78  S   UNL A   1      41.402  20.388  26.725  1.00  0.00     0.127 S 
ATOM     79  O   UNL A   1      39.967  20.626  26.867  1.00  0.00    -0.237 OA
ATOM     80  O   UNL A   1      41.795  19.715  25.486  1.00  0.00    -0.237 OA
ATOM     81  O   UNL A   1      42.080  19.899  27.916  1.00  0.00    -0.744 OA
ENDBRANCH  75  78
ENDBRANCH  47  71
BRANCH  59  82
ATOM     82  C   UNL A   1      46.984  25.985  32.341  1.00  0.00     0.023 A 
ATOM     83  C   UNL A   1      48.204  26.456  31.817  1.00  0.00     0.012 A 
ATOM     84  C   UNL A   1      47.000  25.007  33.356  1.00  0.00     0.148 A 
ATOM     85  C   UNL A   1      49.417  25.940  32.270  1.00  0.00     0.002 A 
ATOM     86  C   UNL A   1      48.213  24.536  33.841  1.00  0.00     0.091 A 
ATOM     87  F   UNL A   1      45.828  24.559  33.830  1.00  0.00    -0.205 F 
ATOM     88  C   UNL A   1      49.422  24.991  33.290  1.00  0.00     0.022 A 
BRANCH  86  89
ATOM     89  S   UNL A   1      48.323  23.389  35.219  1.00  0.00     0.127 S 
ATOM     90  O   UNL A   1      47.545  24.081  36.245  1.00  0.00    -0.237 OA
ATOM     91  O   UNL A   1      47.685  22.190  34.673  1.00  0.00    -0.237 OA
ATOM     92  O   UNL A   1      49.743  23.241  35.508  1.00  0.00    -0.744 OA
ENDBRANCH  86  89
ENDBRANCH  59  82
ENDBRANCH  33  34
ENDBRANCH  25  28
ENDBRANCH  23  24
ENDBRANCH   1  23
TORSDOF 16
ENDMDL
MODEL 3
REMARK VINA RESULT:     -11.4      5.897      9.232
REMARK SMILES CC(C)N1C(=O)C[C@@H](Sc2csc(C(=O)NCCCNC(=O)c3ccc(-c4c5nc(c(-c6cccc(S(=O)(=O)[O-])c6F)c6ccc([nH]6)c(-c6cccc(S(=O)(=O)[O-])c6F)c6nc(c(-c7cccc(S(=O)(=O)[O-])c7F)c7ccc4[nH]7)C=C6)C=C5)cc3)c2)C1=O
REMARK SMILES IDX 18 1 17 2 16 3 14 4 15 5 13 7 10 8 11 9 86 10 12 11 9 12
REMARK SMILES IDX 8 13 4 14 5 15 87 16 6 17 7 18 88 19 2 20 1 21 3 22 19 23
REMARK SMILES IDX 20 24 21 25 22 27 23 28 24 29 85 30 25 31 84 32 26 33 27 34
REMARK SMILES IDX 28 35 78 36 29 37 83 38 77 39 79 40 30 41 82 42 76 43 75 44
REMARK SMILES IDX 31 46 63 47 43 48 62 49 44 50 47 51 61 52 80 53 45 54 46 55
REMARK SMILES IDX 60 57 81 58 48 59 32 60 33 61 41 62 34 63 36 64 42 65 35 66
REMARK SMILES IDX 37 67 38 68 39 69 40 70 64 71 65 72 73 73 66 74 68 75 74 76
REMARK SMILES IDX 67 77 69 78 70 79 71 80 72 81 49 82 50 83 58 84 51 85 53 86
REMARK SMILES IDX 59 87 52 88 54 89 55 90 56 91 57 92
REMARK H PARENT 16 6 20 26 79 45 47 56
REMARK Flexibility Score: inf
ROOT
ATOM      1  C   UNL A   1      36.815  20.493  24.784  1.00  0.00     0.042 C 
ENDROOT
BRANCH   1   2
ATOM      2  C   UNL A   1      35.420  21.082  24.977  1.00  0.00     0.118 C 
BRANCH   2   3
ATOM      3  N   UNL A   1      34.419  20.040  25.072  1.00  0.00    -0.351 N 
ATOM      4  C   UNL A   1      33.049  20.082  25.000  1.00  0.00     0.261 C 
ATOM      5  O   UNL A   1      32.491  18.982  25.059  1.00  0.00    -0.268 OA
ATOM      6  H   UNL A   1      34.787  19.138  25.214  1.00  0.00     0.163 HD
BRANCH   4   7
ATOM      7  C   UNL A   1      32.331  21.338  24.825  1.00  0.00     0.093 A 
ATOM      8  C   UNL A   1      31.217  23.398  25.105  1.00  0.00     0.020 A 
ATOM      9  C   UNL A   1      31.355  23.339  23.745  1.00  0.00     0.080 A 
ATOM     10  C   UNL A   1      31.693  22.194  25.708  1.00  0.00     0.040 A 
ATOM     11  S   UNL A   1      32.176  21.938  23.219  1.00  0.00    -0.137 S 
BRANCH   8  12
ATOM     12  S   UNL A   1      30.548  24.658  26.129  1.00  0.00    -0.111 SA
BRANCH  12  13
ATOM     13  C   UNL A   1      31.033  26.274  25.486  1.00  0.00     0.150 C 
ATOM     14  N   UNL A   1      32.286  26.768  23.573  1.00  0.00    -0.279 N 
ATOM     15  C   UNL A   1      30.985  27.016  23.235  1.00  0.00     0.231 C 
ATOM     16  C   UNL A   1      32.402  26.297  24.859  1.00  0.00     0.243 C 
ATOM     17  O   UNL A   1      30.555  27.302  22.125  1.00  0.00    -0.274 OA
ATOM     18  C   UNL A   1      30.104  26.844  24.436  1.00  0.00     0.125 C 
ATOM     19  O   UNL A   1      33.441  25.953  25.404  1.00  0.00    -0.273 OA
BRANCH  14  20
ATOM     20  C   UNL A   1      33.429  26.783  22.653  1.00  0.00     0.087 C 
ATOM     21  C   UNL A   1      33.178  25.875  21.446  1.00  0.00     0.031 C 
ATOM     22  C   UNL A   1      33.829  28.183  22.190  1.00  0.00     0.031 C 
ENDBRANCH  14  20
ENDBRANCH  12  13
ENDBRANCH   8  12
ENDBRANCH   4   7
ENDBRANCH   2   3
ENDBRANCH   1   2
BRANCH   1  23
ATOM     23  C   UNL A   1      37.890  21.258  25.552  1.00  0.00     0.118 C 
BRANCH  23  24
ATOM     24  N   UNL A   1      38.932  20.366  26.051  1.00  0.00    -0.352 N 
ATOM     25  C   UNL A   1      40.196  20.649  26.500  1.00  0.00     0.251 C 
ATOM     26  H   UNL A   1      38.690  19.412  26.068  1.00  0.00     0.163 HD
ATOM     27  O   UNL A   1      41.012  19.740  26.618  1.00  0.00    -0.269 OA
BRANCH  25  28
ATOM     28  C   UNL A   1      40.571  22.035  26.843  1.00  0.00     0.039 A 
ATOM     29  C   UNL A   1      41.390  22.262  27.953  1.00  0.00     0.014 A 
ATOM     30  C   UNL A   1      40.087  23.111  26.095  1.00  0.00     0.014 A 
ATOM     31  C   UNL A   1      41.763  23.565  28.279  1.00  0.00     0.010 A 
ATOM     32  C   UNL A   1      40.526  24.400  26.372  1.00  0.00     0.010 A 
ATOM     33  C   UNL A   1      41.360  24.642  27.472  1.00  0.00    -0.014 A 
BRANCH  33  34
ATOM     34  C   UNL A   1      41.816  26.026  27.749  1.00  0.00     0.031 A 
ATOM     35  C   UNL A   1      43.217  26.450  27.402  1.00  0.00     0.074 A 
ATOM     36  C   UNL A   1      40.992  26.872  28.398  1.00  0.00     0.049 A 
ATOM     37  N   UNL A   1      43.808  27.595  27.621  1.00  0.00    -0.248 NA
ATOM     38  C   UNL A   1      44.073  25.447  26.750  1.00  0.00     0.031 C 
ATOM     39  C   UNL A   1      39.638  26.549  28.853  1.00  0.00     0.029 A 
ATOM     40  N   UNL A   1      41.182  28.166  28.812  1.00  0.00    -0.354 N 
ATOM     41  C   UNL A   1      45.113  27.440  27.169  1.00  0.00     0.074 A 
ATOM     42  C   UNL A   1      45.237  26.078  26.699  1.00  0.00     0.031 C 
ATOM     43  C   UNL A   1      39.115  27.618  29.472  1.00  0.00     0.029 A 
ATOM     44  C   UNL A   1      40.108  28.687  29.494  1.00  0.00     0.049 A 
ATOM     45  H   UNL A   1      42.008  28.672  28.639  1.00  0.00     0.167 HD
ATOM     46  C   UNL A   1      46.110  28.356  27.124  1.00  0.00     0.034 A 
ATOM     47  C   UNL A   1      39.943  29.888  30.081  1.00  0.00     0.034 A 
ATOM     48  C   UNL A   1      45.969  29.716  27.570  1.00  0.00     0.049 A 
ATOM     49  C   UNL A   1      41.059  30.894  30.004  1.00  0.00     0.074 A 
ATOM     50  C   UNL A   1      46.887  30.748  27.490  1.00  0.00     0.029 A 
ATOM     51  N   UNL A   1      44.844  30.230  28.198  1.00  0.00    -0.354 N 
ATOM     52  N   UNL A   1      42.233  30.782  29.431  1.00  0.00    -0.248 NA
ATOM     53  C   UNL A   1      40.814  32.204  30.623  1.00  0.00     0.031 C 
ATOM     54  C   UNL A   1      46.331  31.875  28.106  1.00  0.00     0.029 A 
ATOM     55  C   UNL A   1      45.051  31.558  28.530  1.00  0.00     0.049 A 
ATOM     56  H   UNL A   1      44.019  29.724  28.381  1.00  0.00     0.167 HD
ATOM     57  C   UNL A   1      42.855  32.014  29.591  1.00  0.00     0.074 A 
ATOM     58  C   UNL A   1      41.916  32.864  30.296  1.00  0.00     0.031 C 
ATOM     59  C   UNL A   1      44.093  32.404  29.198  1.00  0.00     0.034 A 
BRANCH  46  60
ATOM     60  C   UNL A   1      47.432  27.920  26.542  1.00  0.00     0.023 A 
ATOM     61  C   UNL A   1      48.481  27.532  27.400  1.00  0.00     0.012 A 
ATOM     62  C   UNL A   1      47.626  27.862  25.149  1.00  0.00     0.148 A 
ATOM     63  C   UNL A   1      49.717  27.143  26.884  1.00  0.00     0.002 A 
ATOM     64  C   UNL A   1      48.844  27.424  24.640  1.00  0.00     0.091 A 
ATOM     65  F   UNL A   1      46.625  28.252  24.345  1.00  0.00    -0.205 F 
ATOM     66  C   UNL A   1      49.894  27.080  25.506  1.00  0.00     0.022 A 
BRANCH  64  67
ATOM     67  S   UNL A   1      49.144  27.227  22.880  1.00  0.00     0.127 S 
ATOM     68  O   UNL A   1      50.591  27.026  22.849  1.00  0.00    -0.237 OA
ATOM     69  O   UNL A   1      48.356  26.035  22.566  1.00  0.00    -0.237 OA
ATOM     70  O   UNL A   1      48.669  28.452  22.253  1.00  0.00    -0.744 OA
ENDBRANCH  64  67
ENDBRANCH  46  60
BRANCH  47  71
ATOM     71  C   UNL A   1      38.648  30.221  30.736  1.00  0.00     0.023 A 
ATOM     72  C   UNL A   1      38.421  29.811  32.064  1.00  0.00     0.012 A 
ATOM     73  C   UNL A   1      37.663  30.977  30.072  1.00  0.00     0.148 A 
ATOM     74  C   UNL A   1      37.224  30.124  32.710  1.00  0.00     0.002 A 
ATOM     75  C   UNL A   1      36.497  31.334  30.739  1.00  0.00     0.091 A 
ATOM     76  F   UNL A   1      37.899  31.354  28.807  1.00  0.00    -0.205 F 
ATOM     77  C   UNL A   1      36.268  30.893  32.052  1.00  0.00     0.022 A 
BRANCH  75  78
ATOM     78  S   UNL A   1      35.269  32.430  30.021  1.00  0.00     0.127 S 
ATOM     79  O   UNL A   1      34.759  31.624  28.914  1.00  0.00    -0.237 OA
ATOM     80  O   UNL A   1      34.337  32.606  31.136  1.00  0.00    -0.237 OA
ATOM     81  O   UNL A   1      35.988  33.638  29.642  1.00  0.00    -0.744 OA
ENDBRANCH  75  78
ENDBRANCH  47  71
BRANCH  59  82
ATOM     82  C   UNL A   1      44.502  33.826  29.488  1.00  0.00     0.023 A 
ATOM     83  C   UNL A   1      45.117  34.147  30.713  1.00  0.00     0.012 A 
ATOM     84  C   UNL A   1      44.339  34.829  28.512  1.00  0.00     0.148 A 
ATOM     85  C   UNL A   1      45.533  35.451  30.977  1.00  0.00     0.002 A 
ATOM     86  C   UNL A   1      44.806  36.114  28.759  1.00  0.00     0.091 A 
ATOM     87  F   UNL A   1      43.735  34.506  27.358  1.00  0.00    -0.205 F 
ATOM     88  C   UNL A   1      45.390  36.430  29.996  1.00  0.00     0.022 A 
BRANCH  86  89
ATOM     89  S   UNL A   1      44.755  37.415  27.522  1.00  0.00     0.127 S 
ATOM     90  O   UNL A   1      45.138  38.587  28.307  1.00  0.00    -0.237 OA
ATOM     91  O   UNL A   1      45.763  36.966  26.561  1.00  0.00    -0.237 OA
ATOM     92  O   UNL A   1      43.392  37.429  27.008  1.00  0.00    -0.744 OA
ENDBRANCH  86  89
ENDBRANCH  59  82
ENDBRANCH  33  34
ENDBRANCH  25  28
ENDBRANCH  23  24
ENDBRANCH   1  23
TORSDOF 16
ENDMDL
