MODEL 1
REMARK VINA RESULT:     -13.2      0.000      0.000
REMARK SMILES Cc1ccc(NC(=O)C[NH+]2CCN(c3ccc(C(=O)NCCCNC(=O)c4ccc(-c5c6nc(c(-c7cccc(S(=O)(=O)[O-])c7F)c7ccc([nH]7)c(-c7cccc(S(=O)(=O)[O-])c7F)c7nc(c(-c8cccc(S(=O)(=O)[O-])c8F)c8ccc5[nH]8)C=C7)C=C6)cc4)cc3NS(C)(=O)=O)CC2)cc1
REMARK SMILES IDX 21 1 20 2 18 3 19 4 17 6 14 7 15 8 91 9 16 10 90 11 13 12
REMARK SMILES IDX 10 13 11 14 98 15 12 17 97 18 9 19 7 20 6 21 8 23 5 24 1 25
REMARK SMILES IDX 2 26 3 27 100 28 4 29 99 30 92 31 93 33 94 34 95 35 96 36
REMARK SMILES IDX 22 37 23 38 24 39 25 40 26 42 27 43 28 44 89 45 29 46 88 47
REMARK SMILES IDX 30 48 31 49 32 50 82 51 33 52 87 53 81 54 83 55 34 56 86 57
REMARK SMILES IDX 80 58 79 59 35 61 67 62 47 63 66 64 48 65 51 66 65 67 84 68
REMARK SMILES IDX 49 69 50 70 64 72 85 73 52 74 36 75 37 76 45 77 38 78 40 79
REMARK SMILES IDX 46 80 39 81 41 82 42 83 43 84 44 85 68 86 69 87 77 88 70 89
REMARK SMILES IDX 72 90 78 91 71 92 73 93 74 94 75 95 76 96 53 97 54 98 62 99
REMARK SMILES IDX 55 100 57 101 63 102 56 103 58 104 59 105 60 106 61 107
REMARK H PARENT 20 5 10 16 6 22 92 32 24 41 83 60 51 71
REMARK Flexibility Score: inf
ROOT
ATOM      1  C   UNL A   1      34.829  29.935  27.505  1.00  0.00     0.118 C 
ENDROOT
BRANCH   1   2
ATOM      2  N   UNL A   1      33.603  30.589  27.078  1.00  0.00    -0.352 N 
ATOM      3  C   UNL A   1      32.486  30.091  26.454  1.00  0.00     0.251 C 
ATOM      4  O   UNL A   1      31.593  30.877  26.144  1.00  0.00    -0.269 OA
ATOM      5  H   UNL A   1      33.568  31.553  27.269  1.00  0.00     0.163 HD
BRANCH   3   6
ATOM      6  C   UNL A   1      32.300  28.640  26.158  1.00  0.00     0.042 A 
ATOM      7  C   UNL A   1      32.075  25.897  25.526  1.00  0.00     0.062 A 
ATOM      8  C   UNL A   1      31.375  26.456  26.597  1.00  0.00     0.029 A 
ATOM      9  C   UNL A   1      32.878  26.750  24.706  1.00  0.00     0.073 A 
ATOM     10  C   UNL A   1      31.529  27.782  26.927  1.00  0.00     0.016 A 
ATOM     11  C   UNL A   1      32.977  28.106  25.051  1.00  0.00     0.042 A 
BRANCH   7  12
ATOM     12  N   UNL A   1      32.031  24.480  25.466  1.00  0.00    -0.359 N 
ATOM     13  N   UNL A   1      31.675  21.732  26.369  1.00  0.00    -0.324 N 
ATOM     14  C   UNL A   1      32.617  22.570  27.120  1.00  0.00     0.284 C 
ATOM     15  C   UNL A   1      30.475  22.580  26.180  1.00  0.00     0.284 C 
ATOM     16  H   UNL A   1      31.475  20.872  26.880  1.00  0.00     0.348 HD
ATOM     17  C   UNL A   1      32.988  23.902  26.459  1.00  0.00     0.178 C 
ATOM     18  C   UNL A   1      30.671  23.895  25.373  1.00  0.00     0.178 C 
BRANCH  13  19
ATOM     19  C   UNL A   1      32.216  21.273  25.057  1.00  0.00     0.364 C 
BRANCH  19  20
ATOM     20  C   UNL A   1      33.015  19.955  25.138  1.00  0.00     0.279 C 
ATOM     21  N   UNL A   1      34.377  19.858  24.980  1.00  0.00    -0.321 N 
ATOM     22  H   UNL A   1      34.719  18.937  25.040  1.00  0.00     0.170 HD
ATOM     23  O   UNL A   1      32.428  18.896  25.409  1.00  0.00    -0.268 OA
BRANCH  21  24
ATOM     24  C   UNL A   1      35.372  20.818  24.751  1.00  0.00     0.041 A 
ATOM     25  C   UNL A   1      37.970  23.956  25.928  1.00  0.00     0.044 C 
ATOM     26  C   UNL A   1      37.243  22.846  25.218  1.00  0.00    -0.051 A 
ATOM     27  C   UNL A   1      36.053  23.095  24.531  1.00  0.00     0.005 A 
ATOM     28  C   UNL A   1      37.601  21.519  25.423  1.00  0.00     0.005 A 
ATOM     29  C   UNL A   1      35.120  22.088  24.267  1.00  0.00     0.026 A 
ATOM     30  C   UNL A   1      36.671  20.503  25.171  1.00  0.00     0.026 A 
ENDBRANCH  21  24
ENDBRANCH  19  20
ENDBRANCH  13  19
ENDBRANCH   7  12
BRANCH   9  31
ATOM     31  N   UNL A   1      33.582  26.188  23.583  1.00  0.00    -0.282 N 
ATOM     32  H   UNL A   1      34.370  25.640  23.806  1.00  0.00     0.180 HD
BRANCH  31  33
ATOM     33  S   UNL A   1      33.243  26.336  21.945  1.00  0.00     0.229 S 
ATOM     34  C   UNL A   1      31.481  26.639  21.880  1.00  0.00     0.183 C 
ATOM     35  O   UNL A   1      33.871  27.568  21.533  1.00  0.00    -0.207 OA
ATOM     36  O   UNL A   1      33.504  25.107  21.219  1.00  0.00    -0.207 OA
ENDBRANCH  31  33
ENDBRANCH   9  31
ENDBRANCH   3   6
ENDBRANCH   1   2
BRANCH   1  37
ATOM     37  C   UNL A   1      35.558  30.800  28.528  1.00  0.00     0.042 C 
BRANCH  37  38
ATOM     38  C   UNL A   1      36.300  31.943  27.902  1.00  0.00     0.118 C 
BRANCH  38  39
ATOM     39  N   UNL A   1      35.589  33.192  28.021  1.00  0.00    -0.352 N 
ATOM     40  C   UNL A   1      35.600  34.085  29.073  1.00  0.00     0.251 C 
ATOM     41  H   UNL A   1      35.024  33.439  27.255  1.00  0.00     0.163 HD
ATOM     42  O   UNL A   1      34.719  34.937  29.121  1.00  0.00    -0.269 OA
BRANCH  40  43
ATOM     43  C   UNL A   1      36.768  34.114  29.992  1.00  0.00     0.039 A 
ATOM     44  C   UNL A   1      37.997  34.349  29.368  1.00  0.00     0.014 A 
ATOM     45  C   UNL A   1      36.727  33.513  31.246  1.00  0.00     0.014 A 
ATOM     46  C   UNL A   1      39.113  33.655  29.798  1.00  0.00     0.010 A 
ATOM     47  C   UNL A   1      37.792  32.738  31.615  1.00  0.00     0.010 A 
ATOM     48  C   UNL A   1      38.937  32.737  30.816  1.00  0.00    -0.014 A 
BRANCH  48  49
ATOM     49  C   UNL A   1      39.919  31.765  31.224  1.00  0.00     0.031 A 
ATOM     50  C   UNL A   1      39.866  30.463  30.559  1.00  0.00     0.074 A 
ATOM     51  C   UNL A   1      41.006  32.270  31.845  1.00  0.00     0.049 A 
ATOM     52  N   UNL A   1      40.669  29.501  30.817  1.00  0.00    -0.248 NA
ATOM     53  C   UNL A   1      38.875  30.136  29.530  1.00  0.00     0.031 C 
ATOM     54  C   UNL A   1      42.384  31.807  31.806  1.00  0.00     0.029 A 
ATOM     55  N   UNL A   1      41.039  33.323  32.756  1.00  0.00    -0.354 N 
ATOM     56  C   UNL A   1      40.577  28.640  29.748  1.00  0.00     0.074 A 
ATOM     57  C   UNL A   1      39.334  28.959  29.100  1.00  0.00     0.031 C 
ATOM     58  C   UNL A   1      43.074  32.390  32.804  1.00  0.00     0.029 A 
ATOM     59  C   UNL A   1      42.106  33.082  33.639  1.00  0.00     0.049 A 
ATOM     60  H   UNL A   1      40.427  34.094  32.778  1.00  0.00     0.167 HD
ATOM     61  C   UNL A   1      41.681  27.918  29.428  1.00  0.00     0.034 A 
ATOM     62  C   UNL A   1      41.815  32.744  34.937  1.00  0.00     0.034 A 
ATOM     63  C   UNL A   1      42.681  28.023  30.505  1.00  0.00     0.049 A 
ATOM     64  C   UNL A   1      42.140  31.288  35.251  1.00  0.00     0.074 A 
ATOM     65  C   UNL A   1      43.883  28.696  30.633  1.00  0.00     0.029 A 
ATOM     66  N   UNL A   1      42.305  27.655  31.797  1.00  0.00    -0.354 N 
ATOM     67  N   UNL A   1      42.499  30.405  34.357  1.00  0.00    -0.248 NA
ATOM     68  C   UNL A   1      42.127  30.716  36.594  1.00  0.00     0.031 C 
ATOM     69  C   UNL A   1      44.142  28.857  32.032  1.00  0.00     0.029 A 
ATOM     70  C   UNL A   1      43.131  28.236  32.748  1.00  0.00     0.049 A 
ATOM     71  H   UNL A   1      41.550  27.060  32.006  1.00  0.00     0.167 HD
ATOM     72  C   UNL A   1      42.645  29.170  34.925  1.00  0.00     0.074 A 
ATOM     73  C   UNL A   1      42.476  29.441  36.346  1.00  0.00     0.031 C 
ATOM     74  C   UNL A   1      42.846  28.038  34.174  1.00  0.00     0.034 A 
BRANCH  61  75
ATOM     75  C   UNL A   1      41.956  27.283  28.078  1.00  0.00     0.023 A 
ATOM     76  C   UNL A   1      41.917  28.142  26.960  1.00  0.00     0.012 A 
ATOM     77  C   UNL A   1      42.157  25.904  27.797  1.00  0.00     0.148 A 
ATOM     78  C   UNL A   1      42.068  27.673  25.650  1.00  0.00     0.002 A 
ATOM     79  C   UNL A   1      42.380  25.446  26.495  1.00  0.00     0.091 A 
ATOM     80  F   UNL A   1      42.038  24.992  28.767  1.00  0.00    -0.205 F 
ATOM     81  C   UNL A   1      42.320  26.330  25.416  1.00  0.00     0.022 A 
BRANCH  79  82
ATOM     82  S   UNL A   1      42.771  23.725  26.116  1.00  0.00     0.127 S 
ATOM     83  O   UNL A   1      43.755  23.397  27.149  1.00  0.00    -0.237 OA
ATOM     84  O   UNL A   1      41.476  23.065  26.282  1.00  0.00    -0.237 OA
ATOM     85  O   UNL A   1      43.281  23.711  24.751  1.00  0.00    -0.744 OA
ENDBRANCH  79  82
ENDBRANCH  61  75
BRANCH  62  86
ATOM     86  C   UNL A   1      40.638  33.536  35.443  1.00  0.00     0.023 A 
ATOM     87  C   UNL A   1      39.368  32.921  35.276  1.00  0.00     0.012 A 
ATOM     88  C   UNL A   1      40.789  34.492  36.463  1.00  0.00     0.148 A 
ATOM     89  C   UNL A   1      38.373  33.059  36.246  1.00  0.00     0.002 A 
ATOM     90  C   UNL A   1      39.773  34.654  37.408  1.00  0.00     0.091 A 
ATOM     91  F   UNL A   1      41.937  35.178  36.538  1.00  0.00    -0.205 F 
ATOM     92  C   UNL A   1      38.599  33.884  37.342  1.00  0.00     0.022 A 
BRANCH  90  93
ATOM     93  S   UNL A   1      39.965  35.784  38.794  1.00  0.00     0.127 S 
ATOM     94  O   UNL A   1      39.781  37.079  38.146  1.00  0.00    -0.237 OA
ATOM     95  O   UNL A   1      38.874  35.397  39.688  1.00  0.00    -0.237 OA
ATOM     96  O   UNL A   1      41.293  35.513  39.321  1.00  0.00    -0.744 OA
ENDBRANCH  90  93
ENDBRANCH  62  86
BRANCH  74  97
ATOM     97  C   UNL A   1      42.766  26.609  34.699  1.00  0.00     0.023 A 
ATOM     98  C   UNL A   1      41.600  26.071  35.273  1.00  0.00     0.012 A 
ATOM     99  C   UNL A   1      43.839  25.698  34.493  1.00  0.00     0.148 A 
ATOM    100  C   UNL A   1      41.520  24.736  35.687  1.00  0.00     0.002 A 
ATOM    101  C   UNL A   1      43.701  24.341  34.770  1.00  0.00     0.091 A 
ATOM    102  F   UNL A   1      45.023  26.140  34.047  1.00  0.00    -0.205 F 
ATOM    103  C   UNL A   1      42.560  23.862  35.409  1.00  0.00     0.022 A 
BRANCH 101 104
ATOM    104  S   UNL A   1      44.897  23.142  34.162  1.00  0.00     0.127 S 
ATOM    105  O   UNL A   1      44.906  23.423  32.729  1.00  0.00    -0.237 OA
ATOM    106  O   UNL A   1      46.118  23.537  34.870  1.00  0.00    -0.237 OA
ATOM    107  O   UNL A   1      44.375  21.840  34.559  1.00  0.00    -0.744 OA
ENDBRANCH 101 104
ENDBRANCH  74  97
ENDBRANCH  48  49
ENDBRANCH  40  43
ENDBRANCH  38  39
ENDBRANCH  37  38
ENDBRANCH   1  37
TORSDOF 19
ENDMDL
MODEL 2
REMARK VINA RESULT:     -13.1      3.244      8.493
REMARK SMILES Cc1ccc(NC(=O)C[NH+]2CCN(c3ccc(C(=O)NCCCNC(=O)c4ccc(-c5c6nc(c(-c7cccc(S(=O)(=O)[O-])c7F)c7ccc([nH]7)c(-c7cccc(S(=O)(=O)[O-])c7F)c7nc(c(-c8cccc(S(=O)(=O)[O-])c8F)c8ccc5[nH]8)C=C7)C=C6)cc4)cc3NS(C)(=O)=O)CC2)cc1
REMARK SMILES IDX 21 1 20 2 18 3 19 4 17 6 14 7 15 8 91 9 16 10 90 11 13 12
REMARK SMILES IDX 10 13 11 14 98 15 12 17 97 18 9 19 7 20 6 21 8 23 5 24 1 25
REMARK SMILES IDX 2 26 3 27 100 28 4 29 99 30 92 31 93 33 94 34 95 35 96 36
REMARK SMILES IDX 22 37 23 38 24 39 25 40 26 42 27 43 28 44 89 45 29 46 88 47
REMARK SMILES IDX 30 48 31 49 32 50 82 51 33 52 87 53 81 54 83 55 34 56 86 57
REMARK SMILES IDX 80 58 79 59 35 61 67 62 47 63 66 64 48 65 51 66 65 67 84 68
REMARK SMILES IDX 49 69 50 70 64 72 85 73 52 74 36 75 37 76 45 77 38 78 40 79
REMARK SMILES IDX 46 80 39 81 41 82 42 83 43 84 44 85 68 86 69 87 77 88 70 89
REMARK SMILES IDX 72 90 78 91 71 92 73 93 74 94 75 95 76 96 53 97 54 98 62 99
REMARK SMILES IDX 55 100 57 101 63 102 56 103 58 104 59 105 60 106 61 107
REMARK H PARENT 20 5 10 16 6 22 92 32 24 41 83 60 51 71
REMARK Flexibility Score: inf
ROOT
ATOM      1  C   UNL A   1      38.807  23.516  26.702  1.00  0.00     0.118 C 
ENDROOT
BRANCH   1   2
ATOM      2  N   UNL A   1      38.627  22.184  26.150  1.00  0.00    -0.352 N 
ATOM      3  C   UNL A   1      37.617  21.654  25.386  1.00  0.00     0.251 C 
ATOM      4  O   UNL A   1      37.675  20.461  25.090  1.00  0.00    -0.269 OA
ATOM      5  H   UNL A   1      39.354  21.554  26.359  1.00  0.00     0.163 HD
BRANCH   3   6
ATOM      6  C   UNL A   1      36.468  22.463  24.883  1.00  0.00     0.042 A 
ATOM      7  C   UNL A   1      34.279  24.048  24.067  1.00  0.00     0.062 A 
ATOM      8  C   UNL A   1      35.220  23.580  23.148  1.00  0.00     0.029 A 
ATOM      9  C   UNL A   1      34.406  23.667  25.439  1.00  0.00     0.073 A 
ATOM     10  C   UNL A   1      36.310  22.851  23.562  1.00  0.00     0.016 A 
ATOM     11  C   UNL A   1      35.509  22.887  25.815  1.00  0.00     0.042 A 
BRANCH   7  12
ATOM     12  N   UNL A   1      33.367  25.001  23.546  1.00  0.00    -0.359 N 
ATOM     13  N   UNL A   1      32.312  27.077  21.792  1.00  0.00    -0.324 N 
ATOM     14  C   UNL A   1      33.609  27.331  22.432  1.00  0.00     0.284 C 
ATOM     15  C   UNL A   1      32.404  25.691  21.279  1.00  0.00     0.284 C 
ATOM     16  H   UNL A   1      32.136  27.761  21.057  1.00  0.00     0.348 HD
ATOM     17  C   UNL A   1      33.996  26.359  23.550  1.00  0.00     0.178 C 
ATOM     18  C   UNL A   1      32.628  24.570  22.333  1.00  0.00     0.178 C 
BRANCH  13  19
ATOM     19  C   UNL A   1      31.160  27.225  22.727  1.00  0.00     0.364 C 
BRANCH  19  20
ATOM     20  C   UNL A   1      30.600  28.662  22.806  1.00  0.00     0.279 C 
ATOM     21  N   UNL A   1      30.727  29.489  23.896  1.00  0.00    -0.321 N 
ATOM     22  H   UNL A   1      30.290  30.364  23.785  1.00  0.00     0.170 HD
ATOM     23  O   UNL A   1      30.032  29.155  21.820  1.00  0.00    -0.268 OA
BRANCH  21  24
ATOM     24  C   UNL A   1      31.359  29.326  25.137  1.00  0.00     0.041 A 
ATOM     25  C   UNL A   1      34.738  29.203  27.695  1.00  0.00     0.044 C 
ATOM     26  C   UNL A   1      33.360  29.238  27.090  1.00  0.00    -0.051 A 
ATOM     27  C   UNL A   1      32.761  28.074  26.608  1.00  0.00     0.005 A 
ATOM     28  C   UNL A   1      32.754  30.450  26.781  1.00  0.00     0.005 A 
ATOM     29  C   UNL A   1      31.742  28.101  25.652  1.00  0.00     0.026 A 
ATOM     30  C   UNL A   1      31.739  30.490  25.818  1.00  0.00     0.026 A 
ENDBRANCH  21  24
ENDBRANCH  19  20
ENDBRANCH  13  19
ENDBRANCH   7  12
BRANCH   9  31
ATOM     31  N   UNL A   1      33.424  24.121  26.390  1.00  0.00    -0.282 N 
ATOM     32  H   UNL A   1      33.550  25.038  26.726  1.00  0.00     0.180 HD
BRANCH  31  33
ATOM     33  S   UNL A   1      32.091  23.303  27.002  1.00  0.00     0.229 S 
ATOM     34  C   UNL A   1      31.646  22.147  25.711  1.00  0.00     0.183 C 
ATOM     35  O   UNL A   1      32.600  22.502  28.090  1.00  0.00    -0.207 OA
ATOM     36  O   UNL A   1      30.958  24.183  27.213  1.00  0.00    -0.207 OA
ENDBRANCH  31  33
ENDBRANCH   9  31
ENDBRANCH   3   6
ENDBRANCH   1   2
BRANCH   1  37
ATOM     37  C   UNL A   1      39.883  24.268  25.925  1.00  0.00     0.042 C 
BRANCH  37  38
ATOM     38  C   UNL A   1      40.752  25.117  26.805  1.00  0.00     0.118 C 
BRANCH  38  39
ATOM     39  N   UNL A   1      40.621  26.523  26.514  1.00  0.00    -0.352 N 
ATOM     40  C   UNL A   1      40.220  27.538  27.359  1.00  0.00     0.251 C 
ATOM     41  H   UNL A   1      40.847  26.794  25.595  1.00  0.00     0.163 HD
ATOM     42  O   UNL A   1      39.892  28.611  26.863  1.00  0.00    -0.269 OA
BRANCH  40  43
ATOM     43  C   UNL A   1      40.381  27.370  28.827  1.00  0.00     0.039 A 
ATOM     44  C   UNL A   1      39.192  27.456  29.558  1.00  0.00     0.014 A 
ATOM     45  C   UNL A   1      41.603  27.577  29.456  1.00  0.00     0.014 A 
ATOM     46  C   UNL A   1      39.199  28.110  30.776  1.00  0.00     0.010 A 
ATOM     47  C   UNL A   1      41.609  28.322  30.604  1.00  0.00     0.010 A 
ATOM     48  C   UNL A   1      40.390  28.673  31.189  1.00  0.00    -0.014 A 
BRANCH  48  49
ATOM     49  C   UNL A   1      40.529  29.585  32.295  1.00  0.00     0.031 A 
ATOM     50  C   UNL A   1      40.980  29.011  33.563  1.00  0.00     0.074 A 
ATOM     51  C   UNL A   1      40.635  30.888  31.959  1.00  0.00     0.049 A 
ATOM     52  N   UNL A   1      41.148  29.694  34.633  1.00  0.00    -0.248 NA
ATOM     53  C   UNL A   1      41.279  27.586  33.728  1.00  0.00     0.031 C 
ATOM     54  C   UNL A   1      41.394  31.946  32.607  1.00  0.00     0.029 A 
ATOM     55  N   UNL A   1      39.953  31.550  30.939  1.00  0.00    -0.354 N 
ATOM     56  C   UNL A   1      41.941  28.921  35.449  1.00  0.00     0.074 A 
ATOM     57  C   UNL A   1      41.820  27.580  34.949  1.00  0.00     0.031 C 
ATOM     58  C   UNL A   1      40.972  33.138  32.145  1.00  0.00     0.029 A 
ATOM     59  C   UNL A   1      39.786  32.885  31.344  1.00  0.00     0.049 A 
ATOM     60  H   UNL A   1      39.645  31.154  30.092  1.00  0.00     0.167 HD
ATOM     61  C   UNL A   1      42.769  29.566  36.310  1.00  0.00     0.034 A 
ATOM     62  C   UNL A   1      38.523  33.316  31.666  1.00  0.00     0.034 A 
ATOM     63  C   UNL A   1      42.423  30.997  36.366  1.00  0.00     0.049 A 
ATOM     64  C   UNL A   1      38.354  33.572  33.160  1.00  0.00     0.074 A 
ATOM     65  C   UNL A   1      43.012  32.145  35.868  1.00  0.00     0.029 A 
ATOM     66  N   UNL A   1      41.117  31.349  36.706  1.00  0.00    -0.354 N 
ATOM     67  N   UNL A   1      39.245  33.265  34.065  1.00  0.00    -0.248 NA
ATOM     68  C   UNL A   1      37.191  34.227  33.752  1.00  0.00     0.031 C 
ATOM     69  C   UNL A   1      41.995  33.148  35.774  1.00  0.00     0.029 A 
ATOM     70  C   UNL A   1      40.808  32.628  36.265  1.00  0.00     0.049 A 
ATOM     71  H   UNL A   1      40.494  30.765  37.196  1.00  0.00     0.167 HD
ATOM     72  C   UNL A   1      38.778  33.542  35.320  1.00  0.00     0.074 A 
ATOM     73  C   UNL A   1      37.515  34.217  35.058  1.00  0.00     0.031 C 
ATOM     74  C   UNL A   1      39.449  33.151  36.452  1.00  0.00     0.034 A 
BRANCH  61  75
ATOM     75  C   UNL A   1      44.009  28.970  36.949  1.00  0.00     0.023 A 
ATOM     76  C   UNL A   1      45.208  29.699  36.791  1.00  0.00     0.012 A 
ATOM     77  C   UNL A   1      44.125  27.717  37.609  1.00  0.00     0.148 A 
ATOM     78  C   UNL A   1      46.440  29.223  37.256  1.00  0.00     0.002 A 
ATOM     79  C   UNL A   1      45.342  27.276  38.137  1.00  0.00     0.091 A 
ATOM     80  F   UNL A   1      43.085  26.879  37.655  1.00  0.00    -0.205 F 
ATOM     81  C   UNL A   1      46.506  28.023  37.947  1.00  0.00     0.022 A 
BRANCH  79  82
ATOM     82  S   UNL A   1      45.498  25.755  39.098  1.00  0.00     0.127 S 
ATOM     83  O   UNL A   1      46.933  25.715  39.383  1.00  0.00    -0.237 OA
ATOM     84  O   UNL A   1      44.657  26.032  40.262  1.00  0.00    -0.237 OA
ATOM     85  O   UNL A   1      45.008  24.680  38.245  1.00  0.00    -0.744 OA
ENDBRANCH  79  82
ENDBRANCH  61  75
BRANCH  62  86
ATOM     86  C   UNL A   1      37.503  32.722  30.730  1.00  0.00     0.023 A 
ATOM     87  C   UNL A   1      36.892  31.518  31.173  1.00  0.00     0.012 A 
ATOM     88  C   UNL A   1      36.808  33.525  29.808  1.00  0.00     0.148 A 
ATOM     89  C   UNL A   1      35.544  31.262  30.912  1.00  0.00     0.002 A 
ATOM     90  C   UNL A   1      35.471  33.239  29.521  1.00  0.00     0.091 A 
ATOM     91  F   UNL A   1      37.431  34.585  29.278  1.00  0.00    -0.205 F 
ATOM     92  C   UNL A   1      34.819  32.154  30.131  1.00  0.00     0.022 A 
BRANCH  90  93
ATOM     93  S   UNL A   1      34.507  34.300  28.434  1.00  0.00     0.127 S 
ATOM     94  O   UNL A   1      34.447  35.537  29.207  1.00  0.00    -0.237 OA
ATOM     95  O   UNL A   1      35.336  34.381  27.232  1.00  0.00    -0.237 OA
ATOM     96  O   UNL A   1      33.246  33.600  28.244  1.00  0.00    -0.744 OA
ENDBRANCH  90  93
ENDBRANCH  62  86
BRANCH  74  97
ATOM     97  C   UNL A   1      38.884  33.193  37.868  1.00  0.00     0.023 A 
ATOM     98  C   UNL A   1      39.184  34.222  38.779  1.00  0.00     0.012 A 
ATOM     99  C   UNL A   1      37.897  32.257  38.285  1.00  0.00     0.148 A 
ATOM    100  C   UNL A   1      38.603  34.285  40.051  1.00  0.00     0.002 A 
ATOM    101  C   UNL A   1      37.218  32.409  39.489  1.00  0.00     0.091 A 
ATOM    102  F   UNL A   1      37.621  31.186  37.527  1.00  0.00    -0.205 F 
ATOM    103  C   UNL A   1      37.597  33.395  40.396  1.00  0.00     0.022 A 
BRANCH 101 104
ATOM    104  S   UNL A   1      35.726  31.466  39.839  1.00  0.00     0.127 S 
ATOM    105  O   UNL A   1      35.931  30.264  39.037  1.00  0.00    -0.237 OA
ATOM    106  O   UNL A   1      35.824  31.259  41.287  1.00  0.00    -0.237 OA
ATOM    107  O   UNL A   1      34.621  32.327  39.437  1.00  0.00    -0.744 OA
ENDBRANCH 101 104
ENDBRANCH  74  97
ENDBRANCH  48  49
ENDBRANCH  40  43
ENDBRANCH  38  39
ENDBRANCH  37  38
ENDBRANCH   1  37
TORSDOF 19
ENDMDL
MODEL 3
REMARK VINA RESULT:     -12.5      5.222      8.628
REMARK SMILES Cc1ccc(NC(=O)C[NH+]2CCN(c3ccc(C(=O)NCCCNC(=O)c4ccc(-c5c6nc(c(-c7cccc(S(=O)(=O)[O-])c7F)c7ccc([nH]7)c(-c7cccc(S(=O)(=O)[O-])c7F)c7nc(c(-c8cccc(S(=O)(=O)[O-])c8F)c8ccc5[nH]8)C=C7)C=C6)cc4)cc3NS(C)(=O)=O)CC2)cc1
REMARK SMILES IDX 21 1 20 2 18 3 19 4 17 6 14 7 15 8 91 9 16 10 90 11 13 12
REMARK SMILES IDX 10 13 11 14 98 15 12 17 97 18 9 19 7 20 6 21 8 23 5 24 1 25
REMARK SMILES IDX 2 26 3 27 100 28 4 29 99 30 92 31 93 33 94 34 95 35 96 36
REMARK SMILES IDX 22 37 23 38 24 39 25 40 26 42 27 43 28 44 89 45 29 46 88 47
REMARK SMILES IDX 30 48 31 49 32 50 82 51 33 52 87 53 81 54 83 55 34 56 86 57
REMARK SMILES IDX 80 58 79 59 35 61 67 62 47 63 66 64 48 65 51 66 65 67 84 68
REMARK SMILES IDX 49 69 50 70 64 72 85 73 52 74 36 75 37 76 45 77 38 78 40 79
REMARK SMILES IDX 46 80 39 81 41 82 42 83 43 84 44 85 68 86 69 87 77 88 70 89
REMARK SMILES IDX 72 90 78 91 71 92 73 93 74 94 75 95 76 96 53 97 54 98 62 99
REMARK SMILES IDX 55 100 57 101 63 102 56 103 58 104 59 105 60 106 61 107
REMARK H PARENT 20 5 10 16 6 22 92 32 24 41 83 60 51 71
REMARK Flexibility Score: inf
ROOT
ATOM      1  C   UNL A   1      38.926  22.437  25.473  1.00  0.00     0.118 C 
ENDROOT
BRANCH   1   2
ATOM      2  N   UNL A   1      38.309  21.124  25.401  1.00  0.00    -0.352 N 
ATOM      3  C   UNL A   1      37.043  20.742  25.032  1.00  0.00     0.251 C 
ATOM      4  O   UNL A   1      36.746  19.552  25.113  1.00  0.00    -0.269 OA
ATOM      5  H   UNL A   1      38.900  20.381  25.660  1.00  0.00     0.163 HD
BRANCH   3   6
ATOM      6  C   UNL A   1      36.022  21.703  24.519  1.00  0.00     0.042 A 
ATOM      7  C   UNL A   1      34.020  23.506  23.676  1.00  0.00     0.062 A 
ATOM      8  C   UNL A   1      35.285  23.498  23.086  1.00  0.00     0.029 A 
ATOM      9  C   UNL A   1      33.724  22.543  24.690  1.00  0.00     0.073 A 
ATOM     10  C   UNL A   1      36.269  22.650  23.538  1.00  0.00     0.016 A 
ATOM     11  C   UNL A   1      34.742  21.666  25.094  1.00  0.00     0.042 A 
BRANCH   7  12
ATOM     12  N   UNL A   1      33.200  24.601  23.300  1.00  0.00    -0.359 N 
ATOM     13  N   UNL A   1      32.410  27.078  21.981  1.00  0.00    -0.324 N 
ATOM     14  C   UNL A   1      33.631  27.109  22.796  1.00  0.00     0.284 C 
ATOM     15  C   UNL A   1      32.523  25.844  21.169  1.00  0.00     0.284 C 
ATOM     16  H   UNL A   1      32.338  27.921  21.412  1.00  0.00     0.348 HD
ATOM     17  C   UNL A   1      33.860  25.885  23.689  1.00  0.00     0.178 C 
ATOM     18  C   UNL A   1      32.594  24.501  21.949  1.00  0.00     0.178 C 
BRANCH  13  19
ATOM     19  C   UNL A   1      31.162  27.067  22.797  1.00  0.00     0.364 C 
BRANCH  19  20
ATOM     20  C   UNL A   1      30.460  28.440  22.883  1.00  0.00     0.279 C 
ATOM     21  N   UNL A   1      30.548  29.294  23.956  1.00  0.00    -0.321 N 
ATOM     22  H   UNL A   1      30.019  30.117  23.853  1.00  0.00     0.170 HD
ATOM     23  O   UNL A   1      29.802  28.855  21.917  1.00  0.00    -0.268 OA
BRANCH  21  24
ATOM     24  C   UNL A   1      31.247  29.219  25.169  1.00  0.00     0.041 A 
ATOM     25  C   UNL A   1      34.767  29.178  27.532  1.00  0.00     0.044 C 
ATOM     26  C   UNL A   1      33.358  29.221  27.005  1.00  0.00    -0.051 A 
ATOM     27  C   UNL A   1      32.684  28.046  26.672  1.00  0.00     0.005 A 
ATOM     28  C   UNL A   1      32.784  30.425  26.616  1.00  0.00     0.005 A 
ATOM     29  C   UNL A   1      31.610  28.031  25.776  1.00  0.00     0.026 A 
ATOM     30  C   UNL A   1      31.715  30.423  25.712  1.00  0.00     0.026 A 
ENDBRANCH  21  24
ENDBRANCH  19  20
ENDBRANCH  13  19
ENDBRANCH   7  12
BRANCH   9  31
ATOM     31  N   UNL A   1      32.412  22.526  25.285  1.00  0.00    -0.282 N 
ATOM     32  H   UNL A   1      31.732  22.005  24.798  1.00  0.00     0.180 HD
BRANCH  31  33
ATOM     33  S   UNL A   1      31.884  23.270  26.694  1.00  0.00     0.229 S 
ATOM     34  C   UNL A   1      30.161  22.804  26.825  1.00  0.00     0.183 C 
ATOM     35  O   UNL A   1      32.562  22.583  27.768  1.00  0.00    -0.207 OA
ATOM     36  O   UNL A   1      31.943  24.716  26.603  1.00  0.00    -0.207 OA
ENDBRANCH  31  33
ENDBRANCH   9  31
ENDBRANCH   3   6
ENDBRANCH   1   2
BRANCH   1  37
ATOM     37  C   UNL A   1      38.471  23.165  26.734  1.00  0.00     0.042 C 
BRANCH  37  38
ATOM     38  C   UNL A   1      39.216  24.445  26.970  1.00  0.00     0.118 C 
BRANCH  38  39
ATOM     39  N   UNL A   1      40.271  24.652  26.008  1.00  0.00    -0.352 N 
ATOM     40  C   UNL A   1      41.460  25.331  26.177  1.00  0.00     0.251 C 
ATOM     41  H   UNL A   1      40.123  24.258  25.119  1.00  0.00     0.163 HD
ATOM     42  O   UNL A   1      42.094  25.649  25.176  1.00  0.00    -0.269 OA
BRANCH  40  43
ATOM     43  C   UNL A   1      42.027  25.480  27.543  1.00  0.00     0.039 A 
ATOM     44  C   UNL A   1      42.438  26.777  27.866  1.00  0.00     0.014 A 
ATOM     45  C   UNL A   1      42.531  24.393  28.248  1.00  0.00     0.014 A 
ATOM     46  C   UNL A   1      43.601  26.951  28.594  1.00  0.00     0.010 A 
ATOM     47  C   UNL A   1      43.739  24.545  28.873  1.00  0.00     0.010 A 
ATOM     48  C   UNL A   1      44.311  25.818  28.938  1.00  0.00    -0.014 A 
BRANCH  48  49
ATOM     49  C   UNL A   1      45.647  25.816  29.478  1.00  0.00     0.031 A 
ATOM     50  C   UNL A   1      46.695  25.253  28.628  1.00  0.00     0.074 A 
ATOM     51  C   UNL A   1      45.859  26.682  30.492  1.00  0.00     0.049 A 
ATOM     52  N   UNL A   1      47.927  25.182  28.971  1.00  0.00    -0.248 NA
ATOM     53  C   UNL A   1      46.429  24.709  27.293  1.00  0.00     0.031 C 
ATOM     54  C   UNL A   1      47.062  27.427  30.828  1.00  0.00     0.029 A 
ATOM     55  N   UNL A   1      44.978  26.997  31.525  1.00  0.00    -0.354 N 
ATOM     56  C   UNL A   1      48.629  24.993  27.803  1.00  0.00     0.074 A 
ATOM     57  C   UNL A   1      47.672  24.506  26.849  1.00  0.00     0.031 C 
ATOM     58  C   UNL A   1      46.945  27.914  32.078  1.00  0.00     0.029 A 
ATOM     59  C   UNL A   1      45.752  27.317  32.654  1.00  0.00     0.049 A 
ATOM     60  H   UNL A   1      43.995  26.995  31.474  1.00  0.00     0.167 HD
ATOM     61  C   UNL A   1      49.892  25.488  27.745  1.00  0.00     0.034 A 
ATOM     62  C   UNL A   1      45.753  26.443  33.713  1.00  0.00     0.034 A 
ATOM     63  C   UNL A   1      50.337  25.892  29.091  1.00  0.00     0.049 A 
ATOM     64  C   UNL A   1      47.083  25.715  33.872  1.00  0.00     0.074 A 
ATOM     65  C   UNL A   1      50.519  27.115  29.711  1.00  0.00     0.029 A 
ATOM     66  N   UNL A   1      50.310  24.941  30.111  1.00  0.00    -0.354 N 
ATOM     67  N   UNL A   1      48.064  25.778  33.010  1.00  0.00    -0.248 NA
ATOM     68  C   UNL A   1      47.433  24.891  35.025  1.00  0.00     0.031 C 
ATOM     69  C   UNL A   1      50.449  26.898  31.125  1.00  0.00     0.029 A 
ATOM     70  C   UNL A   1      50.281  25.543  31.361  1.00  0.00     0.049 A 
ATOM     71  H   UNL A   1      50.312  23.968  29.963  1.00  0.00     0.167 HD
ATOM     72  C   UNL A   1      49.092  24.958  33.384  1.00  0.00     0.074 A 
ATOM     73  C   UNL A   1      48.675  24.486  34.697  1.00  0.00     0.031 C 
ATOM     74  C   UNL A   1      50.165  24.710  32.564  1.00  0.00     0.034 A 
BRANCH  61  75
ATOM     75  C   UNL A   1      50.658  25.797  26.474  1.00  0.00     0.023 A 
ATOM     76  C   UNL A   1      51.943  25.226  26.360  1.00  0.00     0.012 A 
ATOM     77  C   UNL A   1      50.270  26.671  25.422  1.00  0.00     0.148 A 
ATOM     78  C   UNL A   1      52.791  25.497  25.280  1.00  0.00     0.002 A 
ATOM     79  C   UNL A   1      51.087  26.884  24.307  1.00  0.00     0.091 A 
ATOM     80  F   UNL A   1      49.149  27.392  25.521  1.00  0.00    -0.205 F 
ATOM     81  C   UNL A   1      52.358  26.309  24.242  1.00  0.00     0.022 A 
BRANCH  79  82
ATOM     82  S   UNL A   1      50.572  27.880  22.892  1.00  0.00     0.127 S 
ATOM     83  O   UNL A   1      51.297  29.132  23.114  1.00  0.00    -0.237 OA
ATOM     84  O   UNL A   1      51.057  27.091  21.760  1.00  0.00    -0.237 OA
ATOM     85  O   UNL A   1      49.120  27.985  22.972  1.00  0.00    -0.744 OA
ENDBRANCH  79  82
ENDBRANCH  61  75
BRANCH  62  86
ATOM     86  C   UNL A   1      44.378  25.870  33.932  1.00  0.00     0.023 A 
ATOM     87  C   UNL A   1      44.209  24.515  33.539  1.00  0.00     0.012 A 
ATOM     88  C   UNL A   1      43.520  26.393  34.916  1.00  0.00     0.148 A 
ATOM     89  C   UNL A   1      43.399  23.651  34.280  1.00  0.00     0.002 A 
ATOM     90  C   UNL A   1      42.682  25.529  35.626  1.00  0.00     0.091 A 
ATOM     91  F   UNL A   1      43.577  27.703  35.191  1.00  0.00    -0.205 F 
ATOM     92  C   UNL A   1      42.678  24.149  35.359  1.00  0.00     0.022 A 
BRANCH  90  93
ATOM     93  S   UNL A   1      41.648  26.132  36.968  1.00  0.00     0.127 S 
ATOM     94  O   UNL A   1      42.642  26.431  37.995  1.00  0.00    -0.237 OA
ATOM     95  O   UNL A   1      41.010  27.313  36.387  1.00  0.00    -0.237 OA
ATOM     96  O   UNL A   1      40.732  25.040  37.259  1.00  0.00    -0.744 OA
ENDBRANCH  90  93
ENDBRANCH  62  86
BRANCH  74  97
ATOM     97  C   UNL A   1      51.214  23.628  32.792  1.00  0.00     0.023 A 
ATOM     98  C   UNL A   1      52.595  23.867  32.671  1.00  0.00     0.012 A 
ATOM     99  C   UNL A   1      50.843  22.347  33.289  1.00  0.00     0.148 A 
ATOM    100  C   UNL A   1      53.550  22.882  32.952  1.00  0.00     0.002 A 
ATOM    101  C   UNL A   1      51.798  21.426  33.705  1.00  0.00     0.091 A 
ATOM    102  F   UNL A   1      49.551  21.993  33.341  1.00  0.00    -0.205 F 
ATOM    103  C   UNL A   1      53.154  21.670  33.497  1.00  0.00     0.022 A 
BRANCH 101 104
ATOM    104  S   UNL A   1      51.338  19.983  34.677  1.00  0.00     0.127 S 
ATOM    105  O   UNL A   1      49.944  19.789  34.288  1.00  0.00    -0.237 OA
ATOM    106  O   UNL A   1      52.261  18.963  34.171  1.00  0.00    -0.237 OA
ATOM    107  O   UNL A   1      51.573  20.361  36.064  1.00  0.00    -0.744 OA
ENDBRANCH 101 104
ENDBRANCH  74  97
ENDBRANCH  48  49
ENDBRANCH  40  43
ENDBRANCH  38  39
ENDBRANCH  37  38
ENDBRANCH   1  37
TORSDOF 19
ENDMDL
