MODEL 1
REMARK VINA RESULT:     -12.8      0.000      0.000
REMARK SMILES CC1=C(C)C[C@@H](C(=O)Nc2sc3c(c2C#N)CCC3)[C@H](C(=O)NCCCNC(=O)c2ccc(-c3c4nc(c(-c5cccc(S(=O)(=O)[O-])c5F)c5ccc([nH]5)c(-c5cccc(S(=O)(=O)[O-])c5F)c5nc(c(-c6cccc(S(=O)(=O)[O-])c6F)c6ccc3[nH]6)C=C5)C=C4)cc2)C1
REMARK SMILES IDX 25 1 24 2 23 3 21 4 22 5 20 7 1 8 2 9 3 10 93 11 4 12 5 13
REMARK SMILES IDX 6 14 7 15 8 16 9 17 10 19 11 20 14 21 12 22 13 23 19 24
REMARK SMILES IDX 17 25 18 26 15 27 16 28 26 29 27 30 28 31 29 33 30 34 31 35
REMARK SMILES IDX 92 36 32 37 91 38 33 39 34 40 35 41 85 42 36 43 90 44 84 45
REMARK SMILES IDX 86 46 37 47 89 48 83 49 82 50 38 52 70 53 50 54 69 55 51 56
REMARK SMILES IDX 54 57 68 58 87 59 52 60 53 61 67 63 88 64 55 65 39 66 40 67
REMARK SMILES IDX 48 68 41 69 43 70 49 71 42 72 44 73 45 74 46 75 47 76 71 77
REMARK SMILES IDX 72 78 80 79 73 80 75 81 81 82 74 83 76 84 77 85 78 86 79 87
REMARK SMILES IDX 56 88 57 89 65 90 58 91 60 92 66 93 59 94 61 95 62 96 63 97
REMARK SMILES IDX 64 98
REMARK H PARENT 23 6 9 18 27 32 86 51 54 62
REMARK Flexibility Score: inf
ROOT
ATOM      1  C   UNL A   1      37.435  21.319  24.692  1.00  0.00     0.042 C 
ENDROOT
BRANCH   1   2
ATOM      2  C   UNL A   1      36.506  22.487  24.961  1.00  0.00     0.117 C 
BRANCH   2   3
ATOM      3  N   UNL A   1      35.947  22.558  26.292  1.00  0.00    -0.356 N 
ATOM      4  C   UNL A   1      34.704  22.964  26.684  1.00  0.00     0.224 C 
ATOM      5  O   UNL A   1      34.366  22.743  27.847  1.00  0.00    -0.275 OA
ATOM      6  H   UNL A   1      36.547  22.273  27.018  1.00  0.00     0.163 HD
BRANCH   4   7
ATOM      7  C   UNL A   1      33.746  23.691  25.731  1.00  0.00     0.095 C 
ATOM      8  C   UNL A   1      34.131  27.610  25.768  1.00  0.00     0.039 C 
ATOM      9  C   UNL A   1      33.427  26.281  25.859  1.00  0.00    -0.074 C 
ATOM     10  C   UNL A   1      32.241  26.142  26.491  1.00  0.00    -0.074 C 
ATOM     11  C   UNL A   1      34.267  25.101  25.405  1.00  0.00     0.045 C 
ATOM     12  C   UNL A   1      31.451  27.293  27.069  1.00  0.00     0.039 C 
ATOM     13  C   UNL A   1      31.640  24.798  26.819  1.00  0.00     0.045 C 
ATOM     14  C   UNL A   1      32.299  23.553  26.218  1.00  0.00     0.095 C 
BRANCH  14  15
ATOM     15  C   UNL A   1      31.309  22.856  25.265  1.00  0.00     0.229 C 
ATOM     16  O   UNL A   1      30.847  21.752  25.581  1.00  0.00    -0.274 OA
ATOM     17  N   UNL A   1      30.741  23.447  24.172  1.00  0.00    -0.316 N 
ATOM     18  H   UNL A   1      30.038  22.933  23.713  1.00  0.00     0.170 HD
BRANCH  17  19
ATOM     19  C   UNL A   1      31.040  24.671  23.643  1.00  0.00     0.114 A 
ATOM     20  S   UNL A   1      29.867  25.895  23.933  1.00  0.00    -0.121 S 
ATOM     21  C   UNL A   1      32.047  25.100  22.799  1.00  0.00     0.090 A 
ATOM     22  C   UNL A   1      30.910  27.043  23.303  1.00  0.00     0.011 A 
ATOM     23  C   UNL A   1      32.045  26.514  22.753  1.00  0.00    -0.014 A 
ATOM     24  C   UNL A   1      30.828  28.517  23.219  1.00  0.00     0.047 C 
ATOM     25  C   UNL A   1      32.957  27.573  22.258  1.00  0.00     0.038 C 
ATOM     26  C   UNL A   1      32.281  28.880  22.785  1.00  0.00     0.010 C 
BRANCH  21  27
ATOM     27  C   UNL A   1      32.973  24.260  22.115  1.00  0.00     0.103 C 
ATOM     28  N   UNL A   1      33.684  23.550  21.517  1.00  0.00    -0.192 NA
ENDBRANCH  21  27
ENDBRANCH  17  19
ENDBRANCH  14  15
ENDBRANCH   4   7
ENDBRANCH   2   3
ENDBRANCH   1   2
BRANCH   1  29
ATOM     29  C   UNL A   1      38.555  21.320  25.696  1.00  0.00     0.118 C 
BRANCH  29  30
ATOM     30  N   UNL A   1      39.321  20.061  25.675  1.00  0.00    -0.352 N 
ATOM     31  C   UNL A   1      40.681  19.908  25.870  1.00  0.00     0.251 C 
ATOM     32  H   UNL A   1      38.807  19.239  25.504  1.00  0.00     0.163 HD
ATOM     33  O   UNL A   1      41.272  18.886  25.548  1.00  0.00    -0.269 OA
BRANCH  31  34
ATOM     34  C   UNL A   1      41.377  21.031  26.510  1.00  0.00     0.039 A 
ATOM     35  C   UNL A   1      41.908  22.088  25.774  1.00  0.00     0.014 A 
ATOM     36  C   UNL A   1      41.276  21.076  27.897  1.00  0.00     0.014 A 
ATOM     37  C   UNL A   1      42.263  23.241  26.464  1.00  0.00     0.010 A 
ATOM     38  C   UNL A   1      41.366  22.291  28.512  1.00  0.00     0.010 A 
ATOM     39  C   UNL A   1      41.952  23.345  27.833  1.00  0.00    -0.014 A 
BRANCH  39  40
ATOM     40  C   UNL A   1      42.081  24.599  28.560  1.00  0.00     0.031 A 
ATOM     41  C   UNL A   1      40.898  25.477  28.380  1.00  0.00     0.074 A 
ATOM     42  C   UNL A   1      43.082  24.835  29.441  1.00  0.00     0.049 A 
ATOM     43  N   UNL A   1      40.781  26.437  27.524  1.00  0.00    -0.248 NA
ATOM     44  C   UNL A   1      39.622  25.098  29.011  1.00  0.00     0.031 C 
ATOM     45  C   UNL A   1      44.108  23.892  29.920  1.00  0.00     0.029 A 
ATOM     46  N   UNL A   1      43.345  25.943  30.183  1.00  0.00    -0.354 N 
ATOM     47  C   UNL A   1      39.533  26.996  27.778  1.00  0.00     0.074 A 
ATOM     48  C   UNL A   1      38.782  25.975  28.452  1.00  0.00     0.031 C 
ATOM     49  C   UNL A   1      44.707  24.385  31.028  1.00  0.00     0.029 A 
ATOM     50  C   UNL A   1      44.259  25.748  31.220  1.00  0.00     0.049 A 
ATOM     51  H   UNL A   1      42.923  26.815  30.004  1.00  0.00     0.167 HD
ATOM     52  C   UNL A   1      39.386  28.352  27.762  1.00  0.00     0.034 A 
ATOM     53  C   UNL A   1      44.625  26.651  32.163  1.00  0.00     0.034 A 
ATOM     54  C   UNL A   1      40.576  28.962  27.211  1.00  0.00     0.049 A 
ATOM     55  C   UNL A   1      44.326  27.983  31.604  1.00  0.00     0.074 A 
ATOM     56  C   UNL A   1      41.199  29.022  25.983  1.00  0.00     0.029 A 
ATOM     57  N   UNL A   1      41.519  29.245  28.168  1.00  0.00    -0.354 N 
ATOM     58  N   UNL A   1      44.947  28.467  30.566  1.00  0.00    -0.248 NA
ATOM     59  C   UNL A   1      43.057  28.617  31.933  1.00  0.00     0.031 C 
ATOM     60  C   UNL A   1      42.594  29.123  26.263  1.00  0.00     0.029 A 
ATOM     61  C   UNL A   1      42.779  29.207  27.644  1.00  0.00     0.049 A 
ATOM     62  H   UNL A   1      41.313  29.449  29.108  1.00  0.00     0.167 HD
ATOM     63  C   UNL A   1      43.945  29.099  29.851  1.00  0.00     0.074 A 
ATOM     64  C   UNL A   1      42.872  29.325  30.814  1.00  0.00     0.031 C 
ATOM     65  C   UNL A   1      43.949  29.074  28.486  1.00  0.00     0.034 A 
BRANCH  52  66
ATOM     66  C   UNL A   1      38.491  29.170  28.683  1.00  0.00     0.023 A 
ATOM     67  C   UNL A   1      37.857  30.298  28.108  1.00  0.00     0.012 A 
ATOM     68  C   UNL A   1      38.471  29.091  30.095  1.00  0.00     0.148 A 
ATOM     69  C   UNL A   1      37.300  31.317  28.889  1.00  0.00     0.002 A 
ATOM     70  C   UNL A   1      37.863  30.076  30.868  1.00  0.00     0.091 A 
ATOM     71  F   UNL A   1      39.140  28.127  30.725  1.00  0.00    -0.205 F 
ATOM     72  C   UNL A   1      37.303  31.206  30.272  1.00  0.00     0.022 A 
BRANCH  70  73
ATOM     73  S   UNL A   1      37.815  29.975  32.664  1.00  0.00     0.127 S 
ATOM     74  O   UNL A   1      39.207  30.251  33.008  1.00  0.00    -0.237 OA
ATOM     75  O   UNL A   1      36.869  31.043  32.991  1.00  0.00    -0.237 OA
ATOM     76  O   UNL A   1      37.336  28.634  32.975  1.00  0.00    -0.744 OA
ENDBRANCH  70  73
ENDBRANCH  52  66
BRANCH  53  77
ATOM     77  C   UNL A   1      45.043  26.485  33.574  1.00  0.00     0.023 A 
ATOM     78  C   UNL A   1      46.362  26.789  33.969  1.00  0.00     0.012 A 
ATOM     79  C   UNL A   1      44.062  26.342  34.577  1.00  0.00     0.148 A 
ATOM     80  C   UNL A   1      46.685  26.983  35.320  1.00  0.00     0.002 A 
ATOM     81  C   UNL A   1      44.386  26.543  35.918  1.00  0.00     0.091 A 
ATOM     82  F   UNL A   1      42.799  26.100  34.201  1.00  0.00    -0.205 F 
ATOM     83  C   UNL A   1      45.694  26.875  36.292  1.00  0.00     0.022 A 
BRANCH  81  84
ATOM     84  S   UNL A   1      43.157  26.479  37.229  1.00  0.00     0.127 S 
ATOM     85  O   UNL A   1      42.276  27.588  36.863  1.00  0.00    -0.237 OA
ATOM     86  O   UNL A   1      42.581  25.150  37.036  1.00  0.00    -0.237 OA
ATOM     87  O   UNL A   1      43.894  26.669  38.471  1.00  0.00    -0.744 OA
ENDBRANCH  81  84
ENDBRANCH  53  77
BRANCH  65  88
ATOM     88  C   UNL A   1      45.250  28.752  27.805  1.00  0.00     0.023 A 
ATOM     89  C   UNL A   1      46.343  29.639  27.746  1.00  0.00     0.012 A 
ATOM     90  C   UNL A   1      45.398  27.451  27.303  1.00  0.00     0.148 A 
ATOM     91  C   UNL A   1      47.558  29.232  27.183  1.00  0.00     0.002 A 
ATOM     92  C   UNL A   1      46.615  27.036  26.788  1.00  0.00     0.091 A 
ATOM     93  F   UNL A   1      44.339  26.628  27.364  1.00  0.00    -0.205 F 
ATOM     94  C   UNL A   1      47.697  27.925  26.715  1.00  0.00     0.022 A 
BRANCH  92  95
ATOM     95  S   UNL A   1      46.879  25.336  26.284  1.00  0.00     0.127 S 
ATOM     96  O   UNL A   1      46.550  24.602  27.503  1.00  0.00    -0.237 OA
ATOM     97  O   UNL A   1      45.913  25.183  25.194  1.00  0.00    -0.237 OA
ATOM     98  O   UNL A   1      48.271  25.254  25.859  1.00  0.00    -0.744 OA
ENDBRANCH  92  95
ENDBRANCH  65  88
ENDBRANCH  39  40
ENDBRANCH  31  34
ENDBRANCH  29  30
ENDBRANCH   1  29
TORSDOF 16
ENDMDL
MODEL 2
REMARK VINA RESULT:     -12.5      1.420      2.384
REMARK SMILES CC1=C(C)C[C@@H](C(=O)Nc2sc3c(c2C#N)CCC3)[C@H](C(=O)NCCCNC(=O)c2ccc(-c3c4nc(c(-c5cccc(S(=O)(=O)[O-])c5F)c5ccc([nH]5)c(-c5cccc(S(=O)(=O)[O-])c5F)c5nc(c(-c6cccc(S(=O)(=O)[O-])c6F)c6ccc3[nH]6)C=C5)C=C4)cc2)C1
REMARK SMILES IDX 25 1 24 2 23 3 21 4 22 5 20 7 1 8 2 9 3 10 93 11 4 12 5 13
REMARK SMILES IDX 6 14 7 15 8 16 9 17 10 19 11 20 14 21 12 22 13 23 19 24
REMARK SMILES IDX 17 25 18 26 15 27 16 28 26 29 27 30 28 31 29 33 30 34 31 35
REMARK SMILES IDX 92 36 32 37 91 38 33 39 34 40 35 41 85 42 36 43 90 44 84 45
REMARK SMILES IDX 86 46 37 47 89 48 83 49 82 50 38 52 70 53 50 54 69 55 51 56
REMARK SMILES IDX 54 57 68 58 87 59 52 60 53 61 67 63 88 64 55 65 39 66 40 67
REMARK SMILES IDX 48 68 41 69 43 70 49 71 42 72 44 73 45 74 46 75 47 76 71 77
REMARK SMILES IDX 72 78 80 79 73 80 75 81 81 82 74 83 76 84 77 85 78 86 79 87
REMARK SMILES IDX 56 88 57 89 65 90 58 91 60 92 66 93 59 94 61 95 62 96 63 97
REMARK SMILES IDX 64 98
REMARK H PARENT 23 6 9 18 27 32 86 51 54 62
REMARK Flexibility Score: inf
ROOT
ATOM      1  C   UNL A   1      38.805  20.710  25.306  1.00  0.00     0.042 C 
ENDROOT
BRANCH   1   2
ATOM      2  C   UNL A   1      38.208  22.084  25.537  1.00  0.00     0.117 C 
BRANCH   2   3
ATOM      3  N   UNL A   1      37.421  22.623  24.451  1.00  0.00    -0.356 N 
ATOM      4  C   UNL A   1      36.064  22.679  24.314  1.00  0.00     0.224 C 
ATOM      5  O   UNL A   1      35.604  23.372  23.407  1.00  0.00    -0.275 OA
ATOM      6  H   UNL A   1      37.937  23.006  23.705  1.00  0.00     0.163 HD
BRANCH   4   7
ATOM      7  C   UNL A   1      35.119  21.896  25.237  1.00  0.00     0.095 C 
ATOM      8  C   UNL A   1      34.822  18.073  24.342  1.00  0.00     0.039 C 
ATOM      9  C   UNL A   1      34.350  19.473  24.635  1.00  0.00    -0.074 C 
ATOM     10  C   UNL A   1      33.136  19.916  24.238  1.00  0.00    -0.074 C 
ATOM     11  C   UNL A   1      35.429  20.390  25.183  1.00  0.00     0.045 C 
ATOM     12  C   UNL A   1      32.097  19.049  23.569  1.00  0.00     0.039 C 
ATOM     13  C   UNL A   1      32.739  21.371  24.290  1.00  0.00     0.045 C 
ATOM     14  C   UNL A   1      33.669  22.342  25.022  1.00  0.00     0.095 C 
BRANCH  14  15
ATOM     15  C   UNL A   1      32.937  22.938  26.239  1.00  0.00     0.229 C 
ATOM     16  O   UNL A   1      32.790  22.242  27.252  1.00  0.00    -0.274 OA
ATOM     17  N   UNL A   1      32.597  24.255  26.369  1.00  0.00    -0.316 N 
ATOM     18  H   UNL A   1      32.236  24.529  27.244  1.00  0.00     0.170 HD
BRANCH  17  19
ATOM     19  C   UNL A   1      32.700  25.235  25.422  1.00  0.00     0.114 A 
ATOM     20  S   UNL A   1      33.553  26.642  25.920  1.00  0.00    -0.121 S 
ATOM     21  C   UNL A   1      32.137  25.379  24.167  1.00  0.00     0.090 A 
ATOM     22  C   UNL A   1      33.516  27.220  24.349  1.00  0.00     0.011 A 
ATOM     23  C   UNL A   1      32.761  26.460  23.500  1.00  0.00    -0.014 A 
ATOM     24  C   UNL A   1      34.136  28.402  23.714  1.00  0.00     0.047 C 
ATOM     25  C   UNL A   1      32.804  26.984  22.113  1.00  0.00     0.038 C 
ATOM     26  C   UNL A   1      33.897  28.098  22.202  1.00  0.00     0.010 C 
BRANCH  21  27
ATOM     27  C   UNL A   1      31.121  24.550  23.611  1.00  0.00     0.103 C 
ATOM     28  N   UNL A   1      30.323  23.819  23.167  1.00  0.00    -0.192 NA
ENDBRANCH  21  27
ENDBRANCH  17  19
ENDBRANCH  14  15
ENDBRANCH   4   7
ENDBRANCH   2   3
ENDBRANCH   1   2
BRANCH   1  29
ATOM     29  C   UNL A   1      39.766  20.380  26.415  1.00  0.00     0.118 C 
BRANCH  29  30
ATOM     30  N   UNL A   1      40.858  19.500  25.961  1.00  0.00    -0.352 N 
ATOM     31  C   UNL A   1      42.174  19.854  25.728  1.00  0.00     0.251 C 
ATOM     32  H   UNL A   1      40.624  18.556  25.807  1.00  0.00     0.163 HD
ATOM     33  O   UNL A   1      42.931  19.144  25.081  1.00  0.00    -0.269 OA
BRANCH  31  34
ATOM     34  C   UNL A   1      42.622  21.118  26.323  1.00  0.00     0.039 A 
ATOM     35  C   UNL A   1      42.703  22.296  25.583  1.00  0.00     0.014 A 
ATOM     36  C   UNL A   1      42.745  21.109  27.709  1.00  0.00     0.014 A 
ATOM     37  C   UNL A   1      42.829  23.491  26.282  1.00  0.00     0.010 A 
ATOM     38  C   UNL A   1      42.591  22.288  28.379  1.00  0.00     0.010 A 
ATOM     39  C   UNL A   1      42.734  23.478  27.686  1.00  0.00    -0.014 A 
BRANCH  39  40
ATOM     40  C   UNL A   1      42.624  24.703  28.464  1.00  0.00     0.031 A 
ATOM     41  C   UNL A   1      41.328  25.392  28.247  1.00  0.00     0.074 A 
ATOM     42  C   UNL A   1      43.528  25.054  29.409  1.00  0.00     0.049 A 
ATOM     43  N   UNL A   1      41.104  26.359  27.420  1.00  0.00    -0.248 NA
ATOM     44  C   UNL A   1      40.097  24.790  28.789  1.00  0.00     0.031 C 
ATOM     45  C   UNL A   1      44.665  24.262  29.914  1.00  0.00     0.029 A 
ATOM     46  N   UNL A   1      43.573  26.156  30.205  1.00  0.00    -0.354 N 
ATOM     47  C   UNL A   1      39.772  26.703  27.621  1.00  0.00     0.074 A 
ATOM     48  C   UNL A   1      39.159  25.549  28.213  1.00  0.00     0.031 C 
ATOM     49  C   UNL A   1      45.120  24.795  31.071  1.00  0.00     0.029 A 
ATOM     50  C   UNL A   1      44.451  26.061  31.285  1.00  0.00     0.049 A 
ATOM     51  H   UNL A   1      43.028  26.958  30.032  1.00  0.00     0.167 HD
ATOM     52  C   UNL A   1      39.413  28.018  27.643  1.00  0.00     0.034 A 
ATOM     53  C   UNL A   1      44.620  26.968  32.279  1.00  0.00     0.034 A 
ATOM     54  C   UNL A   1      40.517  28.832  27.185  1.00  0.00     0.049 A 
ATOM     55  C   UNL A   1      44.142  28.260  31.751  1.00  0.00     0.074 A 
ATOM     56  C   UNL A   1      41.186  29.042  25.998  1.00  0.00     0.029 A 
ATOM     57  N   UNL A   1      41.353  29.216  28.205  1.00  0.00    -0.354 N 
ATOM     58  N   UNL A   1      44.732  28.880  30.769  1.00  0.00    -0.248 NA
ATOM     59  C   UNL A   1      42.774  28.672  32.028  1.00  0.00     0.031 C 
ATOM     60  C   UNL A   1      42.531  29.348  26.362  1.00  0.00     0.029 A 
ATOM     61  C   UNL A   1      42.628  29.399  27.753  1.00  0.00     0.049 A 
ATOM     62  H   UNL A   1      41.068  29.344  29.138  1.00  0.00     0.167 HD
ATOM     63  C   UNL A   1      43.680  29.378  30.019  1.00  0.00     0.074 A 
ATOM     64  C   UNL A   1      42.537  29.391  30.926  1.00  0.00     0.031 C 
ATOM     65  C   UNL A   1      43.760  29.414  28.657  1.00  0.00     0.034 A 
BRANCH  52  66
ATOM     66  C   UNL A   1      38.353  28.646  28.540  1.00  0.00     0.023 A 
ATOM     67  C   UNL A   1      37.385  29.457  27.899  1.00  0.00     0.012 A 
ATOM     68  C   UNL A   1      38.417  28.738  29.949  1.00  0.00     0.148 A 
ATOM     69  C   UNL A   1      36.580  30.356  28.610  1.00  0.00     0.002 A 
ATOM     70  C   UNL A   1      37.574  29.589  30.659  1.00  0.00     0.091 A 
ATOM     71  F   UNL A   1      39.371  28.100  30.624  1.00  0.00    -0.205 F 
ATOM     72  C   UNL A   1      36.675  30.422  29.992  1.00  0.00     0.022 A 
BRANCH  70  73
ATOM     73  S   UNL A   1      37.634  29.702  32.454  1.00  0.00     0.127 S 
ATOM     74  O   UNL A   1      36.536  30.626  32.724  1.00  0.00    -0.237 OA
ATOM     75  O   UNL A   1      37.388  28.313  32.843  1.00  0.00    -0.237 OA
ATOM     76  O   UNL A   1      38.970  30.188  32.778  1.00  0.00    -0.744 OA
ENDBRANCH  70  73
ENDBRANCH  52  66
BRANCH  53  77
ATOM     77  C   UNL A   1      44.985  26.807  33.705  1.00  0.00     0.023 A 
ATOM     78  C   UNL A   1      46.221  27.288  34.185  1.00  0.00     0.012 A 
ATOM     79  C   UNL A   1      43.987  26.477  34.646  1.00  0.00     0.148 A 
ATOM     80  C   UNL A   1      46.442  27.472  35.558  1.00  0.00     0.002 A 
ATOM     81  C   UNL A   1      44.208  26.668  36.008  1.00  0.00     0.091 A 
ATOM     82  F   UNL A   1      42.797  26.065  34.190  1.00  0.00    -0.205 F 
ATOM     83  C   UNL A   1      45.430  27.176  36.467  1.00  0.00     0.022 A 
BRANCH  81  84
ATOM     84  S   UNL A   1      42.938  26.366  37.245  1.00  0.00     0.127 S 
ATOM     85  O   UNL A   1      42.613  24.961  36.997  1.00  0.00    -0.237 OA
ATOM     86  O   UNL A   1      43.662  26.617  38.488  1.00  0.00    -0.237 OA
ATOM     87  O   UNL A   1      41.863  27.303  36.945  1.00  0.00    -0.744 OA
ENDBRANCH  81  84
ENDBRANCH  53  77
BRANCH  65  88
ATOM     88  C   UNL A   1      45.128  29.331  28.041  1.00  0.00     0.023 A 
ATOM     89  C   UNL A   1      46.066  30.382  28.073  1.00  0.00     0.012 A 
ATOM     90  C   UNL A   1      45.509  28.090  27.509  1.00  0.00     0.148 A 
ATOM     91  C   UNL A   1      47.358  30.195  27.567  1.00  0.00     0.002 A 
ATOM     92  C   UNL A   1      46.802  27.895  27.052  1.00  0.00     0.091 A 
ATOM     93  F   UNL A   1      44.595  27.108  27.484  1.00  0.00    -0.205 F 
ATOM     94  C   UNL A   1      47.730  28.947  27.069  1.00  0.00     0.022 A 
BRANCH  92  95
ATOM     95  S   UNL A   1      47.361  26.280  26.511  1.00  0.00     0.127 S 
ATOM     96  O   UNL A   1      47.172  25.473  27.714  1.00  0.00    -0.237 OA
ATOM     97  O   UNL A   1      46.435  25.981  25.418  1.00  0.00    -0.237 OA
ATOM     98  O   UNL A   1      48.745  26.455  26.086  1.00  0.00    -0.744 OA
ENDBRANCH  92  95
ENDBRANCH  65  88
ENDBRANCH  39  40
ENDBRANCH  31  34
ENDBRANCH  29  30
ENDBRANCH   1  29
TORSDOF 16
ENDMDL
MODEL 3
REMARK VINA RESULT:     -12.5      3.968      8.951
REMARK SMILES CC1=C(C)C[C@@H](C(=O)Nc2sc3c(c2C#N)CCC3)[C@H](C(=O)NCCCNC(=O)c2ccc(-c3c4nc(c(-c5cccc(S(=O)(=O)[O-])c5F)c5ccc([nH]5)c(-c5cccc(S(=O)(=O)[O-])c5F)c5nc(c(-c6cccc(S(=O)(=O)[O-])c6F)c6ccc3[nH]6)C=C5)C=C4)cc2)C1
REMARK SMILES IDX 25 1 24 2 23 3 21 4 22 5 20 7 1 8 2 9 3 10 93 11 4 12 5 13
REMARK SMILES IDX 6 14 7 15 8 16 9 17 10 19 11 20 14 21 12 22 13 23 19 24
REMARK SMILES IDX 17 25 18 26 15 27 16 28 26 29 27 30 28 31 29 33 30 34 31 35
REMARK SMILES IDX 92 36 32 37 91 38 33 39 34 40 35 41 85 42 36 43 90 44 84 45
REMARK SMILES IDX 86 46 37 47 89 48 83 49 82 50 38 52 70 53 50 54 69 55 51 56
REMARK SMILES IDX 54 57 68 58 87 59 52 60 53 61 67 63 88 64 55 65 39 66 40 67
REMARK SMILES IDX 48 68 41 69 43 70 49 71 42 72 44 73 45 74 46 75 47 76 71 77
REMARK SMILES IDX 72 78 80 79 73 80 75 81 81 82 74 83 76 84 77 85 78 86 79 87
REMARK SMILES IDX 56 88 57 89 65 90 58 91 60 92 66 93 59 94 61 95 62 96 63 97
REMARK SMILES IDX 64 98
REMARK H PARENT 23 6 9 18 27 32 86 51 54 62
REMARK Flexibility Score: inf
ROOT
ATOM      1  C   UNL A   1      32.147  30.509  26.492  1.00  0.00     0.042 C 
ENDROOT
BRANCH   1   2
ATOM      2  C   UNL A   1      32.829  29.192  26.177  1.00  0.00     0.117 C 
BRANCH   2   3
ATOM      3  N   UNL A   1      33.694  29.188  25.019  1.00  0.00    -0.356 N 
ATOM      4  C   UNL A   1      33.829  28.239  24.047  1.00  0.00     0.224 C 
ATOM      5  O   UNL A   1      34.470  28.535  23.038  1.00  0.00    -0.275 OA
ATOM      6  H   UNL A   1      34.265  29.983  24.915  1.00  0.00     0.163 HD
BRANCH   4   7
ATOM      7  C   UNL A   1      33.229  26.834  24.191  1.00  0.00     0.095 C 
ATOM      8  C   UNL A   1      35.634  24.245  25.930  1.00  0.00     0.039 C 
ATOM      9  C   UNL A   1      34.719  24.797  24.868  1.00  0.00    -0.074 C 
ATOM     10  C   UNL A   1      34.747  24.345  23.595  1.00  0.00    -0.074 C 
ATOM     11  C   UNL A   1      33.958  26.041  25.291  1.00  0.00     0.045 C 
ATOM     12  C   UNL A   1      35.600  23.191  23.126  1.00  0.00     0.039 C 
ATOM     13  C   UNL A   1      34.033  25.042  22.463  1.00  0.00     0.045 C 
ATOM     14  C   UNL A   1      33.067  26.177  22.816  1.00  0.00     0.095 C 
BRANCH  14  15
ATOM     15  C   UNL A   1      31.637  25.784  22.398  1.00  0.00     0.229 C 
ATOM     16  O   UNL A   1      31.099  26.384  21.459  1.00  0.00    -0.274 OA
ATOM     17  N   UNL A   1      30.972  24.683  22.860  1.00  0.00    -0.316 N 
ATOM     18  H   UNL A   1      30.109  24.482  22.428  1.00  0.00     0.170 HD
BRANCH  17  19
ATOM     19  C   UNL A   1      31.366  23.833  23.853  1.00  0.00     0.114 A 
ATOM     20  S   UNL A   1      31.935  22.301  23.317  1.00  0.00    -0.121 S 
ATOM     21  C   UNL A   1      31.279  23.906  25.231  1.00  0.00     0.090 A 
ATOM     22  C   UNL A   1      32.435  21.941  24.874  1.00  0.00     0.011 A 
ATOM     23  C   UNL A   1      32.058  22.872  25.802  1.00  0.00    -0.014 A 
ATOM     24  C   UNL A   1      33.195  20.803  25.432  1.00  0.00     0.047 C 
ATOM     25  C   UNL A   1      32.570  22.534  27.152  1.00  0.00     0.038 C 
ATOM     26  C   UNL A   1      33.518  21.325  26.866  1.00  0.00     0.010 C 
BRANCH  21  27
ATOM     27  C   UNL A   1      30.557  24.890  25.968  1.00  0.00     0.103 C 
ATOM     28  N   UNL A   1      29.911  25.665  26.559  1.00  0.00    -0.192 NA
ENDBRANCH  21  27
ENDBRANCH  17  19
ENDBRANCH  14  15
ENDBRANCH   4   7
ENDBRANCH   2   3
ENDBRANCH   1   2
BRANCH   1  29
ATOM     29  C   UNL A   1      33.062  31.371  27.318  1.00  0.00     0.118 C 
BRANCH  29  30
ATOM     30  N   UNL A   1      32.583  32.762  27.408  1.00  0.00    -0.352 N 
ATOM     31  C   UNL A   1      33.047  33.751  28.256  1.00  0.00     0.251 C 
ATOM     32  H   UNL A   1      31.853  33.015  26.798  1.00  0.00     0.163 HD
ATOM     33  O   UNL A   1      32.409  34.772  28.472  1.00  0.00    -0.269 OA
BRANCH  31  34
ATOM     34  C   UNL A   1      34.362  33.521  28.865  1.00  0.00     0.039 A 
ATOM     35  C   UNL A   1      34.528  32.709  29.985  1.00  0.00     0.014 A 
ATOM     36  C   UNL A   1      35.447  33.983  28.124  1.00  0.00     0.014 A 
ATOM     37  C   UNL A   1      35.817  32.297  30.301  1.00  0.00     0.010 A 
ATOM     38  C   UNL A   1      36.649  33.358  28.279  1.00  0.00     0.010 A 
ATOM     39  C   UNL A   1      36.869  32.599  29.416  1.00  0.00    -0.014 A 
BRANCH  39  40
ATOM     40  C   UNL A   1      38.192  32.008  29.560  1.00  0.00     0.031 A 
ATOM     41  C   UNL A   1      38.239  30.608  29.070  1.00  0.00     0.074 A 
ATOM     42  C   UNL A   1      39.279  32.728  29.923  1.00  0.00     0.049 A 
ATOM     43  N   UNL A   1      38.112  29.542  29.787  1.00  0.00    -0.248 NA
ATOM     44  C   UNL A   1      38.145  30.353  27.622  1.00  0.00     0.031 C 
ATOM     45  C   UNL A   1      39.380  34.187  30.107  1.00  0.00     0.029 A 
ATOM     46  N   UNL A   1      40.566  32.328  30.110  1.00  0.00    -0.354 N 
ATOM     47  C   UNL A   1      38.285  28.486  28.898  1.00  0.00     0.074 A 
ATOM     48  C   UNL A   1      37.997  29.024  27.599  1.00  0.00     0.031 C 
ATOM     49  C   UNL A   1      40.680  34.560  30.133  1.00  0.00     0.029 A 
ATOM     50  C   UNL A   1      41.497  33.366  30.169  1.00  0.00     0.049 A 
ATOM     51  H   UNL A   1      40.820  31.380  30.194  1.00  0.00     0.167 HD
ATOM     52  C   UNL A   1      39.022  27.403  29.274  1.00  0.00     0.034 A 
ATOM     53  C   UNL A   1      42.845  33.246  30.252  1.00  0.00     0.034 A 
ATOM     54  C   UNL A   1      39.288  27.466  30.695  1.00  0.00     0.049 A 
ATOM     55  C   UNL A   1      43.112  31.902  30.800  1.00  0.00     0.074 A 
ATOM     56  C   UNL A   1      38.558  27.365  31.859  1.00  0.00     0.029 A 
ATOM     57  N   UNL A   1      40.445  28.144  30.989  1.00  0.00    -0.354 N 
ATOM     58  N   UNL A   1      42.774  31.556  32.010  1.00  0.00    -0.248 NA
ATOM     59  C   UNL A   1      43.381  30.807  29.880  1.00  0.00     0.031 C 
ATOM     60  C   UNL A   1      39.218  28.208  32.802  1.00  0.00     0.029 A 
ATOM     61  C   UNL A   1      40.372  28.732  32.219  1.00  0.00     0.049 A 
ATOM     62  H   UNL A   1      41.225  28.198  30.391  1.00  0.00     0.167 HD
ATOM     63  C   UNL A   1      42.318  30.257  31.862  1.00  0.00     0.074 A 
ATOM     64  C   UNL A   1      42.888  29.793  30.601  1.00  0.00     0.031 C 
ATOM     65  C   UNL A   1      41.262  29.808  32.601  1.00  0.00     0.034 A 
BRANCH  52  66
ATOM     66  C   UNL A   1      39.955  26.596  28.381  1.00  0.00     0.023 A 
ATOM     67  C   UNL A   1      39.777  25.191  28.389  1.00  0.00     0.012 A 
ATOM     68  C   UNL A   1      41.148  27.074  27.791  1.00  0.00     0.148 A 
ATOM     69  C   UNL A   1      40.755  24.314  27.904  1.00  0.00     0.002 A 
ATOM     70  C   UNL A   1      42.092  26.202  27.255  1.00  0.00     0.091 A 
ATOM     71  F   UNL A   1      41.453  28.369  27.841  1.00  0.00    -0.205 F 
ATOM     72  C   UNL A   1      41.914  24.821  27.336  1.00  0.00     0.022 A 
BRANCH  70  73
ATOM     73  S   UNL A   1      43.604  26.800  26.485  1.00  0.00     0.127 S 
ATOM     74  O   UNL A   1      44.293  27.400  27.624  1.00  0.00    -0.237 OA
ATOM     75  O   UNL A   1      44.191  25.556  25.987  1.00  0.00    -0.237 OA
ATOM     76  O   UNL A   1      43.181  27.724  25.440  1.00  0.00    -0.744 OA
ENDBRANCH  70  73
ENDBRANCH  52  66
BRANCH  53  77
ATOM     77  C   UNL A   1      43.942  34.100  29.740  1.00  0.00     0.023 A 
ATOM     78  C   UNL A   1      44.808  34.762  30.634  1.00  0.00     0.012 A 
ATOM     79  C   UNL A   1      44.330  33.998  28.388  1.00  0.00     0.148 A 
ATOM     80  C   UNL A   1      46.041  35.273  30.202  1.00  0.00     0.002 A 
ATOM     81  C   UNL A   1      45.558  34.500  27.964  1.00  0.00     0.091 A 
ATOM     82  F   UNL A   1      43.530  33.328  27.547  1.00  0.00    -0.205 F 
ATOM     83  C   UNL A   1      46.421  35.129  28.871  1.00  0.00     0.022 A 
BRANCH  81  84
ATOM     84  S   UNL A   1      46.152  34.307  26.277  1.00  0.00     0.127 S 
ATOM     85  O   UNL A   1      47.291  35.224  26.258  1.00  0.00    -0.237 OA
ATOM     86  O   UNL A   1      46.506  32.890  26.244  1.00  0.00    -0.237 OA
ATOM     87  O   UNL A   1      45.041  34.696  25.420  1.00  0.00    -0.744 OA
ENDBRANCH  81  84
ENDBRANCH  53  77
BRANCH  65  88
ATOM     88  C   UNL A   1      40.915  30.573  33.847  1.00  0.00     0.023 A 
ATOM     89  C   UNL A   1      41.717  30.587  35.006  1.00  0.00     0.012 A 
ATOM     90  C   UNL A   1      39.782  31.398  33.790  1.00  0.00     0.148 A 
ATOM     91  C   UNL A   1      41.381  31.405  36.092  1.00  0.00     0.002 A 
ATOM     92  C   UNL A   1      39.478  32.240  34.848  1.00  0.00     0.091 A 
ATOM     93  F   UNL A   1      39.032  31.360  32.678  1.00  0.00    -0.205 F 
ATOM     94  C   UNL A   1      40.268  32.240  36.007  1.00  0.00     0.022 A 
BRANCH  92  95
ATOM     95  S   UNL A   1      38.129  33.415  34.740  1.00  0.00     0.127 S 
ATOM     96  O   UNL A   1      38.350  34.242  35.924  1.00  0.00    -0.237 OA
ATOM     97  O   UNL A   1      38.400  34.082  33.465  1.00  0.00    -0.237 OA
ATOM     98  O   UNL A   1      36.905  32.624  34.747  1.00  0.00    -0.744 OA
ENDBRANCH  92  95
ENDBRANCH  65  88
ENDBRANCH  39  40
ENDBRANCH  31  34
ENDBRANCH  29  30
ENDBRANCH   1  29
TORSDOF 16
ENDMDL
