MODEL 1
REMARK VINA RESULT:     -13.7      0.000      0.000
REMARK SMILES Cc1cccc(N2CCN(c3ncc(NC(=O)c4ccccc4F)cc3C(=O)NCCCNC(=O)c3ccc(-c4c5nc(c(-c6cccc(S(=O)(=O)[O-])c6F)c6ccc([nH]6)c(-c6cccc(S(=O)(=O)[O-])c6F)c6nc(c(-c7cccc(S(=O)(=O)[O-])c7F)c7ccc4[nH]7)C=C6)C=C5)cc3)C[C@@H]2C)c1
REMARK SMILES IDX 31 1 30 2 29 3 27 4 28 5 26 7 11 8 12 9 13 10 25 11 14 12
REMARK SMILES IDX 10 13 7 14 8 15 100 16 9 17 99 18 101 19 6 20 1 21 2 22 3 23
REMARK SMILES IDX 102 24 4 25 5 26 15 27 16 28 17 30 18 31 19 32 23 33 20 34
REMARK SMILES IDX 22 35 24 36 21 37 32 38 33 39 34 40 35 42 36 43 37 44 98 45
REMARK SMILES IDX 38 46 97 47 39 48 40 49 41 50 91 51 42 52 96 53 90 54 92 55
REMARK SMILES IDX 43 56 95 57 89 58 88 59 44 61 76 62 56 63 75 64 57 65 60 66
REMARK SMILES IDX 74 67 93 68 58 69 59 70 73 72 94 73 61 74 45 75 46 76 54 77
REMARK SMILES IDX 47 78 49 79 55 80 48 81 50 82 51 83 52 84 53 85 77 86 78 87
REMARK SMILES IDX 86 88 79 89 81 90 87 91 80 92 82 93 83 94 84 95 85 96 62 97
REMARK SMILES IDX 63 98 71 99 64 100 66 101 72 102 65 103 67 104 68 105 69 106
REMARK SMILES IDX 70 107
REMARK H PARENT 29 6 15 29 33 41 92 60 60 71
REMARK Flexibility Score: inf
ROOT
ATOM      1  C   UNL A   1      37.134  23.362  26.671  1.00  0.00     0.042 C 
ENDROOT
BRANCH   1   2
ATOM      2  C   UNL A   1      36.016  24.030  25.863  1.00  0.00     0.118 C 
BRANCH   2   3
ATOM      3  N   UNL A   1      36.256  23.869  24.444  1.00  0.00    -0.352 N 
ATOM      4  C   UNL A   1      35.372  23.676  23.407  1.00  0.00     0.255 C 
ATOM      5  O   UNL A   1      35.784  23.030  22.447  1.00  0.00    -0.269 OA
ATOM      6  H   UNL A   1      37.203  23.902  24.179  1.00  0.00     0.163 HD
BRANCH   4   7
ATOM      7  C   UNL A   1      33.963  24.148  23.442  1.00  0.00     0.084 A 
ATOM      8  C   UNL A   1      32.906  23.363  23.936  1.00  0.00     0.141 A 
ATOM      9  N   UNL A   1      31.634  23.867  23.980  1.00  0.00    -0.236 NA
ATOM     10  C   UNL A   1      31.402  25.135  23.551  1.00  0.00     0.139 A 
ATOM     11  C   UNL A   1      33.665  25.435  22.986  1.00  0.00     0.045 A 
ATOM     12  C   UNL A   1      32.381  25.949  23.026  1.00  0.00     0.060 A 
BRANCH   8  13
ATOM     13  N   UNL A   1      33.040  22.024  24.243  1.00  0.00    -0.352 N 
ATOM     14  N   UNL A   1      33.370  19.231  24.722  1.00  0.00    -0.365 N 
ATOM     15  C   UNL A   1      32.901  19.716  23.411  1.00  0.00     0.138 C 
ATOM     16  C   UNL A   1      34.138  20.203  25.556  1.00  0.00     0.098 C 
ATOM     17  C   UNL A   1      32.173  21.070  23.542  1.00  0.00     0.139 C 
ATOM     18  C   UNL A   1      33.384  21.571  25.608  1.00  0.00     0.142 C 
ATOM     19  C   UNL A   1      35.566  20.355  25.017  1.00  0.00     0.033 C 
BRANCH  14  20
ATOM     20  C   UNL A   1      33.592  17.874  24.905  1.00  0.00     0.037 A 
ATOM     21  C   UNL A   1      31.612  14.814  26.050  1.00  0.00     0.044 C 
ATOM     22  C   UNL A   1      32.738  15.672  25.557  1.00  0.00    -0.049 A 
ATOM     23  C   UNL A   1      33.954  15.090  25.191  1.00  0.00     0.003 A 
ATOM     24  C   UNL A   1      32.576  17.059  25.422  1.00  0.00     0.029 A 
ATOM     25  C   UNL A   1      34.987  15.884  24.701  1.00  0.00     0.002 A 
ATOM     26  C   UNL A   1      34.802  17.261  24.556  1.00  0.00     0.026 A 
ENDBRANCH  14  20
ENDBRANCH   8  13
BRANCH  12  27
ATOM     27  N   UNL A   1      32.204  27.236  22.494  1.00  0.00    -0.320 N 
ATOM     28  C   UNL A   1      31.949  28.434  23.112  1.00  0.00     0.258 C 
ATOM     29  H   UNL A   1      32.273  27.288  21.514  1.00  0.00     0.170 HD
ATOM     30  O   UNL A   1      31.518  29.380  22.455  1.00  0.00    -0.269 OA
BRANCH  28  31
ATOM     31  C   UNL A   1      32.283  28.648  24.531  1.00  0.00     0.075 A 
ATOM     32  C   UNL A   1      33.545  29.165  24.845  1.00  0.00     0.017 A 
ATOM     33  C   UNL A   1      31.430  28.245  25.561  1.00  0.00     0.135 A 
ATOM     34  C   UNL A   1      33.913  29.339  26.180  1.00  0.00     0.001 A 
ATOM     35  C   UNL A   1      31.785  28.439  26.892  1.00  0.00     0.040 A 
ATOM     36  F   UNL A   1      30.268  27.627  25.305  1.00  0.00    -0.206 F 
ATOM     37  C   UNL A   1      33.026  28.993  27.202  1.00  0.00     0.003 A 
ENDBRANCH  28  31
ENDBRANCH  12  27
ENDBRANCH   4   7
ENDBRANCH   2   3
ENDBRANCH   1   2
BRANCH   1  38
ATOM     38  C   UNL A   1      38.443  23.240  25.910  1.00  0.00     0.118 C 
BRANCH  38  39
ATOM     39  N   UNL A   1      39.583  23.037  26.791  1.00  0.00    -0.352 N 
ATOM     40  C   UNL A   1      40.187  23.954  27.631  1.00  0.00     0.251 C 
ATOM     41  H   UNL A   1      39.973  22.133  26.788  1.00  0.00     0.163 HD
ATOM     42  O   UNL A   1      41.172  23.629  28.284  1.00  0.00    -0.269 OA
BRANCH  40  43
ATOM     43  C   UNL A   1      39.555  25.281  27.783  1.00  0.00     0.039 A 
ATOM     44  C   UNL A   1      39.931  26.293  26.894  1.00  0.00     0.014 A 
ATOM     45  C   UNL A   1      38.818  25.572  28.930  1.00  0.00     0.014 A 
ATOM     46  C   UNL A   1      39.777  27.622  27.274  1.00  0.00     0.010 A 
ATOM     47  C   UNL A   1      38.731  26.885  29.342  1.00  0.00     0.010 A 
ATOM     48  C   UNL A   1      39.277  27.899  28.544  1.00  0.00    -0.014 A 
BRANCH  48  49
ATOM     49  C   UNL A   1      39.366  29.204  29.180  1.00  0.00     0.031 A 
ATOM     50  C   UNL A   1      38.467  30.294  28.780  1.00  0.00     0.074 A 
ATOM     51  C   UNL A   1      40.210  29.353  30.223  1.00  0.00     0.049 A 
ATOM     52  N   UNL A   1      38.678  31.542  29.030  1.00  0.00    -0.248 NA
ATOM     53  C   UNL A   1      37.266  30.047  27.997  1.00  0.00     0.031 C 
ATOM     54  C   UNL A   1      40.232  30.426  31.209  1.00  0.00     0.029 A 
ATOM     55  N   UNL A   1      41.402  28.655  30.445  1.00  0.00    -0.354 N 
ATOM     56  C   UNL A   1      37.512  32.216  28.731  1.00  0.00     0.074 A 
ATOM     57  C   UNL A   1      36.733  31.270  27.970  1.00  0.00     0.031 C 
ATOM     58  C   UNL A   1      41.467  30.503  31.728  1.00  0.00     0.029 A 
ATOM     59  C   UNL A   1      42.307  29.603  30.952  1.00  0.00     0.049 A 
ATOM     60  H   UNL A   1      41.572  27.699  30.279  1.00  0.00     0.167 HD
ATOM     61  C   UNL A   1      37.285  33.425  29.324  1.00  0.00     0.034 A 
ATOM     62  C   UNL A   1      43.466  29.947  30.320  1.00  0.00     0.034 A 
ATOM     63  C   UNL A   1      38.498  33.909  30.008  1.00  0.00     0.049 A 
ATOM     64  C   UNL A   1      43.577  31.436  30.037  1.00  0.00     0.074 A 
ATOM     65  C   UNL A   1      38.893  33.938  31.337  1.00  0.00     0.029 A 
ATOM     66  N   UNL A   1      39.635  34.208  29.261  1.00  0.00    -0.354 N 
ATOM     67  N   UNL A   1      42.601  32.290  30.174  1.00  0.00    -0.248 NA
ATOM     68  C   UNL A   1      44.797  32.069  29.546  1.00  0.00     0.031 C 
ATOM     69  C   UNL A   1      40.296  34.164  31.376  1.00  0.00     0.029 A 
ATOM     70  C   UNL A   1      40.754  34.302  30.076  1.00  0.00     0.049 A 
ATOM     71  H   UNL A   1      39.643  34.336  28.284  1.00  0.00     0.167 HD
ATOM     72  C   UNL A   1      42.978  33.513  29.680  1.00  0.00     0.074 A 
ATOM     73  C   UNL A   1      44.391  33.340  29.384  1.00  0.00     0.031 C 
ATOM     74  C   UNL A   1      42.077  34.530  29.496  1.00  0.00     0.034 A 
BRANCH  61  75
ATOM     75  C   UNL A   1      35.899  34.020  29.583  1.00  0.00     0.023 A 
ATOM     76  C   UNL A   1      35.204  34.550  28.470  1.00  0.00     0.012 A 
ATOM     77  C   UNL A   1      35.263  34.208  30.834  1.00  0.00     0.148 A 
ATOM     78  C   UNL A   1      34.029  35.305  28.597  1.00  0.00     0.002 A 
ATOM     79  C   UNL A   1      34.118  35.001  30.972  1.00  0.00     0.091 A 
ATOM     80  F   UNL A   1      35.704  33.570  31.914  1.00  0.00    -0.205 F 
ATOM     81  C   UNL A   1      33.503  35.560  29.853  1.00  0.00     0.022 A 
BRANCH  79  82
ATOM     82  S   UNL A   1      33.411  35.406  32.582  1.00  0.00     0.127 S 
ATOM     83  O   UNL A   1      34.543  36.033  33.266  1.00  0.00    -0.237 OA
ATOM     84  O   UNL A   1      32.331  36.324  32.227  1.00  0.00    -0.237 OA
ATOM     85  O   UNL A   1      32.984  34.143  33.173  1.00  0.00    -0.744 OA
ENDBRANCH  79  82
ENDBRANCH  61  75
BRANCH  62  86
ATOM     86  C   UNL A   1      44.030  28.866  29.455  1.00  0.00     0.023 A 
ATOM     87  C   UNL A   1      44.421  27.665  30.096  1.00  0.00     0.012 A 
ATOM     88  C   UNL A   1      43.841  28.856  28.062  1.00  0.00     0.148 A 
ATOM     89  C   UNL A   1      44.483  26.460  29.394  1.00  0.00     0.002 A 
ATOM     90  C   UNL A   1      43.919  27.649  27.365  1.00  0.00     0.091 A 
ATOM     91  F   UNL A   1      43.520  30.000  27.446  1.00  0.00    -0.205 F 
ATOM     92  C   UNL A   1      44.198  26.448  28.034  1.00  0.00     0.022 A 
BRANCH  90  93
ATOM     93  S   UNL A   1      43.550  27.568  25.606  1.00  0.00     0.127 S 
ATOM     94  O   UNL A   1      44.850  27.875  25.021  1.00  0.00    -0.237 OA
ATOM     95  O   UNL A   1      43.111  26.183  25.437  1.00  0.00    -0.237 OA
ATOM     96  O   UNL A   1      42.496  28.554  25.411  1.00  0.00    -0.744 OA
ENDBRANCH  90  93
ENDBRANCH  62  86
BRANCH  74  97
ATOM     97  C   UNL A   1      42.344  35.827  28.741  1.00  0.00     0.023 A 
ATOM     98  C   UNL A   1      41.773  36.104  27.483  1.00  0.00     0.012 A 
ATOM     99  C   UNL A   1      43.082  36.885  29.338  1.00  0.00     0.148 A 
ATOM    100  C   UNL A   1      41.973  37.322  26.819  1.00  0.00     0.002 A 
ATOM    101  C   UNL A   1      43.185  38.134  28.724  1.00  0.00     0.091 A 
ATOM    102  F   UNL A   1      43.713  36.686  30.504  1.00  0.00    -0.205 F 
ATOM    103  C   UNL A   1      42.661  38.346  27.449  1.00  0.00     0.022 A 
BRANCH 101 104
ATOM    104  S   UNL A   1      43.853  39.550  29.612  1.00  0.00     0.127 S 
ATOM    105  O   UNL A   1      45.271  39.211  29.709  1.00  0.00    -0.237 OA
ATOM    106  O   UNL A   1      43.556  40.663  28.707  1.00  0.00    -0.237 OA
ATOM    107  O   UNL A   1      43.111  39.590  30.865  1.00  0.00    -0.744 OA
ENDBRANCH 101 104
ENDBRANCH  74  97
ENDBRANCH  48  49
ENDBRANCH  40  43
ENDBRANCH  38  39
ENDBRANCH   1  38
TORSDOF 17
ENDMDL
MODEL 2
REMARK VINA RESULT:     -13.5      1.606      2.023
REMARK SMILES Cc1cccc(N2CCN(c3ncc(NC(=O)c4ccccc4F)cc3C(=O)NCCCNC(=O)c3ccc(-c4c5nc(c(-c6cccc(S(=O)(=O)[O-])c6F)c6ccc([nH]6)c(-c6cccc(S(=O)(=O)[O-])c6F)c6nc(c(-c7cccc(S(=O)(=O)[O-])c7F)c7ccc4[nH]7)C=C6)C=C5)cc3)C[C@@H]2C)c1
REMARK SMILES IDX 31 1 30 2 29 3 27 4 28 5 26 7 11 8 12 9 13 10 25 11 14 12
REMARK SMILES IDX 10 13 7 14 8 15 100 16 9 17 99 18 101 19 6 20 1 21 2 22 3 23
REMARK SMILES IDX 102 24 4 25 5 26 15 27 16 28 17 30 18 31 19 32 23 33 20 34
REMARK SMILES IDX 22 35 24 36 21 37 32 38 33 39 34 40 35 42 36 43 37 44 98 45
REMARK SMILES IDX 38 46 97 47 39 48 40 49 41 50 91 51 42 52 96 53 90 54 92 55
REMARK SMILES IDX 43 56 95 57 89 58 88 59 44 61 76 62 56 63 75 64 57 65 60 66
REMARK SMILES IDX 74 67 93 68 58 69 59 70 73 72 94 73 61 74 45 75 46 76 54 77
REMARK SMILES IDX 47 78 49 79 55 80 48 81 50 82 51 83 52 84 53 85 77 86 78 87
REMARK SMILES IDX 86 88 79 89 81 90 87 91 80 92 82 93 83 94 84 95 85 96 62 97
REMARK SMILES IDX 63 98 71 99 64 100 66 101 72 102 65 103 67 104 68 105 69 106
REMARK SMILES IDX 70 107
REMARK H PARENT 29 6 15 29 33 41 92 60 60 71
REMARK Flexibility Score: inf
ROOT
ATOM      1  C   UNL A   1      37.414  23.505  24.881  1.00  0.00     0.042 C 
ENDROOT
BRANCH   1   2
ATOM      2  C   UNL A   1      35.945  23.941  24.832  1.00  0.00     0.118 C 
BRANCH   2   3
ATOM      3  N   UNL A   1      35.470  23.952  23.464  1.00  0.00    -0.352 N 
ATOM      4  C   UNL A   1      34.189  23.898  22.965  1.00  0.00     0.255 C 
ATOM      5  O   UNL A   1      34.049  23.370  21.865  1.00  0.00    -0.269 OA
ATOM      6  H   UNL A   1      36.177  24.008  22.781  1.00  0.00     0.163 HD
BRANCH   4   7
ATOM      7  C   UNL A   1      33.002  24.377  23.721  1.00  0.00     0.084 A 
ATOM      8  C   UNL A   1      32.323  23.583  24.663  1.00  0.00     0.141 A 
ATOM      9  N   UNL A   1      31.260  24.093  25.358  1.00  0.00    -0.236 NA
ATOM     10  C   UNL A   1      30.870  25.376  25.138  1.00  0.00     0.139 A 
ATOM     11  C   UNL A   1      32.541  25.680  23.511  1.00  0.00     0.045 A 
ATOM     12  C   UNL A   1      31.466  26.201  24.208  1.00  0.00     0.060 A 
BRANCH   8  13
ATOM     13  N   UNL A   1      32.566  22.234  24.827  1.00  0.00    -0.352 N 
ATOM     14  N   UNL A   1      33.102  19.438  25.003  1.00  0.00    -0.365 N 
ATOM     15  C   UNL A   1      32.461  20.003  23.802  1.00  0.00     0.138 C 
ATOM     16  C   UNL A   1      33.904  20.382  25.836  1.00  0.00     0.098 C 
ATOM     17  C   UNL A   1      31.679  21.290  24.137  1.00  0.00     0.139 C 
ATOM     18  C   UNL A   1      33.087  21.687  26.098  1.00  0.00     0.142 C 
ATOM     19  C   UNL A   1      35.252  20.673  25.163  1.00  0.00     0.033 C 
BRANCH  14  20
ATOM     20  C   UNL A   1      33.418  18.087  25.032  1.00  0.00     0.037 A 
ATOM     21  C   UNL A   1      31.824  14.836  26.252  1.00  0.00     0.044 C 
ATOM     22  C   UNL A   1      32.801  15.795  25.642  1.00  0.00    -0.049 A 
ATOM     23  C   UNL A   1      33.958  15.318  25.022  1.00  0.00     0.003 A 
ATOM     24  C   UNL A   1      32.551  17.176  25.651  1.00  0.00     0.029 A 
ATOM     25  C   UNL A   1      34.848  16.207  24.426  1.00  0.00     0.002 A 
ATOM     26  C   UNL A   1      34.574  17.577  24.428  1.00  0.00     0.026 A 
ENDBRANCH  14  20
ENDBRANCH   8  13
BRANCH  12  27
ATOM     27  N   UNL A   1      31.072  27.505  23.872  1.00  0.00    -0.320 N 
ATOM     28  C   UNL A   1      31.209  28.686  24.554  1.00  0.00     0.258 C 
ATOM     29  H   UNL A   1      30.621  27.585  23.001  1.00  0.00     0.170 HD
ATOM     30  O   UNL A   1      30.524  29.657  24.237  1.00  0.00    -0.269 OA
BRANCH  28  31
ATOM     31  C   UNL A   1      32.239  28.854  25.594  1.00  0.00     0.075 A 
ATOM     32  C   UNL A   1      33.511  29.290  25.204  1.00  0.00     0.017 A 
ATOM     33  C   UNL A   1      32.018  28.483  26.922  1.00  0.00     0.135 A 
ATOM     34  C   UNL A   1      34.524  29.416  26.155  1.00  0.00     0.001 A 
ATOM     35  C   UNL A   1      33.020  28.631  27.876  1.00  0.00     0.040 A 
ATOM     36  F   UNL A   1      30.855  27.940  27.311  1.00  0.00    -0.206 F 
ATOM     37  C   UNL A   1      34.273  29.104  27.493  1.00  0.00     0.003 A 
ENDBRANCH  28  31
ENDBRANCH  12  27
ENDBRANCH   4   7
ENDBRANCH   2   3
ENDBRANCH   1   2
BRANCH   1  38
ATOM     38  C   UNL A   1      37.827  22.914  26.218  1.00  0.00     0.118 C 
BRANCH  38  39
ATOM     39  N   UNL A   1      39.267  22.741  26.331  1.00  0.00    -0.352 N 
ATOM     40  C   UNL A   1      40.219  23.694  26.644  1.00  0.00     0.251 C 
ATOM     41  H   UNL A   1      39.606  21.833  26.163  1.00  0.00     0.163 HD
ATOM     42  O   UNL A   1      41.406  23.390  26.660  1.00  0.00    -0.269 OA
BRANCH  40  43
ATOM     43  C   UNL A   1      39.754  25.038  27.046  1.00  0.00     0.039 A 
ATOM     44  C   UNL A   1      40.378  26.148  26.471  1.00  0.00     0.014 A 
ATOM     45  C   UNL A   1      38.913  25.180  28.150  1.00  0.00     0.014 A 
ATOM     46  C   UNL A   1      40.351  27.366  27.142  1.00  0.00     0.010 A 
ATOM     47  C   UNL A   1      38.946  26.365  28.854  1.00  0.00     0.010 A 
ATOM     48  C   UNL A   1      39.724  27.429  28.384  1.00  0.00    -0.014 A 
BRANCH  48  49
ATOM     49  C   UNL A   1      39.898  28.528  29.321  1.00  0.00     0.031 A 
ATOM     50  C   UNL A   1      39.082  29.744  29.208  1.00  0.00     0.074 A 
ATOM     51  C   UNL A   1      40.740  28.357  30.362  1.00  0.00     0.049 A 
ATOM     52  N   UNL A   1      39.378  30.874  29.756  1.00  0.00    -0.248 NA
ATOM     53  C   UNL A   1      37.875  29.783  28.397  1.00  0.00     0.031 C 
ATOM     54  C   UNL A   1      40.827  29.149  31.581  1.00  0.00     0.029 A 
ATOM     55  N   UNL A   1      41.878  27.543  30.397  1.00  0.00    -0.354 N 
ATOM     56  C   UNL A   1      38.265  31.681  29.640  1.00  0.00     0.074 A 
ATOM     57  C   UNL A   1      37.430  31.010  28.676  1.00  0.00     0.031 C 
ATOM     58  C   UNL A   1      42.059  29.009  32.094  1.00  0.00     0.029 A 
ATOM     59  C   UNL A   1      42.841  28.270  31.115  1.00  0.00     0.049 A 
ATOM     60  H   UNL A   1      41.981  26.648  29.999  1.00  0.00     0.167 HD
ATOM     61  C   UNL A   1      38.117  32.720  30.515  1.00  0.00     0.034 A 
ATOM     62  C   UNL A   1      44.028  28.677  30.578  1.00  0.00     0.034 A 
ATOM     63  C   UNL A   1      39.355  32.933  31.288  1.00  0.00     0.049 A 
ATOM     64  C   UNL A   1      44.247  30.177  30.670  1.00  0.00     0.074 A 
ATOM     65  C   UNL A   1      39.736  32.607  32.580  1.00  0.00     0.029 A 
ATOM     66  N   UNL A   1      40.517  33.327  30.630  1.00  0.00    -0.354 N 
ATOM     67  N   UNL A   1      43.331  31.038  31.021  1.00  0.00    -0.248 NA
ATOM     68  C   UNL A   1      45.513  30.824  30.341  1.00  0.00     0.031 C 
ATOM     69  C   UNL A   1      41.152  32.717  32.663  1.00  0.00     0.029 A 
ATOM     70  C   UNL A   1      41.631  33.138  31.434  1.00  0.00     0.049 A 
ATOM     71  H   UNL A   1      40.544  33.690  29.714  1.00  0.00     0.167 HD
ATOM     72  C   UNL A   1      43.798  32.315  30.840  1.00  0.00     0.074 A 
ATOM     73  C   UNL A   1      45.199  32.122  30.500  1.00  0.00     0.031 C 
ATOM     74  C   UNL A   1      42.973  33.408  30.918  1.00  0.00     0.034 A 
BRANCH  61  75
ATOM     75  C   UNL A   1      36.774  33.329  30.923  1.00  0.00     0.023 A 
ATOM     76  C   UNL A   1      36.312  33.057  32.233  1.00  0.00     0.012 A 
ATOM     77  C   UNL A   1      35.872  34.051  30.106  1.00  0.00     0.148 A 
ATOM     78  C   UNL A   1      35.016  33.375  32.663  1.00  0.00     0.002 A 
ATOM     79  C   UNL A   1      34.561  34.328  30.512  1.00  0.00     0.091 A 
ATOM     80  F   UNL A   1      36.274  34.553  28.942  1.00  0.00    -0.205 F 
ATOM     81  C   UNL A   1      34.127  33.981  31.791  1.00  0.00     0.022 A 
BRANCH  79  82
ATOM     82  S   UNL A   1      33.344  35.075  29.409  1.00  0.00     0.127 S 
ATOM     83  O   UNL A   1      32.229  35.343  30.318  1.00  0.00    -0.237 OA
ATOM     84  O   UNL A   1      34.043  36.268  28.936  1.00  0.00    -0.237 OA
ATOM     85  O   UNL A   1      33.051  34.079  28.384  1.00  0.00    -0.744 OA
ENDBRANCH  79  82
ENDBRANCH  61  75
BRANCH  62  86
ATOM     86  C   UNL A   1      44.524  27.805  29.470  1.00  0.00     0.023 A 
ATOM     87  C   UNL A   1      44.865  26.470  29.801  1.00  0.00     0.012 A 
ATOM     88  C   UNL A   1      44.312  28.131  28.118  1.00  0.00     0.148 A 
ATOM     89  C   UNL A   1      44.855  25.463  28.836  1.00  0.00     0.002 A 
ATOM     90  C   UNL A   1      44.319  27.119  27.157  1.00  0.00     0.091 A 
ATOM     91  F   UNL A   1      44.040  29.401  27.796  1.00  0.00    -0.205 F 
ATOM     92  C   UNL A   1      44.549  25.783  27.518  1.00  0.00     0.022 A 
BRANCH  90  93
ATOM     93  S   UNL A   1      43.919  27.470  25.438  1.00  0.00     0.127 S 
ATOM     94  O   UNL A   1      42.956  28.558  25.580  1.00  0.00    -0.237 OA
ATOM     95  O   UNL A   1      45.213  27.863  24.884  1.00  0.00    -0.237 OA
ATOM     96  O   UNL A   1      43.408  26.209  24.921  1.00  0.00    -0.744 OA
ENDBRANCH  90  93
ENDBRANCH  62  86
BRANCH  74  97
ATOM     97  C   UNL A   1      43.338  34.829  30.504  1.00  0.00     0.023 A 
ATOM     98  C   UNL A   1      43.868  35.770  31.408  1.00  0.00     0.012 A 
ATOM     99  C   UNL A   1      43.284  35.233  29.143  1.00  0.00     0.148 A 
ATOM    100  C   UNL A   1      44.257  37.056  31.011  1.00  0.00     0.002 A 
ATOM    101  C   UNL A   1      43.776  36.472  28.734  1.00  0.00     0.091 A 
ATOM    102  F   UNL A   1      42.733  34.424  28.226  1.00  0.00    -0.205 F 
ATOM    103  C   UNL A   1      44.232  37.402  29.669  1.00  0.00     0.022 A 
BRANCH 101 104
ATOM    104  S   UNL A   1      43.986  36.856  26.988  1.00  0.00     0.127 S 
ATOM    105  O   UNL A   1      44.451  38.240  27.031  1.00  0.00    -0.237 OA
ATOM    106  O   UNL A   1      45.002  35.888  26.569  1.00  0.00    -0.237 OA
ATOM    107  O   UNL A   1      42.674  36.633  26.396  1.00  0.00    -0.744 OA
ENDBRANCH 101 104
ENDBRANCH  74  97
ENDBRANCH  48  49
ENDBRANCH  40  43
ENDBRANCH  38  39
ENDBRANCH   1  38
TORSDOF 17
ENDMDL
MODEL 3
REMARK VINA RESULT:     -12.2      2.258      2.839
REMARK SMILES Cc1cccc(N2CCN(c3ncc(NC(=O)c4ccccc4F)cc3C(=O)NCCCNC(=O)c3ccc(-c4c5nc(c(-c6cccc(S(=O)(=O)[O-])c6F)c6ccc([nH]6)c(-c6cccc(S(=O)(=O)[O-])c6F)c6nc(c(-c7cccc(S(=O)(=O)[O-])c7F)c7ccc4[nH]7)C=C6)C=C5)cc3)C[C@@H]2C)c1
REMARK SMILES IDX 31 1 30 2 29 3 27 4 28 5 26 7 11 8 12 9 13 10 25 11 14 12
REMARK SMILES IDX 10 13 7 14 8 15 100 16 9 17 99 18 101 19 6 20 1 21 2 22 3 23
REMARK SMILES IDX 102 24 4 25 5 26 15 27 16 28 17 30 18 31 19 32 23 33 20 34
REMARK SMILES IDX 22 35 24 36 21 37 32 38 33 39 34 40 35 42 36 43 37 44 98 45
REMARK SMILES IDX 38 46 97 47 39 48 40 49 41 50 91 51 42 52 96 53 90 54 92 55
REMARK SMILES IDX 43 56 95 57 89 58 88 59 44 61 76 62 56 63 75 64 57 65 60 66
REMARK SMILES IDX 74 67 93 68 58 69 59 70 73 72 94 73 61 74 45 75 46 76 54 77
REMARK SMILES IDX 47 78 49 79 55 80 48 81 50 82 51 83 52 84 53 85 77 86 78 87
REMARK SMILES IDX 86 88 79 89 81 90 87 91 80 92 82 93 83 94 84 95 85 96 62 97
REMARK SMILES IDX 63 98 71 99 64 100 66 101 72 102 65 103 67 104 68 105 69 106
REMARK SMILES IDX 70 107
REMARK H PARENT 29 6 15 29 33 41 92 60 60 71
REMARK Flexibility Score: inf
ROOT
ATOM      1  C   UNL A   1      37.871  23.625  25.375  1.00  0.00     0.042 C 
ENDROOT
BRANCH   1   2
ATOM      2  C   UNL A   1      36.419  23.981  25.712  1.00  0.00     0.118 C 
BRANCH   2   3
ATOM      3  N   UNL A   1      35.730  24.459  24.530  1.00  0.00    -0.352 N 
ATOM      4  C   UNL A   1      34.392  24.689  24.311  1.00  0.00     0.255 C 
ATOM      5  O   UNL A   1      33.990  24.540  23.160  1.00  0.00    -0.269 OA
ATOM      6  H   UNL A   1      36.314  24.648  23.761  1.00  0.00     0.163 HD
BRANCH   4   7
ATOM      7  C   UNL A   1      33.438  25.032  25.399  1.00  0.00     0.084 A 
ATOM      8  C   UNL A   1      32.822  24.061  26.209  1.00  0.00     0.141 A 
ATOM      9  N   UNL A   1      31.982  24.439  27.221  1.00  0.00    -0.236 NA
ATOM     10  C   UNL A   1      31.755  25.760  27.444  1.00  0.00     0.139 A 
ATOM     11  C   UNL A   1      33.146  26.375  25.650  1.00  0.00     0.045 A 
ATOM     12  C   UNL A   1      32.297  26.764  26.671  1.00  0.00     0.060 A 
BRANCH   8  13
ATOM     13  N   UNL A   1      32.886  22.708  25.946  1.00  0.00    -0.352 N 
ATOM     14  N   UNL A   1      33.014  19.946  25.240  1.00  0.00    -0.365 N 
ATOM     15  C   UNL A   1      32.213  20.888  24.438  1.00  0.00     0.138 C 
ATOM     16  C   UNL A   1      34.119  20.537  26.053  1.00  0.00     0.098 C 
ATOM     17  C   UNL A   1      31.732  22.082  25.289  1.00  0.00     0.139 C 
ATOM     18  C   UNL A   1      33.590  21.773  26.849  1.00  0.00     0.142 C 
ATOM     19  C   UNL A   1      35.308  20.899  25.153  1.00  0.00     0.033 C 
BRANCH  14  20
ATOM     20  C   UNL A   1      33.118  18.625  24.832  1.00  0.00     0.037 A 
ATOM     21  C   UNL A   1      32.160  15.172  26.159  1.00  0.00     0.044 C 
ATOM     22  C   UNL A   1      32.701  16.249  25.268  1.00  0.00    -0.049 A 
ATOM     23  C   UNL A   1      33.205  15.928  24.006  1.00  0.00     0.003 A 
ATOM     24  C   UNL A   1      32.676  17.593  25.672  1.00  0.00     0.029 A 
ATOM     25  C   UNL A   1      33.676  16.934  23.166  1.00  0.00     0.002 A 
ATOM     26  C   UNL A   1      33.627  18.268  23.577  1.00  0.00     0.026 A 
ENDBRANCH  14  20
ENDBRANCH   8  13
BRANCH  12  27
ATOM     27  N   UNL A   1      32.049  28.140  26.791  1.00  0.00    -0.320 N 
ATOM     28  C   UNL A   1      31.830  29.098  25.836  1.00  0.00     0.258 C 
ATOM     29  H   UNL A   1      32.029  28.473  27.717  1.00  0.00     0.170 HD
ATOM     30  O   UNL A   1      31.945  30.288  26.126  1.00  0.00    -0.269 OA
BRANCH  28  31
ATOM     31  C   UNL A   1      31.352  28.739  24.489  1.00  0.00     0.075 A 
ATOM     32  C   UNL A   1      30.088  28.149  24.368  1.00  0.00     0.017 A 
ATOM     33  C   UNL A   1      32.162  28.862  23.359  1.00  0.00     0.135 A 
ATOM     34  C   UNL A   1      29.622  27.755  23.113  1.00  0.00     0.001 A 
ATOM     35  C   UNL A   1      31.690  28.491  22.103  1.00  0.00     0.040 A 
ATOM     36  F   UNL A   1      33.426  29.301  23.449  1.00  0.00    -0.206 F 
ATOM     37  C   UNL A   1      30.415  27.942  21.980  1.00  0.00     0.003 A 
ENDBRANCH  28  31
ENDBRANCH  12  27
ENDBRANCH   4   7
ENDBRANCH   2   3
ENDBRANCH   1   2
BRANCH   1  38
ATOM     38  C   UNL A   1      38.534  22.735  26.412  1.00  0.00     0.118 C 
BRANCH  38  39
ATOM     39  N   UNL A   1      39.987  22.767  26.327  1.00  0.00    -0.352 N 
ATOM     40  C   UNL A   1      40.828  23.849  26.501  1.00  0.00     0.251 C 
ATOM     41  H   UNL A   1      40.424  21.910  26.120  1.00  0.00     0.163 HD
ATOM     42  O   UNL A   1      42.038  23.714  26.356  1.00  0.00    -0.269 OA
BRANCH  40  43
ATOM     43  C   UNL A   1      40.237  25.126  26.955  1.00  0.00     0.039 A 
ATOM     44  C   UNL A   1      40.694  26.307  26.365  1.00  0.00     0.014 A 
ATOM     45  C   UNL A   1      39.454  25.157  28.108  1.00  0.00     0.014 A 
ATOM     46  C   UNL A   1      40.568  27.507  27.059  1.00  0.00     0.010 A 
ATOM     47  C   UNL A   1      39.393  26.329  28.832  1.00  0.00     0.010 A 
ATOM     48  C   UNL A   1      40.014  27.482  28.337  1.00  0.00    -0.014 A 
BRANCH  48  49
ATOM     49  C   UNL A   1      40.118  28.582  29.282  1.00  0.00     0.031 A 
ATOM     50  C   UNL A   1      39.240  29.754  29.166  1.00  0.00     0.074 A 
ATOM     51  C   UNL A   1      40.954  28.449  30.333  1.00  0.00     0.049 A 
ATOM     52  N   UNL A   1      39.468  30.895  29.724  1.00  0.00    -0.248 NA
ATOM     53  C   UNL A   1      38.043  29.733  28.339  1.00  0.00     0.031 C 
ATOM     54  C   UNL A   1      40.983  29.237  31.558  1.00  0.00     0.029 A 
ATOM     55  N   UNL A   1      42.133  27.696  30.379  1.00  0.00    -0.354 N 
ATOM     56  C   UNL A   1      38.316  31.642  29.599  1.00  0.00     0.074 A 
ATOM     57  C   UNL A   1      37.529  30.933  28.620  1.00  0.00     0.031 C 
ATOM     58  C   UNL A   1      42.214  29.159  32.087  1.00  0.00     0.029 A 
ATOM     59  C   UNL A   1      43.047  28.469  31.114  1.00  0.00     0.049 A 
ATOM     60  H   UNL A   1      42.289  26.810  29.977  1.00  0.00     0.167 HD
ATOM     61  C   UNL A   1      38.101  32.665  30.477  1.00  0.00     0.034 A 
ATOM     62  C   UNL A   1      44.217  28.942  30.595  1.00  0.00     0.034 A 
ATOM     63  C   UNL A   1      39.315  32.939  31.268  1.00  0.00     0.049 A 
ATOM     64  C   UNL A   1      44.355  30.451  30.699  1.00  0.00     0.074 A 
ATOM     65  C   UNL A   1      39.697  32.625  32.563  1.00  0.00     0.029 A 
ATOM     66  N   UNL A   1      40.464  33.398  30.627  1.00  0.00    -0.354 N 
ATOM     67  N   UNL A   1      43.391  31.260  31.042  1.00  0.00    -0.248 NA
ATOM     68  C   UNL A   1      45.589  31.167  30.390  1.00  0.00     0.031 C 
ATOM     69  C   UNL A   1      41.104  32.810  32.665  1.00  0.00     0.029 A 
ATOM     70  C   UNL A   1      41.576  33.263  31.445  1.00  0.00     0.049 A 
ATOM     71  H   UNL A   1      40.483  33.768  29.714  1.00  0.00     0.167 HD
ATOM     72  C   UNL A   1      43.791  32.561  30.875  1.00  0.00     0.074 A 
ATOM     73  C   UNL A   1      45.204  32.444  30.552  1.00  0.00     0.031 C 
ATOM     74  C   UNL A   1      42.908  33.608  30.949  1.00  0.00     0.034 A 
BRANCH  61  75
ATOM     75  C   UNL A   1      36.722  33.200  30.871  1.00  0.00     0.023 A 
ATOM     76  C   UNL A   1      36.212  32.807  32.132  1.00  0.00     0.012 A 
ATOM     77  C   UNL A   1      35.834  33.962  30.075  1.00  0.00     0.148 A 
ATOM     78  C   UNL A   1      34.889  33.050  32.525  1.00  0.00     0.002 A 
ATOM     79  C   UNL A   1      34.499  34.166  30.441  1.00  0.00     0.091 A 
ATOM     80  F   UNL A   1      36.271  34.570  28.976  1.00  0.00    -0.205 F 
ATOM     81  C   UNL A   1      34.020  33.702  31.666  1.00  0.00     0.022 A 
BRANCH  79  82
ATOM     82  S   UNL A   1      33.308  34.967  29.347  1.00  0.00     0.127 S 
ATOM     83  O   UNL A   1      32.284  35.423  30.289  1.00  0.00    -0.237 OA
ATOM     84  O   UNL A   1      34.104  36.038  28.751  1.00  0.00    -0.237 OA
ATOM     85  O   UNL A   1      32.848  33.943  28.417  1.00  0.00    -0.744 OA
ENDBRANCH  79  82
ENDBRANCH  61  75
BRANCH  62  86
ATOM     86  C   UNL A   1      44.773  28.105  29.488  1.00  0.00     0.023 A 
ATOM     87  C   UNL A   1      44.170  28.238  28.213  1.00  0.00     0.012 A 
ATOM     88  C   UNL A   1      46.044  27.510  29.573  1.00  0.00     0.148 A 
ATOM     89  C   UNL A   1      44.869  27.921  27.048  1.00  0.00     0.002 A 
ATOM     90  C   UNL A   1      46.731  27.182  28.404  1.00  0.00     0.091 A 
ATOM     91  F   UNL A   1      46.595  27.337  30.781  1.00  0.00    -0.205 F 
ATOM     92  C   UNL A   1      46.164  27.424  27.143  1.00  0.00     0.022 A 
BRANCH  90  93
ATOM     93  S   UNL A   1      48.413  26.547  28.463  1.00  0.00     0.127 S 
ATOM     94  O   UNL A   1      49.079  27.561  29.272  1.00  0.00    -0.237 OA
ATOM     95  O   UNL A   1      48.241  25.252  29.121  1.00  0.00    -0.237 OA
ATOM     96  O   UNL A   1      48.816  26.456  27.067  1.00  0.00    -0.744 OA
ENDBRANCH  90  93
ENDBRANCH  62  86
BRANCH  74  97
ATOM     97  C   UNL A   1      43.202  35.049  30.548  1.00  0.00     0.023 A 
ATOM     98  C   UNL A   1      43.635  36.020  31.472  1.00  0.00     0.012 A 
ATOM     99  C   UNL A   1      43.180  35.450  29.184  1.00  0.00     0.148 A 
ATOM    100  C   UNL A   1      43.960  37.328  31.089  1.00  0.00     0.002 A 
ATOM    101  C   UNL A   1      43.613  36.718  28.795  1.00  0.00     0.091 A 
ATOM    102  F   UNL A   1      42.720  34.609  28.246  1.00  0.00    -0.205 F 
ATOM    103  C   UNL A   1      43.971  37.672  29.747  1.00  0.00     0.022 A 
BRANCH 101 104
ATOM    104  S   UNL A   1      43.872  37.115  27.059  1.00  0.00     0.127 S 
ATOM    105  O   UNL A   1      42.511  37.080  26.529  1.00  0.00    -0.237 OA
ATOM    106  O   UNL A   1      44.463  38.454  27.122  1.00  0.00    -0.237 OA
ATOM    107  O   UNL A   1      44.782  36.087  26.571  1.00  0.00    -0.744 OA
ENDBRANCH 101 104
ENDBRANCH  74  97
ENDBRANCH  48  49
ENDBRANCH  40  43
ENDBRANCH  38  39
ENDBRANCH   1  38
TORSDOF 17
ENDMDL
