MODEL 1
REMARK VINA RESULT:     -11.3      0.000      0.000
REMARK SMILES CCOc1cc(N2CCC[C@@H](C(=O)NCCCNC(=O)c3ccc(-c4c5nc(c(-c6cccc(S(=O)(=O)[O-])c6F)c6ccc([nH]6)c(-c6cccc(S(=O)(=O)[O-])c6F)c6nc(c(-c7cccc(S(=O)(=O)[O-])c7F)c7ccc4[nH]7)C=C6)C=C5)cc3)C2)nc(SC)n1
REMARK SMILES IDX 16 1 15 2 14 3 12 4 13 5 11 7 7 8 8 9 84 10 9 11 10 12 6 13
REMARK SMILES IDX 4 14 5 15 89 16 86 17 85 18 3 19 2 20 1 21 87 22 88 23 17 24
REMARK SMILES IDX 18 25 19 26 20 28 21 29 22 30 83 31 23 32 82 33 24 34 25 35
REMARK SMILES IDX 26 36 76 37 27 38 81 39 75 40 77 41 28 42 80 43 74 44 73 45
REMARK SMILES IDX 29 47 61 48 41 49 60 50 42 51 45 52 59 53 78 54 43 55 44 56
REMARK SMILES IDX 58 58 79 59 46 60 30 61 31 62 39 63 32 64 34 65 40 66 33 67
REMARK SMILES IDX 35 68 36 69 37 70 38 71 62 72 63 73 71 74 64 75 66 76 72 77
REMARK SMILES IDX 65 78 67 79 68 80 69 81 70 82 47 83 48 84 56 85 49 86 51 87
REMARK SMILES IDX 57 88 50 89 52 90 53 91 54 92 55 93
REMARK H PARENT 14 6 18 27 77 46 45 57
REMARK Flexibility Score: inf
ROOT
ATOM      1  C   UNL A   1      34.012  27.885  25.640  1.00  0.00     0.042 C 
ENDROOT
BRANCH   1   2
ATOM      2  C   UNL A   1      32.848  27.739  24.659  1.00  0.00     0.117 C 
BRANCH   2   3
ATOM      3  N   UNL A   1      33.303  27.619  23.286  1.00  0.00    -0.356 N 
ATOM      4  C   UNL A   1      33.226  26.605  22.384  1.00  0.00     0.224 C 
ATOM      5  O   UNL A   1      33.715  26.813  21.270  1.00  0.00    -0.275 OA
ATOM      6  H   UNL A   1      33.753  28.424  22.943  1.00  0.00     0.163 HD
BRANCH   4   7
ATOM      7  C   UNL A   1      32.532  25.285  22.674  1.00  0.00     0.098 C 
ATOM      8  N   UNL A   1      32.599  23.151  23.872  1.00  0.00    -0.356 N 
ATOM      9  C   UNL A   1      31.210  23.235  24.309  1.00  0.00     0.118 C 
ATOM     10  C   UNL A   1      33.324  24.390  23.618  1.00  0.00     0.131 C 
ATOM     11  C   UNL A   1      30.411  24.111  23.344  1.00  0.00     0.022 C 
ATOM     12  C   UNL A   1      31.077  25.467  23.114  1.00  0.00     0.017 C 
BRANCH   8  13
ATOM     13  C   UNL A   1      33.313  22.056  24.334  1.00  0.00     0.137 A 
ATOM     14  C   UNL A   1      35.198  21.039  25.279  1.00  0.00     0.219 A 
ATOM     15  C   UNL A   1      34.552  22.193  24.917  1.00  0.00     0.115 A 
ATOM     16  N   UNL A   1      34.727  19.813  25.026  1.00  0.00    -0.187 NA
ATOM     17  C   UNL A   1      33.530  19.775  24.429  1.00  0.00     0.192 A 
ATOM     18  N   UNL A   1      32.778  20.847  24.129  1.00  0.00    -0.205 NA
BRANCH  14  19
ATOM     19  O   UNL A   1      36.485  21.124  25.749  1.00  0.00    -0.478 OA
BRANCH  19  20
ATOM     20  C   UNL A   1      37.290  22.042  25.002  1.00  0.00     0.228 C 
ATOM     21  C   UNL A   1      38.414  22.623  25.852  1.00  0.00     0.049 C 
ENDBRANCH  19  20
ENDBRANCH  14  19
BRANCH  17  22
ATOM     22  S   UNL A   1      32.929  18.179  23.914  1.00  0.00    -0.089 SA
ATOM     23  C   UNL A   1      32.708  17.405  25.539  1.00  0.00     0.094 C 
ENDBRANCH  17  22
ENDBRANCH   8  13
ENDBRANCH   4   7
ENDBRANCH   2   3
ENDBRANCH   1   2
BRANCH   1  24
ATOM     24  C   UNL A   1      33.601  28.384  27.023  1.00  0.00     0.118 C 
BRANCH  24  25
ATOM     25  N   UNL A   1      33.600  29.838  27.102  1.00  0.00    -0.352 N 
ATOM     26  C   UNL A   1      34.482  30.692  27.714  1.00  0.00     0.251 C 
ATOM     27  H   UNL A   1      32.848  30.277  26.645  1.00  0.00     0.163 HD
ATOM     28  O   UNL A   1      34.170  31.873  27.848  1.00  0.00    -0.269 OA
BRANCH  26  29
ATOM     29  C   UNL A   1      35.791  30.211  28.211  1.00  0.00     0.039 A 
ATOM     30  C   UNL A   1      35.864  29.672  29.499  1.00  0.00     0.014 A 
ATOM     31  C   UNL A   1      36.953  30.342  27.444  1.00  0.00     0.014 A 
ATOM     32  C   UNL A   1      37.089  29.222  29.999  1.00  0.00     0.010 A 
ATOM     33  C   UNL A   1      38.160  29.831  27.918  1.00  0.00     0.010 A 
ATOM     34  C   UNL A   1      38.243  29.275  29.203  1.00  0.00    -0.014 A 
BRANCH  34  35
ATOM     35  C   UNL A   1      39.542  28.744  29.692  1.00  0.00     0.031 A 
ATOM     36  C   UNL A   1      40.280  29.441  30.805  1.00  0.00     0.074 A 
ATOM     37  C   UNL A   1      40.101  27.686  29.071  1.00  0.00     0.049 A 
ATOM     38  N   UNL A   1      41.448  29.159  31.321  1.00  0.00    -0.248 NA
ATOM     39  C   UNL A   1      39.634  30.623  31.401  1.00  0.00     0.031 C 
ATOM     40  C   UNL A   1      39.520  26.971  27.933  1.00  0.00     0.029 A 
ATOM     41  N   UNL A   1      41.296  27.046  29.288  1.00  0.00    -0.354 N 
ATOM     42  C   UNL A   1      41.700  30.150  32.263  1.00  0.00     0.074 A 
ATOM     43  C   UNL A   1      40.569  31.052  32.238  1.00  0.00     0.031 C 
ATOM     44  C   UNL A   1      40.356  25.991  27.554  1.00  0.00     0.029 A 
ATOM     45  C   UNL A   1      41.545  26.026  28.398  1.00  0.00     0.049 A 
ATOM     46  H   UNL A   1      41.916  27.293  30.011  1.00  0.00     0.167 HD
ATOM     47  C   UNL A   1      42.765  30.285  33.088  1.00  0.00     0.034 A 
ATOM     48  C   UNL A   1      42.616  25.217  28.272  1.00  0.00     0.034 A 
ATOM     49  C   UNL A   1      43.858  29.351  33.152  1.00  0.00     0.049 A 
ATOM     50  C   UNL A   1      43.762  25.365  29.236  1.00  0.00     0.074 A 
ATOM     51  C   UNL A   1      44.923  29.336  34.036  1.00  0.00     0.029 A 
ATOM     52  N   UNL A   1      44.034  28.278  32.294  1.00  0.00    -0.354 N 
ATOM     53  N   UNL A   1      43.893  26.197  30.240  1.00  0.00    -0.248 NA
ATOM     54  C   UNL A   1      44.893  24.439  29.073  1.00  0.00     0.031 C 
ATOM     55  C   UNL A   1      45.758  28.268  33.694  1.00  0.00     0.029 A 
ATOM     56  C   UNL A   1      45.198  27.602  32.616  1.00  0.00     0.049 A 
ATOM     57  H   UNL A   1      43.421  28.032  31.564  1.00  0.00     0.167 HD
ATOM     58  C   UNL A   1      45.097  25.867  30.853  1.00  0.00     0.074 A 
ATOM     59  C   UNL A   1      45.646  24.746  30.119  1.00  0.00     0.031 C 
ATOM     60  C   UNL A   1      45.701  26.448  31.918  1.00  0.00     0.034 A 
BRANCH  47  61
ATOM     61  C   UNL A   1      42.789  31.458  34.032  1.00  0.00     0.023 A 
ATOM     62  C   UNL A   1      43.348  32.681  33.612  1.00  0.00     0.012 A 
ATOM     63  C   UNL A   1      42.176  31.377  35.298  1.00  0.00     0.148 A 
ATOM     64  C   UNL A   1      43.322  33.799  34.446  1.00  0.00     0.002 A 
ATOM     65  C   UNL A   1      42.113  32.506  36.106  1.00  0.00     0.091 A 
ATOM     66  F   UNL A   1      41.665  30.199  35.687  1.00  0.00    -0.205 F 
ATOM     67  C   UNL A   1      42.694  33.714  35.687  1.00  0.00     0.022 A 
BRANCH  65  68
ATOM     68  S   UNL A   1      41.257  32.524  37.686  1.00  0.00     0.127 S 
ATOM     69  O   UNL A   1      42.096  31.634  38.486  1.00  0.00    -0.237 OA
ATOM     70  O   UNL A   1      41.334  33.936  38.061  1.00  0.00    -0.237 OA
ATOM     71  O   UNL A   1      39.911  32.037  37.419  1.00  0.00    -0.744 OA
ENDBRANCH  65  68
ENDBRANCH  47  61
BRANCH  48  72
ATOM     72  C   UNL A   1      42.631  24.147  27.233  1.00  0.00     0.023 A 
ATOM     73  C   UNL A   1      43.213  24.415  25.978  1.00  0.00     0.012 A 
ATOM     74  C   UNL A   1      42.082  22.874  27.475  1.00  0.00     0.148 A 
ATOM     75  C   UNL A   1      43.211  23.450  24.970  1.00  0.00     0.002 A 
ATOM     76  C   UNL A   1      42.137  21.898  26.488  1.00  0.00     0.091 A 
ATOM     77  F   UNL A   1      41.518  22.640  28.669  1.00  0.00    -0.205 F 
ATOM     78  C   UNL A   1      42.681  22.188  25.227  1.00  0.00     0.022 A 
BRANCH  76  79
ATOM     79  S   UNL A   1      41.610  20.206  26.785  1.00  0.00     0.127 S 
ATOM     80  O   UNL A   1      42.513  19.794  27.854  1.00  0.00    -0.237 OA
ATOM     81  O   UNL A   1      40.215  20.387  27.188  1.00  0.00    -0.237 OA
ATOM     82  O   UNL A   1      41.774  19.522  25.508  1.00  0.00    -0.744 OA
ENDBRANCH  76  79
ENDBRANCH  48  72
BRANCH  60  83
ATOM     83  C   UNL A   1      47.001  25.857  32.395  1.00  0.00     0.023 A 
ATOM     84  C   UNL A   1      48.219  26.301  31.842  1.00  0.00     0.012 A 
ATOM     85  C   UNL A   1      47.020  24.918  33.443  1.00  0.00     0.148 A 
ATOM     86  C   UNL A   1      49.433  25.794  32.304  1.00  0.00     0.002 A 
ATOM     87  C   UNL A   1      48.236  24.455  33.933  1.00  0.00     0.091 A 
ATOM     88  F   UNL A   1      45.850  24.493  33.944  1.00  0.00    -0.205 F 
ATOM     89  C   UNL A   1      49.442  24.882  33.356  1.00  0.00     0.022 A 
BRANCH  87  90
ATOM     90  S   UNL A   1      48.345  23.358  35.351  1.00  0.00     0.127 S 
ATOM     91  O   UNL A   1      47.640  24.124  36.377  1.00  0.00    -0.237 OA
ATOM     92  O   UNL A   1      47.633  22.169  34.881  1.00  0.00    -0.237 OA
ATOM     93  O   UNL A   1      49.768  23.152  35.591  1.00  0.00    -0.744 OA
ENDBRANCH  87  90
ENDBRANCH  60  83
ENDBRANCH  34  35
ENDBRANCH  26  29
ENDBRANCH  24  25
ENDBRANCH   1  24
TORSDOF 17
ENDMDL
MODEL 2
REMARK VINA RESULT:     -11.2      2.414      3.413
REMARK SMILES CCOc1cc(N2CCC[C@@H](C(=O)NCCCNC(=O)c3ccc(-c4c5nc(c(-c6cccc(S(=O)(=O)[O-])c6F)c6ccc([nH]6)c(-c6cccc(S(=O)(=O)[O-])c6F)c6nc(c(-c7cccc(S(=O)(=O)[O-])c7F)c7ccc4[nH]7)C=C6)C=C5)cc3)C2)nc(SC)n1
REMARK SMILES IDX 16 1 15 2 14 3 12 4 13 5 11 7 7 8 8 9 84 10 9 11 10 12 6 13
REMARK SMILES IDX 4 14 5 15 89 16 86 17 85 18 3 19 2 20 1 21 87 22 88 23 17 24
REMARK SMILES IDX 18 25 19 26 20 28 21 29 22 30 83 31 23 32 82 33 24 34 25 35
REMARK SMILES IDX 26 36 76 37 27 38 81 39 75 40 77 41 28 42 80 43 74 44 73 45
REMARK SMILES IDX 29 47 61 48 41 49 60 50 42 51 45 52 59 53 78 54 43 55 44 56
REMARK SMILES IDX 58 58 79 59 46 60 30 61 31 62 39 63 32 64 34 65 40 66 33 67
REMARK SMILES IDX 35 68 36 69 37 70 38 71 62 72 63 73 71 74 64 75 66 76 72 77
REMARK SMILES IDX 65 78 67 79 68 80 69 81 70 82 47 83 48 84 56 85 49 86 51 87
REMARK SMILES IDX 57 88 50 89 52 90 53 91 54 92 55 93
REMARK H PARENT 14 6 18 27 77 46 45 57
REMARK Flexibility Score: inf
ROOT
ATOM      1  C   UNL A   1      31.770  28.735  25.727  1.00  0.00     0.042 C 
ENDROOT
BRANCH   1   2
ATOM      2  C   UNL A   1      32.014  27.672  26.799  1.00  0.00     0.117 C 
BRANCH   2   3
ATOM      3  N   UNL A   1      30.909  26.735  26.899  1.00  0.00    -0.356 N 
ATOM      4  C   UNL A   1      30.592  25.619  26.193  1.00  0.00     0.224 C 
ATOM      5  O   UNL A   1      29.566  25.021  26.529  1.00  0.00    -0.275 OA
ATOM      6  H   UNL A   1      30.268  26.950  27.615  1.00  0.00     0.163 HD
BRANCH   4   7
ATOM      7  C   UNL A   1      31.461  25.068  25.075  1.00  0.00     0.098 C 
ATOM      8  N   UNL A   1      32.628  23.124  24.150  1.00  0.00    -0.356 N 
ATOM      9  C   UNL A   1      32.154  23.357  22.791  1.00  0.00     0.118 C 
ATOM     10  C   UNL A   1      31.812  23.598  25.262  1.00  0.00     0.131 C 
ATOM     11  C   UNL A   1      31.830  24.839  22.597  1.00  0.00     0.022 C 
ATOM     12  C   UNL A   1      30.895  25.368  23.685  1.00  0.00     0.017 C 
BRANCH   8  13
ATOM     13  C   UNL A   1      33.392  21.982  24.337  1.00  0.00     0.137 A 
ATOM     14  C   UNL A   1      33.662  19.689  24.721  1.00  0.00     0.219 A 
ATOM     15  C   UNL A   1      32.817  20.741  24.476  1.00  0.00     0.115 A 
ATOM     16  N   UNL A   1      34.980  19.823  24.906  1.00  0.00    -0.187 NA
ATOM     17  C   UNL A   1      35.449  21.070  24.783  1.00  0.00     0.192 A 
ATOM     18  N   UNL A   1      34.716  22.145  24.446  1.00  0.00    -0.205 NA
BRANCH  14  19
ATOM     19  O   UNL A   1      33.121  18.457  24.988  1.00  0.00    -0.478 OA
BRANCH  19  20
ATOM     20  C   UNL A   1      32.813  17.715  23.801  1.00  0.00     0.228 C 
ATOM     21  C   UNL A   1      34.048  17.018  23.240  1.00  0.00     0.049 C 
ENDBRANCH  19  20
ENDBRANCH  14  19
BRANCH  17  22
ATOM     22  S   UNL A   1      37.163  21.338  25.185  1.00  0.00    -0.089 SA
ATOM     23  C   UNL A   1      37.219  23.146  25.059  1.00  0.00     0.094 C 
ENDBRANCH  17  22
ENDBRANCH   8  13
ENDBRANCH   4   7
ENDBRANCH   2   3
ENDBRANCH   1   2
BRANCH   1  24
ATOM     24  C   UNL A   1      32.941  29.695  25.525  1.00  0.00     0.118 C 
BRANCH  24  25
ATOM     25  N   UNL A   1      32.612  31.052  25.936  1.00  0.00    -0.352 N 
ATOM     26  C   UNL A   1      33.092  31.803  26.979  1.00  0.00     0.251 C 
ATOM     27  H   UNL A   1      31.938  31.503  25.378  1.00  0.00     0.163 HD
ATOM     28  O   UNL A   1      32.513  32.845  27.277  1.00  0.00    -0.269 OA
BRANCH  26  29
ATOM     29  C   UNL A   1      34.285  31.375  27.742  1.00  0.00     0.039 A 
ATOM     30  C   UNL A   1      34.340  30.063  28.225  1.00  0.00     0.014 A 
ATOM     31  C   UNL A   1      35.320  32.267  28.037  1.00  0.00     0.014 A 
ATOM     32  C   UNL A   1      35.448  29.635  28.960  1.00  0.00     0.010 A 
ATOM     33  C   UNL A   1      36.455  31.820  28.711  1.00  0.00     0.010 A 
ATOM     34  C   UNL A   1      36.527  30.503  29.188  1.00  0.00    -0.014 A 
BRANCH  34  35
ATOM     35  C   UNL A   1      37.742  30.048  29.913  1.00  0.00     0.031 A 
ATOM     36  C   UNL A   1      38.035  30.552  31.302  1.00  0.00     0.074 A 
ATOM     37  C   UNL A   1      38.630  29.253  29.283  1.00  0.00     0.049 A 
ATOM     38  N   UNL A   1      39.072  30.313  32.063  1.00  0.00    -0.248 NA
ATOM     39  C   UNL A   1      37.047  31.461  31.908  1.00  0.00     0.031 C 
ATOM     40  C   UNL A   1      38.496  28.758  27.910  1.00  0.00     0.029 A 
ATOM     41  N   UNL A   1      39.835  28.744  29.700  1.00  0.00    -0.354 N 
ATOM     42  C   UNL A   1      38.889  31.076  33.210  1.00  0.00     0.074 A 
ATOM     43  C   UNL A   1      37.647  31.799  33.042  1.00  0.00     0.031 C 
ATOM     44  C   UNL A   1      39.572  28.017  27.602  1.00  0.00     0.029 A 
ATOM     45  C   UNL A   1      40.487  28.008  28.738  1.00  0.00     0.049 A 
ATOM     46  H   UNL A   1      40.198  28.893  30.604  1.00  0.00     0.167 HD
ATOM     47  C   UNL A   1      39.670  31.151  34.313  1.00  0.00     0.034 A 
ATOM     48  C   UNL A   1      41.691  27.402  28.766  1.00  0.00     0.034 A 
ATOM     49  C   UNL A   1      40.872  30.383  34.501  1.00  0.00     0.049 A 
ATOM     50  C   UNL A   1      42.514  27.468  30.025  1.00  0.00     0.074 A 
ATOM     51  C   UNL A   1      41.669  30.300  35.630  1.00  0.00     0.029 A 
ATOM     52  N   UNL A   1      41.458  29.578  33.537  1.00  0.00    -0.354 N 
ATOM     53  N   UNL A   1      42.231  28.047  31.165  1.00  0.00    -0.248 NA
ATOM     54  C   UNL A   1      43.806  26.766  30.012  1.00  0.00     0.031 C 
ATOM     55  C   UNL A   1      42.752  29.464  35.339  1.00  0.00     0.029 A 
ATOM     56  C   UNL A   1      42.614  29.007  34.039  1.00  0.00     0.049 A 
ATOM     57  H   UNL A   1      41.103  29.433  32.631  1.00  0.00     0.167 HD
ATOM     58  C   UNL A   1      43.286  27.743  32.018  1.00  0.00     0.074 A 
ATOM     59  C   UNL A   1      44.205  26.913  31.267  1.00  0.00     0.031 C 
ATOM     60  C   UNL A   1      43.486  28.129  33.302  1.00  0.00     0.034 A 
BRANCH  47  61
ATOM     61  C   UNL A   1      39.235  32.058  35.433  1.00  0.00     0.023 A 
ATOM     62  C   UNL A   1      38.384  31.563  36.442  1.00  0.00     0.012 A 
ATOM     63  C   UNL A   1      39.741  33.368  35.537  1.00  0.00     0.148 A 
ATOM     64  C   UNL A   1      38.022  32.366  37.523  1.00  0.00     0.002 A 
ATOM     65  C   UNL A   1      39.412  34.148  36.640  1.00  0.00     0.091 A 
ATOM     66  F   UNL A   1      40.534  33.827  34.559  1.00  0.00    -0.205 F 
ATOM     67  C   UNL A   1      38.545  33.653  37.629  1.00  0.00     0.022 A 
BRANCH  65  68
ATOM     68  S   UNL A   1      40.097  35.787  36.911  1.00  0.00     0.127 S 
ATOM     69  O   UNL A   1      39.591  36.513  35.747  1.00  0.00    -0.237 OA
ATOM     70  O   UNL A   1      39.483  36.170  38.182  1.00  0.00    -0.237 OA
ATOM     71  O   UNL A   1      41.542  35.617  36.958  1.00  0.00    -0.744 OA
ENDBRANCH  65  68
ENDBRANCH  47  61
BRANCH  48  72
ATOM     72  C   UNL A   1      42.167  26.622  27.587  1.00  0.00     0.023 A 
ATOM     73  C   UNL A   1      42.919  27.275  26.589  1.00  0.00     0.012 A 
ATOM     74  C   UNL A   1      41.889  25.250  27.448  1.00  0.00     0.148 A 
ATOM     75  C   UNL A   1      43.348  26.585  25.455  1.00  0.00     0.002 A 
ATOM     76  C   UNL A   1      42.371  24.555  26.345  1.00  0.00     0.091 A 
ATOM     77  F   UNL A   1      41.160  24.648  28.398  1.00  0.00    -0.205 F 
ATOM     78  C   UNL A   1      43.082  25.223  25.336  1.00  0.00     0.022 A 
BRANCH  76  79
ATOM     79  S   UNL A   1      42.198  22.773  26.187  1.00  0.00     0.127 S 
ATOM     80  O   UNL A   1      40.748  22.611  26.194  1.00  0.00    -0.237 OA
ATOM     81  O   UNL A   1      42.844  22.516  24.900  1.00  0.00    -0.237 OA
ATOM     82  O   UNL A   1      42.912  22.216  27.331  1.00  0.00    -0.744 OA
ENDBRANCH  76  79
ENDBRANCH  48  72
BRANCH  60  83
ATOM     83  C   UNL A   1      44.717  27.620  34.003  1.00  0.00     0.023 A 
ATOM     84  C   UNL A   1      45.901  28.385  33.988  1.00  0.00     0.012 A 
ATOM     85  C   UNL A   1      44.679  26.421  34.741  1.00  0.00     0.148 A 
ATOM     86  C   UNL A   1      47.036  27.947  34.669  1.00  0.00     0.002 A 
ATOM     87  C   UNL A   1      45.797  26.017  35.460  1.00  0.00     0.091 A 
ATOM     88  F   UNL A   1      43.548  25.698  34.728  1.00  0.00    -0.205 F 
ATOM     89  C   UNL A   1      46.981  26.771  35.414  1.00  0.00     0.022 A 
BRANCH  87  90
ATOM     90  S   UNL A   1      45.783  24.571  36.526  1.00  0.00     0.127 S 
ATOM     91  O   UNL A   1      47.128  24.609  37.096  1.00  0.00    -0.237 OA
ATOM     92  O   UNL A   1      44.711  24.890  37.469  1.00  0.00    -0.237 OA
ATOM     93  O   UNL A   1      45.503  23.435  35.658  1.00  0.00    -0.744 OA
ENDBRANCH  87  90
ENDBRANCH  60  83
ENDBRANCH  34  35
ENDBRANCH  26  29
ENDBRANCH  24  25
ENDBRANCH   1  24
TORSDOF 17
ENDMDL
MODEL 3
REMARK VINA RESULT:     -11.1      1.398      2.061
REMARK SMILES CCOc1cc(N2CCC[C@@H](C(=O)NCCCNC(=O)c3ccc(-c4c5nc(c(-c6cccc(S(=O)(=O)[O-])c6F)c6ccc([nH]6)c(-c6cccc(S(=O)(=O)[O-])c6F)c6nc(c(-c7cccc(S(=O)(=O)[O-])c7F)c7ccc4[nH]7)C=C6)C=C5)cc3)C2)nc(SC)n1
REMARK SMILES IDX 16 1 15 2 14 3 12 4 13 5 11 7 7 8 8 9 84 10 9 11 10 12 6 13
REMARK SMILES IDX 4 14 5 15 89 16 86 17 85 18 3 19 2 20 1 21 87 22 88 23 17 24
REMARK SMILES IDX 18 25 19 26 20 28 21 29 22 30 83 31 23 32 82 33 24 34 25 35
REMARK SMILES IDX 26 36 76 37 27 38 81 39 75 40 77 41 28 42 80 43 74 44 73 45
REMARK SMILES IDX 29 47 61 48 41 49 60 50 42 51 45 52 59 53 78 54 43 55 44 56
REMARK SMILES IDX 58 58 79 59 46 60 30 61 31 62 39 63 32 64 34 65 40 66 33 67
REMARK SMILES IDX 35 68 36 69 37 70 38 71 62 72 63 73 71 74 64 75 66 76 72 77
REMARK SMILES IDX 65 78 67 79 68 80 69 81 70 82 47 83 48 84 56 85 49 86 51 87
REMARK SMILES IDX 57 88 50 89 52 90 53 91 54 92 55 93
REMARK H PARENT 14 6 18 27 77 46 45 57
REMARK Flexibility Score: inf
ROOT
ATOM      1  C   UNL A   1      33.216  28.275  27.079  1.00  0.00     0.042 C 
ENDROOT
BRANCH   1   2
ATOM      2  C   UNL A   1      31.912  28.270  26.280  1.00  0.00     0.117 C 
BRANCH   2   3
ATOM      3  N   UNL A   1      31.035  27.182  26.674  1.00  0.00    -0.356 N 
ATOM      4  C   UNL A   1      30.869  25.923  26.192  1.00  0.00     0.224 C 
ATOM      5  O   UNL A   1      30.028  25.217  26.756  1.00  0.00    -0.275 OA
ATOM      6  H   UNL A   1      30.450  27.398  27.436  1.00  0.00     0.163 HD
BRANCH   4   7
ATOM      7  C   UNL A   1      31.697  25.353  25.053  1.00  0.00     0.098 C 
ATOM      8  N   UNL A   1      32.802  23.387  24.101  1.00  0.00    -0.356 N 
ATOM      9  C   UNL A   1      32.297  23.626  22.755  1.00  0.00     0.118 C 
ATOM     10  C   UNL A   1      32.025  23.878  25.233  1.00  0.00     0.131 C 
ATOM     11  C   UNL A   1      31.996  25.113  22.566  1.00  0.00     0.022 C 
ATOM     12  C   UNL A   1      31.100  25.662  23.677  1.00  0.00     0.017 C 
BRANCH   8  13
ATOM     13  C   UNL A   1      33.549  22.231  24.271  1.00  0.00     0.137 A 
ATOM     14  C   UNL A   1      33.785  19.929  24.626  1.00  0.00     0.219 A 
ATOM     15  C   UNL A   1      32.955  20.997  24.398  1.00  0.00     0.115 A 
ATOM     16  N   UNL A   1      35.106  20.040  24.805  1.00  0.00    -0.187 NA
ATOM     17  C   UNL A   1      35.594  21.281  24.694  1.00  0.00     0.192 A 
ATOM     18  N   UNL A   1      34.876  22.371  24.374  1.00  0.00    -0.205 NA
BRANCH  14  19
ATOM     19  O   UNL A   1      33.226  18.702  24.882  1.00  0.00    -0.478 OA
BRANCH  19  20
ATOM     20  C   UNL A   1      34.112  17.615  24.592  1.00  0.00     0.228 C 
ATOM     21  C   UNL A   1      33.817  17.000  23.228  1.00  0.00     0.049 C 
ENDBRANCH  19  20
ENDBRANCH  14  19
BRANCH  17  22
ATOM     22  S   UNL A   1      37.314  21.517  25.089  1.00  0.00    -0.089 SA
ATOM     23  C   UNL A   1      37.899  19.811  24.903  1.00  0.00     0.094 C 
ENDBRANCH  17  22
ENDBRANCH   8  13
ENDBRANCH   4   7
ENDBRANCH   2   3
ENDBRANCH   1   2
BRANCH   1  24
ATOM     24  C   UNL A   1      34.222  29.328  26.621  1.00  0.00     0.118 C 
BRANCH  24  25
ATOM     25  N   UNL A   1      33.997  30.615  27.264  1.00  0.00    -0.352 N 
ATOM     26  C   UNL A   1      34.673  31.222  28.291  1.00  0.00     0.251 C 
ATOM     27  H   UNL A   1      33.240  31.131  26.904  1.00  0.00     0.163 HD
ATOM     28  O   UNL A   1      34.176  32.210  28.828  1.00  0.00    -0.269 OA
BRANCH  26  29
ATOM     29  C   UNL A   1      35.978  30.705  28.758  1.00  0.00     0.039 A 
ATOM     30  C   UNL A   1      35.995  29.696  29.726  1.00  0.00     0.014 A 
ATOM     31  C   UNL A   1      37.182  31.244  28.295  1.00  0.00     0.014 A 
ATOM     32  C   UNL A   1      37.213  29.197  30.194  1.00  0.00     0.010 A 
ATOM     33  C   UNL A   1      38.395  30.699  28.713  1.00  0.00     0.010 A 
ATOM     34  C   UNL A   1      38.424  29.677  29.673  1.00  0.00    -0.014 A 
BRANCH  34  35
ATOM     35  C   UNL A   1      39.729  29.116  30.111  1.00  0.00     0.031 A 
ATOM     36  C   UNL A   1      40.500  29.764  31.231  1.00  0.00     0.074 A 
ATOM     37  C   UNL A   1      40.262  28.077  29.437  1.00  0.00     0.049 A 
ATOM     38  N   UNL A   1      41.676  29.451  31.709  1.00  0.00    -0.248 NA
ATOM     39  C   UNL A   1      39.880  30.928  31.887  1.00  0.00     0.031 C 
ATOM     40  C   UNL A   1      39.647  27.411  28.287  1.00  0.00     0.029 A 
ATOM     41  N   UNL A   1      41.455  27.418  29.601  1.00  0.00    -0.354 N 
ATOM     42  C   UNL A   1      41.961  30.403  32.681  1.00  0.00     0.074 A 
ATOM     43  C   UNL A   1      40.839  31.316  32.717  1.00  0.00     0.031 C 
ATOM     44  C   UNL A   1      40.464  26.438  27.853  1.00  0.00     0.029 A 
ATOM     45  C   UNL A   1      41.673  26.430  28.669  1.00  0.00     0.049 A 
ATOM     46  H   UNL A   1      42.094  27.632  30.319  1.00  0.00     0.167 HD
ATOM     47  C   UNL A   1      43.045  30.497  33.485  1.00  0.00     0.034 A 
ATOM     48  C   UNL A   1      42.732  25.616  28.487  1.00  0.00     0.034 A 
ATOM     49  C   UNL A   1      44.130  29.551  33.488  1.00  0.00     0.049 A 
ATOM     50  C   UNL A   1      43.902  25.717  29.429  1.00  0.00     0.074 A 
ATOM     51  C   UNL A   1      45.215  29.493  34.345  1.00  0.00     0.029 A 
ATOM     52  N   UNL A   1      44.275  28.509  32.586  1.00  0.00    -0.354 N 
ATOM     53  N   UNL A   1      44.065  26.509  30.459  1.00  0.00    -0.248 NA
ATOM     54  C   UNL A   1      45.019  24.787  29.204  1.00  0.00     0.031 C 
ATOM     55  C   UNL A   1      46.031  28.430  33.944  1.00  0.00     0.029 A 
ATOM     56  C   UNL A   1      45.439  27.811  32.855  1.00  0.00     0.049 A 
ATOM     57  H   UNL A   1      43.643  28.297  31.862  1.00  0.00     0.167 HD
ATOM     58  C   UNL A   1      45.279  26.145  31.031  1.00  0.00     0.074 A 
ATOM     59  C   UNL A   1      45.800  25.047  30.242  1.00  0.00     0.031 C 
ATOM     60  C   UNL A   1      45.914  26.680  32.103  1.00  0.00     0.034 A 
BRANCH  47  61
ATOM     61  C   UNL A   1      43.103  31.633  34.472  1.00  0.00     0.023 A 
ATOM     62  C   UNL A   1      43.709  32.851  34.100  1.00  0.00     0.012 A 
ATOM     63  C   UNL A   1      42.478  31.527  35.730  1.00  0.00     0.148 A 
ATOM     64  C   UNL A   1      43.715  33.937  34.975  1.00  0.00     0.002 A 
ATOM     65  C   UNL A   1      42.449  32.628  36.578  1.00  0.00     0.091 A 
ATOM     66  F   UNL A   1      41.923  30.356  36.072  1.00  0.00    -0.205 F 
ATOM     67  C   UNL A   1      43.075  33.830  36.208  1.00  0.00     0.022 A 
BRANCH  65  68
ATOM     68  S   UNL A   1      41.581  32.619  38.152  1.00  0.00     0.127 S 
ATOM     69  O   UNL A   1      41.736  34.008  38.581  1.00  0.00    -0.237 OA
ATOM     70  O   UNL A   1      40.223  32.251  37.751  1.00  0.00    -0.237 OA
ATOM     71  O   UNL A   1      42.261  31.632  38.980  1.00  0.00    -0.744 OA
ENDBRANCH  65  68
ENDBRANCH  47  61
BRANCH  48  72
ATOM     72  C   UNL A   1      42.712  24.586  27.408  1.00  0.00     0.023 A 
ATOM     73  C   UNL A   1      43.266  24.897  26.150  1.00  0.00     0.012 A 
ATOM     74  C   UNL A   1      42.158  23.310  27.616  1.00  0.00     0.148 A 
ATOM     75  C   UNL A   1      43.230  23.971  25.107  1.00  0.00     0.002 A 
ATOM     76  C   UNL A   1      42.180  22.371  26.591  1.00  0.00     0.091 A 
ATOM     77  F   UNL A   1      41.621  23.035  28.814  1.00  0.00    -0.205 F 
ATOM     78  C   UNL A   1      42.696  22.705  25.330  1.00  0.00     0.022 A 
BRANCH  76  79
ATOM     79  S   UNL A   1      41.645  20.673  26.838  1.00  0.00     0.127 S 
ATOM     80  O   UNL A   1      40.231  20.848  27.154  1.00  0.00    -0.237 OA
ATOM     81  O   UNL A   1      41.918  20.074  25.532  1.00  0.00    -0.237 OA
ATOM     82  O   UNL A   1      42.484  20.159  27.914  1.00  0.00    -0.744 OA
ENDBRANCH  76  79
ENDBRANCH  48  72
BRANCH  60  83
ATOM     83  C   UNL A   1      47.219  26.059  32.526  1.00  0.00     0.023 A 
ATOM     84  C   UNL A   1      48.432  26.548  32.001  1.00  0.00     0.012 A 
ATOM     85  C   UNL A   1      47.247  25.044  33.501  1.00  0.00     0.148 A 
ATOM     86  C   UNL A   1      49.650  26.012  32.416  1.00  0.00     0.002 A 
ATOM     87  C   UNL A   1      48.467  24.549  33.947  1.00  0.00     0.091 A 
ATOM     88  F   UNL A   1      46.081  24.579  33.975  1.00  0.00    -0.205 F 
ATOM     89  C   UNL A   1      49.668  25.023  33.396  1.00  0.00     0.022 A 
BRANCH  87  90
ATOM     90  S   UNL A   1      48.588  23.349  35.278  1.00  0.00     0.127 S 
ATOM     91  O   UNL A   1      47.931  22.184  34.690  1.00  0.00    -0.237 OA
ATOM     92  O   UNL A   1      50.036  23.214  35.444  1.00  0.00    -0.237 OA
ATOM     93  O   UNL A   1      47.904  23.944  36.419  1.00  0.00    -0.744 OA
ENDBRANCH  87  90
ENDBRANCH  60  83
ENDBRANCH  34  35
ENDBRANCH  26  29
ENDBRANCH  24  25
ENDBRANCH   1  24
TORSDOF 17
ENDMDL
