MODEL 1
REMARK VINA RESULT:     -11.9      0.000      0.000
REMARK SMILES Cc1cc(C(=O)N2CCC[C@@H]2C(C)C)sc1/C=C/C(=O)NCCCNC(=O)c1ccc(-c2c3nc(c(-c4cccc(S(=O)(=O)[O-])c4F)c4ccc([nH]4)c(-c4cccc(S(=O)(=O)[O-])c4F)c4nc(c(-c5cccc(S(=O)(=O)[O-])c5F)c5ccc2[nH]5)C=C4)C=C3)cc1
REMARK SMILES IDX 22 1 21 2 19 3 20 4 18 6 17 7 16 8 1 9 2 10 3 11 4 12 15 13
REMARK SMILES IDX 5 14 6 15 7 16 8 17 11 18 9 19 10 20 12 21 13 22 14 23 23 24
REMARK SMILES IDX 24 25 25 26 26 27 27 29 28 30 29 31 90 32 30 33 89 34 31 35
REMARK SMILES IDX 32 36 33 37 83 38 34 39 88 40 82 41 84 42 35 43 87 44 81 45
REMARK SMILES IDX 80 46 36 48 68 49 48 50 67 51 49 52 52 53 66 54 85 55 50 56
REMARK SMILES IDX 51 57 65 59 86 60 53 61 37 62 38 63 46 64 39 65 41 66 47 67
REMARK SMILES IDX 40 68 42 69 43 70 44 71 45 72 69 73 70 74 78 75 71 76 73 77
REMARK SMILES IDX 79 78 72 79 74 80 75 81 76 82 77 83 54 84 55 85 63 86 56 87
REMARK SMILES IDX 58 88 64 89 57 90 59 91 60 92 61 93 62 94
REMARK H PARENT 21 5 25 28 84 47 52 58
REMARK Flexibility Score: inf
ROOT
ATOM      1  C   UNL A   1      32.775  27.698  24.651  1.00  0.00     0.118 C 
ENDROOT
BRANCH   1   2
ATOM      2  N   UNL A   1      33.194  27.587  23.264  1.00  0.00    -0.352 N 
ATOM      3  C   UNL A   1      33.494  26.485  22.527  1.00  0.00     0.244 C 
ATOM      4  O   UNL A   1      33.677  26.586  21.316  1.00  0.00    -0.270 OA
ATOM      5  H   UNL A   1      33.272  28.443  22.783  1.00  0.00     0.163 HD
BRANCH   3   6
ATOM      6  C   UNL A   1      33.505  25.149  23.154  1.00  0.00     0.072 C 
ATOM      7  C   UNL A   1      34.588  24.617  23.741  1.00  0.00     0.025 C 
BRANCH   7   8
ATOM      8  C   UNL A   1      34.598  23.306  24.304  1.00  0.00     0.031 A 
ATOM      9  C   UNL A   1      37.057  23.103  25.041  1.00  0.00     0.046 C 
ATOM     10  C   UNL A   1      35.668  22.587  24.826  1.00  0.00    -0.032 A 
ATOM     11  C   UNL A   1      35.285  21.240  25.156  1.00  0.00     0.029 A 
ATOM     12  C   UNL A   1      33.946  20.977  24.938  1.00  0.00     0.093 A 
ATOM     13  S   UNL A   1      33.158  22.380  24.376  1.00  0.00    -0.130 S 
BRANCH  12  14
ATOM     14  C   UNL A   1      33.233  19.740  25.265  1.00  0.00     0.264 C 
ATOM     15  O   UNL A   1      32.603  19.600  26.313  1.00  0.00    -0.268 OA
BRANCH  14  16
ATOM     16  N   UNL A   1      33.163  18.773  24.271  1.00  0.00    -0.335 N 
ATOM     17  C   UNL A   1      32.508  19.038  23.003  1.00  0.00     0.120 C 
ATOM     18  C   UNL A   1      34.151  17.697  24.131  1.00  0.00     0.088 C 
ATOM     19  C   UNL A   1      32.445  17.670  22.372  1.00  0.00     0.024 C 
ATOM     20  C   UNL A   1      33.795  17.069  22.759  1.00  0.00     0.027 C 
BRANCH  18  21
ATOM     21  C   UNL A   1      34.134  16.675  25.309  1.00  0.00     0.005 C 
ATOM     22  C   UNL A   1      32.894  15.771  25.272  1.00  0.00     0.009 C 
ATOM     23  C   UNL A   1      35.364  15.754  25.313  1.00  0.00     0.009 C 
ENDBRANCH  18  21
ENDBRANCH  14  16
ENDBRANCH  12  14
ENDBRANCH   7   8
ENDBRANCH   3   6
ENDBRANCH   1   2
BRANCH   1  24
ATOM     24  C   UNL A   1      33.954  27.973  25.580  1.00  0.00     0.042 C 
BRANCH  24  25
ATOM     25  C   UNL A   1      33.537  28.395  26.987  1.00  0.00     0.118 C 
BRANCH  25  26
ATOM     26  N   UNL A   1      33.534  29.843  27.141  1.00  0.00    -0.352 N 
ATOM     27  C   UNL A   1      34.424  30.664  27.788  1.00  0.00     0.251 C 
ATOM     28  H   UNL A   1      32.776  30.305  26.716  1.00  0.00     0.163 HD
ATOM     29  O   UNL A   1      34.118  31.837  27.987  1.00  0.00    -0.269 OA
BRANCH  27  30
ATOM     30  C   UNL A   1      35.735  30.153  28.248  1.00  0.00     0.039 A 
ATOM     31  C   UNL A   1      36.813  30.172  27.358  1.00  0.00     0.014 A 
ATOM     32  C   UNL A   1      35.895  29.605  29.524  1.00  0.00     0.014 A 
ATOM     33  C   UNL A   1      38.059  29.684  27.761  1.00  0.00     0.010 A 
ATOM     34  C   UNL A   1      37.153  29.178  29.946  1.00  0.00     0.010 A 
ATOM     35  C   UNL A   1      38.244  29.201  29.065  1.00  0.00    -0.014 A 
BRANCH  35  36
ATOM     36  C   UNL A   1      39.570  28.719  29.528  1.00  0.00     0.031 A 
ATOM     37  C   UNL A   1      40.302  29.443  30.626  1.00  0.00     0.074 A 
ATOM     38  C   UNL A   1      40.155  27.682  28.898  1.00  0.00     0.049 A 
ATOM     39  N   UNL A   1      41.491  29.209  31.117  1.00  0.00    -0.248 NA
ATOM     40  C   UNL A   1      39.619  30.596  31.235  1.00  0.00     0.031 C 
ATOM     41  C   UNL A   1      39.583  26.949  27.767  1.00  0.00     0.029 A 
ATOM     42  N   UNL A   1      41.374  27.084  29.099  1.00  0.00    -0.354 N 
ATOM     43  C   UNL A   1      41.716  30.203  32.061  1.00  0.00     0.074 A 
ATOM     44  C   UNL A   1      40.550  31.060  32.056  1.00  0.00     0.031 C 
ATOM     45  C   UNL A   1      40.450  26.003  27.372  1.00  0.00     0.029 A 
ATOM     46  C   UNL A   1      41.646  26.073  28.207  1.00  0.00     0.049 A 
ATOM     47  H   UNL A   1      41.995  27.352  29.815  1.00  0.00     0.167 HD
ATOM     48  C   UNL A   1      42.780  30.372  32.881  1.00  0.00     0.034 A 
ATOM     49  C   UNL A   1      42.736  25.293  28.073  1.00  0.00     0.034 A 
ATOM     50  C   UNL A   1      43.913  29.485  32.924  1.00  0.00     0.049 A 
ATOM     51  C   UNL A   1      43.877  25.457  29.041  1.00  0.00     0.074 A 
ATOM     52  C   UNL A   1      45.000  29.518  33.780  1.00  0.00     0.029 A 
ATOM     53  N   UNL A   1      44.103  28.405  32.077  1.00  0.00    -0.354 N 
ATOM     54  N   UNL A   1      43.999  26.303  30.035  1.00  0.00    -0.248 NA
ATOM     55  C   UNL A   1      45.012  24.534  28.895  1.00  0.00     0.031 C 
ATOM     56  C   UNL A   1      45.850  28.458  33.448  1.00  0.00     0.029 A 
ATOM     57  C   UNL A   1      45.288  27.761  32.390  1.00  0.00     0.049 A 
ATOM     58  H   UNL A   1      43.486  28.134  31.359  1.00  0.00     0.167 HD
ATOM     59  C   UNL A   1      45.205  25.996  30.651  1.00  0.00     0.074 A 
ATOM     60  C   UNL A   1      45.767  24.871  29.933  1.00  0.00     0.031 C 
ATOM     61  C   UNL A   1      45.805  26.605  31.704  1.00  0.00     0.034 A 
BRANCH  48  62
ATOM     62  C   UNL A   1      42.739  31.521  33.853  1.00  0.00     0.023 A 
ATOM     63  C   UNL A   1      43.276  32.766  33.469  1.00  0.00     0.012 A 
ATOM     64  C   UNL A   1      42.125  31.392  35.114  1.00  0.00     0.148 A 
ATOM     65  C   UNL A   1      43.233  33.857  34.336  1.00  0.00     0.002 A 
ATOM     66  C   UNL A   1      42.051  32.495  35.959  1.00  0.00     0.091 A 
ATOM     67  F   UNL A   1      41.641  30.194  35.473  1.00  0.00    -0.205 F 
ATOM     68  C   UNL A   1      42.612  33.725  35.575  1.00  0.00     0.022 A 
BRANCH  66  69
ATOM     69  S   UNL A   1      41.208  32.442  37.545  1.00  0.00     0.127 S 
ATOM     70  O   UNL A   1      42.089  31.568  38.318  1.00  0.00    -0.237 OA
ATOM     71  O   UNL A   1      41.228  33.847  37.956  1.00  0.00    -0.237 OA
ATOM     72  O   UNL A   1      39.879  31.913  37.270  1.00  0.00    -0.744 OA
ENDBRANCH  66  69
ENDBRANCH  48  62
BRANCH  49  73
ATOM     73  C   UNL A   1      42.758  24.227  27.033  1.00  0.00     0.023 A 
ATOM     74  C   UNL A   1      43.477  24.444  25.842  1.00  0.00     0.012 A 
ATOM     75  C   UNL A   1      42.120  22.988  27.235  1.00  0.00     0.148 A 
ATOM     76  C   UNL A   1      43.541  23.457  24.859  1.00  0.00     0.002 A 
ATOM     77  C   UNL A   1      42.231  21.988  26.273  1.00  0.00     0.091 A 
ATOM     78  F   UNL A   1      41.426  22.806  28.367  1.00  0.00    -0.205 F 
ATOM     79  C   UNL A   1      42.928  22.226  25.079  1.00  0.00     0.022 A 
BRANCH  77  80
ATOM     80  S   UNL A   1      41.592  20.331  26.541  1.00  0.00     0.127 S 
ATOM     81  O   UNL A   1      40.149  20.558  26.517  1.00  0.00    -0.237 OA
ATOM     82  O   UNL A   1      42.121  19.607  25.385  1.00  0.00    -0.237 OA
ATOM     83  O   UNL A   1      42.149  19.903  27.817  1.00  0.00    -0.744 OA
ENDBRANCH  77  80
ENDBRANCH  49  73
BRANCH  61  84
ATOM     84  C   UNL A   1      47.129  26.056  32.165  1.00  0.00     0.023 A 
ATOM     85  C   UNL A   1      47.169  25.175  33.263  1.00  0.00     0.012 A 
ATOM     86  C   UNL A   1      48.317  26.349  31.467  1.00  0.00     0.148 A 
ATOM     87  C   UNL A   1      48.376  24.613  33.676  1.00  0.00     0.002 A 
ATOM     88  C   UNL A   1      49.510  25.752  31.859  1.00  0.00     0.091 A 
ATOM     89  F   UNL A   1      48.261  27.207  30.438  1.00  0.00    -0.205 F 
ATOM     90  C   UNL A   1      49.543  24.891  32.967  1.00  0.00     0.022 A 
BRANCH  88  91
ATOM     91  S   UNL A   1      51.039  25.988  30.946  1.00  0.00     0.127 S 
ATOM     92  O   UNL A   1      51.976  25.172  31.715  1.00  0.00    -0.237 OA
ATOM     93  O   UNL A   1      50.705  25.450  29.625  1.00  0.00    -0.237 OA
ATOM     94  O   UNL A   1      51.291  27.423  30.961  1.00  0.00    -0.744 OA
ENDBRANCH  88  91
ENDBRANCH  61  84
ENDBRANCH  35  36
ENDBRANCH  27  30
ENDBRANCH  25  26
ENDBRANCH  24  25
ENDBRANCH   1  24
TORSDOF 17
ENDMDL
MODEL 2
REMARK VINA RESULT:     -11.6      5.128      7.484
REMARK SMILES Cc1cc(C(=O)N2CCC[C@@H]2C(C)C)sc1/C=C/C(=O)NCCCNC(=O)c1ccc(-c2c3nc(c(-c4cccc(S(=O)(=O)[O-])c4F)c4ccc([nH]4)c(-c4cccc(S(=O)(=O)[O-])c4F)c4nc(c(-c5cccc(S(=O)(=O)[O-])c5F)c5ccc2[nH]5)C=C4)C=C3)cc1
REMARK SMILES IDX 22 1 21 2 19 3 20 4 18 6 17 7 16 8 1 9 2 10 3 11 4 12 15 13
REMARK SMILES IDX 5 14 6 15 7 16 8 17 11 18 9 19 10 20 12 21 13 22 14 23 23 24
REMARK SMILES IDX 24 25 25 26 26 27 27 29 28 30 29 31 90 32 30 33 89 34 31 35
REMARK SMILES IDX 32 36 33 37 83 38 34 39 88 40 82 41 84 42 35 43 87 44 81 45
REMARK SMILES IDX 80 46 36 48 68 49 48 50 67 51 49 52 52 53 66 54 85 55 50 56
REMARK SMILES IDX 51 57 65 59 86 60 53 61 37 62 38 63 46 64 39 65 41 66 47 67
REMARK SMILES IDX 40 68 42 69 43 70 44 71 45 72 69 73 70 74 78 75 71 76 73 77
REMARK SMILES IDX 79 78 72 79 74 80 75 81 76 82 77 83 54 84 55 85 63 86 56 87
REMARK SMILES IDX 58 88 64 89 57 90 59 91 60 92 61 93 62 94
REMARK H PARENT 21 5 25 28 84 47 52 58
REMARK Flexibility Score: inf
ROOT
ATOM      1  C   UNL A   1      34.201  35.446  27.993  1.00  0.00     0.118 C 
ENDROOT
BRANCH   1   2
ATOM      2  N   UNL A   1      35.383  35.250  28.815  1.00  0.00    -0.352 N 
ATOM      3  C   UNL A   1      35.959  34.101  29.257  1.00  0.00     0.244 C 
ATOM      4  O   UNL A   1      37.053  34.137  29.815  1.00  0.00    -0.270 OA
ATOM      5  H   UNL A   1      35.836  36.078  29.096  1.00  0.00     0.163 HD
BRANCH   3   6
ATOM      6  C   UNL A   1      35.326  32.797  28.983  1.00  0.00     0.072 C 
ATOM      7  C   UNL A   1      35.636  32.031  27.925  1.00  0.00     0.025 C 
BRANCH   7   8
ATOM      8  C   UNL A   1      34.984  30.793  27.647  1.00  0.00     0.031 A 
ATOM      9  C   UNL A   1      36.942  29.138  27.886  1.00  0.00     0.046 C 
ATOM     10  C   UNL A   1      35.531  29.517  27.560  1.00  0.00    -0.032 A 
ATOM     11  C   UNL A   1      34.558  28.558  27.111  1.00  0.00     0.029 A 
ATOM     12  C   UNL A   1      33.299  29.095  26.921  1.00  0.00     0.093 A 
ATOM     13  S   UNL A   1      33.301  30.749  27.331  1.00  0.00    -0.130 S 
BRANCH  12  14
ATOM     14  C   UNL A   1      32.081  28.364  26.564  1.00  0.00     0.264 C 
ATOM     15  O   UNL A   1      31.303  27.928  27.412  1.00  0.00    -0.268 OA
BRANCH  14  16
ATOM     16  N   UNL A   1      31.750  28.313  25.217  1.00  0.00    -0.335 N 
ATOM     17  C   UNL A   1      30.962  29.359  24.591  1.00  0.00     0.120 C 
ATOM     18  C   UNL A   1      32.563  27.607  24.220  1.00  0.00     0.088 C 
ATOM     19  C   UNL A   1      30.639  28.767  23.242  1.00  0.00     0.024 C 
ATOM     20  C   UNL A   1      31.941  28.062  22.874  1.00  0.00     0.027 C 
BRANCH  18  21
ATOM     21  C   UNL A   1      32.581  26.060  24.409  1.00  0.00     0.005 C 
ATOM     22  C   UNL A   1      32.281  25.313  23.101  1.00  0.00     0.009 C 
ATOM     23  C   UNL A   1      33.933  25.540  24.924  1.00  0.00     0.009 C 
ENDBRANCH  18  21
ENDBRANCH  14  16
ENDBRANCH  12  14
ENDBRANCH   7   8
ENDBRANCH   3   6
ENDBRANCH   1   2
BRANCH   1  24
ATOM     24  C   UNL A   1      33.182  36.358  28.670  1.00  0.00     0.042 C 
BRANCH  24  25
ATOM     25  C   UNL A   1      33.587  36.788  30.078  1.00  0.00     0.118 C 
BRANCH  25  26
ATOM     26  N   UNL A   1      32.540  36.515  31.052  1.00  0.00    -0.352 N 
ATOM     27  C   UNL A   1      32.510  35.612  32.086  1.00  0.00     0.251 C 
ATOM     28  H   UNL A   1      31.728  37.063  30.956  1.00  0.00     0.163 HD
ATOM     29  O   UNL A   1      31.443  35.389  32.653  1.00  0.00    -0.269 OA
BRANCH  27  30
ATOM     30  C   UNL A   1      33.738  34.906  32.517  1.00  0.00     0.039 A 
ATOM     31  C   UNL A   1      33.640  33.566  32.904  1.00  0.00     0.014 A 
ATOM     32  C   UNL A   1      34.966  35.567  32.596  1.00  0.00     0.014 A 
ATOM     33  C   UNL A   1      34.780  32.878  33.328  1.00  0.00     0.010 A 
ATOM     34  C   UNL A   1      36.113  34.863  32.959  1.00  0.00     0.010 A 
ATOM     35  C   UNL A   1      36.031  33.516  33.340  1.00  0.00    -0.014 A 
BRANCH  35  36
ATOM     36  C   UNL A   1      37.262  32.790  33.745  1.00  0.00     0.031 A 
ATOM     37  C   UNL A   1      38.056  33.250  34.939  1.00  0.00     0.074 A 
ATOM     38  C   UNL A   1      37.713  31.774  32.986  1.00  0.00     0.049 A 
ATOM     39  N   UNL A   1      39.186  32.784  35.405  1.00  0.00    -0.248 NA
ATOM     40  C   UNL A   1      37.524  34.398  35.692  1.00  0.00     0.031 C 
ATOM     41  C   UNL A   1      37.076  31.287  31.761  1.00  0.00     0.029 A 
ATOM     42  N   UNL A   1      38.828  30.985  33.117  1.00  0.00    -0.354 N 
ATOM     43  C   UNL A   1      39.520  33.602  36.477  1.00  0.00     0.074 A 
ATOM     44  C   UNL A   1      38.487  34.610  36.578  1.00  0.00     0.031 C 
ATOM     45  C   UNL A   1      37.813  30.287  31.250  1.00  0.00     0.029 A 
ATOM     46  C   UNL A   1      38.982  30.073  32.098  1.00  0.00     0.049 A 
ATOM     47  H   UNL A   1      39.460  31.064  33.868  1.00  0.00     0.167 HD
ATOM     48  C   UNL A   1      40.574  33.505  37.323  1.00  0.00     0.034 A 
ATOM     49  C   UNL A   1      39.954  29.170  31.871  1.00  0.00     0.034 A 
ATOM     50  C   UNL A   1      41.568  32.467  37.257  1.00  0.00     0.049 A 
ATOM     51  C   UNL A   1      41.078  29.038  32.863  1.00  0.00     0.074 A 
ATOM     52  C   UNL A   1      42.624  32.230  38.120  1.00  0.00     0.029 A 
ATOM     53  N   UNL A   1      41.629  31.493  36.273  1.00  0.00    -0.354 N 
ATOM     54  N   UNL A   1      41.289  29.719  33.963  1.00  0.00    -0.248 NA
ATOM     55  C   UNL A   1      42.075  27.989  32.604  1.00  0.00     0.031 C 
ATOM     56  C   UNL A   1      43.325  31.112  37.655  1.00  0.00     0.029 A 
ATOM     57  C   UNL A   1      42.702  30.650  36.507  1.00  0.00     0.049 A 
ATOM     58  H   UNL A   1      41.001  31.412  35.519  1.00  0.00     0.167 HD
ATOM     59  C   UNL A   1      42.422  29.162  34.544  1.00  0.00     0.074 A 
ATOM     60  C   UNL A   1      42.840  28.073  33.685  1.00  0.00     0.031 C 
ATOM     61  C   UNL A   1      43.071  29.533  35.676  1.00  0.00     0.034 A 
BRANCH  48  62
ATOM     62  C   UNL A   1      40.666  34.509  38.442  1.00  0.00     0.023 A 
ATOM     63  C   UNL A   1      41.500  35.635  38.288  1.00  0.00     0.012 A 
ATOM     64  C   UNL A   1      39.896  34.375  39.613  1.00  0.00     0.148 A 
ATOM     65  C   UNL A   1      41.591  36.596  39.295  1.00  0.00     0.002 A 
ATOM     66  C   UNL A   1      39.961  35.357  40.596  1.00  0.00     0.091 A 
ATOM     67  F   UNL A   1      39.127  33.285  39.753  1.00  0.00    -0.205 F 
ATOM     68  C   UNL A   1      40.815  36.462  40.443  1.00  0.00     0.022 A 
BRANCH  66  69
ATOM     69  S   UNL A   1      38.947  35.309  42.078  1.00  0.00     0.127 S 
ATOM     70  O   UNL A   1      39.358  34.039  42.676  1.00  0.00    -0.237 OA
ATOM     71  O   UNL A   1      39.396  36.498  42.802  1.00  0.00    -0.237 OA
ATOM     72  O   UNL A   1      37.567  35.369  41.616  1.00  0.00    -0.744 OA
ENDBRANCH  66  69
ENDBRANCH  48  62
BRANCH  49  73
ATOM     73  C   UNL A   1      39.856  28.260  30.695  1.00  0.00     0.023 A 
ATOM     74  C   UNL A   1      38.971  27.165  30.747  1.00  0.00     0.012 A 
ATOM     75  C   UNL A   1      40.586  28.499  29.515  1.00  0.00     0.148 A 
ATOM     76  C   UNL A   1      38.833  26.309  29.653  1.00  0.00     0.002 A 
ATOM     77  C   UNL A   1      40.406  27.673  28.411  1.00  0.00     0.091 A 
ATOM     78  F   UNL A   1      41.435  29.536  29.491  1.00  0.00    -0.205 F 
ATOM     79  C   UNL A   1      39.541  26.570  28.483  1.00  0.00     0.022 A 
BRANCH  77  80
ATOM     80  S   UNL A   1      41.171  28.020  26.823  1.00  0.00     0.127 S 
ATOM     81  O   UNL A   1      42.578  28.150  27.191  1.00  0.00    -0.237 OA
ATOM     82  O   UNL A   1      40.843  26.819  26.055  1.00  0.00    -0.237 OA
ATOM     83  O   UNL A   1      40.523  29.231  26.338  1.00  0.00    -0.744 OA
ENDBRANCH  77  80
ENDBRANCH  49  73
BRANCH  61  84
ATOM     84  C   UNL A   1      44.290  28.744  36.071  1.00  0.00     0.023 A 
ATOM     85  C   UNL A   1      45.563  29.181  35.655  1.00  0.00     0.012 A 
ATOM     86  C   UNL A   1      44.183  27.622  36.915  1.00  0.00     0.148 A 
ATOM     87  C   UNL A   1      46.711  28.497  36.052  1.00  0.00     0.002 A 
ATOM     88  C   UNL A   1      45.335  26.969  37.341  1.00  0.00     0.091 A 
ATOM     89  F   UNL A   1      42.962  27.208  37.282  1.00  0.00    -0.205 F 
ATOM     90  C   UNL A   1      46.598  27.400  36.904  1.00  0.00     0.022 A 
BRANCH  88  91
ATOM     91  S   UNL A   1      45.282  25.604  38.508  1.00  0.00     0.127 S 
ATOM     92  O   UNL A   1      44.570  24.583  37.742  1.00  0.00    -0.237 OA
ATOM     93  O   UNL A   1      46.702  25.321  38.727  1.00  0.00    -0.237 OA
ATOM     94  O   UNL A   1      44.586  26.114  39.681  1.00  0.00    -0.744 OA
ENDBRANCH  88  91
ENDBRANCH  61  84
ENDBRANCH  35  36
ENDBRANCH  27  30
ENDBRANCH  25  26
ENDBRANCH  24  25
ENDBRANCH   1  24
TORSDOF 17
ENDMDL
MODEL 3
REMARK VINA RESULT:     -11.6      3.950      9.033
REMARK SMILES Cc1cc(C(=O)N2CCC[C@@H]2C(C)C)sc1/C=C/C(=O)NCCCNC(=O)c1ccc(-c2c3nc(c(-c4cccc(S(=O)(=O)[O-])c4F)c4ccc([nH]4)c(-c4cccc(S(=O)(=O)[O-])c4F)c4nc(c(-c5cccc(S(=O)(=O)[O-])c5F)c5ccc2[nH]5)C=C4)C=C3)cc1
REMARK SMILES IDX 22 1 21 2 19 3 20 4 18 6 17 7 16 8 1 9 2 10 3 11 4 12 15 13
REMARK SMILES IDX 5 14 6 15 7 16 8 17 11 18 9 19 10 20 12 21 13 22 14 23 23 24
REMARK SMILES IDX 24 25 25 26 26 27 27 29 28 30 29 31 90 32 30 33 89 34 31 35
REMARK SMILES IDX 32 36 33 37 83 38 34 39 88 40 82 41 84 42 35 43 87 44 81 45
REMARK SMILES IDX 80 46 36 48 68 49 48 50 67 51 49 52 52 53 66 54 85 55 50 56
REMARK SMILES IDX 51 57 65 59 86 60 53 61 37 62 38 63 46 64 39 65 41 66 47 67
REMARK SMILES IDX 40 68 42 69 43 70 44 71 45 72 69 73 70 74 78 75 71 76 73 77
REMARK SMILES IDX 79 78 72 79 74 80 75 81 76 82 77 83 54 84 55 85 63 86 56 87
REMARK SMILES IDX 58 88 64 89 57 90 59 91 60 92 61 93 62 94
REMARK H PARENT 21 5 25 28 84 47 52 58
REMARK Flexibility Score: inf
ROOT
ATOM      1  C   UNL A   1      31.402  30.713  25.861  1.00  0.00     0.118 C 
ENDROOT
BRANCH   1   2
ATOM      2  N   UNL A   1      30.576  30.801  24.669  1.00  0.00    -0.352 N 
ATOM      3  C   UNL A   1      30.289  29.857  23.733  1.00  0.00     0.244 C 
ATOM      4  O   UNL A   1      29.437  30.080  22.876  1.00  0.00    -0.270 OA
ATOM      5  H   UNL A   1      30.159  31.680  24.515  1.00  0.00     0.163 HD
BRANCH   3   6
ATOM      6  C   UNL A   1      30.924  28.527  23.798  1.00  0.00     0.072 C 
ATOM      7  C   UNL A   1      30.239  27.376  23.720  1.00  0.00     0.025 C 
BRANCH   7   8
ATOM      8  C   UNL A   1      30.860  26.096  23.829  1.00  0.00     0.031 A 
ATOM      9  C   UNL A   1      29.813  25.223  26.014  1.00  0.00     0.046 C 
ATOM     10  C   UNL A   1      30.746  25.153  24.846  1.00  0.00    -0.032 A 
ATOM     11  C   UNL A   1      31.654  24.055  24.648  1.00  0.00     0.029 A 
ATOM     12  C   UNL A   1      32.388  24.148  23.480  1.00  0.00     0.093 A 
ATOM     13  S   UNL A   1      31.936  25.546  22.616  1.00  0.00    -0.130 S 
BRANCH  12  14
ATOM     14  C   UNL A   1      33.317  23.149  22.950  1.00  0.00     0.264 C 
ATOM     15  O   UNL A   1      33.657  23.128  21.767  1.00  0.00    -0.268 OA
BRANCH  14  16
ATOM     16  N   UNL A   1      33.930  22.308  23.869  1.00  0.00    -0.335 N 
ATOM     17  C   UNL A   1      33.334  21.041  24.250  1.00  0.00     0.120 C 
ATOM     18  C   UNL A   1      35.380  22.289  24.093  1.00  0.00     0.088 C 
ATOM     19  C   UNL A   1      34.181  20.617  25.424  1.00  0.00     0.024 C 
ATOM     20  C   UNL A   1      35.582  21.036  24.984  1.00  0.00     0.027 C 
BRANCH  18  21
ATOM     21  C   UNL A   1      35.933  23.602  24.727  1.00  0.00     0.005 C 
ATOM     22  C   UNL A   1      35.002  24.155  25.817  1.00  0.00     0.009 C 
ATOM     23  C   UNL A   1      37.317  23.415  25.368  1.00  0.00     0.009 C 
ENDBRANCH  18  21
ENDBRANCH  14  16
ENDBRANCH  12  14
ENDBRANCH   7   8
ENDBRANCH   3   6
ENDBRANCH   1   2
BRANCH   1  24
ATOM     24  C   UNL A   1      31.304  31.974  26.715  1.00  0.00     0.042 C 
BRANCH  24  25
ATOM     25  C   UNL A   1      32.655  32.485  27.208  1.00  0.00     0.118 C 
BRANCH  25  26
ATOM     26  N   UNL A   1      32.612  33.901  27.545  1.00  0.00    -0.352 N 
ATOM     27  C   UNL A   1      33.298  34.601  28.505  1.00  0.00     0.251 C 
ATOM     28  H   UNL A   1      31.994  34.439  26.999  1.00  0.00     0.163 HD
ATOM     29  O   UNL A   1      32.950  35.750  28.768  1.00  0.00    -0.269 OA
BRANCH  27  30
ATOM     30  C   UNL A   1      34.439  33.991  29.223  1.00  0.00     0.039 A 
ATOM     31  C   UNL A   1      34.180  32.997  30.172  1.00  0.00     0.014 A 
ATOM     32  C   UNL A   1      35.750  34.429  29.013  1.00  0.00     0.014 A 
ATOM     33  C   UNL A   1      35.237  32.412  30.876  1.00  0.00     0.010 A 
ATOM     34  C   UNL A   1      36.807  33.801  29.668  1.00  0.00     0.010 A 
ATOM     35  C   UNL A   1      36.562  32.796  30.615  1.00  0.00    -0.014 A 
BRANCH  35  36
ATOM     36  C   UNL A   1      37.702  32.156  31.319  1.00  0.00     0.031 A 
ATOM     37  C   UNL A   1      38.460  31.029  30.671  1.00  0.00     0.074 A 
ATOM     38  C   UNL A   1      37.998  32.531  32.579  1.00  0.00     0.049 A 
ATOM     39  N   UNL A   1      39.439  30.309  31.155  1.00  0.00    -0.248 NA
ATOM     40  C   UNL A   1      38.049  30.644  29.311  1.00  0.00     0.031 C 
ATOM     41  C   UNL A   1      37.285  33.556  33.344  1.00  0.00     0.029 A 
ATOM     42  N   UNL A   1      38.957  32.074  33.447  1.00  0.00    -0.354 N 
ATOM     43  C   UNL A   1      39.734  29.364  30.181  1.00  0.00     0.074 A 
ATOM     44  C   UNL A   1      38.813  29.584  29.087  1.00  0.00     0.031 C 
ATOM     45  C   UNL A   1      37.828  33.646  34.569  1.00  0.00     0.029 A 
ATOM     46  C   UNL A   1      38.913  32.676  34.683  1.00  0.00     0.049 A 
ATOM     47  H   UNL A   1      39.614  31.381  33.209  1.00  0.00     0.167 HD
ATOM     48  C   UNL A   1      40.704  28.418  30.180  1.00  0.00     0.034 A 
ATOM     49  C   UNL A   1      39.659  32.468  35.785  1.00  0.00     0.034 A 
ATOM     50  C   UNL A   1      41.655  28.238  31.244  1.00  0.00     0.049 A 
ATOM     51  C   UNL A   1      40.774  31.458  35.735  1.00  0.00     0.074 A 
ATOM     52  C   UNL A   1      42.730  27.369  31.301  1.00  0.00     0.029 A 
ATOM     53  N   UNL A   1      41.648  28.943  32.438  1.00  0.00    -0.354 N 
ATOM     54  N   UNL A   1      41.140  30.684  34.742  1.00  0.00    -0.248 NA
ATOM     55  C   UNL A   1      41.603  31.320  36.942  1.00  0.00     0.031 C 
ATOM     56  C   UNL A   1      43.372  27.546  32.531  1.00  0.00     0.029 A 
ATOM     57  C   UNL A   1      42.700  28.531  33.238  1.00  0.00     0.049 A 
ATOM     58  H   UNL A   1      40.991  29.635  32.681  1.00  0.00     0.167 HD
ATOM     59  C   UNL A   1      42.258  29.992  35.191  1.00  0.00     0.074 A 
ATOM     60  C   UNL A   1      42.523  30.454  36.538  1.00  0.00     0.031 C 
ATOM     61  C   UNL A   1      42.987  29.043  34.553  1.00  0.00     0.034 A 
BRANCH  48  62
ATOM     62  C   UNL A   1      40.832  27.549  28.957  1.00  0.00     0.023 A 
ATOM     63  C   UNL A   1      39.907  26.503  28.757  1.00  0.00     0.012 A 
ATOM     64  C   UNL A   1      41.819  27.794  27.984  1.00  0.00     0.148 A 
ATOM     65  C   UNL A   1      39.983  25.695  27.623  1.00  0.00     0.002 A 
ATOM     66  C   UNL A   1      41.865  27.008  26.837  1.00  0.00     0.091 A 
ATOM     67  F   UNL A   1      42.705  28.776  28.202  1.00  0.00    -0.205 F 
ATOM     68  C   UNL A   1      40.954  25.953  26.660  1.00  0.00     0.022 A 
BRANCH  66  69
ATOM     69  S   UNL A   1      43.034  27.309  25.506  1.00  0.00     0.127 S 
ATOM     70  O   UNL A   1      43.232  25.959  24.977  1.00  0.00    -0.237 OA
ATOM     71  O   UNL A   1      42.282  28.204  24.626  1.00  0.00    -0.237 OA
ATOM     72  O   UNL A   1      44.199  27.917  26.132  1.00  0.00    -0.744 OA
ENDBRANCH  66  69
ENDBRANCH  48  62
BRANCH  49  73
ATOM     73  C   UNL A   1      39.429  33.299  37.000  1.00  0.00     0.023 A 
ATOM     74  C   UNL A   1      39.944  34.609  37.044  1.00  0.00     0.012 A 
ATOM     75  C   UNL A   1      38.663  32.825  38.082  1.00  0.00     0.148 A 
ATOM     76  C   UNL A   1      39.723  35.424  38.154  1.00  0.00     0.002 A 
ATOM     77  C   UNL A   1      38.402  33.660  39.164  1.00  0.00     0.091 A 
ATOM     78  F   UNL A   1      38.194  31.569  38.030  1.00  0.00    -0.205 F 
ATOM     79  C   UNL A   1      38.943  34.954  39.208  1.00  0.00     0.022 A 
BRANCH  77  80
ATOM     80  S   UNL A   1      37.293  33.183  40.494  1.00  0.00     0.127 S 
ATOM     81  O   UNL A   1      37.263  34.394  41.309  1.00  0.00    -0.237 OA
ATOM     82  O   UNL A   1      36.054  32.894  39.772  1.00  0.00    -0.237 OA
ATOM     83  O   UNL A   1      37.908  32.015  41.110  1.00  0.00    -0.744 OA
ENDBRANCH  77  80
ENDBRANCH  49  73
BRANCH  61  84
ATOM     84  C   UNL A   1      44.159  28.452  35.289  1.00  0.00     0.023 A 
ATOM     85  C   UNL A   1      45.447  28.985  35.085  1.00  0.00     0.012 A 
ATOM     86  C   UNL A   1      43.976  27.427  36.239  1.00  0.00     0.148 A 
ATOM     87  C   UNL A   1      46.539  28.490  35.794  1.00  0.00     0.002 A 
ATOM     88  C   UNL A   1      45.064  26.967  36.972  1.00  0.00     0.091 A 
ATOM     89  F   UNL A   1      42.746  26.918  36.404  1.00  0.00    -0.205 F 
ATOM     90  C   UNL A   1      46.347  27.490  36.745  1.00  0.00     0.022 A 
BRANCH  88  91
ATOM     91  S   UNL A   1      44.885  25.746  38.278  1.00  0.00     0.127 S 
ATOM     92  O   UNL A   1      43.844  26.346  39.109  1.00  0.00    -0.237 OA
ATOM     93  O   UNL A   1      44.463  24.553  37.539  1.00  0.00    -0.237 OA
ATOM     94  O   UNL A   1      46.199  25.633  38.896  1.00  0.00    -0.744 OA
ENDBRANCH  88  91
ENDBRANCH  61  84
ENDBRANCH  35  36
ENDBRANCH  27  30
ENDBRANCH  25  26
ENDBRANCH  24  25
ENDBRANCH   1  24
TORSDOF 17
ENDMDL
