MODEL 1
REMARK VINA RESULT:     -11.1      0.000      0.000
REMARK SMILES C[C@@](NC(=O)c1ccc[nH]c1=O)(C(=O)NCCCNC(=O)c1ccc(-c2c3nc(c(-c4cccc(S(=O)(=O)[O-])c4F)c4ccc([nH]4)c(-c4cccc(S(=O)(=O)[O-])c4F)c4nc(c(-c5cccc(S(=O)(=O)[O-])c5F)c5ccc2[nH]5)C=C4)C=C3)cc1)C(F)(F)F
REMARK SMILES IDX 17 1 16 2 15 3 13 4 14 5 2 7 1 8 3 9 4 10 5 12 6 13 7 14
REMARK SMILES IDX 11 15 8 16 10 17 12 18 9 19 85 21 86 22 87 23 88 24 18 25
REMARK SMILES IDX 19 26 20 27 21 29 22 30 23 31 84 32 24 33 83 34 25 35 26 36
REMARK SMILES IDX 27 37 77 38 28 39 82 40 76 41 78 42 29 43 81 44 75 45 74 46
REMARK SMILES IDX 30 48 62 49 42 50 61 51 43 52 46 53 60 54 79 55 44 56 45 57
REMARK SMILES IDX 59 59 80 60 47 61 31 62 32 63 40 64 33 65 35 66 41 67 34 68
REMARK SMILES IDX 36 69 37 70 38 71 39 72 63 73 64 74 72 75 65 76 67 77 73 78
REMARK SMILES IDX 66 79 68 80 69 81 70 82 71 83 48 84 49 85 57 86 50 87 52 88
REMARK SMILES IDX 58 89 51 90 53 91 54 92 55 93 56 94
REMARK H PARENT 15 6 3 11 10 20 19 28 78 47 46 58
REMARK Flexibility Score: inf
ROOT
ATOM      1  C   UNL A   1      33.913  34.219  28.696  1.00  0.00     0.042 C 
ENDROOT
BRANCH   1   2
ATOM      2  C   UNL A   1      34.042  34.898  30.048  1.00  0.00     0.117 C 
BRANCH   2   3
ATOM      3  N   UNL A   1      33.677  34.016  31.149  1.00  0.00    -0.354 N 
ATOM      4  C   UNL A   1      33.945  34.088  32.491  1.00  0.00     0.254 C 
ATOM      5  O   UNL A   1      33.534  33.150  33.176  1.00  0.00    -0.272 OA
ATOM      6  H   UNL A   1      33.144  33.233  30.882  1.00  0.00     0.163 HD
BRANCH   4   7
ATOM      7  C   UNL A   1      34.807  35.218  33.067  1.00  0.00     0.212 C 
ATOM      8  C   UNL A   1      35.069  34.848  34.556  1.00  0.00     0.056 C 
BRANCH   7   9
ATOM      9  N   UNL A   1      36.134  35.361  32.364  1.00  0.00    -0.330 N 
ATOM     10  C   UNL A   1      37.159  34.473  32.147  1.00  0.00     0.257 C 
ATOM     11  H   UNL A   1      36.295  36.257  31.990  1.00  0.00     0.165 HD
ATOM     12  O   UNL A   1      37.919  34.706  31.205  1.00  0.00    -0.269 OA
BRANCH  10  13
ATOM     13  C   UNL A   1      37.532  33.456  33.162  1.00  0.00     0.104 A 
ATOM     14  C   UNL A   1      38.487  33.804  34.049  1.00  0.00     0.021 A 
ATOM     15  C   UNL A   1      36.972  32.083  33.252  1.00  0.00     0.260 A 
ATOM     16  C   UNL A   1      38.817  32.958  35.176  1.00  0.00     0.019 A 
ATOM     17  N   UNL A   1      37.279  31.375  34.394  1.00  0.00    -0.328 N 
ATOM     18  O   UNL A   1      36.292  31.587  32.366  1.00  0.00    -0.269 OA
ATOM     19  C   UNL A   1      38.178  31.794  35.337  1.00  0.00     0.086 A 
ATOM     20  H   UNL A   1      36.822  30.516  34.541  1.00  0.00     0.169 HD
ENDBRANCH  10  13
ENDBRANCH   7   9
BRANCH   7  21
ATOM     21  C   UNL A   1      34.012  36.547  33.139  1.00  0.00     0.420 C 
ATOM     22  F   UNL A   1      34.415  37.456  32.223  1.00  0.00    -0.168 F 
ATOM     23  F   UNL A   1      32.701  36.287  32.848  1.00  0.00    -0.168 F 
ATOM     24  F   UNL A   1      34.002  37.138  34.341  1.00  0.00    -0.168 F 
ENDBRANCH   7  21
ENDBRANCH   4   7
ENDBRANCH   2   3
ENDBRANCH   1   2
BRANCH   1  25
ATOM     25  C   UNL A   1      34.800  32.989  28.550  1.00  0.00     0.118 C 
BRANCH  25  26
ATOM     26  N   UNL A   1      34.167  31.908  27.801  1.00  0.00    -0.352 N 
ATOM     27  C   UNL A   1      34.646  30.648  27.538  1.00  0.00     0.251 C 
ATOM     28  H   UNL A   1      33.275  32.110  27.435  1.00  0.00     0.163 HD
ATOM     29  O   UNL A   1      34.028  29.900  26.784  1.00  0.00    -0.269 OA
BRANCH  27  30
ATOM     30  C   UNL A   1      35.917  30.218  28.153  1.00  0.00     0.039 A 
ATOM     31  C   UNL A   1      35.900  29.612  29.411  1.00  0.00     0.014 A 
ATOM     32  C   UNL A   1      37.119  30.372  27.456  1.00  0.00     0.014 A 
ATOM     33  C   UNL A   1      37.086  29.099  29.942  1.00  0.00     0.010 A 
ATOM     34  C   UNL A   1      38.276  29.782  27.944  1.00  0.00     0.010 A 
ATOM     35  C   UNL A   1      38.277  29.153  29.198  1.00  0.00    -0.014 A 
BRANCH  35  36
ATOM     36  C   UNL A   1      39.545  28.579  29.713  1.00  0.00     0.031 A 
ATOM     37  C   UNL A   1      40.212  29.201  30.910  1.00  0.00     0.074 A 
ATOM     38  C   UNL A   1      40.146  27.573  29.047  1.00  0.00     0.049 A 
ATOM     39  N   UNL A   1      41.359  28.906  31.460  1.00  0.00    -0.248 NA
ATOM     40  C   UNL A   1      39.515  30.333  31.547  1.00  0.00     0.031 C 
ATOM     41  C   UNL A   1      39.649  26.950  27.818  1.00  0.00     0.029 A 
ATOM     42  N   UNL A   1      41.325  26.917  29.296  1.00  0.00    -0.354 N 
ATOM     43  C   UNL A   1      41.544  29.840  32.472  1.00  0.00     0.074 A 
ATOM     44  C   UNL A   1      40.412  30.738  32.435  1.00  0.00     0.031 C 
ATOM     45  C   UNL A   1      40.511  25.998  27.426  1.00  0.00     0.029 A 
ATOM     46  C   UNL A   1      41.631  25.955  28.361  1.00  0.00     0.049 A 
ATOM     47  H   UNL A   1      41.899  27.116  30.071  1.00  0.00     0.167 HD
ATOM     48  C   UNL A   1      42.545  29.922  33.380  1.00  0.00     0.034 A 
ATOM     49  C   UNL A   1      42.692  25.128  28.274  1.00  0.00     0.034 A 
ATOM     50  C   UNL A   1      43.627  28.980  33.465  1.00  0.00     0.049 A 
ATOM     51  C   UNL A   1      43.743  25.177  29.351  1.00  0.00     0.074 A 
ATOM     52  C   UNL A   1      44.635  28.910  34.408  1.00  0.00     0.029 A 
ATOM     53  N   UNL A   1      43.834  27.938  32.575  1.00  0.00    -0.354 N 
ATOM     54  N   UNL A   1      43.812  25.961  30.399  1.00  0.00    -0.248 NA
ATOM     55  C   UNL A   1      44.838  24.200  29.257  1.00  0.00     0.031 C 
ATOM     56  C   UNL A   1      45.454  27.822  34.088  1.00  0.00     0.029 A 
ATOM     57  C   UNL A   1      44.950  27.212  32.950  1.00  0.00     0.049 A 
ATOM     58  H   UNL A   1      43.270  27.742  31.793  1.00  0.00     0.167 HD
ATOM     59  C   UNL A   1      44.935  25.550  31.109  1.00  0.00     0.074 A 
ATOM     60  C   UNL A   1      45.503  24.433  30.381  1.00  0.00     0.031 C 
ATOM     61  C   UNL A   1      45.459  26.061  32.250  1.00  0.00     0.034 A 
BRANCH  48  62
ATOM     62  C   UNL A   1      42.468  31.024  34.404  1.00  0.00     0.023 A 
ATOM     63  C   UNL A   1      41.953  30.739  35.685  1.00  0.00     0.012 A 
ATOM     64  C   UNL A   1      42.936  32.320  34.119  1.00  0.00     0.148 A 
ATOM     65  C   UNL A   1      41.871  31.737  36.655  1.00  0.00     0.002 A 
ATOM     66  C   UNL A   1      42.889  33.299  35.105  1.00  0.00     0.091 A 
ATOM     67  F   UNL A   1      43.397  32.579  32.886  1.00  0.00    -0.205 F 
ATOM     68  C   UNL A   1      42.347  33.013  36.369  1.00  0.00     0.022 A 
BRANCH  66  69
ATOM     69  S   UNL A   1      43.546  34.952  34.855  1.00  0.00     0.127 S 
ATOM     70  O   UNL A   1      43.304  35.567  36.160  1.00  0.00    -0.237 OA
ATOM     71  O   UNL A   1      44.954  34.685  34.560  1.00  0.00    -0.237 OA
ATOM     72  O   UNL A   1      42.792  35.517  33.744  1.00  0.00    -0.744 OA
ENDBRANCH  66  69
ENDBRANCH  48  62
BRANCH  49  73
ATOM     73  C   UNL A   1      42.757  24.115  27.183  1.00  0.00     0.023 A 
ATOM     74  C   UNL A   1      43.477  24.417  26.010  1.00  0.00     0.012 A 
ATOM     75  C   UNL A   1      42.150  22.851  27.309  1.00  0.00     0.148 A 
ATOM     76  C   UNL A   1      43.565  23.491  24.970  1.00  0.00     0.002 A 
ATOM     77  C   UNL A   1      42.285  21.914  26.290  1.00  0.00     0.091 A 
ATOM     78  F   UNL A   1      41.459  22.585  28.427  1.00  0.00    -0.205 F 
ATOM     79  C   UNL A   1      42.978  22.237  25.113  1.00  0.00     0.022 A 
BRANCH  77  80
ATOM     80  S   UNL A   1      41.676  20.231  26.450  1.00  0.00     0.127 S 
ATOM     81  O   UNL A   1      40.233  20.422  26.333  1.00  0.00    -0.237 OA
ATOM     82  O   UNL A   1      42.304  19.567  25.307  1.00  0.00    -0.237 OA
ATOM     83  O   UNL A   1      42.156  19.767  27.745  1.00  0.00    -0.744 OA
ENDBRANCH  77  80
ENDBRANCH  49  73
BRANCH  61  84
ATOM     84  C   UNL A   1      46.690  25.401  32.811  1.00  0.00     0.023 A 
ATOM     85  C   UNL A   1      47.963  25.869  32.431  1.00  0.00     0.012 A 
ATOM     86  C   UNL A   1      46.584  24.383  33.778  1.00  0.00     0.148 A 
ATOM     87  C   UNL A   1      49.114  25.314  32.989  1.00  0.00     0.002 A 
ATOM     88  C   UNL A   1      47.733  23.865  34.361  1.00  0.00     0.091 A 
ATOM     89  F   UNL A   1      45.362  23.937  34.109  1.00  0.00    -0.205 F 
ATOM     90  C   UNL A   1      48.999  24.323  33.962  1.00  0.00     0.022 A 
BRANCH  88  91
ATOM     91  S   UNL A   1      47.669  22.656  35.688  1.00  0.00     0.127 S 
ATOM     92  O   UNL A   1      49.050  22.664  36.166  1.00  0.00    -0.237 OA
ATOM     93  O   UNL A   1      46.701  23.252  36.611  1.00  0.00    -0.237 OA
ATOM     94  O   UNL A   1      47.222  21.415  35.071  1.00  0.00    -0.744 OA
ENDBRANCH  88  91
ENDBRANCH  61  84
ENDBRANCH  35  36
ENDBRANCH  27  30
ENDBRANCH  25  26
ENDBRANCH   1  25
TORSDOF 16
ENDMDL
MODEL 2
REMARK VINA RESULT:     -10.9      4.583     12.502
REMARK SMILES C[C@@](NC(=O)c1ccc[nH]c1=O)(C(=O)NCCCNC(=O)c1ccc(-c2c3nc(c(-c4cccc(S(=O)(=O)[O-])c4F)c4ccc([nH]4)c(-c4cccc(S(=O)(=O)[O-])c4F)c4nc(c(-c5cccc(S(=O)(=O)[O-])c5F)c5ccc2[nH]5)C=C4)C=C3)cc1)C(F)(F)F
REMARK SMILES IDX 17 1 16 2 15 3 13 4 14 5 2 7 1 8 3 9 4 10 5 12 6 13 7 14
REMARK SMILES IDX 11 15 8 16 10 17 12 18 9 19 85 21 86 22 87 23 88 24 18 25
REMARK SMILES IDX 19 26 20 27 21 29 22 30 23 31 84 32 24 33 83 34 25 35 26 36
REMARK SMILES IDX 27 37 77 38 28 39 82 40 76 41 78 42 29 43 81 44 75 45 74 46
REMARK SMILES IDX 30 48 62 49 42 50 61 51 43 52 46 53 60 54 79 55 44 56 45 57
REMARK SMILES IDX 59 59 80 60 47 61 31 62 32 63 40 64 33 65 35 66 41 67 34 68
REMARK SMILES IDX 36 69 37 70 38 71 39 72 63 73 64 74 72 75 65 76 67 77 73 78
REMARK SMILES IDX 66 79 68 80 69 81 70 82 71 83 48 84 49 85 57 86 50 87 52 88
REMARK SMILES IDX 58 89 51 90 53 91 54 92 55 93 56 94
REMARK H PARENT 15 6 3 11 10 20 19 28 78 47 46 58
REMARK Flexibility Score: inf
ROOT
ATOM      1  C   UNL A   1      42.228  20.836  27.175  1.00  0.00     0.042 C 
ENDROOT
BRANCH   1   2
ATOM      2  C   UNL A   1      43.061  20.194  26.078  1.00  0.00     0.117 C 
BRANCH   2   3
ATOM      3  N   UNL A   1      43.179  21.046  24.901  1.00  0.00    -0.354 N 
ATOM      4  C   UNL A   1      44.264  21.672  24.344  1.00  0.00     0.254 C 
ATOM      5  O   UNL A   1      44.036  22.375  23.359  1.00  0.00    -0.272 OA
ATOM      6  H   UNL A   1      42.333  21.197  24.423  1.00  0.00     0.163 HD
BRANCH   4   7
ATOM      7  C   UNL A   1      45.650  21.582  24.995  1.00  0.00     0.212 C 
ATOM      8  C   UNL A   1      46.577  22.524  24.172  1.00  0.00     0.056 C 
BRANCH   7   9
ATOM      9  N   UNL A   1      45.654  22.037  26.434  1.00  0.00    -0.330 N 
ATOM     10  C   UNL A   1      45.186  23.178  27.038  1.00  0.00     0.257 C 
ATOM     11  H   UNL A   1      46.067  21.395  27.055  1.00  0.00     0.165 HD
ATOM     12  O   UNL A   1      44.934  23.117  28.243  1.00  0.00    -0.269 OA
BRANCH  10  13
ATOM     13  C   UNL A   1      45.268  24.499  26.368  1.00  0.00     0.104 A 
ATOM     14  C   UNL A   1      44.151  24.940  25.753  1.00  0.00     0.021 A 
ATOM     15  C   UNL A   1      46.484  25.349  26.284  1.00  0.00     0.260 A 
ATOM     16  C   UNL A   1      44.065  26.278  25.207  1.00  0.00     0.019 A 
ATOM     17  N   UNL A   1      46.297  26.634  25.820  1.00  0.00    -0.328 N 
ATOM     18  O   UNL A   1      47.596  24.944  26.588  1.00  0.00    -0.269 OA
ATOM     19  C   UNL A   1      45.122  27.094  25.292  1.00  0.00     0.086 A 
ATOM     20  H   UNL A   1      47.056  27.258  25.873  1.00  0.00     0.169 HD
ENDBRANCH  10  13
ENDBRANCH   7   9
BRANCH   7  21
ATOM     21  C   UNL A   1      46.268  20.175  24.802  1.00  0.00     0.420 C 
ATOM     22  F   UNL A   1      46.311  19.453  25.944  1.00  0.00    -0.168 F 
ATOM     23  F   UNL A   1      45.473  19.463  23.946  1.00  0.00    -0.168 F 
ATOM     24  F   UNL A   1      47.489  20.162  24.250  1.00  0.00    -0.168 F 
ENDBRANCH   7  21
ENDBRANCH   4   7
ENDBRANCH   2   3
ENDBRANCH   1   2
BRANCH   1  25
ATOM     25  C   UNL A   1      41.618  22.170  26.768  1.00  0.00     0.118 C 
BRANCH  25  26
ATOM     26  N   UNL A   1      40.257  22.047  26.252  1.00  0.00    -0.352 N 
ATOM     27  C   UNL A   1      39.225  22.951  26.321  1.00  0.00     0.251 C 
ATOM     28  H   UNL A   1      40.052  21.201  25.792  1.00  0.00     0.163 HD
ATOM     29  O   UNL A   1      38.103  22.634  25.936  1.00  0.00    -0.269 OA
BRANCH  27  30
ATOM     30  C   UNL A   1      39.481  24.293  26.880  1.00  0.00     0.039 A 
ATOM     31  C   UNL A   1      39.173  24.550  28.218  1.00  0.00     0.014 A 
ATOM     32  C   UNL A   1      40.074  25.280  26.087  1.00  0.00     0.014 A 
ATOM     33  C   UNL A   1      39.523  25.780  28.780  1.00  0.00     0.010 A 
ATOM     34  C   UNL A   1      40.502  26.464  26.671  1.00  0.00     0.010 A 
ATOM     35  C   UNL A   1      40.219  26.734  28.018  1.00  0.00    -0.014 A 
BRANCH  35  36
ATOM     36  C   UNL A   1      40.644  28.034  28.596  1.00  0.00     0.031 A 
ATOM     37  C   UNL A   1      42.110  28.320  28.784  1.00  0.00     0.074 A 
ATOM     38  C   UNL A   1      39.719  28.904  29.044  1.00  0.00     0.049 A 
ATOM     39  N   UNL A   1      42.682  29.352  29.345  1.00  0.00    -0.248 NA
ATOM     40  C   UNL A   1      43.056  27.291  28.317  1.00  0.00     0.031 C 
ATOM     41  C   UNL A   1      38.269  28.698  29.007  1.00  0.00     0.029 A 
ATOM     42  N   UNL A   1      39.863  30.129  29.647  1.00  0.00    -0.354 N 
ATOM     43  C   UNL A   1      44.044  29.076  29.341  1.00  0.00     0.074 A 
ATOM     44  C   UNL A   1      44.211  27.763  28.761  1.00  0.00     0.031 C 
ATOM     45  C   UNL A   1      37.658  29.761  29.555  1.00  0.00     0.029 A 
ATOM     46  C   UNL A   1      38.669  30.715  30.000  1.00  0.00     0.049 A 
ATOM     47  H   UNL A   1      40.738  30.547  29.812  1.00  0.00     0.167 HD
ATOM     48  C   UNL A   1      45.070  29.861  29.747  1.00  0.00     0.034 A 
ATOM     49  C   UNL A   1      38.421  31.893  30.607  1.00  0.00     0.034 A 
ATOM     50  C   UNL A   1      44.906  31.196  30.249  1.00  0.00     0.049 A 
ATOM     51  C   UNL A   1      39.580  32.787  30.962  1.00  0.00     0.074 A 
ATOM     52  C   UNL A   1      45.881  32.114  30.591  1.00  0.00     0.029 A 
ATOM     53  N   UNL A   1      43.682  31.807  30.473  1.00  0.00    -0.354 N 
ATOM     54  N   UNL A   1      40.863  32.577  30.795  1.00  0.00    -0.248 NA
ATOM     55  C   UNL A   1      39.255  34.096  31.546  1.00  0.00     0.031 C 
ATOM     56  C   UNL A   1      45.247  33.284  31.022  1.00  0.00     0.029 A 
ATOM     57  C   UNL A   1      43.876  33.095  30.941  1.00  0.00     0.049 A 
ATOM     58  H   UNL A   1      42.805  31.388  30.320  1.00  0.00     0.167 HD
ATOM     59  C   UNL A   1      41.497  33.740  31.219  1.00  0.00     0.074 A 
ATOM     60  C   UNL A   1      40.454  34.658  31.631  1.00  0.00     0.031 C 
ATOM     61  C   UNL A   1      42.823  34.017  31.280  1.00  0.00     0.034 A 
BRANCH  48  62
ATOM     62  C   UNL A   1      46.466  29.319  29.586  1.00  0.00     0.023 A 
ATOM     63  C   UNL A   1      47.056  28.606  30.650  1.00  0.00     0.012 A 
ATOM     64  C   UNL A   1      47.177  29.477  28.381  1.00  0.00     0.148 A 
ATOM     65  C   UNL A   1      48.345  28.091  30.531  1.00  0.00     0.002 A 
ATOM     66  C   UNL A   1      48.446  28.924  28.256  1.00  0.00     0.091 A 
ATOM     67  F   UNL A   1      46.611  30.181  27.389  1.00  0.00    -0.205 F 
ATOM     68  C   UNL A   1      49.037  28.242  29.332  1.00  0.00     0.022 A 
BRANCH  66  69
ATOM     69  S   UNL A   1      49.385  29.000  26.726  1.00  0.00     0.127 S 
ATOM     70  O   UNL A   1      50.475  28.064  27.001  1.00  0.00    -0.237 OA
ATOM     71  O   UNL A   1      48.412  28.530  25.740  1.00  0.00    -0.237 OA
ATOM     72  O   UNL A   1      49.779  30.394  26.570  1.00  0.00    -0.744 OA
ENDBRANCH  66  69
ENDBRANCH  48  62
BRANCH  49  73
ATOM     73  C   UNL A   1      37.015  32.337  30.822  1.00  0.00     0.023 A 
ATOM     74  C   UNL A   1      36.447  32.215  32.105  1.00  0.00     0.012 A 
ATOM     75  C   UNL A   1      36.253  32.908  29.786  1.00  0.00     0.148 A 
ATOM     76  C   UNL A   1      35.136  32.625  32.347  1.00  0.00     0.002 A 
ATOM     77  C   UNL A   1      34.963  33.362  30.045  1.00  0.00     0.091 A 
ATOM     78  F   UNL A   1      36.805  33.005  28.568  1.00  0.00    -0.205 F 
ATOM     79  C   UNL A   1      34.398  33.207  31.320  1.00  0.00     0.022 A 
BRANCH  77  80
ATOM     80  S   UNL A   1      33.995  34.245  28.816  1.00  0.00     0.127 S 
ATOM     81  O   UNL A   1      33.724  33.196  27.837  1.00  0.00    -0.237 OA
ATOM     82  O   UNL A   1      32.832  34.676  29.593  1.00  0.00    -0.237 OA
ATOM     83  O   UNL A   1      34.846  35.337  28.363  1.00  0.00    -0.744 OA
ENDBRANCH  77  80
ENDBRANCH  49  73
BRANCH  61  84
ATOM     84  C   UNL A   1      43.231  35.378  31.776  1.00  0.00     0.023 A 
ATOM     85  C   UNL A   1      43.455  35.578  33.151  1.00  0.00     0.012 A 
ATOM     86  C   UNL A   1      43.478  36.429  30.871  1.00  0.00     0.148 A 
ATOM     87  C   UNL A   1      43.895  36.814  33.622  1.00  0.00     0.002 A 
ATOM     88  C   UNL A   1      43.959  37.644  31.343  1.00  0.00     0.091 A 
ATOM     89  F   UNL A   1      43.238  36.223  29.567  1.00  0.00    -0.205 F 
ATOM     90  C   UNL A   1      44.160  37.841  32.719  1.00  0.00     0.022 A 
BRANCH  88  91
ATOM     91  S   UNL A   1      44.415  38.984  30.238  1.00  0.00     0.127 S 
ATOM     92  O   UNL A   1      44.874  40.004  31.178  1.00  0.00    -0.237 OA
ATOM     93  O   UNL A   1      45.474  38.379  29.428  1.00  0.00    -0.237 OA
ATOM     94  O   UNL A   1      43.206  39.311  29.493  1.00  0.00    -0.744 OA
ENDBRANCH  88  91
ENDBRANCH  61  84
ENDBRANCH  35  36
ENDBRANCH  27  30
ENDBRANCH  25  26
ENDBRANCH   1  25
TORSDOF 16
ENDMDL
MODEL 3
REMARK VINA RESULT:     -10.7      5.350     11.079
REMARK SMILES C[C@@](NC(=O)c1ccc[nH]c1=O)(C(=O)NCCCNC(=O)c1ccc(-c2c3nc(c(-c4cccc(S(=O)(=O)[O-])c4F)c4ccc([nH]4)c(-c4cccc(S(=O)(=O)[O-])c4F)c4nc(c(-c5cccc(S(=O)(=O)[O-])c5F)c5ccc2[nH]5)C=C4)C=C3)cc1)C(F)(F)F
REMARK SMILES IDX 17 1 16 2 15 3 13 4 14 5 2 7 1 8 3 9 4 10 5 12 6 13 7 14
REMARK SMILES IDX 11 15 8 16 10 17 12 18 9 19 85 21 86 22 87 23 88 24 18 25
REMARK SMILES IDX 19 26 20 27 21 29 22 30 23 31 84 32 24 33 83 34 25 35 26 36
REMARK SMILES IDX 27 37 77 38 28 39 82 40 76 41 78 42 29 43 81 44 75 45 74 46
REMARK SMILES IDX 30 48 62 49 42 50 61 51 43 52 46 53 60 54 79 55 44 56 45 57
REMARK SMILES IDX 59 59 80 60 47 61 31 62 32 63 40 64 33 65 35 66 41 67 34 68
REMARK SMILES IDX 36 69 37 70 38 71 39 72 63 73 64 74 72 75 65 76 67 77 73 78
REMARK SMILES IDX 66 79 68 80 69 81 70 82 71 83 48 84 49 85 57 86 50 87 52 88
REMARK SMILES IDX 58 89 51 90 53 91 54 92 55 93 56 94
REMARK H PARENT 15 6 3 11 10 20 19 28 78 47 46 58
REMARK Flexibility Score: inf
ROOT
ATOM      1  C   UNL A   1      34.689  21.427  25.759  1.00  0.00     0.042 C 
ENDROOT
BRANCH   1   2
ATOM      2  C   UNL A   1      33.687  22.469  25.293  1.00  0.00     0.117 C 
BRANCH   2   3
ATOM      3  N   UNL A   1      33.914  22.880  23.914  1.00  0.00    -0.354 N 
ATOM      4  C   UNL A   1      33.785  24.098  23.300  1.00  0.00     0.254 C 
ATOM      5  O   UNL A   1      34.008  24.121  22.089  1.00  0.00    -0.272 OA
ATOM      6  H   UNL A   1      34.213  22.156  23.319  1.00  0.00     0.163 HD
BRANCH   4   7
ATOM      7  C   UNL A   1      33.278  25.323  24.072  1.00  0.00     0.212 C 
ATOM      8  C   UNL A   1      33.474  26.543  23.126  1.00  0.00     0.056 C 
BRANCH   7   9
ATOM      9  N   UNL A   1      31.818  25.224  24.438  1.00  0.00    -0.330 N 
ATOM     10  C   UNL A   1      30.853  26.181  24.632  1.00  0.00     0.257 C 
ATOM     11  H   UNL A   1      31.497  24.301  24.559  1.00  0.00     0.165 HD
ATOM     12  O   UNL A   1      29.677  25.833  24.505  1.00  0.00    -0.269 OA
BRANCH  10  13
ATOM     13  C   UNL A   1      31.171  27.486  25.262  1.00  0.00     0.104 A 
ATOM     14  C   UNL A   1      31.351  27.489  26.600  1.00  0.00     0.021 A 
ATOM     15  C   UNL A   1      31.264  28.787  24.551  1.00  0.00     0.260 A 
ATOM     16  C   UNL A   1      31.819  28.667  27.298  1.00  0.00     0.019 A 
ATOM     17  N   UNL A   1      31.790  29.838  25.271  1.00  0.00    -0.328 N 
ATOM     18  O   UNL A   1      30.886  28.939  23.399  1.00  0.00    -0.269 OA
ATOM     19  C   UNL A   1      32.063  29.788  26.611  1.00  0.00     0.086 A 
ATOM     20  H   UNL A   1      31.983  30.675  24.791  1.00  0.00     0.169 HD
ENDBRANCH  10  13
ENDBRANCH   7   9
BRANCH   7  21
ATOM     21  C   UNL A   1      34.188  25.634  25.287  1.00  0.00     0.420 C 
ATOM     22  F   UNL A   1      35.434  25.125  25.161  1.00  0.00    -0.168 F 
ATOM     23  F   UNL A   1      34.350  26.989  25.376  1.00  0.00    -0.168 F 
ATOM     24  F   UNL A   1      33.698  25.254  26.475  1.00  0.00    -0.168 F 
ENDBRANCH   7  21
ENDBRANCH   4   7
ENDBRANCH   2   3
ENDBRANCH   1   2
BRANCH   1  25
ATOM     25  C   UNL A   1      36.096  21.979  25.939  1.00  0.00     0.118 C 
BRANCH  25  26
ATOM     26  N   UNL A   1      37.139  20.984  25.709  1.00  0.00    -0.352 N 
ATOM     27  C   UNL A   1      38.502  21.126  25.812  1.00  0.00     0.251 C 
ATOM     28  H   UNL A   1      36.823  20.091  25.443  1.00  0.00     0.163 HD
ATOM     29  O   UNL A   1      39.243  20.211  25.463  1.00  0.00    -0.269 OA
BRANCH  27  30
ATOM     30  C   UNL A   1      39.057  22.394  26.325  1.00  0.00     0.039 A 
ATOM     31  C   UNL A   1      40.096  22.361  27.257  1.00  0.00     0.014 A 
ATOM     32  C   UNL A   1      38.577  23.614  25.841  1.00  0.00     0.014 A 
ATOM     33  C   UNL A   1      40.701  23.557  27.654  1.00  0.00     0.010 A 
ATOM     34  C   UNL A   1      39.238  24.790  26.167  1.00  0.00     0.010 A 
ATOM     35  C   UNL A   1      40.296  24.777  27.087  1.00  0.00    -0.014 A 
BRANCH  35  36
ATOM     36  C   UNL A   1      40.946  26.060  27.454  1.00  0.00     0.031 A 
ATOM     37  C   UNL A   1      42.385  26.298  27.082  1.00  0.00     0.074 A 
ATOM     38  C   UNL A   1      40.281  26.959  28.205  1.00  0.00     0.049 A 
ATOM     39  N   UNL A   1      43.157  27.309  27.381  1.00  0.00    -0.248 NA
ATOM     40  C   UNL A   1      43.058  25.240  26.307  1.00  0.00     0.031 C 
ATOM     41  C   UNL A   1      38.915  26.799  28.711  1.00  0.00     0.029 A 
ATOM     42  N   UNL A   1      40.676  28.176  28.700  1.00  0.00    -0.354 N 
ATOM     43  C   UNL A   1      44.411  26.990  26.875  1.00  0.00     0.074 A 
ATOM     44  C   UNL A   1      44.309  25.674  26.286  1.00  0.00     0.031 C 
ATOM     45  C   UNL A   1      38.585  27.881  29.437  1.00  0.00     0.029 A 
ATOM     46  C   UNL A   1      39.718  28.800  29.465  1.00  0.00     0.049 A 
ATOM     47  H   UNL A   1      41.563  28.566  28.524  1.00  0.00     0.167 HD
ATOM     48  C   UNL A   1      45.538  27.739  26.863  1.00  0.00     0.034 A 
ATOM     49  C   UNL A   1      39.750  29.984  30.110  1.00  0.00     0.034 A 
ATOM     50  C   UNL A   1      45.613  29.078  27.379  1.00  0.00     0.049 A 
ATOM     51  C   UNL A   1      40.985  30.838  30.001  1.00  0.00     0.074 A 
ATOM     52  C   UNL A   1      46.674  29.963  27.325  1.00  0.00     0.029 A 
ATOM     53  N   UNL A   1      44.580  29.728  28.034  1.00  0.00    -0.354 N 
ATOM     54  N   UNL A   1      42.107  30.588  29.372  1.00  0.00    -0.248 NA
ATOM     55  C   UNL A   1      40.942  32.156  30.652  1.00  0.00     0.031 C 
ATOM     56  C   UNL A   1      46.282  31.151  27.949  1.00  0.00     0.029 A 
ATOM     57  C   UNL A   1      44.974  31.007  28.385  1.00  0.00     0.049 A 
ATOM     58  H   UNL A   1      43.696  29.338  28.222  1.00  0.00     0.167 HD
ATOM     59  C   UNL A   1      42.890  31.728  29.520  1.00  0.00     0.074 A 
ATOM     60  C   UNL A   1      42.103  32.678  30.281  1.00  0.00     0.031 C 
ATOM     61  C   UNL A   1      44.151  31.962  29.082  1.00  0.00     0.034 A 
BRANCH  48  62
ATOM     62  C   UNL A   1      46.757  27.153  26.201  1.00  0.00     0.023 A 
ATOM     63  C   UNL A   1      46.895  27.251  24.801  1.00  0.00     0.012 A 
ATOM     64  C   UNL A   1      47.778  26.545  26.956  1.00  0.00     0.148 A 
ATOM     65  C   UNL A   1      48.011  26.720  24.159  1.00  0.00     0.002 A 
ATOM     66  C   UNL A   1      48.909  26.056  26.311  1.00  0.00     0.091 A 
ATOM     67  F   UNL A   1      47.617  26.438  28.283  1.00  0.00    -0.205 F 
ATOM     68  C   UNL A   1      49.022  26.132  24.914  1.00  0.00     0.022 A 
BRANCH  66  69
ATOM     69  S   UNL A   1      50.297  25.348  27.205  1.00  0.00     0.127 S 
ATOM     70  O   UNL A   1      50.665  26.445  28.099  1.00  0.00    -0.237 OA
ATOM     71  O   UNL A   1      49.683  24.199  27.871  1.00  0.00    -0.237 OA
ATOM     72  O   UNL A   1      51.287  25.003  26.193  1.00  0.00    -0.744 OA
ENDBRANCH  66  69
ENDBRANCH  48  62
BRANCH  49  73
ATOM     73  C   UNL A   1      38.538  30.472  30.827  1.00  0.00     0.023 A 
ATOM     74  C   UNL A   1      38.439  30.271  32.218  1.00  0.00     0.012 A 
ATOM     75  C   UNL A   1      37.510  31.161  30.158  1.00  0.00     0.148 A 
ATOM     76  C   UNL A   1      37.323  30.720  32.925  1.00  0.00     0.002 A 
ATOM     77  C   UNL A   1      36.423  31.651  30.877  1.00  0.00     0.091 A 
ATOM     78  F   UNL A   1      37.616  31.332  28.833  1.00  0.00    -0.205 F 
ATOM     79  C   UNL A   1      36.320  31.417  32.257  1.00  0.00     0.022 A 
BRANCH  77  80
ATOM     80  S   UNL A   1      35.158  32.675  30.118  1.00  0.00     0.127 S 
ATOM     81  O   UNL A   1      34.632  31.787  29.085  1.00  0.00    -0.237 OA
ATOM     82  O   UNL A   1      34.249  32.921  31.238  1.00  0.00    -0.237 OA
ATOM     83  O   UNL A   1      35.854  33.864  29.644  1.00  0.00    -0.744 OA
ENDBRANCH  77  80
ENDBRANCH  49  73
BRANCH  61  84
ATOM     84  C   UNL A   1      44.756  33.307  29.379  1.00  0.00     0.023 A 
ATOM     85  C   UNL A   1      45.525  33.482  30.545  1.00  0.00     0.012 A 
ATOM     86  C   UNL A   1      44.637  34.368  28.459  1.00  0.00     0.148 A 
ATOM     87  C   UNL A   1      46.147  34.702  30.804  1.00  0.00     0.002 A 
ATOM     88  C   UNL A   1      45.296  35.566  28.703  1.00  0.00     0.091 A 
ATOM     89  F   UNL A   1      43.882  34.187  27.365  1.00  0.00    -0.205 F 
ATOM     90  C   UNL A   1      46.044  35.739  29.879  1.00  0.00     0.022 A 
BRANCH  88  91
ATOM     91  S   UNL A   1      45.292  36.916  27.517  1.00  0.00     0.127 S 
ATOM     92  O   UNL A   1      45.816  38.019  28.319  1.00  0.00    -0.237 OA
ATOM     93  O   UNL A   1      46.204  36.428  26.481  1.00  0.00    -0.237 OA
ATOM     94  O   UNL A   1      43.909  37.054  27.080  1.00  0.00    -0.744 OA
ENDBRANCH  88  91
ENDBRANCH  61  84
ENDBRANCH  35  36
ENDBRANCH  27  30
ENDBRANCH  25  26
ENDBRANCH   1  25
TORSDOF 16
ENDMDL
