MODEL 1
REMARK VINA RESULT:     -12.8      0.000      0.000
REMARK SMILES O=C(NCCCNC(=O)[C@H]1CC=CC[C@@H]1C(=O)Nc1ccccc1C(=O)NCc1ccco1)c1ccc(-c2c3nc(c(-c4cccc(S(=O)(=O)[O-])c4F)c4ccc([nH]4)c(-c4cccc(S(=O)(=O)[O-])c4F)c4nc(c(-c5cccc(S(=O)(=O)[O-])c5F)c5ccc2[nH]5)C=C4)C=C3)cc1
REMARK SMILES IDX 6 1 5 2 4 3 3 4 1 5 2 6 34 8 35 9 96 10 36 11 95 12 37 13
REMARK SMILES IDX 38 14 39 15 89 16 40 17 94 18 88 19 90 20 41 21 93 22 87 23
REMARK SMILES IDX 86 24 42 26 74 27 54 28 73 29 55 30 58 31 72 32 91 33 56 34
REMARK SMILES IDX 57 35 71 37 92 38 59 39 43 40 44 41 52 42 45 43 47 44 53 45
REMARK SMILES IDX 46 46 48 47 49 48 50 49 51 50 75 51 76 52 84 53 77 54 79 55
REMARK SMILES IDX 85 56 78 57 80 58 81 59 82 60 83 61 60 62 61 63 69 64 62 65
REMARK SMILES IDX 64 66 70 67 63 68 65 69 66 70 67 71 68 72 7 73 8 74 9 76
REMARK SMILES IDX 10 77 11 78 15 79 12 80 14 81 13 82 16 83 17 84 18 85 19 87
REMARK SMILES IDX 20 88 24 89 21 90 23 91 22 92 25 93 26 94 27 95 28 97 29 98
REMARK SMILES IDX 30 99 33 100 31 101 32 102
REMARK H PARENT 3 7 90 25 58 36 7 75 18 86 27 96
REMARK Flexibility Score: inf
ROOT
ATOM      1  C   UNL A   1      31.390  30.870  26.142  1.00  0.00     0.117 C 
ENDROOT
BRANCH   1   2
ATOM      2  C   UNL A   1      31.401  32.356  26.513  1.00  0.00     0.042 C 
BRANCH   2   3
ATOM      3  C   UNL A   1      32.623  32.887  27.254  1.00  0.00     0.118 C 
BRANCH   3   4
ATOM      4  N   UNL A   1      32.461  34.228  27.786  1.00  0.00    -0.352 N 
ATOM      5  O   UNL A   1      32.646  35.961  29.192  1.00  0.00    -0.269 OA
ATOM      6  C   UNL A   1      33.094  34.885  28.814  1.00  0.00     0.251 C 
ATOM      7  H   UNL A   1      31.774  34.763  27.327  1.00  0.00     0.163 HD
BRANCH   6   8
ATOM      8  C   UNL A   1      34.276  34.297  29.484  1.00  0.00     0.039 A 
ATOM      9  C   UNL A   1      35.573  34.586  29.059  1.00  0.00     0.014 A 
ATOM     10  C   UNL A   1      34.082  33.486  30.607  1.00  0.00     0.014 A 
ATOM     11  C   UNL A   1      36.657  33.935  29.640  1.00  0.00     0.010 A 
ATOM     12  C   UNL A   1      35.182  32.913  31.255  1.00  0.00     0.010 A 
ATOM     13  C   UNL A   1      36.479  33.098  30.752  1.00  0.00    -0.014 A 
BRANCH  13  14
ATOM     14  C   UNL A   1      37.666  32.480  31.401  1.00  0.00     0.031 A 
ATOM     15  C   UNL A   1      38.162  32.956  32.740  1.00  0.00     0.074 A 
ATOM     16  C   UNL A   1      38.296  31.465  30.774  1.00  0.00     0.049 A 
ATOM     17  N   UNL A   1      39.147  32.489  33.466  1.00  0.00    -0.248 NA
ATOM     18  C   UNL A   1      37.474  34.109  33.341  1.00  0.00     0.031 C 
ATOM     19  C   UNL A   1      37.940  30.943  29.452  1.00  0.00     0.029 A 
ATOM     20  N   UNL A   1      39.360  30.690  31.159  1.00  0.00    -0.354 N 
ATOM     21  C   UNL A   1      39.225  33.312  34.583  1.00  0.00     0.074 A 
ATOM     22  C   UNL A   1      38.194  34.316  34.435  1.00  0.00     0.031 C 
ATOM     23  C   UNL A   1      38.742  29.910  29.155  1.00  0.00     0.029 A 
ATOM     24  C   UNL A   1      39.706  29.732  30.234  1.00  0.00     0.049 A 
ATOM     25  H   UNL A   1      39.831  30.807  32.016  1.00  0.00     0.167 HD
ATOM     26  C   UNL A   1      40.068  33.230  35.642  1.00  0.00     0.034 A 
ATOM     27  C   UNL A   1      40.695  28.819  30.243  1.00  0.00     0.034 A 
ATOM     28  C   UNL A   1      41.074  32.211  35.797  1.00  0.00     0.049 A 
ATOM     29  C   UNL A   1      41.606  28.746  31.436  1.00  0.00     0.074 A 
ATOM     30  C   UNL A   1      41.928  32.002  36.866  1.00  0.00     0.029 A 
ATOM     31  N   UNL A   1      41.376  31.243  34.851  1.00  0.00    -0.354 N 
ATOM     32  N   UNL A   1      41.573  29.445  32.543  1.00  0.00    -0.248 NA
ATOM     33  C   UNL A   1      42.674  27.738  31.390  1.00  0.00     0.031 C 
ATOM     34  C   UNL A   1      42.769  30.929  36.552  1.00  0.00     0.029 A 
ATOM     35  C   UNL A   1      42.414  30.444  35.304  1.00  0.00     0.049 A 
ATOM     36  H   UNL A   1      40.920  31.139  33.986  1.00  0.00     0.167 HD
ATOM     37  C   UNL A   1      42.591  28.940  33.342  1.00  0.00     0.074 A 
ATOM     38  C   UNL A   1      43.206  27.859  32.598  1.00  0.00     0.031 C 
ATOM     39  C   UNL A   1      42.989  29.342  34.574  1.00  0.00     0.034 A 
BRANCH  26  40
ATOM     40  C   UNL A   1      39.929  34.262  36.734  1.00  0.00     0.023 A 
ATOM     41  C   UNL A   1      40.254  35.610  36.473  1.00  0.00     0.012 A 
ATOM     42  C   UNL A   1      39.422  33.910  38.001  1.00  0.00     0.148 A 
ATOM     43  C   UNL A   1      40.114  36.581  37.465  1.00  0.00     0.002 A 
ATOM     44  C   UNL A   1      39.241  34.891  38.970  1.00  0.00     0.091 A 
ATOM     45  F   UNL A   1      39.135  32.622  38.239  1.00  0.00    -0.205 F 
ATOM     46  C   UNL A   1      39.599  36.224  38.708  1.00  0.00     0.022 A 
BRANCH  44  47
ATOM     47  S   UNL A   1      38.507  34.545  40.573  1.00  0.00     0.127 S 
ATOM     48  O   UNL A   1      39.616  33.895  41.270  1.00  0.00    -0.237 OA
ATOM     49  O   UNL A   1      38.185  35.888  41.060  1.00  0.00    -0.237 OA
ATOM     50  O   UNL A   1      37.350  33.702  40.311  1.00  0.00    -0.744 OA
ENDBRANCH  44  47
ENDBRANCH  26  40
BRANCH  27  51
ATOM     51  C   UNL A   1      40.841  27.868  29.105  1.00  0.00     0.023 A 
ATOM     52  C   UNL A   1      40.064  26.694  29.080  1.00  0.00     0.012 A 
ATOM     53  C   UNL A   1      41.718  28.135  28.036  1.00  0.00     0.148 A 
ATOM     54  C   UNL A   1      40.180  25.787  28.025  1.00  0.00     0.002 A 
ATOM     55  C   UNL A   1      41.784  27.259  26.960  1.00  0.00     0.091 A 
ATOM     56  F   UNL A   1      42.457  29.252  28.085  1.00  0.00    -0.205 F 
ATOM     57  C   UNL A   1      41.030  26.075  26.961  1.00  0.00     0.022 A 
BRANCH  55  58
ATOM     58  S   UNL A   1      42.747  27.613  25.487  1.00  0.00     0.127 S 
ATOM     59  O   UNL A   1      42.552  26.397  24.703  1.00  0.00    -0.237 OA
ATOM     60  O   UNL A   1      42.070  28.800  24.965  1.00  0.00    -0.237 OA
ATOM     61  O   UNL A   1      44.106  27.854  25.954  1.00  0.00    -0.744 OA
ENDBRANCH  55  58
ENDBRANCH  27  51
BRANCH  39  62
ATOM     62  C   UNL A   1      44.118  28.582  35.221  1.00  0.00     0.023 A 
ATOM     63  C   UNL A   1      45.455  28.920  34.929  1.00  0.00     0.012 A 
ATOM     64  C   UNL A   1      43.851  27.562  36.156  1.00  0.00     0.148 A 
ATOM     65  C   UNL A   1      46.508  28.228  35.529  1.00  0.00     0.002 A 
ATOM     66  C   UNL A   1      44.904  26.915  36.790  1.00  0.00     0.091 A 
ATOM     67  F   UNL A   1      42.573  27.241  36.405  1.00  0.00    -0.205 F 
ATOM     68  C   UNL A   1      46.232  27.235  36.467  1.00  0.00     0.022 A 
BRANCH  66  69
ATOM     69  S   UNL A   1      44.643  25.694  38.081  1.00  0.00     0.127 S 
ATOM     70  O   UNL A   1      46.004  25.217  38.319  1.00  0.00    -0.237 OA
ATOM     71  O   UNL A   1      44.083  26.502  39.164  1.00  0.00    -0.237 OA
ATOM     72  O   UNL A   1      43.724  24.711  37.523  1.00  0.00    -0.744 OA
ENDBRANCH  66  69
ENDBRANCH  39  62
ENDBRANCH  13  14
ENDBRANCH   6   8
ENDBRANCH   3   4
ENDBRANCH   2   3
ENDBRANCH   1   2
BRANCH   1  73
ATOM     73  N   UNL A   1      32.062  29.961  27.051  1.00  0.00    -0.356 N 
ATOM     74  C   UNL A   1      32.339  28.634  26.943  1.00  0.00     0.224 C 
ATOM     75  H   UNL A   1      32.370  30.375  27.889  1.00  0.00     0.163 HD
ATOM     76  O   UNL A   1      33.333  28.241  27.560  1.00  0.00    -0.275 OA
BRANCH  74  77
ATOM     77  C   UNL A   1      31.463  27.681  26.109  1.00  0.00     0.095 C 
ATOM     78  C   UNL A   1      31.659  28.010  24.612  1.00  0.00     0.041 C 
ATOM     79  C   UNL A   1      31.834  26.210  26.364  1.00  0.00     0.095 C 
ATOM     80  C   UNL A   1      32.981  27.517  24.083  1.00  0.00    -0.030 C 
ATOM     81  C   UNL A   1      33.277  25.920  25.978  1.00  0.00     0.041 C 
ATOM     82  C   UNL A   1      33.724  26.602  24.725  1.00  0.00    -0.030 C 
BRANCH  79  83
ATOM     83  C   UNL A   1      30.696  25.250  26.006  1.00  0.00     0.228 C 
ATOM     84  O   UNL A   1      29.602  25.435  26.569  1.00  0.00    -0.274 OA
ATOM     85  N   UNL A   1      30.656  24.298  25.043  1.00  0.00    -0.325 N 
ATOM     86  H   UNL A   1      29.761  23.901  24.945  1.00  0.00     0.169 HD
BRANCH  85  87
ATOM     87  C   UNL A   1      31.586  23.744  24.154  1.00  0.00     0.054 A 
ATOM     88  C   UNL A   1      31.628  24.420  22.912  1.00  0.00     0.027 A 
ATOM     89  C   UNL A   1      32.434  22.647  24.352  1.00  0.00     0.063 A 
ATOM     90  C   UNL A   1      32.636  24.180  21.980  1.00  0.00     0.002 A 
ATOM     91  C   UNL A   1      33.475  22.450  23.409  1.00  0.00     0.016 A 
ATOM     92  C   UNL A   1      33.599  23.227  22.257  1.00  0.00     0.001 A 
BRANCH  89  93
ATOM     93  C   UNL A   1      32.403  21.591  25.411  1.00  0.00     0.253 C 
ATOM     94  O   UNL A   1      31.683  20.601  25.237  1.00  0.00    -0.269 OA
ATOM     95  N   UNL A   1      33.075  21.610  26.599  1.00  0.00    -0.345 N 
ATOM     96  H   UNL A   1      32.893  20.815  27.150  1.00  0.00     0.164 HD
BRANCH  95  97
ATOM     97  C   UNL A   1      33.992  22.530  27.230  1.00  0.00     0.191 C 
BRANCH  97  98
ATOM     98  C   UNL A   1      35.255  22.579  26.454  1.00  0.00     0.122 A 
ATOM     99  C   UNL A   1      36.065  23.596  25.988  1.00  0.00     0.047 A 
ATOM    100  O   UNL A   1      35.787  21.370  26.114  1.00  0.00    -0.467 OA
ATOM    101  C   UNL A   1      37.129  22.972  25.293  1.00  0.00     0.042 A 
ATOM    102  C   UNL A   1      36.921  21.619  25.413  1.00  0.00     0.195 A 
ENDBRANCH  97  98
ENDBRANCH  95  97
ENDBRANCH  89  93
ENDBRANCH  85  87
ENDBRANCH  79  83
ENDBRANCH  74  77
ENDBRANCH   1  73
TORSDOF 18
ENDMDL
MODEL 2
REMARK VINA RESULT:     -12.7      5.582     10.850
REMARK SMILES O=C(NCCCNC(=O)[C@H]1CC=CC[C@@H]1C(=O)Nc1ccccc1C(=O)NCc1ccco1)c1ccc(-c2c3nc(c(-c4cccc(S(=O)(=O)[O-])c4F)c4ccc([nH]4)c(-c4cccc(S(=O)(=O)[O-])c4F)c4nc(c(-c5cccc(S(=O)(=O)[O-])c5F)c5ccc2[nH]5)C=C4)C=C3)cc1
REMARK SMILES IDX 6 1 5 2 4 3 3 4 1 5 2 6 34 8 35 9 96 10 36 11 95 12 37 13
REMARK SMILES IDX 38 14 39 15 89 16 40 17 94 18 88 19 90 20 41 21 93 22 87 23
REMARK SMILES IDX 86 24 42 26 74 27 54 28 73 29 55 30 58 31 72 32 91 33 56 34
REMARK SMILES IDX 57 35 71 37 92 38 59 39 43 40 44 41 52 42 45 43 47 44 53 45
REMARK SMILES IDX 46 46 48 47 49 48 50 49 51 50 75 51 76 52 84 53 77 54 79 55
REMARK SMILES IDX 85 56 78 57 80 58 81 59 82 60 83 61 60 62 61 63 69 64 62 65
REMARK SMILES IDX 64 66 70 67 63 68 65 69 66 70 67 71 68 72 7 73 8 74 9 76
REMARK SMILES IDX 10 77 11 78 15 79 12 80 14 81 13 82 16 83 17 84 18 85 19 87
REMARK SMILES IDX 20 88 24 89 21 90 23 91 22 92 25 93 26 94 27 95 28 97 29 98
REMARK SMILES IDX 30 99 33 100 31 101 32 102
REMARK H PARENT 3 7 90 25 58 36 7 75 18 86 27 96
REMARK Flexibility Score: inf
ROOT
ATOM      1  C   UNL A   1      35.215  21.356  26.112  1.00  0.00     0.117 C 
ENDROOT
BRANCH   1   2
ATOM      2  C   UNL A   1      36.186  21.390  24.928  1.00  0.00     0.042 C 
BRANCH   2   3
ATOM      3  C   UNL A   1      37.590  21.924  25.184  1.00  0.00     0.118 C 
BRANCH   3   4
ATOM      4  N   UNL A   1      38.504  20.947  25.750  1.00  0.00    -0.352 N 
ATOM      5  O   UNL A   1      40.383  20.094  26.619  1.00  0.00    -0.269 OA
ATOM      6  C   UNL A   1      39.708  21.092  26.396  1.00  0.00     0.251 C 
ATOM      7  H   UNL A   1      38.208  20.014  25.653  1.00  0.00     0.163 HD
BRANCH   6   8
ATOM      8  C   UNL A   1      40.207  22.428  26.792  1.00  0.00     0.039 A 
ATOM      9  C   UNL A   1      39.770  23.588  26.153  1.00  0.00     0.014 A 
ATOM     10  C   UNL A   1      41.088  22.527  27.875  1.00  0.00     0.014 A 
ATOM     11  C   UNL A   1      40.337  24.818  26.477  1.00  0.00     0.010 A 
ATOM     12  C   UNL A   1      41.580  23.777  28.267  1.00  0.00     0.010 A 
ATOM     13  C   UNL A   1      41.242  24.931  27.544  1.00  0.00    -0.014 A 
BRANCH  13  14
ATOM     14  C   UNL A   1      41.770  26.272  27.916  1.00  0.00     0.031 A 
ATOM     15  C   UNL A   1      43.167  26.691  27.547  1.00  0.00     0.074 A 
ATOM     16  C   UNL A   1      40.968  27.124  28.588  1.00  0.00     0.049 A 
ATOM     17  N   UNL A   1      43.760  27.841  27.747  1.00  0.00    -0.248 NA
ATOM     18  C   UNL A   1      44.014  25.693  26.875  1.00  0.00     0.031 C 
ATOM     19  C   UNL A   1      39.609  26.818  29.043  1.00  0.00     0.029 A 
ATOM     20  N   UNL A   1      41.172  28.416  29.000  1.00  0.00    -0.354 N 
ATOM     21  C   UNL A   1      45.057  27.694  27.268  1.00  0.00     0.074 A 
ATOM     22  C   UNL A   1      45.169  26.338  26.776  1.00  0.00     0.031 C 
ATOM     23  C   UNL A   1      39.088  27.902  29.635  1.00  0.00     0.029 A 
ATOM     24  C   UNL A   1      40.091  28.961  29.654  1.00  0.00     0.049 A 
ATOM     25  H   UNL A   1      42.011  28.906  28.844  1.00  0.00     0.167 HD
ATOM     26  C   UNL A   1      46.057  28.608  27.228  1.00  0.00     0.034 A 
ATOM     27  C   UNL A   1      39.925  30.172  30.220  1.00  0.00     0.034 A 
ATOM     28  C   UNL A   1      45.932  29.965  27.693  1.00  0.00     0.049 A 
ATOM     29  C   UNL A   1      41.049  31.166  30.149  1.00  0.00     0.074 A 
ATOM     30  C   UNL A   1      46.864  30.986  27.630  1.00  0.00     0.029 A 
ATOM     31  N   UNL A   1      44.813  30.487  28.326  1.00  0.00    -0.354 N 
ATOM     32  N   UNL A   1      42.217  31.052  29.568  1.00  0.00    -0.248 NA
ATOM     33  C   UNL A   1      40.819  32.469  30.789  1.00  0.00     0.031 C 
ATOM     34  C   UNL A   1      46.322  32.114  28.255  1.00  0.00     0.029 A 
ATOM     35  C   UNL A   1      45.037  31.810  28.672  1.00  0.00     0.049 A 
ATOM     36  H   UNL A   1      43.982  29.991  28.501  1.00  0.00     0.167 HD
ATOM     37  C   UNL A   1      42.850  32.276  29.740  1.00  0.00     0.074 A 
ATOM     38  C   UNL A   1      41.922  33.126  30.460  1.00  0.00     0.031 C 
ATOM     39  C   UNL A   1      44.090  32.660  29.349  1.00  0.00     0.034 A 
BRANCH  26  40
ATOM     40  C   UNL A   1      47.380  28.179  26.640  1.00  0.00     0.023 A 
ATOM     41  C   UNL A   1      48.459  27.867  27.493  1.00  0.00     0.012 A 
ATOM     42  C   UNL A   1      47.537  28.029  25.248  1.00  0.00     0.148 A 
ATOM     43  C   UNL A   1      49.684  27.450  26.968  1.00  0.00     0.002 A 
ATOM     44  C   UNL A   1      48.745  27.569  24.735  1.00  0.00     0.091 A 
ATOM     45  F   UNL A   1      46.508  28.348  24.450  1.00  0.00    -0.205 F 
ATOM     46  C   UNL A   1      49.823  27.293  25.592  1.00  0.00     0.022 A 
BRANCH  44  47
ATOM     47  S   UNL A   1      48.996  27.255  22.984  1.00  0.00     0.127 S 
ATOM     48  O   UNL A   1      50.454  27.187  22.903  1.00  0.00    -0.237 OA
ATOM     49  O   UNL A   1      48.316  25.970  22.801  1.00  0.00    -0.237 OA
ATOM     50  O   UNL A   1      48.379  28.371  22.283  1.00  0.00    -0.744 OA
ENDBRANCH  44  47
ENDBRANCH  26  40
BRANCH  27  51
ATOM     51  C   UNL A   1      38.625  30.524  30.856  1.00  0.00     0.023 A 
ATOM     52  C   UNL A   1      38.405  30.200  32.209  1.00  0.00     0.012 A 
ATOM     53  C   UNL A   1      37.621  31.204  30.140  1.00  0.00     0.148 A 
ATOM     54  C   UNL A   1      37.196  30.520  32.829  1.00  0.00     0.002 A 
ATOM     55  C   UNL A   1      36.445  31.573  30.780  1.00  0.00     0.091 A 
ATOM     56  F   UNL A   1      37.846  31.493  28.850  1.00  0.00    -0.205 F 
ATOM     57  C   UNL A   1      36.222  31.216  32.119  1.00  0.00     0.022 A 
BRANCH  55  58
ATOM     58  S   UNL A   1      35.193  32.587  29.985  1.00  0.00     0.127 S 
ATOM     59  O   UNL A   1      34.760  31.722  28.891  1.00  0.00    -0.237 OA
ATOM     60  O   UNL A   1      34.217  32.758  31.061  1.00  0.00    -0.237 OA
ATOM     61  O   UNL A   1      35.873  33.814  29.590  1.00  0.00    -0.744 OA
ENDBRANCH  55  58
ENDBRANCH  27  51
BRANCH  39  62
ATOM     62  C   UNL A   1      44.506  34.076  29.651  1.00  0.00     0.023 A 
ATOM     63  C   UNL A   1      45.276  34.357  30.797  1.00  0.00     0.012 A 
ATOM     64  C   UNL A   1      44.171  35.124  28.770  1.00  0.00     0.148 A 
ATOM     65  C   UNL A   1      45.673  35.664  31.082  1.00  0.00     0.002 A 
ATOM     66  C   UNL A   1      44.616  36.413  29.031  1.00  0.00     0.091 A 
ATOM     67  F   UNL A   1      43.420  34.841  27.695  1.00  0.00    -0.205 F 
ATOM     68  C   UNL A   1      45.354  36.689  30.193  1.00  0.00     0.022 A 
BRANCH  66  69
ATOM     69  S   UNL A   1      44.337  37.775  27.893  1.00  0.00     0.127 S 
ATOM     70  O   UNL A   1      43.884  38.830  28.797  1.00  0.00    -0.237 OA
ATOM     71  O   UNL A   1      45.670  37.986  27.329  1.00  0.00    -0.237 OA
ATOM     72  O   UNL A   1      43.345  37.301  26.937  1.00  0.00    -0.744 OA
ENDBRANCH  66  69
ENDBRANCH  39  62
ENDBRANCH  13  14
ENDBRANCH   6   8
ENDBRANCH   3   4
ENDBRANCH   2   3
ENDBRANCH   1   2
BRANCH   1  73
ATOM     73  N   UNL A   1      33.925  20.732  25.886  1.00  0.00    -0.356 N 
ATOM     74  C   UNL A   1      32.694  21.275  25.692  1.00  0.00     0.224 C 
ATOM     75  H   UNL A   1      33.944  19.748  25.870  1.00  0.00     0.163 HD
ATOM     76  O   UNL A   1      31.908  20.599  25.021  1.00  0.00    -0.275 OA
BRANCH  74  77
ATOM     77  C   UNL A   1      32.302  22.644  26.277  1.00  0.00     0.095 C 
ATOM     78  C   UNL A   1      33.470  23.631  26.056  1.00  0.00     0.041 C 
ATOM     79  C   UNL A   1      31.030  23.197  25.611  1.00  0.00     0.095 C 
ATOM     80  C   UNL A   1      33.570  24.092  24.626  1.00  0.00    -0.030 C 
ATOM     81  C   UNL A   1      31.226  23.407  24.117  1.00  0.00     0.041 C 
ATOM     82  C   UNL A   1      32.567  23.953  23.746  1.00  0.00    -0.030 C 
BRANCH  79  83
ATOM     83  C   UNL A   1      30.316  24.233  26.483  1.00  0.00     0.228 C 
ATOM     84  O   UNL A   1      29.528  23.803  27.343  1.00  0.00    -0.274 OA
ATOM     85  N   UNL A   1      30.524  25.570  26.559  1.00  0.00    -0.325 N 
ATOM     86  H   UNL A   1      30.012  25.989  27.288  1.00  0.00     0.169 HD
BRANCH  85  87
ATOM     87  C   UNL A   1      31.295  26.498  25.847  1.00  0.00     0.054 A 
ATOM     88  C   UNL A   1      32.457  26.899  26.549  1.00  0.00     0.027 A 
ATOM     89  C   UNL A   1      31.050  27.046  24.582  1.00  0.00     0.063 A 
ATOM     90  C   UNL A   1      33.470  27.630  25.931  1.00  0.00     0.002 A 
ATOM     91  C   UNL A   1      32.112  27.752  23.961  1.00  0.00     0.016 A 
ATOM     92  C   UNL A   1      33.320  28.011  24.611  1.00  0.00     0.001 A 
BRANCH  89  93
ATOM     93  C   UNL A   1      29.800  27.040  23.761  1.00  0.00     0.253 C 
ATOM     94  O   UNL A   1      28.993  26.116  23.920  1.00  0.00    -0.269 OA
ATOM     95  N   UNL A   1      29.451  27.947  22.804  1.00  0.00    -0.345 N 
ATOM     96  H   UNL A   1      28.589  27.737  22.377  1.00  0.00     0.164 HD
BRANCH  95  97
ATOM     97  C   UNL A   1      30.058  29.147  22.274  1.00  0.00     0.191 C 
BRANCH  97  98
ATOM     98  C   UNL A   1      29.170  30.306  22.535  1.00  0.00     0.122 A 
ATOM     99  C   UNL A   1      28.252  30.617  23.519  1.00  0.00     0.047 A 
ATOM    100  O   UNL A   1      29.256  31.329  21.639  1.00  0.00    -0.467 OA
ATOM    101  C   UNL A   1      27.722  31.886  23.181  1.00  0.00     0.042 A 
ATOM    102  C   UNL A   1      28.377  32.282  22.039  1.00  0.00     0.195 A 
ENDBRANCH  97  98
ENDBRANCH  95  97
ENDBRANCH  89  93
ENDBRANCH  85  87
ENDBRANCH  79  83
ENDBRANCH  74  77
ENDBRANCH   1  73
TORSDOF 18
ENDMDL
MODEL 3
REMARK VINA RESULT:     -12.5      1.281      1.653
REMARK SMILES O=C(NCCCNC(=O)[C@H]1CC=CC[C@@H]1C(=O)Nc1ccccc1C(=O)NCc1ccco1)c1ccc(-c2c3nc(c(-c4cccc(S(=O)(=O)[O-])c4F)c4ccc([nH]4)c(-c4cccc(S(=O)(=O)[O-])c4F)c4nc(c(-c5cccc(S(=O)(=O)[O-])c5F)c5ccc2[nH]5)C=C4)C=C3)cc1
REMARK SMILES IDX 6 1 5 2 4 3 3 4 1 5 2 6 34 8 35 9 96 10 36 11 95 12 37 13
REMARK SMILES IDX 38 14 39 15 89 16 40 17 94 18 88 19 90 20 41 21 93 22 87 23
REMARK SMILES IDX 86 24 42 26 74 27 54 28 73 29 55 30 58 31 72 32 91 33 56 34
REMARK SMILES IDX 57 35 71 37 92 38 59 39 43 40 44 41 52 42 45 43 47 44 53 45
REMARK SMILES IDX 46 46 48 47 49 48 50 49 51 50 75 51 76 52 84 53 77 54 79 55
REMARK SMILES IDX 85 56 78 57 80 58 81 59 82 60 83 61 60 62 61 63 69 64 62 65
REMARK SMILES IDX 64 66 70 67 63 68 65 69 66 70 67 71 68 72 7 73 8 74 9 76
REMARK SMILES IDX 10 77 11 78 15 79 12 80 14 81 13 82 16 83 17 84 18 85 19 87
REMARK SMILES IDX 20 88 24 89 21 90 23 91 22 92 25 93 26 94 27 95 28 97 29 98
REMARK SMILES IDX 30 99 33 100 31 101 32 102
REMARK H PARENT 3 7 90 25 58 36 7 75 18 86 27 96
REMARK Flexibility Score: inf
ROOT
ATOM      1  C   UNL A   1      31.343  30.889  26.235  1.00  0.00     0.117 C 
ENDROOT
BRANCH   1   2
ATOM      2  C   UNL A   1      31.379  32.372  26.615  1.00  0.00     0.042 C 
BRANCH   2   3
ATOM      3  C   UNL A   1      32.678  32.918  27.196  1.00  0.00     0.118 C 
BRANCH   3   4
ATOM      4  N   UNL A   1      32.546  34.216  27.834  1.00  0.00    -0.352 N 
ATOM      5  O   UNL A   1      32.782  35.830  29.369  1.00  0.00    -0.269 OA
ATOM      6  C   UNL A   1      33.206  34.780  28.899  1.00  0.00     0.251 C 
ATOM      7  H   UNL A   1      31.860  34.795  27.432  1.00  0.00     0.163 HD
BRANCH   6   8
ATOM      8  C   UNL A   1      34.390  34.124  29.499  1.00  0.00     0.039 A 
ATOM      9  C   UNL A   1      34.261  33.166  30.505  1.00  0.00     0.014 A 
ATOM     10  C   UNL A   1      35.660  34.430  28.996  1.00  0.00     0.014 A 
ATOM     11  C   UNL A   1      35.396  32.647  31.121  1.00  0.00     0.010 A 
ATOM     12  C   UNL A   1      36.796  33.829  29.549  1.00  0.00     0.010 A 
ATOM     13  C   UNL A   1      36.678  32.963  30.646  1.00  0.00    -0.014 A 
BRANCH  13  14
ATOM     14  C   UNL A   1      37.868  32.329  31.275  1.00  0.00     0.031 A 
ATOM     15  C   UNL A   1      38.410  32.819  32.591  1.00  0.00     0.074 A 
ATOM     16  C   UNL A   1      38.459  31.290  30.651  1.00  0.00     0.049 A 
ATOM     17  N   UNL A   1      39.403  32.344  33.300  1.00  0.00    -0.248 NA
ATOM     18  C   UNL A   1      37.765  33.999  33.188  1.00  0.00     0.031 C 
ATOM     19  C   UNL A   1      38.056  30.750  29.350  1.00  0.00     0.029 A 
ATOM     20  N   UNL A   1      39.514  30.497  31.024  1.00  0.00    -0.354 N 
ATOM     21  C   UNL A   1      39.529  33.185  34.399  1.00  0.00     0.074 A 
ATOM     22  C   UNL A   1      38.518  34.210  34.259  1.00  0.00     0.031 C 
ATOM     23  C   UNL A   1      38.826  29.695  29.052  1.00  0.00     0.029 A 
ATOM     24  C   UNL A   1      39.814  29.515  30.109  1.00  0.00     0.049 A 
ATOM     25  H   UNL A   1      40.011  30.620  31.866  1.00  0.00     0.167 HD
ATOM     26  C   UNL A   1      40.399  33.104  35.437  1.00  0.00     0.034 A 
ATOM     27  C   UNL A   1      40.784  28.580  30.109  1.00  0.00     0.034 A 
ATOM     28  C   UNL A   1      41.385  32.066  35.585  1.00  0.00     0.049 A 
ATOM     29  C   UNL A   1      41.724  28.509  31.279  1.00  0.00     0.074 A 
ATOM     30  C   UNL A   1      42.263  31.857  36.635  1.00  0.00     0.029 A 
ATOM     31  N   UNL A   1      41.641  31.074  34.650  1.00  0.00    -0.354 N 
ATOM     32  N   UNL A   1      41.736  29.229  32.373  1.00  0.00    -0.248 NA
ATOM     33  C   UNL A   1      42.767  27.476  31.225  1.00  0.00     0.031 C 
ATOM     34  C   UNL A   1      43.071  30.760  36.320  1.00  0.00     0.029 A 
ATOM     35  C   UNL A   1      42.672  30.260  35.091  1.00  0.00     0.049 A 
ATOM     36  H   UNL A   1      41.159  30.963  33.799  1.00  0.00     0.167 HD
ATOM     37  C   UNL A   1      42.763  28.716  33.155  1.00  0.00     0.074 A 
ATOM     38  C   UNL A   1      43.334  27.607  32.416  1.00  0.00     0.031 C 
ATOM     39  C   UNL A   1      43.203  29.132  34.368  1.00  0.00     0.034 A 
BRANCH  26  40
ATOM     40  C   UNL A   1      40.311  34.160  36.512  1.00  0.00     0.023 A 
ATOM     41  C   UNL A   1      39.171  34.226  37.340  1.00  0.00     0.012 A 
ATOM     42  C   UNL A   1      41.381  35.048  36.741  1.00  0.00     0.148 A 
ATOM     43  C   UNL A   1      39.081  35.184  38.352  1.00  0.00     0.002 A 
ATOM     44  C   UNL A   1      41.304  35.969  37.780  1.00  0.00     0.091 A 
ATOM     45  F   UNL A   1      42.449  34.984  35.933  1.00  0.00    -0.205 F 
ATOM     46  C   UNL A   1      40.150  36.047  38.577  1.00  0.00     0.022 A 
BRANCH  44  47
ATOM     47  S   UNL A   1      42.661  37.067  38.203  1.00  0.00     0.127 S 
ATOM     48  O   UNL A   1      42.007  38.006  39.114  1.00  0.00    -0.237 OA
ATOM     49  O   UNL A   1      43.608  36.154  38.846  1.00  0.00    -0.237 OA
ATOM     50  O   UNL A   1      43.125  37.634  36.945  1.00  0.00    -0.744 OA
ENDBRANCH  44  47
ENDBRANCH  26  40
BRANCH  27  51
ATOM     51  C   UNL A   1      40.877  27.604  28.987  1.00  0.00     0.023 A 
ATOM     52  C   UNL A   1      40.011  26.494  28.959  1.00  0.00     0.012 A 
ATOM     53  C   UNL A   1      41.794  27.787  27.934  1.00  0.00     0.148 A 
ATOM     54  C   UNL A   1      40.077  25.567  27.918  1.00  0.00     0.002 A 
ATOM     55  C   UNL A   1      41.814  26.894  26.870  1.00  0.00     0.091 A 
ATOM     56  F   UNL A   1      42.618  28.844  27.985  1.00  0.00    -0.205 F 
ATOM     57  C   UNL A   1      40.969  25.772  26.869  1.00  0.00     0.022 A 
BRANCH  55  58
ATOM     58  S   UNL A   1      42.833  27.151  25.414  1.00  0.00     0.127 S 
ATOM     59  O   UNL A   1      44.146  27.391  26.008  1.00  0.00    -0.237 OA
ATOM     60  O   UNL A   1      42.693  25.872  24.720  1.00  0.00    -0.237 OA
ATOM     61  O   UNL A   1      42.239  28.283  24.714  1.00  0.00    -0.744 OA
ENDBRANCH  55  58
ENDBRANCH  27  51
BRANCH  39  62
ATOM     62  C   UNL A   1      44.332  28.358  34.999  1.00  0.00     0.023 A 
ATOM     63  C   UNL A   1      45.663  28.612  34.614  1.00  0.00     0.012 A 
ATOM     64  C   UNL A   1      44.073  27.412  36.011  1.00  0.00     0.148 A 
ATOM     65  C   UNL A   1      46.716  27.907  35.199  1.00  0.00     0.002 A 
ATOM     66  C   UNL A   1      45.130  26.754  36.627  1.00  0.00     0.091 A 
ATOM     67  F   UNL A   1      42.798  27.170  36.349  1.00  0.00    -0.205 F 
ATOM     68  C   UNL A   1      46.450  26.988  36.212  1.00  0.00     0.022 A 
BRANCH  66  69
ATOM     69  S   UNL A   1      44.888  25.629  38.006  1.00  0.00     0.127 S 
ATOM     70  O   UNL A   1      44.208  26.486  38.975  1.00  0.00    -0.237 OA
ATOM     71  O   UNL A   1      44.047  24.589  37.414  1.00  0.00    -0.237 OA
ATOM     72  O   UNL A   1      46.219  25.180  38.394  1.00  0.00    -0.744 OA
ENDBRANCH  66  69
ENDBRANCH  39  62
ENDBRANCH  13  14
ENDBRANCH   6   8
ENDBRANCH   3   4
ENDBRANCH   2   3
ENDBRANCH   1   2
BRANCH   1  73
ATOM     73  N   UNL A   1      32.089  29.976  27.080  1.00  0.00    -0.356 N 
ATOM     74  C   UNL A   1      32.423  28.670  26.905  1.00  0.00     0.224 C 
ATOM     75  H   UNL A   1      32.407  30.369  27.925  1.00  0.00     0.163 HD
ATOM     76  O   UNL A   1      33.456  28.300  27.471  1.00  0.00    -0.275 OA
BRANCH  74  77
ATOM     77  C   UNL A   1      31.564  27.711  26.061  1.00  0.00     0.095 C 
ATOM     78  C   UNL A   1      31.869  27.959  24.566  1.00  0.00     0.041 C 
ATOM     79  C   UNL A   1      31.856  26.241  26.407  1.00  0.00     0.095 C 
ATOM     80  C   UNL A   1      33.199  27.390  24.149  1.00  0.00    -0.030 C 
ATOM     81  C   UNL A   1      33.307  25.878  26.131  1.00  0.00     0.041 C 
ATOM     82  C   UNL A   1      33.861  26.479  24.879  1.00  0.00    -0.030 C 
BRANCH  79  83
ATOM     83  C   UNL A   1      30.704  25.310  26.021  1.00  0.00     0.228 C 
ATOM     84  O   UNL A   1      29.606  25.510  26.569  1.00  0.00    -0.274 OA
ATOM     85  N   UNL A   1      30.660  24.370  25.046  1.00  0.00    -0.325 N 
ATOM     86  H   UNL A   1      29.758  23.993  24.929  1.00  0.00     0.169 HD
BRANCH  85  87
ATOM     87  C   UNL A   1      31.592  23.807  24.164  1.00  0.00     0.054 A 
ATOM     88  C   UNL A   1      31.658  24.490  22.927  1.00  0.00     0.027 A 
ATOM     89  C   UNL A   1      32.421  22.697  24.366  1.00  0.00     0.063 A 
ATOM     90  C   UNL A   1      32.674  24.240  22.005  1.00  0.00     0.002 A 
ATOM     91  C   UNL A   1      33.470  22.490  23.433  1.00  0.00     0.016 A 
ATOM     92  C   UNL A   1      33.619  23.272  22.287  1.00  0.00     0.001 A 
BRANCH  89  93
ATOM     93  C   UNL A   1      32.363  21.635  25.418  1.00  0.00     0.253 C 
ATOM     94  O   UNL A   1      31.614  20.667  25.239  1.00  0.00    -0.269 OA
ATOM     95  N   UNL A   1      33.037  21.627  26.604  1.00  0.00    -0.345 N 
ATOM     96  H   UNL A   1      32.833  20.834  27.151  1.00  0.00     0.164 HD
BRANCH  95  97
ATOM     97  C   UNL A   1      33.982  22.516  27.239  1.00  0.00     0.191 C 
BRANCH  97  98
ATOM     98  C   UNL A   1      35.242  22.538  26.456  1.00  0.00     0.122 A 
ATOM     99  C   UNL A   1      36.073  23.538  25.990  1.00  0.00     0.047 A 
ATOM    100  O   UNL A   1      35.743  21.319  26.107  1.00  0.00    -0.467 OA
ATOM    101  C   UNL A   1      37.118  22.892  25.287  1.00  0.00     0.042 A 
ATOM    102  C   UNL A   1      36.879  21.544  25.401  1.00  0.00     0.195 A 
ENDBRANCH  97  98
ENDBRANCH  95  97
ENDBRANCH  89  93
ENDBRANCH  85  87
ENDBRANCH  79  83
ENDBRANCH  74  77
ENDBRANCH   1  73
TORSDOF 18
ENDMDL
