MODEL 1
REMARK VINA RESULT:     -12.4      0.000      0.000
REMARK SMILES CC(C)(C)OC(=O)N1CCN(c2nc3ccccc3s2)[C@H](C(=O)NCCCNC(=O)c2ccc(-c3c4nc(c(-c5cccc(S(=O)(=O)[O-])c5F)c5ccc([nH]5)c(-c5cccc(S(=O)(=O)[O-])c5F)c5nc(c(-c6cccc(S(=O)(=O)[O-])c6F)c6ccc3[nH]6)C=C5)C=C4)cc2)C1
REMARK SMILES IDX 26 1 25 2 24 3 22 4 23 5 21 7 8 8 9 9 94 10 10 11 11 12 6 13
REMARK SMILES IDX 7 14 5 15 2 16 1 17 3 18 4 19 12 20 13 21 20 22 14 23 19 24
REMARK SMILES IDX 15 25 18 26 16 27 17 28 27 29 28 30 29 31 30 33 31 34 32 35
REMARK SMILES IDX 93 36 33 37 92 38 34 39 35 40 36 41 86 42 37 43 91 44 85 45
REMARK SMILES IDX 87 46 38 47 90 48 84 49 83 50 39 52 71 53 51 54 70 55 52 56
REMARK SMILES IDX 55 57 69 58 88 59 53 60 54 61 68 63 89 64 56 65 40 66 41 67
REMARK SMILES IDX 49 68 42 69 44 70 50 71 43 72 45 73 46 74 47 75 48 76 72 77
REMARK SMILES IDX 73 78 81 79 74 80 76 81 82 82 75 83 77 84 78 85 79 86 80 87
REMARK SMILES IDX 57 88 58 89 66 90 59 91 61 92 67 93 60 94 62 95 63 96 64 97
REMARK SMILES IDX 65 98
REMARK H PARENT 24 6 28 32 87 51 55 62
REMARK Flexibility Score: inf
ROOT
ATOM      1  C   UNL A   1      33.352  27.882  26.574  1.00  0.00     0.042 C 
ENDROOT
BRANCH   1   2
ATOM      2  C   UNL A   1      31.916  28.014  27.074  1.00  0.00     0.117 C 
BRANCH   2   3
ATOM      3  N   UNL A   1      31.303  26.710  27.128  1.00  0.00    -0.354 N 
ATOM      4  C   UNL A   1      30.738  25.954  26.156  1.00  0.00     0.244 C 
ATOM      5  O   UNL A   1      29.906  25.139  26.598  1.00  0.00    -0.273 OA
ATOM      6  H   UNL A   1      31.294  26.300  28.023  1.00  0.00     0.163 HD
BRANCH   4   7
ATOM      7  C   UNL A   1      31.184  25.796  24.691  1.00  0.00     0.193 C 
ATOM      8  N   UNL A   1      33.211  24.776  23.517  1.00  0.00    -0.304 N 
ATOM      9  C   UNL A   1      33.142  25.802  22.483  1.00  0.00     0.144 C 
ATOM     10  C   UNL A   1      32.590  25.111  24.813  1.00  0.00     0.158 C 
ATOM     11  C   UNL A   1      31.722  26.352  22.372  1.00  0.00     0.141 C 
ATOM     12  N   UNL A   1      31.313  26.892  23.692  1.00  0.00    -0.332 N 
BRANCH   8  13
ATOM     13  C   UNL A   1      33.978  23.659  23.286  1.00  0.00     0.410 C 
ATOM     14  O   UNL A   1      34.509  23.431  22.202  1.00  0.00    -0.224 OA
BRANCH  13  15
ATOM     15  O   UNL A   1      34.020  22.822  24.351  1.00  0.00    -0.444 OA
BRANCH  15  16
ATOM     16  C   UNL A   1      35.250  22.668  25.106  1.00  0.00     0.106 C 
ATOM     17  C   UNL A   1      34.807  22.521  26.570  1.00  0.00     0.056 C 
ATOM     18  C   UNL A   1      36.107  23.928  24.964  1.00  0.00     0.056 C 
ATOM     19  C   UNL A   1      36.029  21.397  24.728  1.00  0.00     0.056 C 
ENDBRANCH  15  16
ENDBRANCH  13  15
ENDBRANCH   8  13
BRANCH  12  20
ATOM     20  C   UNL A   1      30.539  27.996  23.583  1.00  0.00     0.187 A 
ATOM     21  N   UNL A   1      30.832  29.211  23.975  1.00  0.00    -0.220 NA
ATOM     22  S   UNL A   1      28.884  27.781  23.082  1.00  0.00    -0.097 S 
ATOM     23  C   UNL A   1      29.762  30.072  23.710  1.00  0.00     0.084 A 
ATOM     24  C   UNL A   1      28.670  29.480  23.071  1.00  0.00     0.056 A 
ATOM     25  C   UNL A   1      29.721  31.463  23.933  1.00  0.00     0.030 A 
ATOM     26  C   UNL A   1      27.624  30.228  22.508  1.00  0.00     0.021 A 
ATOM     27  C   UNL A   1      28.671  32.220  23.395  1.00  0.00     0.002 A 
ATOM     28  C   UNL A   1      27.660  31.614  22.655  1.00  0.00     0.002 A 
ENDBRANCH  12  20
ENDBRANCH   4   7
ENDBRANCH   2   3
ENDBRANCH   1   2
BRANCH   1  29
ATOM     29  C   UNL A   1      33.923  29.095  25.863  1.00  0.00     0.118 C 
BRANCH  29  30
ATOM     30  N   UNL A   1      33.777  30.322  26.635  1.00  0.00    -0.352 N 
ATOM     31  C   UNL A   1      34.505  30.833  27.682  1.00  0.00     0.251 C 
ATOM     32  H   UNL A   1      33.020  30.887  26.356  1.00  0.00     0.163 HD
ATOM     33  O   UNL A   1      34.079  31.840  28.248  1.00  0.00    -0.269 OA
BRANCH  31  34
ATOM     34  C   UNL A   1      35.757  30.198  28.162  1.00  0.00     0.039 A 
ATOM     35  C   UNL A   1      36.891  30.266  27.341  1.00  0.00     0.014 A 
ATOM     36  C   UNL A   1      35.837  29.512  29.374  1.00  0.00     0.014 A 
ATOM     37  C   UNL A   1      38.105  29.718  27.767  1.00  0.00     0.010 A 
ATOM     38  C   UNL A   1      37.067  29.064  29.847  1.00  0.00     0.010 A 
ATOM     39  C   UNL A   1      38.214  29.151  29.046  1.00  0.00    -0.014 A 
BRANCH  39  40
ATOM     40  C   UNL A   1      39.508  28.643  29.568  1.00  0.00     0.031 A 
ATOM     41  C   UNL A   1      40.225  29.384  30.664  1.00  0.00     0.074 A 
ATOM     42  C   UNL A   1      40.084  27.572  28.985  1.00  0.00     0.049 A 
ATOM     43  N   UNL A   1      41.402  29.149  31.186  1.00  0.00    -0.248 NA
ATOM     44  C   UNL A   1      39.544  30.560  31.233  1.00  0.00     0.031 C 
ATOM     45  C   UNL A   1      39.521  26.812  27.868  1.00  0.00     0.029 A 
ATOM     46  N   UNL A   1      41.286  26.956  29.230  1.00  0.00    -0.354 N 
ATOM     47  C   UNL A   1      41.618  30.164  32.110  1.00  0.00     0.074 A 
ATOM     48  C   UNL A   1      40.466  31.037  32.056  1.00  0.00     0.031 C 
ATOM     49  C   UNL A   1      40.373  25.836  27.522  1.00  0.00     0.029 A 
ATOM     50  C   UNL A   1      41.561  25.923  28.364  1.00  0.00     0.049 A 
ATOM     51  H   UNL A   1      41.893  27.227  29.956  1.00  0.00     0.167 HD
ATOM     52  C   UNL A   1      42.667  30.340  32.947  1.00  0.00     0.034 A 
ATOM     53  C   UNL A   1      42.657  25.147  28.247  1.00  0.00     0.034 A 
ATOM     54  C   UNL A   1      43.794  29.451  33.018  1.00  0.00     0.049 A 
ATOM     55  C   UNL A   1      43.802  25.354  29.202  1.00  0.00     0.074 A 
ATOM     56  C   UNL A   1      44.866  29.491  33.891  1.00  0.00     0.029 A 
ATOM     57  N   UNL A   1      44.003  28.368  32.178  1.00  0.00    -0.354 N 
ATOM     58  N   UNL A   1      43.918  26.227  30.173  1.00  0.00    -0.248 NA
ATOM     59  C   UNL A   1      44.950  24.447  29.068  1.00  0.00     0.031 C 
ATOM     60  C   UNL A   1      45.743  28.456  33.553  1.00  0.00     0.029 A 
ATOM     61  C   UNL A   1      45.195  27.742  32.499  1.00  0.00     0.049 A 
ATOM     62  H   UNL A   1      43.393  28.086  31.458  1.00  0.00     0.167 HD
ATOM     63  C   UNL A   1      45.132  25.949  30.790  1.00  0.00     0.074 A 
ATOM     64  C   UNL A   1      45.703  24.814  30.096  1.00  0.00     0.031 C 
ATOM     65  C   UNL A   1      45.727  26.584  31.831  1.00  0.00     0.034 A 
BRANCH  52  66
ATOM     66  C   UNL A   1      42.630  31.521  33.883  1.00  0.00     0.023 A 
ATOM     67  C   UNL A   1      43.117  32.772  33.452  1.00  0.00     0.012 A 
ATOM     68  C   UNL A   1      42.055  31.408  35.164  1.00  0.00     0.148 A 
ATOM     69  C   UNL A   1      43.065  33.883  34.292  1.00  0.00     0.002 A 
ATOM     70  C   UNL A   1      41.962  32.531  35.977  1.00  0.00     0.091 A 
ATOM     71  F   UNL A   1      41.615  30.207  35.564  1.00  0.00    -0.205 F 
ATOM     72  C   UNL A   1      42.477  33.765  35.548  1.00  0.00     0.022 A 
BRANCH  70  73
ATOM     73  S   UNL A   1      41.149  32.506  37.579  1.00  0.00     0.127 S 
ATOM     74  O   UNL A   1      42.006  31.589  38.329  1.00  0.00    -0.237 OA
ATOM     75  O   UNL A   1      41.245  33.906  37.992  1.00  0.00    -0.237 OA
ATOM     76  O   UNL A   1      39.794  32.032  37.337  1.00  0.00    -0.744 OA
ENDBRANCH  70  73
ENDBRANCH  52  66
BRANCH  53  77
ATOM     77  C   UNL A   1      42.710  24.074  27.214  1.00  0.00     0.023 A 
ATOM     78  C   UNL A   1      43.398  24.305  26.006  1.00  0.00     0.012 A 
ATOM     79  C   UNL A   1      42.094  22.826  27.424  1.00  0.00     0.148 A 
ATOM     80  C   UNL A   1      43.435  23.329  25.011  1.00  0.00     0.002 A 
ATOM     81  C   UNL A   1      42.185  21.836  26.452  1.00  0.00     0.091 A 
ATOM     82  F   UNL A   1      41.438  22.627  28.576  1.00  0.00    -0.205 F 
ATOM     83  C   UNL A   1      42.837  22.092  25.236  1.00  0.00     0.022 A 
BRANCH  81  84
ATOM     84  S   UNL A   1      41.562  20.172  26.714  1.00  0.00     0.127 S 
ATOM     85  O   UNL A   1      40.134  20.415  26.901  1.00  0.00    -0.237 OA
ATOM     86  O   UNL A   1      41.917  19.517  25.455  1.00  0.00    -0.237 OA
ATOM     87  O   UNL A   1      42.277  19.665  27.877  1.00  0.00    -0.744 OA
ENDBRANCH  81  84
ENDBRANCH  53  77
BRANCH  65  88
ATOM     88  C   UNL A   1      47.044  26.038  32.320  1.00  0.00     0.023 A 
ATOM     89  C   UNL A   1      48.254  26.531  31.792  1.00  0.00     0.012 A 
ATOM     90  C   UNL A   1      47.078  25.086  33.358  1.00  0.00     0.148 A 
ATOM     91  C   UNL A   1      49.477  26.054  32.262  1.00  0.00     0.002 A 
ATOM     92  C   UNL A   1      48.300  24.657  33.859  1.00  0.00     0.091 A 
ATOM     93  F   UNL A   1      45.916  24.618  33.836  1.00  0.00    -0.205 F 
ATOM     94  C   UNL A   1      49.501  25.128  33.303  1.00  0.00     0.022 A 
BRANCH  92  95
ATOM     95  S   UNL A   1      48.428  23.545  35.264  1.00  0.00     0.127 S 
ATOM     96  O   UNL A   1      47.844  22.318  34.726  1.00  0.00    -0.237 OA
ATOM     97  O   UNL A   1      49.875  23.488  35.481  1.00  0.00    -0.237 OA
ATOM     98  O   UNL A   1      47.677  24.171  36.344  1.00  0.00    -0.744 OA
ENDBRANCH  92  95
ENDBRANCH  65  88
ENDBRANCH  39  40
ENDBRANCH  31  34
ENDBRANCH  29  30
ENDBRANCH   1  29
TORSDOF 17
ENDMDL
MODEL 2
REMARK VINA RESULT:     -12.2      2.336      7.729
REMARK SMILES CC(C)(C)OC(=O)N1CCN(c2nc3ccccc3s2)[C@H](C(=O)NCCCNC(=O)c2ccc(-c3c4nc(c(-c5cccc(S(=O)(=O)[O-])c5F)c5ccc([nH]5)c(-c5cccc(S(=O)(=O)[O-])c5F)c5nc(c(-c6cccc(S(=O)(=O)[O-])c6F)c6ccc3[nH]6)C=C5)C=C4)cc2)C1
REMARK SMILES IDX 26 1 25 2 24 3 22 4 23 5 21 7 8 8 9 9 94 10 10 11 11 12 6 13
REMARK SMILES IDX 7 14 5 15 2 16 1 17 3 18 4 19 12 20 13 21 20 22 14 23 19 24
REMARK SMILES IDX 15 25 18 26 16 27 17 28 27 29 28 30 29 31 30 33 31 34 32 35
REMARK SMILES IDX 93 36 33 37 92 38 34 39 35 40 36 41 86 42 37 43 91 44 85 45
REMARK SMILES IDX 87 46 38 47 90 48 84 49 83 50 39 52 71 53 51 54 70 55 52 56
REMARK SMILES IDX 55 57 69 58 88 59 53 60 54 61 68 63 89 64 56 65 40 66 41 67
REMARK SMILES IDX 49 68 42 69 44 70 50 71 43 72 45 73 46 74 47 75 48 76 72 77
REMARK SMILES IDX 73 78 81 79 74 80 76 81 82 82 75 83 77 84 78 85 79 86 80 87
REMARK SMILES IDX 57 88 58 89 66 90 59 91 61 92 67 93 60 94 62 95 63 96 64 97
REMARK SMILES IDX 65 98
REMARK H PARENT 24 6 28 32 87 51 55 62
REMARK Flexibility Score: inf
ROOT
ATOM      1  C   UNL A   1      33.277  29.323  23.423  1.00  0.00     0.042 C 
ENDROOT
BRANCH   1   2
ATOM      2  C   UNL A   1      34.353  28.472  22.754  1.00  0.00     0.117 C 
BRANCH   2   3
ATOM      3  N   UNL A   1      33.767  27.715  21.675  1.00  0.00    -0.354 N 
ATOM      4  C   UNL A   1      33.254  26.461  21.648  1.00  0.00     0.244 C 
ATOM      5  O   UNL A   1      33.278  25.952  20.511  1.00  0.00    -0.273 OA
ATOM      6  H   UNL A   1      33.735  28.189  20.814  1.00  0.00     0.163 HD
BRANCH   4   7
ATOM      7  C   UNL A   1      32.432  25.743  22.734  1.00  0.00     0.193 C 
ATOM      8  N   UNL A   1      32.018  23.305  23.374  1.00  0.00    -0.304 N 
ATOM      9  C   UNL A   1      30.653  23.631  23.774  1.00  0.00     0.144 C 
ATOM     10  C   UNL A   1      32.653  24.225  22.411  1.00  0.00     0.158 C 
ATOM     11  C   UNL A   1      30.548  25.105  24.155  1.00  0.00     0.141 C 
ATOM     12  N   UNL A   1      30.980  25.930  22.999  1.00  0.00    -0.332 N 
BRANCH   8  13
ATOM     13  C   UNL A   1      32.551  22.103  23.772  1.00  0.00     0.410 C 
ATOM     14  O   UNL A   1      32.574  21.112  23.046  1.00  0.00    -0.224 OA
BRANCH  13  15
ATOM     15  O   UNL A   1      32.977  22.119  25.059  1.00  0.00    -0.444 OA
BRANCH  15  16
ATOM     16  C   UNL A   1      34.322  22.568  25.374  1.00  0.00     0.106 C 
ATOM     17  C   UNL A   1      34.752  21.728  26.587  1.00  0.00     0.056 C 
ATOM     18  C   UNL A   1      34.295  24.046  25.770  1.00  0.00     0.056 C 
ATOM     19  C   UNL A   1      35.325  22.294  24.241  1.00  0.00     0.056 C 
ENDBRANCH  15  16
ENDBRANCH  13  15
ENDBRANCH   8  13
BRANCH  12  20
ATOM     20  C   UNL A   1      30.267  27.074  22.885  1.00  0.00     0.187 A 
ATOM     21  N   UNL A   1      30.611  28.160  22.238  1.00  0.00    -0.220 NA
ATOM     22  S   UNL A   1      28.841  27.247  23.872  1.00  0.00    -0.097 S 
ATOM     23  C   UNL A   1      29.617  29.136  22.375  1.00  0.00     0.084 A 
ATOM     24  C   UNL A   1      28.497  28.740  23.109  1.00  0.00     0.056 A 
ATOM     25  C   UNL A   1      29.597  30.411  21.776  1.00  0.00     0.030 A 
ATOM     26  C   UNL A   1      27.308  29.486  23.139  1.00  0.00     0.021 A 
ATOM     27  C   UNL A   1      28.424  31.177  21.817  1.00  0.00     0.002 A 
ATOM     28  C   UNL A   1      27.281  30.699  22.452  1.00  0.00     0.002 A 
ENDBRANCH  12  20
ENDBRANCH   4   7
ENDBRANCH   2   3
ENDBRANCH   1   2
BRANCH   1  29
ATOM     29  C   UNL A   1      33.047  29.066  24.900  1.00  0.00     0.118 C 
BRANCH  29  30
ATOM     30  N   UNL A   1      32.469  30.211  25.589  1.00  0.00    -0.352 N 
ATOM     31  C   UNL A   1      32.878  30.909  26.700  1.00  0.00     0.251 C 
ATOM     32  H   UNL A   1      31.634  30.546  25.188  1.00  0.00     0.163 HD
ATOM     33  O   UNL A   1      32.121  31.765  27.159  1.00  0.00    -0.269 OA
BRANCH  31  34
ATOM     34  C   UNL A   1      34.175  30.644  27.370  1.00  0.00     0.039 A 
ATOM     35  C   UNL A   1      35.027  31.728  27.617  1.00  0.00     0.014 A 
ATOM     36  C   UNL A   1      34.589  29.360  27.728  1.00  0.00     0.014 A 
ATOM     37  C   UNL A   1      36.242  31.534  28.282  1.00  0.00     0.010 A 
ATOM     38  C   UNL A   1      35.743  29.180  28.485  1.00  0.00     0.010 A 
ATOM     39  C   UNL A   1      36.590  30.263  28.762  1.00  0.00    -0.014 A 
BRANCH  39  40
ATOM     40  C   UNL A   1      37.827  30.037  29.552  1.00  0.00     0.031 A 
ATOM     41  C   UNL A   1      38.891  29.104  29.040  1.00  0.00     0.074 A 
ATOM     42  C   UNL A   1      37.945  30.595  30.774  1.00  0.00     0.049 A 
ATOM     43  N   UNL A   1      39.993  28.710  29.625  1.00  0.00    -0.248 NA
ATOM     44  C   UNL A   1      38.679  28.513  27.707  1.00  0.00     0.031 C 
ATOM     45  C   UNL A   1      36.950  31.461  31.408  1.00  0.00     0.029 A 
ATOM     46  N   UNL A   1      38.939  30.490  31.715  1.00  0.00    -0.354 N 
ATOM     47  C   UNL A   1      40.582  27.801  28.754  1.00  0.00     0.074 A 
ATOM     48  C   UNL A   1      39.700  27.675  27.615  1.00  0.00     0.031 C 
ATOM     49  C   UNL A   1      37.379  31.807  32.632  1.00  0.00     0.029 A 
ATOM     50  C   UNL A   1      38.660  31.156  32.886  1.00  0.00     0.049 A 
ATOM     51  H   UNL A   1      39.772  29.986  31.566  1.00  0.00     0.167 HD
ATOM     52  C   UNL A   1      41.761  27.149  28.879  1.00  0.00     0.034 A 
ATOM     53  C   UNL A   1      39.348  31.219  34.042  1.00  0.00     0.034 A 
ATOM     54  C   UNL A   1      42.649  27.304  29.999  1.00  0.00     0.049 A 
ATOM     55  C   UNL A   1      40.665  30.498  34.147  1.00  0.00     0.074 A 
ATOM     56  C   UNL A   1      43.907  26.757  30.181  1.00  0.00     0.029 A 
ATOM     57  N   UNL A   1      42.369  28.049  31.134  1.00  0.00    -0.354 N 
ATOM     58  N   UNL A   1      41.277  29.766  33.250  1.00  0.00    -0.248 NA
ATOM     59  C   UNL A   1      41.403  30.642  35.410  1.00  0.00     0.031 C 
ATOM     60  C   UNL A   1      44.370  27.140  31.443  1.00  0.00     0.029 A 
ATOM     61  C   UNL A   1      43.422  27.963  32.029  1.00  0.00     0.049 A 
ATOM     62  H   UNL A   1      41.543  28.564  31.283  1.00  0.00     0.167 HD
ATOM     63  C   UNL A   1      42.488  29.394  33.823  1.00  0.00     0.074 A 
ATOM     64  C   UNL A   1      42.530  30.001  35.137  1.00  0.00     0.031 C 
ATOM     65  C   UNL A   1      43.471  28.612  33.313  1.00  0.00     0.034 A 
BRANCH  52  66
ATOM     66  C   UNL A   1      42.183  26.236  27.756  1.00  0.00     0.023 A 
ATOM     67  C   UNL A   1      43.075  26.704  26.770  1.00  0.00     0.012 A 
ATOM     68  C   UNL A   1      41.749  24.896  27.715  1.00  0.00     0.148 A 
ATOM     69  C   UNL A   1      43.500  25.865  25.740  1.00  0.00     0.002 A 
ATOM     70  C   UNL A   1      42.215  24.052  26.714  1.00  0.00     0.091 A 
ATOM     71  F   UNL A   1      40.886  24.475  28.650  1.00  0.00    -0.205 F 
ATOM     72  C   UNL A   1      43.080  24.538  25.720  1.00  0.00     0.022 A 
BRANCH  70  73
ATOM     73  S   UNL A   1      41.801  22.306  26.644  1.00  0.00     0.127 S 
ATOM     74  O   UNL A   1      42.435  21.904  25.389  1.00  0.00    -0.237 OA
ATOM     75  O   UNL A   1      42.451  21.789  27.848  1.00  0.00    -0.237 OA
ATOM     76  O   UNL A   1      40.347  22.235  26.656  1.00  0.00    -0.744 OA
ENDBRANCH  70  73
ENDBRANCH  52  66
BRANCH  53  77
ATOM     77  C   UNL A   1      38.827  32.026  35.182  1.00  0.00     0.023 A 
ATOM     78  C   UNL A   1      38.831  33.432  35.099  1.00  0.00     0.012 A 
ATOM     79  C   UNL A   1      38.318  31.409  36.342  1.00  0.00     0.148 A 
ATOM     80  C   UNL A   1      38.378  34.210  36.165  1.00  0.00     0.002 A 
ATOM     81  C   UNL A   1      37.814  32.189  37.376  1.00  0.00     0.091 A 
ATOM     82  F   UNL A   1      38.330  30.071  36.406  1.00  0.00    -0.205 F 
ATOM     83  C   UNL A   1      37.862  33.590  37.299  1.00  0.00     0.022 A 
BRANCH  81  84
ATOM     84  S   UNL A   1      37.009  31.474  38.813  1.00  0.00     0.127 S 
ATOM     85  O   UNL A   1      36.878  30.074  38.416  1.00  0.00    -0.237 OA
ATOM     86  O   UNL A   1      37.991  31.729  39.866  1.00  0.00    -0.237 OA
ATOM     87  O   UNL A   1      35.760  32.208  38.968  1.00  0.00    -0.744 OA
ENDBRANCH  81  84
ENDBRANCH  53  77
BRANCH  65  88
ATOM     88  C   UNL A   1      44.704  28.403  34.154  1.00  0.00     0.023 A 
ATOM     89  C   UNL A   1      45.786  29.301  34.058  1.00  0.00     0.012 A 
ATOM     90  C   UNL A   1      44.756  27.353  35.092  1.00  0.00     0.148 A 
ATOM     91  C   UNL A   1      46.917  29.133  34.856  1.00  0.00     0.002 A 
ATOM     92  C   UNL A   1      45.862  27.226  35.921  1.00  0.00     0.091 A 
ATOM     93  F   UNL A   1      43.724  26.500  35.156  1.00  0.00    -0.205 F 
ATOM     94  C   UNL A   1      46.950  28.105  35.796  1.00  0.00     0.022 A 
BRANCH  92  95
ATOM     95  S   UNL A   1      45.950  25.996  37.228  1.00  0.00     0.127 S 
ATOM     96  O   UNL A   1      44.650  26.160  37.877  1.00  0.00    -0.237 OA
ATOM     97  O   UNL A   1      46.100  24.752  36.471  1.00  0.00    -0.237 OA
ATOM     98  O   UNL A   1      47.103  26.352  38.042  1.00  0.00    -0.744 OA
ENDBRANCH  92  95
ENDBRANCH  65  88
ENDBRANCH  39  40
ENDBRANCH  31  34
ENDBRANCH  29  30
ENDBRANCH   1  29
TORSDOF 17
ENDMDL
MODEL 3
REMARK VINA RESULT:     -12.0      1.958      2.581
REMARK SMILES CC(C)(C)OC(=O)N1CCN(c2nc3ccccc3s2)[C@H](C(=O)NCCCNC(=O)c2ccc(-c3c4nc(c(-c5cccc(S(=O)(=O)[O-])c5F)c5ccc([nH]5)c(-c5cccc(S(=O)(=O)[O-])c5F)c5nc(c(-c6cccc(S(=O)(=O)[O-])c6F)c6ccc3[nH]6)C=C5)C=C4)cc2)C1
REMARK SMILES IDX 26 1 25 2 24 3 22 4 23 5 21 7 8 8 9 9 94 10 10 11 11 12 6 13
REMARK SMILES IDX 7 14 5 15 2 16 1 17 3 18 4 19 12 20 13 21 20 22 14 23 19 24
REMARK SMILES IDX 15 25 18 26 16 27 17 28 27 29 28 30 29 31 30 33 31 34 32 35
REMARK SMILES IDX 93 36 33 37 92 38 34 39 35 40 36 41 86 42 37 43 91 44 85 45
REMARK SMILES IDX 87 46 38 47 90 48 84 49 83 50 39 52 71 53 51 54 70 55 52 56
REMARK SMILES IDX 55 57 69 58 88 59 53 60 54 61 68 63 89 64 56 65 40 66 41 67
REMARK SMILES IDX 49 68 42 69 44 70 50 71 43 72 45 73 46 74 47 75 48 76 72 77
REMARK SMILES IDX 73 78 81 79 74 80 76 81 82 82 75 83 77 84 78 85 79 86 80 87
REMARK SMILES IDX 57 88 58 89 66 90 59 91 61 92 67 93 60 94 62 95 63 96 64 97
REMARK SMILES IDX 65 98
REMARK H PARENT 24 6 28 32 87 51 55 62
REMARK Flexibility Score: inf
ROOT
ATOM      1  C   UNL A   1      32.956  29.797  25.726  1.00  0.00     0.042 C 
ENDROOT
BRANCH   1   2
ATOM      2  C   UNL A   1      33.823  28.551  25.888  1.00  0.00     0.117 C 
BRANCH   2   3
ATOM      3  N   UNL A   1      33.096  27.550  26.628  1.00  0.00    -0.354 N 
ATOM      4  C   UNL A   1      32.158  26.657  26.229  1.00  0.00     0.244 C 
ATOM      5  O   UNL A   1      31.411  26.291  27.156  1.00  0.00    -0.273 OA
ATOM      6  H   UNL A   1      33.317  27.510  27.587  1.00  0.00     0.163 HD
BRANCH   4   7
ATOM      7  C   UNL A   1      32.092  25.872  24.906  1.00  0.00     0.193 C 
ATOM      8  N   UNL A   1      33.699  24.360  23.617  1.00  0.00    -0.304 N 
ATOM      9  C   UNL A   1      33.163  24.852  22.353  1.00  0.00     0.144 C 
ATOM     10  C   UNL A   1      33.524  25.242  24.788  1.00  0.00     0.158 C 
ATOM     11  C   UNL A   1      31.738  25.364  22.541  1.00  0.00     0.141 C 
ATOM     12  N   UNL A   1      31.746  26.432  23.571  1.00  0.00    -0.332 N 
BRANCH   8  13
ATOM     13  C   UNL A   1      34.463  23.218  23.609  1.00  0.00     0.410 C 
ATOM     14  O   UNL A   1      35.322  22.999  22.758  1.00  0.00    -0.224 OA
BRANCH  13  15
ATOM     15  O   UNL A   1      34.118  22.349  24.590  1.00  0.00    -0.444 OA
BRANCH  15  16
ATOM     16  C   UNL A   1      32.918  21.543  24.457  1.00  0.00     0.106 C 
ATOM     17  C   UNL A   1      33.315  20.145  24.956  1.00  0.00     0.056 C 
ATOM     18  C   UNL A   1      32.513  21.454  22.984  1.00  0.00     0.056 C 
ATOM     19  C   UNL A   1      31.762  22.040  25.342  1.00  0.00     0.056 C 
ENDBRANCH  15  16
ENDBRANCH  13  15
ENDBRANCH   8  13
BRANCH  12  20
ATOM     20  C   UNL A   1      30.860  27.418  23.302  1.00  0.00     0.187 A 
ATOM     21  N   UNL A   1      29.560  27.380  23.465  1.00  0.00    -0.220 NA
ATOM     22  S   UNL A   1      31.436  28.816  22.436  1.00  0.00    -0.097 S 
ATOM     23  C   UNL A   1      28.989  28.588  23.049  1.00  0.00     0.084 A 
ATOM     24  C   UNL A   1      29.899  29.551  22.605  1.00  0.00     0.056 A 
ATOM     25  C   UNL A   1      27.629  28.951  23.123  1.00  0.00     0.030 A 
ATOM     26  C   UNL A   1      29.540  30.891  22.390  1.00  0.00     0.021 A 
ATOM     27  C   UNL A   1      27.253  30.280  22.889  1.00  0.00     0.002 A 
ATOM     28  C   UNL A   1      28.204  31.246  22.570  1.00  0.00     0.002 A 
ENDBRANCH  12  20
ENDBRANCH   4   7
ENDBRANCH   2   3
ENDBRANCH   1   2
BRANCH   1  29
ATOM     29  C   UNL A   1      32.478  30.446  27.012  1.00  0.00     0.118 C 
BRANCH  29  30
ATOM     30  N   UNL A   1      32.782  31.869  27.072  1.00  0.00    -0.352 N 
ATOM     31  C   UNL A   1      33.838  32.553  27.624  1.00  0.00     0.251 C 
ATOM     32  H   UNL A   1      32.110  32.445  26.641  1.00  0.00     0.163 HD
ATOM     33  O   UNL A   1      33.781  33.783  27.653  1.00  0.00    -0.269 OA
BRANCH  31  34
ATOM     34  C   UNL A   1      35.016  31.861  28.203  1.00  0.00     0.039 A 
ATOM     35  C   UNL A   1      36.230  32.557  28.265  1.00  0.00     0.014 A 
ATOM     36  C   UNL A   1      34.967  30.541  28.653  1.00  0.00     0.014 A 
ATOM     37  C   UNL A   1      37.357  31.961  28.839  1.00  0.00     0.010 A 
ATOM     38  C   UNL A   1      36.054  29.987  29.322  1.00  0.00     0.010 A 
ATOM     39  C   UNL A   1      37.266  30.686  29.414  1.00  0.00    -0.014 A 
BRANCH  39  40
ATOM     40  C   UNL A   1      38.417  30.060  30.114  1.00  0.00     0.031 A 
ATOM     41  C   UNL A   1      38.803  30.517  31.495  1.00  0.00     0.074 A 
ATOM     42  C   UNL A   1      39.172  29.150  29.466  1.00  0.00     0.049 A 
ATOM     43  N   UNL A   1      39.826  30.158  32.226  1.00  0.00    -0.248 NA
ATOM     44  C   UNL A   1      37.943  31.532  32.128  1.00  0.00     0.031 C 
ATOM     45  C   UNL A   1      38.941  28.677  28.099  1.00  0.00     0.029 A 
ATOM     46  N   UNL A   1      40.308  28.485  29.857  1.00  0.00    -0.354 N 
ATOM     47  C   UNL A   1      39.756  30.926  33.382  1.00  0.00     0.074 A 
ATOM     48  C   UNL A   1      38.609  31.796  33.243  1.00  0.00     0.031 C 
ATOM     49  C   UNL A   1      39.902  27.803  27.764  1.00  0.00     0.029 A 
ATOM     50  C   UNL A   1      40.840  27.681  28.874  1.00  0.00     0.049 A 
ATOM     51  H   UNL A   1      40.703  28.573  30.754  1.00  0.00     0.167 HD
ATOM     52  C   UNL A   1      40.557  30.893  34.473  1.00  0.00     0.034 A 
ATOM     53  C   UNL A   1      41.969  26.946  28.862  1.00  0.00     0.034 A 
ATOM     54  C   UNL A   1      41.676  30.003  34.620  1.00  0.00     0.049 A 
ATOM     55  C   UNL A   1      42.833  26.915  30.095  1.00  0.00     0.074 A 
ATOM     56  C   UNL A   1      42.498  29.829  35.719  1.00  0.00     0.029 A 
ATOM     57  N   UNL A   1      42.140  29.146  33.634  1.00  0.00    -0.354 N 
ATOM     58  N   UNL A   1      42.661  27.535  31.237  1.00  0.00    -0.248 NA
ATOM     59  C   UNL A   1      44.024  26.056  30.049  1.00  0.00     0.031 C 
ATOM     60  C   UNL A   1      43.483  28.895  35.384  1.00  0.00     0.029 A 
ATOM     61  C   UNL A   1      43.248  28.453  34.092  1.00  0.00     0.049 A 
ATOM     62  H   UNL A   1      41.742  29.044  32.739  1.00  0.00     0.167 HD
ATOM     63  C   UNL A   1      43.699  27.111  32.059  1.00  0.00     0.074 A 
ATOM     64  C   UNL A   1      44.481  26.166  31.289  1.00  0.00     0.031 C 
ATOM     65  C   UNL A   1      43.987  27.479  33.332  1.00  0.00     0.034 A 
BRANCH  52  66
ATOM     66  C   UNL A   1      40.230  31.822  35.615  1.00  0.00     0.023 A 
ATOM     67  C   UNL A   1      41.017  32.972  35.828  1.00  0.00     0.012 A 
ATOM     68  C   UNL A   1      39.108  31.591  36.434  1.00  0.00     0.148 A 
ATOM     69  C   UNL A   1      40.714  33.859  36.860  1.00  0.00     0.002 A 
ATOM     70  C   UNL A   1      38.783  32.505  37.429  1.00  0.00     0.091 A 
ATOM     71  F   UNL A   1      38.384  30.482  36.229  1.00  0.00    -0.205 F 
ATOM     72  C   UNL A   1      39.591  33.631  37.651  1.00  0.00     0.022 A 
BRANCH  70  73
ATOM     73  S   UNL A   1      37.313  32.349  38.449  1.00  0.00     0.127 S 
ATOM     74  O   UNL A   1      37.730  33.034  39.673  1.00  0.00    -0.237 OA
ATOM     75  O   UNL A   1      36.315  33.068  37.658  1.00  0.00    -0.237 OA
ATOM     76  O   UNL A   1      37.068  30.920  38.589  1.00  0.00    -0.744 OA
ENDBRANCH  70  73
ENDBRANCH  52  66
BRANCH  53  77
ATOM     77  C   UNL A   1      42.330  26.145  27.658  1.00  0.00     0.023 A 
ATOM     78  C   UNL A   1      43.116  26.728  26.644  1.00  0.00     0.012 A 
ATOM     79  C   UNL A   1      41.910  24.809  27.516  1.00  0.00     0.148 A 
ATOM     80  C   UNL A   1      43.440  26.010  25.493  1.00  0.00     0.002 A 
ATOM     81  C   UNL A   1      42.286  24.080  26.394  1.00  0.00     0.091 A 
ATOM     82  F   UNL A   1      41.157  24.274  28.488  1.00  0.00    -0.205 F 
ATOM     83  C   UNL A   1      43.034  24.684  25.372  1.00  0.00     0.022 A 
BRANCH  81  84
ATOM     84  S   UNL A   1      41.922  22.330  26.219  1.00  0.00     0.127 S 
ATOM     85  O   UNL A   1      42.656  21.993  25.001  1.00  0.00    -0.237 OA
ATOM     86  O   UNL A   1      42.485  21.780  27.452  1.00  0.00    -0.237 OA
ATOM     87  O   UNL A   1      40.471  22.239  26.130  1.00  0.00    -0.744 OA
ENDBRANCH  81  84
ENDBRANCH  53  77
BRANCH  65  88
ATOM     88  C   UNL A   1      45.169  26.824  33.998  1.00  0.00     0.023 A 
ATOM     89  C   UNL A   1      46.438  27.435  33.947  1.00  0.00     0.012 A 
ATOM     90  C   UNL A   1      45.002  25.635  34.735  1.00  0.00     0.148 A 
ATOM     91  C   UNL A   1      47.530  26.852  34.588  1.00  0.00     0.002 A 
ATOM     92  C   UNL A   1      46.082  25.090  35.416  1.00  0.00     0.091 A 
ATOM     93  F   UNL A   1      43.791  25.061  34.758  1.00  0.00    -0.205 F 
ATOM     94  C   UNL A   1      47.351  25.688  35.332  1.00  0.00     0.022 A 
BRANCH  92  95
ATOM     95  S   UNL A   1      45.923  23.652  36.481  1.00  0.00     0.127 S 
ATOM     96  O   UNL A   1      47.248  23.591  37.097  1.00  0.00    -0.237 OA
ATOM     97  O   UNL A   1      44.848  24.058  37.388  1.00  0.00    -0.237 OA
ATOM     98  O   UNL A   1      45.591  22.537  35.607  1.00  0.00    -0.744 OA
ENDBRANCH  92  95
ENDBRANCH  65  88
ENDBRANCH  39  40
ENDBRANCH  31  34
ENDBRANCH  29  30
ENDBRANCH   1  29
TORSDOF 17
ENDMDL
