MODEL 1
REMARK VINA RESULT:     -12.4      0.000      0.000
REMARK SMILES CC1(C)[C@H](C(=O)NCCCNC(=O)c2ccc(-c3c4nc(c(-c5cccc(S(=O)(=O)[O-])c5F)c5ccc([nH]5)c(-c5cccc(S(=O)(=O)[O-])c5F)c5nc(c(-c6cccc(S(=O)(=O)[O-])c6F)c6ccc3[nH]6)C=C5)C=C4)cc2)[C@H]1C(=O)Nc1cccc2[nH]ccc12
REMARK SMILES IDX 9 1 8 2 7 3 5 4 6 5 4 7 1 8 2 9 3 10 77 11 78 12 79 13 80 14
REMARK SMILES IDX 81 16 82 17 89 18 83 19 85 20 88 21 84 22 86 23 87 24 10 26
REMARK SMILES IDX 11 27 12 28 13 30 14 31 15 32 76 33 16 34 75 35 17 36 18 37
REMARK SMILES IDX 19 38 69 39 20 40 74 41 68 42 70 43 21 44 73 45 67 46 66 47
REMARK SMILES IDX 22 49 54 50 34 51 53 52 35 53 38 54 52 55 71 56 36 57 37 58
REMARK SMILES IDX 51 60 72 61 39 62 23 63 24 64 32 65 25 66 27 67 33 68 26 69
REMARK SMILES IDX 28 70 29 71 30 72 31 73 55 74 56 75 64 76 57 77 59 78 65 79
REMARK SMILES IDX 58 80 60 81 61 82 62 83 63 84 40 85 41 86 49 87 42 88 44 89
REMARK SMILES IDX 50 90 43 91 45 92 46 93 47 94 48 95
REMARK H PARENT 7 6 80 15 86 25 11 29 70 48 38 59
REMARK Flexibility Score: inf
ROOT
ATOM      1  C   UNL A   1      33.375  29.013  24.342  1.00  0.00     0.042 C 
ENDROOT
BRANCH   1   2
ATOM      2  C   UNL A   1      32.379  28.953  23.187  1.00  0.00     0.117 C 
BRANCH   2   3
ATOM      3  N   UNL A   1      32.799  28.028  22.161  1.00  0.00    -0.356 N 
ATOM      4  C   UNL A   1      32.914  26.672  22.084  1.00  0.00     0.224 C 
ATOM      5  O   UNL A   1      33.280  26.245  20.983  1.00  0.00    -0.275 OA
ATOM      6  H   UNL A   1      33.061  28.480  21.327  1.00  0.00     0.163 HD
BRANCH   4   7
ATOM      7  C   UNL A   1      32.640  25.656  23.136  1.00  0.00     0.098 C 
ATOM      8  C   UNL A   1      31.340  23.540  23.577  1.00  0.00     0.013 C 
ATOM      9  C   UNL A   1      32.638  24.123  23.086  1.00  0.00    -0.011 C 
ATOM     10  C   UNL A   1      33.293  23.129  22.167  1.00  0.00     0.013 C 
ATOM     11  C   UNL A   1      33.652  24.919  23.932  1.00  0.00     0.098 C 
BRANCH  11  12
ATOM     12  C   UNL A   1      33.823  24.746  25.407  1.00  0.00     0.228 C 
ATOM     13  O   UNL A   1      33.426  25.667  26.122  1.00  0.00    -0.274 OA
ATOM     14  N   UNL A   1      34.120  23.551  26.018  1.00  0.00    -0.325 N 
ATOM     15  H   UNL A   1      33.613  23.365  26.841  1.00  0.00     0.169 HD
BRANCH  14  16
ATOM     16  C   UNL A   1      35.030  22.559  25.648  1.00  0.00     0.050 A 
ATOM     17  C   UNL A   1      36.376  22.919  25.517  1.00  0.00     0.027 A 
ATOM     18  C   UNL A   1      34.636  21.264  25.239  1.00  0.00     0.023 A 
ATOM     19  C   UNL A   1      37.340  21.962  25.202  1.00  0.00     0.004 A 
ATOM     20  C   UNL A   1      35.628  20.309  25.002  1.00  0.00     0.047 A 
ATOM     21  C   UNL A   1      33.396  20.630  24.927  1.00  0.00     0.030 A 
ATOM     22  C   UNL A   1      36.990  20.624  25.003  1.00  0.00     0.027 A 
ATOM     23  N   UNL A   1      34.994  19.100  24.816  1.00  0.00    -0.361 N 
ATOM     24  C   UNL A   1      33.643  19.292  24.717  1.00  0.00     0.083 A 
ATOM     25  H   UNL A   1      35.447  18.228  24.762  1.00  0.00     0.166 HD
ENDBRANCH  14  16
ENDBRANCH  11  12
ENDBRANCH   4   7
ENDBRANCH   2   3
ENDBRANCH   1   2
BRANCH   1  26
ATOM     26  C   UNL A   1      32.740  29.238  25.708  1.00  0.00     0.118 C 
BRANCH  26  27
ATOM     27  N   UNL A   1      32.548  30.650  26.003  1.00  0.00    -0.352 N 
ATOM     28  C   UNL A   1      33.148  31.456  26.940  1.00  0.00     0.251 C 
ATOM     29  H   UNL A   1      31.878  31.101  25.440  1.00  0.00     0.163 HD
ATOM     30  O   UNL A   1      32.666  32.564  27.168  1.00  0.00    -0.269 OA
BRANCH  28  31
ATOM     31  C   UNL A   1      34.357  31.014  27.674  1.00  0.00     0.039 A 
ATOM     32  C   UNL A   1      35.396  31.929  27.882  1.00  0.00     0.014 A 
ATOM     33  C   UNL A   1      34.505  29.694  28.106  1.00  0.00     0.014 A 
ATOM     34  C   UNL A   1      36.553  31.533  28.559  1.00  0.00     0.010 A 
ATOM     35  C   UNL A   1      35.617  29.324  28.857  1.00  0.00     0.010 A 
ATOM     36  C   UNL A   1      36.664  30.233  29.076  1.00  0.00    -0.014 A 
BRANCH  36  37
ATOM     37  C   UNL A   1      37.871  29.785  29.818  1.00  0.00     0.031 A 
ATOM     38  C   UNL A   1      38.153  30.332  31.195  1.00  0.00     0.074 A 
ATOM     39  C   UNL A   1      38.758  28.960  29.224  1.00  0.00     0.049 A 
ATOM     40  N   UNL A   1      39.200  30.151  31.957  1.00  0.00    -0.248 NA
ATOM     41  C   UNL A   1      37.137  31.224  31.780  1.00  0.00     0.031 C 
ATOM     42  C   UNL A   1      38.632  28.413  27.871  1.00  0.00     0.029 A 
ATOM     43  N   UNL A   1      39.955  28.460  29.672  1.00  0.00    -0.354 N 
ATOM     44  C   UNL A   1      38.988  30.933  33.087  1.00  0.00     0.074 A 
ATOM     45  C   UNL A   1      37.730  31.620  32.896  1.00  0.00     0.031 C 
ATOM     46  C   UNL A   1      39.707  27.655  27.600  1.00  0.00     0.029 A 
ATOM     47  C   UNL A   1      40.613  27.687  28.743  1.00  0.00     0.049 A 
ATOM     48  H   UNL A   1      40.310  28.638  30.573  1.00  0.00     0.167 HD
ATOM     49  C   UNL A   1      39.752  31.045  34.200  1.00  0.00     0.034 A 
ATOM     50  C   UNL A   1      41.816  27.082  28.802  1.00  0.00     0.034 A 
ATOM     51  C   UNL A   1      40.974  30.318  34.411  1.00  0.00     0.049 A 
ATOM     52  C   UNL A   1      42.627  27.194  30.066  1.00  0.00     0.074 A 
ATOM     53  C   UNL A   1      41.786  30.306  35.530  1.00  0.00     0.029 A 
ATOM     54  N   UNL A   1      41.556  29.468  33.484  1.00  0.00    -0.354 N 
ATOM     55  N   UNL A   1      42.343  27.832  31.176  1.00  0.00    -0.248 NA
ATOM     56  C   UNL A   1      43.908  26.474  30.101  1.00  0.00     0.031 C 
ATOM     57  C   UNL A   1      42.867  29.457  35.276  1.00  0.00     0.029 A 
ATOM     58  C   UNL A   1      42.716  28.924  34.007  1.00  0.00     0.049 A 
ATOM     59  H   UNL A   1      41.198  29.279  32.587  1.00  0.00     0.167 HD
ATOM     60  C   UNL A   1      43.383  27.552  32.054  1.00  0.00     0.074 A 
ATOM     61  C   UNL A   1      44.297  26.675  31.353  1.00  0.00     0.031 C 
ATOM     62  C   UNL A   1      43.575  27.994  33.321  1.00  0.00     0.034 A 
BRANCH  49  63
ATOM     63  C   UNL A   1      39.256  31.937  35.309  1.00  0.00     0.023 A 
ATOM     64  C   UNL A   1      38.313  31.435  36.230  1.00  0.00     0.012 A 
ATOM     65  C   UNL A   1      39.769  33.237  35.486  1.00  0.00     0.148 A 
ATOM     66  C   UNL A   1      37.866  32.222  37.290  1.00  0.00     0.002 A 
ATOM     67  C   UNL A   1      39.352  33.999  36.571  1.00  0.00     0.091 A 
ATOM     68  F   UNL A   1      40.652  33.703  34.592  1.00  0.00    -0.205 F 
ATOM     69  C   UNL A   1      38.392  33.497  37.467  1.00  0.00     0.022 A 
BRANCH  67  70
ATOM     70  S   UNL A   1      40.025  35.624  36.936  1.00  0.00     0.127 S 
ATOM     71  O   UNL A   1      39.654  36.374  35.737  1.00  0.00    -0.237 OA
ATOM     72  O   UNL A   1      39.286  35.999  38.142  1.00  0.00    -0.237 OA
ATOM     73  O   UNL A   1      41.456  35.433  37.133  1.00  0.00    -0.744 OA
ENDBRANCH  67  70
ENDBRANCH  49  63
BRANCH  50  74
ATOM     74  C   UNL A   1      42.302  26.258  27.657  1.00  0.00     0.023 A 
ATOM     75  C   UNL A   1      43.151  26.845  26.698  1.00  0.00     0.012 A 
ATOM     76  C   UNL A   1      41.938  24.907  27.512  1.00  0.00     0.148 A 
ATOM     77  C   UNL A   1      43.594  26.114  25.595  1.00  0.00     0.002 A 
ATOM     78  C   UNL A   1      42.427  24.167  26.440  1.00  0.00     0.091 A 
ATOM     79  F   UNL A   1      41.117  24.366  28.426  1.00  0.00    -0.205 F 
ATOM     80  C   UNL A   1      43.240  24.774  25.471  1.00  0.00     0.022 A 
BRANCH  78  81
ATOM     81  S   UNL A   1      42.125  22.405  26.276  1.00  0.00     0.127 S 
ATOM     82  O   UNL A   1      40.673  22.362  26.118  1.00  0.00    -0.237 OA
ATOM     83  O   UNL A   1      42.886  22.075  25.070  1.00  0.00    -0.237 OA
ATOM     84  O   UNL A   1      42.651  21.805  27.495  1.00  0.00    -0.744 OA
ENDBRANCH  78  81
ENDBRANCH  50  74
BRANCH  62  85
ATOM     85  C   UNL A   1      44.787  27.498  34.061  1.00  0.00     0.023 A 
ATOM     86  C   UNL A   1      45.983  28.240  34.030  1.00  0.00     0.012 A 
ATOM     87  C   UNL A   1      44.711  26.339  34.859  1.00  0.00     0.148 A 
ATOM     88  C   UNL A   1      47.096  27.821  34.759  1.00  0.00     0.002 A 
ATOM     89  C   UNL A   1      45.806  25.954  35.622  1.00  0.00     0.091 A 
ATOM     90  F   UNL A   1      43.567  25.637  34.860  1.00  0.00    -0.205 F 
ATOM     91  C   UNL A   1      47.003  26.687  35.564  1.00  0.00     0.022 A 
BRANCH  89  92
ATOM     92  S   UNL A   1      45.748  24.567  36.762  1.00  0.00     0.127 S 
ATOM     93  O   UNL A   1      45.537  23.443  35.852  1.00  0.00    -0.237 OA
ATOM     94  O   UNL A   1      47.075  24.614  37.376  1.00  0.00    -0.237 OA
ATOM     95  O   UNL A   1      44.649  24.846  37.677  1.00  0.00    -0.744 OA
ENDBRANCH  89  92
ENDBRANCH  62  85
ENDBRANCH  36  37
ENDBRANCH  28  31
ENDBRANCH  26  27
ENDBRANCH   1  26
TORSDOF 15
ENDMDL
MODEL 2
REMARK VINA RESULT:     -12.4      3.208      8.769
REMARK SMILES CC1(C)[C@H](C(=O)NCCCNC(=O)c2ccc(-c3c4nc(c(-c5cccc(S(=O)(=O)[O-])c5F)c5ccc([nH]5)c(-c5cccc(S(=O)(=O)[O-])c5F)c5nc(c(-c6cccc(S(=O)(=O)[O-])c6F)c6ccc3[nH]6)C=C5)C=C4)cc2)[C@H]1C(=O)Nc1cccc2[nH]ccc12
REMARK SMILES IDX 9 1 8 2 7 3 5 4 6 5 4 7 1 8 2 9 3 10 77 11 78 12 79 13 80 14
REMARK SMILES IDX 81 16 82 17 89 18 83 19 85 20 88 21 84 22 86 23 87 24 10 26
REMARK SMILES IDX 11 27 12 28 13 30 14 31 15 32 76 33 16 34 75 35 17 36 18 37
REMARK SMILES IDX 19 38 69 39 20 40 74 41 68 42 70 43 21 44 73 45 67 46 66 47
REMARK SMILES IDX 22 49 54 50 34 51 53 52 35 53 38 54 52 55 71 56 36 57 37 58
REMARK SMILES IDX 51 60 72 61 39 62 23 63 24 64 32 65 25 66 27 67 33 68 26 69
REMARK SMILES IDX 28 70 29 71 30 72 31 73 55 74 56 75 64 76 57 77 59 78 65 79
REMARK SMILES IDX 58 80 60 81 61 82 62 83 63 84 40 85 41 86 49 87 42 88 44 89
REMARK SMILES IDX 50 90 43 91 45 92 46 93 47 94 48 95
REMARK H PARENT 7 6 80 15 86 25 11 29 70 48 38 59
REMARK Flexibility Score: inf
ROOT
ATOM      1  C   UNL A   1      31.573  32.057  26.858  1.00  0.00     0.042 C 
ENDROOT
BRANCH   1   2
ATOM      2  C   UNL A   1      31.791  30.566  27.094  1.00  0.00     0.117 C 
BRANCH   2   3
ATOM      3  N   UNL A   1      33.171  30.265  27.395  1.00  0.00    -0.356 N 
ATOM      4  C   UNL A   1      34.113  29.444  26.851  1.00  0.00     0.224 C 
ATOM      5  O   UNL A   1      35.225  29.503  27.388  1.00  0.00    -0.275 OA
ATOM      6  H   UNL A   1      33.509  30.769  28.171  1.00  0.00     0.163 HD
BRANCH   4   7
ATOM      7  C   UNL A   1      33.977  28.513  25.698  1.00  0.00     0.098 C 
ATOM      8  C   UNL A   1      33.973  26.063  25.099  1.00  0.00     0.013 C 
ATOM      9  C   UNL A   1      33.136  27.243  25.516  1.00  0.00    -0.011 C 
ATOM     10  C   UNL A   1      31.892  26.735  26.191  1.00  0.00     0.013 C 
ATOM     11  C   UNL A   1      32.892  28.520  24.686  1.00  0.00     0.098 C 
BRANCH  11  12
ATOM     12  C   UNL A   1      32.925  28.560  23.192  1.00  0.00     0.228 C 
ATOM     13  O   UNL A   1      34.038  28.571  22.664  1.00  0.00    -0.274 OA
ATOM     14  N   UNL A   1      31.842  28.306  22.385  1.00  0.00    -0.325 N 
ATOM     15  H   UNL A   1      32.030  27.746  21.598  1.00  0.00     0.169 HD
BRANCH  14  16
ATOM     16  C   UNL A   1      30.515  28.720  22.512  1.00  0.00     0.050 A 
ATOM     17  C   UNL A   1      30.206  30.044  22.180  1.00  0.00     0.027 A 
ATOM     18  C   UNL A   1      29.513  27.925  23.115  1.00  0.00     0.023 A 
ATOM     19  C   UNL A   1      28.890  30.501  22.235  1.00  0.00     0.004 A 
ATOM     20  C   UNL A   1      28.193  28.383  23.088  1.00  0.00     0.047 A 
ATOM     21  C   UNL A   1      29.492  26.703  23.851  1.00  0.00     0.030 A 
ATOM     22  C   UNL A   1      27.848  29.657  22.628  1.00  0.00     0.027 A 
ATOM     23  N   UNL A   1      27.397  27.358  23.551  1.00  0.00    -0.361 N 
ATOM     24  C   UNL A   1      28.176  26.357  24.064  1.00  0.00     0.083 A 
ATOM     25  H   UNL A   1      26.413  27.348  23.518  1.00  0.00     0.166 HD
ENDBRANCH  14  16
ENDBRANCH  11  12
ENDBRANCH   4   7
ENDBRANCH   2   3
ENDBRANCH   1   2
BRANCH   1  26
ATOM     26  C   UNL A   1      32.831  32.906  26.987  1.00  0.00     0.118 C 
BRANCH  26  27
ATOM     27  N   UNL A   1      32.566  34.201  27.594  1.00  0.00    -0.352 N 
ATOM     28  C   UNL A   1      33.065  34.768  28.742  1.00  0.00     0.251 C 
ATOM     29  H   UNL A   1      31.924  34.763  27.103  1.00  0.00     0.163 HD
ATOM     30  O   UNL A   1      32.528  35.779  29.188  1.00  0.00    -0.269 OA
BRANCH  28  31
ATOM     31  C   UNL A   1      34.231  34.183  29.445  1.00  0.00     0.039 A 
ATOM     32  C   UNL A   1      34.007  33.303  30.511  1.00  0.00     0.014 A 
ATOM     33  C   UNL A   1      35.539  34.538  29.108  1.00  0.00     0.014 A 
ATOM     34  C   UNL A   1      35.090  32.749  31.200  1.00  0.00     0.010 A 
ATOM     35  C   UNL A   1      36.616  33.918  29.736  1.00  0.00     0.010 A 
ATOM     36  C   UNL A   1      36.405  33.031  30.803  1.00  0.00    -0.014 A 
BRANCH  36  37
ATOM     37  C   UNL A   1      37.578  32.443  31.501  1.00  0.00     0.031 A 
ATOM     38  C   UNL A   1      38.339  31.306  30.866  1.00  0.00     0.074 A 
ATOM     39  C   UNL A   1      37.905  32.867  32.739  1.00  0.00     0.049 A 
ATOM     40  N   UNL A   1      39.317  30.590  31.357  1.00  0.00    -0.248 NA
ATOM     41  C   UNL A   1      37.927  30.902  29.510  1.00  0.00     0.031 C 
ATOM     42  C   UNL A   1      37.207  33.914  33.488  1.00  0.00     0.029 A 
ATOM     43  N   UNL A   1      38.890  32.448  33.598  1.00  0.00    -0.354 N 
ATOM     44  C   UNL A   1      39.608  29.631  30.393  1.00  0.00     0.074 A 
ATOM     45  C   UNL A   1      38.679  29.831  29.303  1.00  0.00     0.031 C 
ATOM     46  C   UNL A   1      37.786  34.055  34.692  1.00  0.00     0.029 A 
ATOM     47  C   UNL A   1      38.872  33.090  34.815  1.00  0.00     0.049 A 
ATOM     48  H   UNL A   1      39.548  31.753  33.365  1.00  0.00     0.167 HD
ATOM     49  C   UNL A   1      40.581  28.689  30.397  1.00  0.00     0.034 A 
ATOM     50  C   UNL A   1      39.638  32.912  35.910  1.00  0.00     0.034 A 
ATOM     51  C   UNL A   1      41.538  28.529  31.458  1.00  0.00     0.049 A 
ATOM     52  C   UNL A   1      40.736  31.882  35.872  1.00  0.00     0.074 A 
ATOM     53  C   UNL A   1      42.607  27.654  31.527  1.00  0.00     0.029 A 
ATOM     54  N   UNL A   1      41.547  29.266  32.631  1.00  0.00    -0.354 N 
ATOM     55  N   UNL A   1      41.080  31.077  34.896  1.00  0.00    -0.248 NA
ATOM     56  C   UNL A   1      41.577  31.761  37.072  1.00  0.00     0.031 C 
ATOM     57  C   UNL A   1      43.256  27.853  32.750  1.00  0.00     0.029 A 
ATOM     58  C   UNL A   1      42.603  28.868  33.430  1.00  0.00     0.049 A 
ATOM     59  H   UNL A   1      40.897  29.970  32.862  1.00  0.00     0.167 HD
ATOM     60  C   UNL A   1      42.201  30.389  35.345  1.00  0.00     0.074 A 
ATOM     61  C   UNL A   1      42.489  30.883  36.675  1.00  0.00     0.031 C 
ATOM     62  C   UNL A   1      42.918  29.423  34.721  1.00  0.00     0.034 A 
BRANCH  49  63
ATOM     63  C   UNL A   1      40.707  27.800  29.187  1.00  0.00     0.023 A 
ATOM     64  C   UNL A   1      39.879  26.664  29.075  1.00  0.00     0.012 A 
ATOM     65  C   UNL A   1      41.584  28.122  28.132  1.00  0.00     0.148 A 
ATOM     66  C   UNL A   1      39.944  25.845  27.949  1.00  0.00     0.002 A 
ATOM     67  C   UNL A   1      41.611  27.326  26.993  1.00  0.00     0.091 A 
ATOM     68  F   UNL A   1      42.375  29.196  28.263  1.00  0.00    -0.205 F 
ATOM     69  C   UNL A   1      40.800  26.181  26.905  1.00  0.00     0.022 A 
BRANCH  67  70
ATOM     70  S   UNL A   1      42.619  27.714  25.558  1.00  0.00     0.127 S 
ATOM     71  O   UNL A   1      41.912  28.868  25.003  1.00  0.00    -0.237 OA
ATOM     72  O   UNL A   1      43.912  28.028  26.167  1.00  0.00    -0.237 OA
ATOM     73  O   UNL A   1      42.611  26.520  24.724  1.00  0.00    -0.744 OA
ENDBRANCH  67  70
ENDBRANCH  49  63
BRANCH  50  74
ATOM     74  C   UNL A   1      39.442  33.770  37.114  1.00  0.00     0.023 A 
ATOM     75  C   UNL A   1      39.904  35.101  37.094  1.00  0.00     0.012 A 
ATOM     76  C   UNL A   1      38.800  33.286  38.269  1.00  0.00     0.148 A 
ATOM     77  C   UNL A   1      39.771  35.919  38.216  1.00  0.00     0.002 A 
ATOM     78  C   UNL A   1      38.620  34.124  39.365  1.00  0.00     0.091 A 
ATOM     79  F   UNL A   1      38.378  32.013  38.277  1.00  0.00    -0.205 F 
ATOM     80  C   UNL A   1      39.121  35.434  39.347  1.00  0.00     0.022 A 
BRANCH  78  81
ATOM     81  S   UNL A   1      37.681  33.620  40.810  1.00  0.00     0.127 S 
ATOM     82  O   UNL A   1      37.459  34.897  41.484  1.00  0.00    -0.237 OA
ATOM     83  O   UNL A   1      36.487  33.025  40.208  1.00  0.00    -0.237 OA
ATOM     84  O   UNL A   1      38.530  32.668  41.514  1.00  0.00    -0.744 OA
ENDBRANCH  78  81
ENDBRANCH  50  74
BRANCH  62  85
ATOM     85  C   UNL A   1      44.122  28.870  35.436  1.00  0.00     0.023 A 
ATOM     86  C   UNL A   1      45.395  29.424  35.201  1.00  0.00     0.012 A 
ATOM     87  C   UNL A   1      43.973  27.859  36.406  1.00  0.00     0.148 A 
ATOM     88  C   UNL A   1      46.508  28.959  35.901  1.00  0.00     0.002 A 
ATOM     89  C   UNL A   1      45.077  27.436  37.134  1.00  0.00     0.091 A 
ATOM     90  F   UNL A   1      42.754  27.333  36.602  1.00  0.00    -0.205 F 
ATOM     91  C   UNL A   1      46.348  27.977  36.875  1.00  0.00     0.022 A 
BRANCH  89  92
ATOM     92  S   UNL A   1      44.950  26.248  38.476  1.00  0.00     0.127 S 
ATOM     93  O   UNL A   1      44.527  25.042  37.766  1.00  0.00    -0.237 OA
ATOM     94  O   UNL A   1      46.321  26.205  38.984  1.00  0.00    -0.237 OA
ATOM     95  O   UNL A   1      43.977  26.799  39.409  1.00  0.00    -0.744 OA
ENDBRANCH  89  92
ENDBRANCH  62  85
ENDBRANCH  36  37
ENDBRANCH  28  31
ENDBRANCH  26  27
ENDBRANCH   1  26
TORSDOF 15
ENDMDL
MODEL 3
REMARK VINA RESULT:     -12.3      0.461      7.810
REMARK SMILES CC1(C)[C@H](C(=O)NCCCNC(=O)c2ccc(-c3c4nc(c(-c5cccc(S(=O)(=O)[O-])c5F)c5ccc([nH]5)c(-c5cccc(S(=O)(=O)[O-])c5F)c5nc(c(-c6cccc(S(=O)(=O)[O-])c6F)c6ccc3[nH]6)C=C5)C=C4)cc2)[C@H]1C(=O)Nc1cccc2[nH]ccc12
REMARK SMILES IDX 9 1 8 2 7 3 5 4 6 5 4 7 1 8 2 9 3 10 77 11 78 12 79 13 80 14
REMARK SMILES IDX 81 16 82 17 89 18 83 19 85 20 88 21 84 22 86 23 87 24 10 26
REMARK SMILES IDX 11 27 12 28 13 30 14 31 15 32 76 33 16 34 75 35 17 36 18 37
REMARK SMILES IDX 19 38 69 39 20 40 74 41 68 42 70 43 21 44 73 45 67 46 66 47
REMARK SMILES IDX 22 49 54 50 34 51 53 52 35 53 38 54 52 55 71 56 36 57 37 58
REMARK SMILES IDX 51 60 72 61 39 62 23 63 24 64 32 65 25 66 27 67 33 68 26 69
REMARK SMILES IDX 28 70 29 71 30 72 31 73 55 74 56 75 64 76 57 77 59 78 65 79
REMARK SMILES IDX 58 80 60 81 61 82 62 83 63 84 40 85 41 86 49 87 42 88 44 89
REMARK SMILES IDX 50 90 43 91 45 92 46 93 47 94 48 95
REMARK H PARENT 7 6 80 15 86 25 11 29 70 48 38 59
REMARK Flexibility Score: inf
ROOT
ATOM      1  C   UNL A   1      33.606  28.814  24.125  1.00  0.00     0.042 C 
ENDROOT
BRANCH   1   2
ATOM      2  C   UNL A   1      32.624  28.817  22.957  1.00  0.00     0.117 C 
BRANCH   2   3
ATOM      3  N   UNL A   1      32.951  27.809  21.976  1.00  0.00    -0.356 N 
ATOM      4  C   UNL A   1      32.977  26.446  21.976  1.00  0.00     0.224 C 
ATOM      5  O   UNL A   1      33.279  25.933  20.893  1.00  0.00    -0.275 OA
ATOM      6  H   UNL A   1      33.214  28.193  21.109  1.00  0.00     0.163 HD
BRANCH   4   7
ATOM      7  C   UNL A   1      32.673  25.513  23.095  1.00  0.00     0.098 C 
ATOM      8  C   UNL A   1      31.199  23.565  23.725  1.00  0.00     0.013 C 
ATOM      9  C   UNL A   1      32.513  23.987  23.124  1.00  0.00    -0.011 C 
ATOM     10  C   UNL A   1      33.001  22.890  22.219  1.00  0.00     0.013 C 
ATOM     11  C   UNL A   1      33.657  24.711  23.863  1.00  0.00     0.098 C 
BRANCH  11  12
ATOM     12  C   UNL A   1      33.909  24.587  25.331  1.00  0.00     0.228 C 
ATOM     13  O   UNL A   1      33.553  25.533  26.036  1.00  0.00    -0.274 OA
ATOM     14  N   UNL A   1      34.237  23.412  25.965  1.00  0.00    -0.325 N 
ATOM     15  H   UNL A   1      33.777  23.257  26.821  1.00  0.00     0.169 HD
BRANCH  14  16
ATOM     16  C   UNL A   1      35.125  22.406  25.580  1.00  0.00     0.050 A 
ATOM     17  C   UNL A   1      36.455  22.762  25.333  1.00  0.00     0.027 A 
ATOM     18  C   UNL A   1      34.710  21.091  25.266  1.00  0.00     0.023 A 
ATOM     19  C   UNL A   1      37.400  21.793  24.997  1.00  0.00     0.004 A 
ATOM     20  C   UNL A   1      35.689  20.128  25.005  1.00  0.00     0.047 A 
ATOM     21  C   UNL A   1      33.455  20.439  25.077  1.00  0.00     0.030 A 
ATOM     22  C   UNL A   1      37.045  20.446  24.891  1.00  0.00     0.027 A 
ATOM     23  N   UNL A   1      35.051  18.910  24.926  1.00  0.00    -0.361 N 
ATOM     24  C   UNL A   1      33.695  19.092  24.916  1.00  0.00     0.083 A 
ATOM     25  H   UNL A   1      35.504  18.037  24.883  1.00  0.00     0.166 HD
ENDBRANCH  14  16
ENDBRANCH  11  12
ENDBRANCH   4   7
ENDBRANCH   2   3
ENDBRANCH   1   2
BRANCH   1  26
ATOM     26  C   UNL A   1      32.953  28.937  25.495  1.00  0.00     0.118 C 
BRANCH  26  27
ATOM     27  N   UNL A   1      32.557  30.304  25.799  1.00  0.00    -0.352 N 
ATOM     28  C   UNL A   1      33.020  31.177  26.753  1.00  0.00     0.251 C 
ATOM     29  H   UNL A   1      31.839  30.661  25.228  1.00  0.00     0.163 HD
ATOM     30  O   UNL A   1      32.382  32.202  26.982  1.00  0.00    -0.269 OA
BRANCH  28  31
ATOM     31  C   UNL A   1      34.267  30.903  27.505  1.00  0.00     0.039 A 
ATOM     32  C   UNL A   1      34.533  29.594  27.923  1.00  0.00     0.014 A 
ATOM     33  C   UNL A   1      35.146  31.930  27.857  1.00  0.00     0.014 A 
ATOM     34  C   UNL A   1      35.695  29.312  28.648  1.00  0.00     0.010 A 
ATOM     35  C   UNL A   1      36.345  31.635  28.500  1.00  0.00     0.010 A 
ATOM     36  C   UNL A   1      36.625  30.326  28.921  1.00  0.00    -0.014 A 
BRANCH  36  37
ATOM     37  C   UNL A   1      37.880  30.057  29.671  1.00  0.00     0.031 A 
ATOM     38  C   UNL A   1      38.912  29.118  29.097  1.00  0.00     0.074 A 
ATOM     39  C   UNL A   1      38.054  30.582  30.901  1.00  0.00     0.049 A 
ATOM     40  N   UNL A   1      40.015  28.671  29.639  1.00  0.00    -0.248 NA
ATOM     41  C   UNL A   1      38.654  28.587  27.747  1.00  0.00     0.031 C 
ATOM     42  C   UNL A   1      37.101  31.453  31.592  1.00  0.00     0.029 A 
ATOM     43  N   UNL A   1      39.081  30.437  31.800  1.00  0.00    -0.354 N 
ATOM     44  C   UNL A   1      40.559  27.783  28.719  1.00  0.00     0.074 A 
ATOM     45  C   UNL A   1      39.647  27.723  27.599  1.00  0.00     0.031 C 
ATOM     46  C   UNL A   1      37.588  31.763  32.805  1.00  0.00     0.029 A 
ATOM     47  C   UNL A   1      38.869  31.090  32.992  1.00  0.00     0.049 A 
ATOM     48  H   UNL A   1      39.893  29.914  31.610  1.00  0.00     0.167 HD
ATOM     49  C   UNL A   1      41.728  27.102  28.783  1.00  0.00     0.034 A 
ATOM     50  C   UNL A   1      39.617  31.133  34.112  1.00  0.00     0.034 A 
ATOM     51  C   UNL A   1      42.659  27.206  29.873  1.00  0.00     0.049 A 
ATOM     52  C   UNL A   1      40.930  30.396  34.140  1.00  0.00     0.074 A 
ATOM     53  C   UNL A   1      43.903  26.615  30.002  1.00  0.00     0.029 A 
ATOM     54  N   UNL A   1      42.452  27.958  31.019  1.00  0.00    -0.354 N 
ATOM     55  N   UNL A   1      41.489  29.668  33.204  1.00  0.00    -0.248 NA
ATOM     56  C   UNL A   1      41.733  30.514  35.366  1.00  0.00     0.031 C 
ATOM     57  C   UNL A   1      44.443  27.000  31.233  1.00  0.00     0.029 A 
ATOM     58  C   UNL A   1      43.544  27.848  31.860  1.00  0.00     0.049 A 
ATOM     59  H   UNL A   1      41.645  28.491  31.207  1.00  0.00     0.167 HD
ATOM     60  C   UNL A   1      42.726  29.283  33.707  1.00  0.00     0.074 A 
ATOM     61  C   UNL A   1      42.842  29.870  35.025  1.00  0.00     0.031 C 
ATOM     62  C   UNL A   1      43.674  28.499  33.137  1.00  0.00     0.034 A 
BRANCH  49  63
ATOM     63  C   UNL A   1      42.104  26.235  27.610  1.00  0.00     0.023 A 
ATOM     64  C   UNL A   1      42.821  26.799  26.534  1.00  0.00     0.012 A 
ATOM     65  C   UNL A   1      41.816  24.855  27.599  1.00  0.00     0.148 A 
ATOM     66  C   UNL A   1      43.217  26.013  25.453  1.00  0.00     0.002 A 
ATOM     67  C   UNL A   1      42.254  24.070  26.539  1.00  0.00     0.091 A 
ATOM     68  F   UNL A   1      41.120  24.339  28.622  1.00  0.00    -0.205 F 
ATOM     69  C   UNL A   1      42.944  24.649  25.460  1.00  0.00     0.022 A 
BRANCH  67  70
ATOM     70  S   UNL A   1      42.025  22.289  26.487  1.00  0.00     0.127 S 
ATOM     71  O   UNL A   1      40.568  22.181  26.408  1.00  0.00    -0.237 OA
ATOM     72  O   UNL A   1      42.729  21.924  25.258  1.00  0.00    -0.237 OA
ATOM     73  O   UNL A   1      42.622  21.769  27.710  1.00  0.00    -0.744 OA
ENDBRANCH  67  70
ENDBRANCH  49  63
BRANCH  50  74
ATOM     74  C   UNL A   1      39.180  31.953  35.279  1.00  0.00     0.023 A 
ATOM     75  C   UNL A   1      38.263  31.408  36.199  1.00  0.00     0.012 A 
ATOM     76  C   UNL A   1      39.665  33.258  35.487  1.00  0.00     0.148 A 
ATOM     77  C   UNL A   1      37.805  32.162  37.281  1.00  0.00     0.002 A 
ATOM     78  C   UNL A   1      39.247  33.984  36.598  1.00  0.00     0.091 A 
ATOM     79  F   UNL A   1      40.527  33.767  34.595  1.00  0.00    -0.205 F 
ATOM     80  C   UNL A   1      38.304  33.445  37.485  1.00  0.00     0.022 A 
BRANCH  78  81
ATOM     81  S   UNL A   1      39.937  35.591  37.005  1.00  0.00     0.127 S 
ATOM     82  O   UNL A   1      39.226  35.919  38.238  1.00  0.00    -0.237 OA
ATOM     83  O   UNL A   1      41.358  35.280  37.177  1.00  0.00    -0.237 OA
ATOM     84  O   UNL A   1      39.649  36.441  35.857  1.00  0.00    -0.744 OA
ENDBRANCH  78  81
ENDBRANCH  50  74
BRANCH  62  85
ATOM     85  C   UNL A   1      44.949  28.272  33.903  1.00  0.00     0.023 A 
ATOM     86  C   UNL A   1      45.999  29.207  33.815  1.00  0.00     0.012 A 
ATOM     87  C   UNL A   1      45.070  27.174  34.778  1.00  0.00     0.148 A 
ATOM     88  C   UNL A   1      47.162  29.037  34.564  1.00  0.00     0.002 A 
ATOM     89  C   UNL A   1      46.210  27.038  35.559  1.00  0.00     0.091 A 
ATOM     90  F   UNL A   1      44.065  26.286  34.834  1.00  0.00    -0.205 F 
ATOM     91  C   UNL A   1      47.262  27.962  35.445  1.00  0.00     0.022 A 
BRANCH  89  92
ATOM     92  S   UNL A   1      46.386  25.743  36.791  1.00  0.00     0.127 S 
ATOM     93  O   UNL A   1      45.207  25.964  37.626  1.00  0.00    -0.237 OA
ATOM     94  O   UNL A   1      46.336  24.530  35.975  1.00  0.00    -0.237 OA
ATOM     95  O   UNL A   1      47.667  25.980  37.443  1.00  0.00    -0.744 OA
ENDBRANCH  89  92
ENDBRANCH  62  85
ENDBRANCH  36  37
ENDBRANCH  28  31
ENDBRANCH  26  27
ENDBRANCH   1  26
TORSDOF 15
ENDMDL
