MODEL 1
REMARK VINA RESULT:     -11.5      0.000      0.000
REMARK SMILES CC[C@](C)(C(=O)NCCCNC(=O)c1ccc(-c2c3nc(c(-c4cccc(S(=O)(=O)[O-])c4F)c4ccc([nH]4)c(-c4cccc(S(=O)(=O)[O-])c4F)c4nc(c(-c5cccc(S(=O)(=O)[O-])c5F)c5ccc2[nH]5)C=C4)C=C3)cc1)n1nnnc1-c1ccco1
REMARK SMILES IDX 9 1 8 2 7 3 5 4 6 5 3 7 4 8 2 9 1 10 77 11 78 12 81 13 79 14
REMARK SMILES IDX 80 15 82 16 83 17 86 18 84 19 85 20 10 21 11 22 12 23 13 25
REMARK SMILES IDX 14 26 15 27 76 28 16 29 75 30 17 31 18 32 19 33 69 34 20 35
REMARK SMILES IDX 74 36 68 37 70 38 21 39 73 40 67 41 66 42 22 44 54 45 34 46
REMARK SMILES IDX 53 47 35 48 38 49 52 50 71 51 36 52 37 53 51 55 72 56 39 57
REMARK SMILES IDX 23 58 24 59 32 60 25 61 27 62 33 63 26 64 28 65 29 66 30 67
REMARK SMILES IDX 31 68 55 69 56 70 64 71 57 72 59 73 65 74 58 75 60 76 61 77
REMARK SMILES IDX 62 78 63 79 40 80 41 81 49 82 42 83 44 84 50 85 43 86 45 87
REMARK SMILES IDX 46 88 47 89 48 90
REMARK H PARENT 7 6 11 24 70 43 38 54
REMARK Flexibility Score: inf
ROOT
ATOM      1  C   UNL A   1      36.382  21.472  25.621  1.00  0.00     0.042 C 
ENDROOT
BRANCH   1   2
ATOM      2  C   UNL A   1      35.864  22.779  26.197  1.00  0.00     0.117 C 
BRANCH   2   3
ATOM      3  N   UNL A   1      34.840  22.599  27.210  1.00  0.00    -0.354 N 
ATOM      4  C   UNL A   1      33.504  22.886  27.220  1.00  0.00     0.247 C 
ATOM      5  O   UNL A   1      32.882  22.430  28.185  1.00  0.00    -0.272 OA
ATOM      6  H   UNL A   1      35.168  22.195  28.046  1.00  0.00     0.163 HD
BRANCH   4   7
ATOM      7  C   UNL A   1      32.806  23.723  26.108  1.00  0.00     0.142 C 
ATOM      8  C   UNL A   1      31.393  24.086  26.638  1.00  0.00     0.048 C 
BRANCH   7   9
ATOM      9  C   UNL A   1      33.647  25.001  25.753  1.00  0.00     0.037 C 
ATOM     10  C   UNL A   1      33.052  26.370  26.074  1.00  0.00     0.007 C 
ENDBRANCH   7   9
BRANCH   7  11
ATOM     11  N   UNL A   1      32.673  22.838  24.923  1.00  0.00    -0.207 N 
ATOM     12  N   UNL A   1      32.789  21.494  25.050  1.00  0.00    -0.044 NA
ATOM     13  C   UNL A   1      32.450  23.124  23.591  1.00  0.00     0.218 A 
ATOM     14  N   UNL A   1      32.630  20.996  23.835  1.00  0.00    -0.023 NA
ATOM     15  N   UNL A   1      32.395  21.989  22.924  1.00  0.00    -0.105 NA
BRANCH  13  16
ATOM     16  C   UNL A   1      32.163  24.398  23.021  1.00  0.00     0.172 A 
ATOM     17  C   UNL A   1      32.946  25.209  22.216  1.00  0.00     0.054 A 
ATOM     18  O   UNL A   1      30.998  25.066  23.310  1.00  0.00    -0.461 OA
ATOM     19  C   UNL A   1      32.251  26.435  22.056  1.00  0.00     0.043 A 
ATOM     20  C   UNL A   1      31.069  26.293  22.739  1.00  0.00     0.196 A 
ENDBRANCH  13  16
ENDBRANCH   7  11
ENDBRANCH   4   7
ENDBRANCH   2   3
ENDBRANCH   1   2
BRANCH   1  21
ATOM     21  C   UNL A   1      37.797  21.555  25.069  1.00  0.00     0.118 C 
BRANCH  21  22
ATOM     22  N   UNL A   1      38.710  20.617  25.712  1.00  0.00    -0.352 N 
ATOM     23  C   UNL A   1      39.860  20.844  26.428  1.00  0.00     0.251 C 
ATOM     24  H   UNL A   1      38.463  19.668  25.617  1.00  0.00     0.163 HD
ATOM     25  O   UNL A   1      40.586  19.891  26.716  1.00  0.00    -0.269 OA
BRANCH  23  26
ATOM     26  C   UNL A   1      40.237  22.214  26.836  1.00  0.00     0.039 A 
ATOM     27  C   UNL A   1      41.174  22.386  27.859  1.00  0.00     0.014 A 
ATOM     28  C   UNL A   1      39.663  23.330  26.224  1.00  0.00     0.014 A 
ATOM     29  C   UNL A   1      41.588  23.674  28.210  1.00  0.00     0.010 A 
ATOM     30  C   UNL A   1      40.150  24.602  26.502  1.00  0.00     0.010 A 
ATOM     31  C   UNL A   1      41.111  24.791  27.506  1.00  0.00    -0.014 A 
BRANCH  31  32
ATOM     32  C   UNL A   1      41.607  26.162  27.793  1.00  0.00     0.031 A 
ATOM     33  C   UNL A   1      43.019  26.548  27.441  1.00  0.00     0.074 A 
ATOM     34  C   UNL A   1      40.816  27.032  28.454  1.00  0.00     0.049 A 
ATOM     35  N   UNL A   1      43.651  27.669  27.675  1.00  0.00    -0.248 NA
ATOM     36  C   UNL A   1      43.843  25.531  26.765  1.00  0.00     0.031 C 
ATOM     37  C   UNL A   1      39.457  26.752  28.923  1.00  0.00     0.029 A 
ATOM     38  N   UNL A   1      41.052  28.318  28.872  1.00  0.00    -0.354 N 
ATOM     39  C   UNL A   1      44.947  27.481  27.213  1.00  0.00     0.074 A 
ATOM     40  C   UNL A   1      45.027  26.124  26.719  1.00  0.00     0.031 C 
ATOM     41  C   UNL A   1      38.976  27.835  29.554  1.00  0.00     0.029 A 
ATOM     42  C   UNL A   1      40.003  28.871  29.571  1.00  0.00     0.049 A 
ATOM     43  H   UNL A   1      41.890  28.799  28.689  1.00  0.00     0.167 HD
ATOM     44  C   UNL A   1      45.973  28.365  27.174  1.00  0.00     0.034 A 
ATOM     45  C   UNL A   1      39.885  30.073  30.170  1.00  0.00     0.034 A 
ATOM     46  C   UNL A   1      45.879  29.725  27.630  1.00  0.00     0.049 A 
ATOM     47  C   UNL A   1      41.028  31.046  30.085  1.00  0.00     0.074 A 
ATOM     48  C   UNL A   1      46.832  30.725  27.551  1.00  0.00     0.029 A 
ATOM     49  N   UNL A   1      44.773  30.275  28.258  1.00  0.00    -0.354 N 
ATOM     50  N   UNL A   1      42.195  30.901  29.503  1.00  0.00    -0.248 NA
ATOM     51  C   UNL A   1      40.829  32.363  30.708  1.00  0.00     0.031 C 
ATOM     52  C   UNL A   1      46.315  31.870  28.165  1.00  0.00     0.029 A 
ATOM     53  C   UNL A   1      45.024  31.596  28.587  1.00  0.00     0.049 A 
ATOM     54  H   UNL A   1      43.933  29.797  28.444  1.00  0.00     0.167 HD
ATOM     55  C   UNL A   1      42.851  32.118  29.654  1.00  0.00     0.074 A 
ATOM     56  C   UNL A   1      41.943  32.996  30.366  1.00  0.00     0.031 C 
ATOM     57  C   UNL A   1      44.094  32.474  29.249  1.00  0.00     0.034 A 
BRANCH  44  58
ATOM     58  C   UNL A   1      47.277  27.901  26.578  1.00  0.00     0.023 A 
ATOM     59  C   UNL A   1      48.301  27.423  27.423  1.00  0.00     0.012 A 
ATOM     60  C   UNL A   1      47.468  27.878  25.183  1.00  0.00     0.148 A 
ATOM     61  C   UNL A   1      49.507  26.968  26.891  1.00  0.00     0.002 A 
ATOM     62  C   UNL A   1      48.654  27.376  24.658  1.00  0.00     0.091 A 
ATOM     63  F   UNL A   1      46.492  28.354  24.396  1.00  0.00    -0.205 F 
ATOM     64  C   UNL A   1      49.679  26.934  25.510  1.00  0.00     0.022 A 
BRANCH  62  65
ATOM     65  S   UNL A   1      48.940  27.212  22.893  1.00  0.00     0.127 S 
ATOM     66  O   UNL A   1      48.302  25.927  22.610  1.00  0.00    -0.237 OA
ATOM     67  O   UNL A   1      48.231  28.375  22.358  1.00  0.00    -0.237 OA
ATOM     68  O   UNL A   1      50.385  27.244  22.713  1.00  0.00    -0.744 OA
ENDBRANCH  62  65
ENDBRANCH  44  58
BRANCH  45  69
ATOM     69  C   UNL A   1      38.615  30.443  30.857  1.00  0.00     0.023 A 
ATOM     70  C   UNL A   1      38.426  30.085  32.206  1.00  0.00     0.012 A 
ATOM     71  C   UNL A   1      37.605  31.161  30.189  1.00  0.00     0.148 A 
ATOM     72  C   UNL A   1      37.239  30.402  32.867  1.00  0.00     0.002 A 
ATOM     73  C   UNL A   1      36.450  31.526  30.871  1.00  0.00     0.091 A 
ATOM     74  F   UNL A   1      37.800  31.486  28.904  1.00  0.00    -0.205 F 
ATOM     75  C   UNL A   1      36.256  31.130  32.204  1.00  0.00     0.022 A 
BRANCH  73  76
ATOM     76  S   UNL A   1      35.192  32.579  30.140  1.00  0.00     0.127 S 
ATOM     77  O   UNL A   1      34.730  31.761  29.022  1.00  0.00    -0.237 OA
ATOM     78  O   UNL A   1      34.237  32.716  31.241  1.00  0.00    -0.237 OA
ATOM     79  O   UNL A   1      35.873  33.815  29.780  1.00  0.00    -0.744 OA
ENDBRANCH  73  76
ENDBRANCH  45  69
BRANCH  57  80
ATOM     80  C   UNL A   1      44.540  33.888  29.516  1.00  0.00     0.023 A 
ATOM     81  C   UNL A   1      45.117  34.226  30.755  1.00  0.00     0.012 A 
ATOM     82  C   UNL A   1      44.454  34.865  28.503  1.00  0.00     0.148 A 
ATOM     83  C   UNL A   1      45.569  35.523  30.995  1.00  0.00     0.002 A 
ATOM     84  C   UNL A   1      44.957  36.140  28.731  1.00  0.00     0.091 A 
ATOM     85  F   UNL A   1      43.886  34.527  27.337  1.00  0.00    -0.205 F 
ATOM     86  C   UNL A   1      45.501  36.475  29.980  1.00  0.00     0.022 A 
BRANCH  84  87
ATOM     87  S   UNL A   1      45.004  37.399  27.451  1.00  0.00     0.127 S 
ATOM     88  O   UNL A   1      45.608  38.524  28.164  1.00  0.00    -0.237 OA
ATOM     89  O   UNL A   1      45.865  36.783  26.442  1.00  0.00    -0.237 OA
ATOM     90  O   UNL A   1      43.623  37.598  27.030  1.00  0.00    -0.744 OA
ENDBRANCH  84  87
ENDBRANCH  57  80
ENDBRANCH  31  32
ENDBRANCH  23  26
ENDBRANCH  21  22
ENDBRANCH   1  21
TORSDOF 16
ENDMDL
MODEL 2
REMARK VINA RESULT:     -11.5      0.911      7.696
REMARK SMILES CC[C@](C)(C(=O)NCCCNC(=O)c1ccc(-c2c3nc(c(-c4cccc(S(=O)(=O)[O-])c4F)c4ccc([nH]4)c(-c4cccc(S(=O)(=O)[O-])c4F)c4nc(c(-c5cccc(S(=O)(=O)[O-])c5F)c5ccc2[nH]5)C=C4)C=C3)cc1)n1nnnc1-c1ccco1
REMARK SMILES IDX 9 1 8 2 7 3 5 4 6 5 3 7 4 8 2 9 1 10 77 11 78 12 81 13 79 14
REMARK SMILES IDX 80 15 82 16 83 17 86 18 84 19 85 20 10 21 11 22 12 23 13 25
REMARK SMILES IDX 14 26 15 27 76 28 16 29 75 30 17 31 18 32 19 33 69 34 20 35
REMARK SMILES IDX 74 36 68 37 70 38 21 39 73 40 67 41 66 42 22 44 54 45 34 46
REMARK SMILES IDX 53 47 35 48 38 49 52 50 71 51 36 52 37 53 51 55 72 56 39 57
REMARK SMILES IDX 23 58 24 59 32 60 25 61 27 62 33 63 26 64 28 65 29 66 30 67
REMARK SMILES IDX 31 68 55 69 56 70 64 71 57 72 59 73 65 74 58 75 60 76 61 77
REMARK SMILES IDX 62 78 63 79 40 80 41 81 49 82 42 83 44 84 50 85 43 86 45 87
REMARK SMILES IDX 46 88 47 89 48 90
REMARK H PARENT 7 6 11 24 70 43 38 54
REMARK Flexibility Score: inf
ROOT
ATOM      1  C   UNL A   1      36.215  21.147  25.633  1.00  0.00     0.042 C 
ENDROOT
BRANCH   1   2
ATOM      2  C   UNL A   1      35.818  22.528  26.127  1.00  0.00     0.117 C 
BRANCH   2   3
ATOM      3  N   UNL A   1      34.793  22.503  27.155  1.00  0.00    -0.354 N 
ATOM      4  C   UNL A   1      33.491  22.916  27.156  1.00  0.00     0.247 C 
ATOM      5  O   UNL A   1      32.839  22.575  28.149  1.00  0.00    -0.272 OA
ATOM      6  H   UNL A   1      35.091  22.117  28.009  1.00  0.00     0.163 HD
BRANCH   4   7
ATOM      7  C   UNL A   1      32.862  23.753  26.003  1.00  0.00     0.142 C 
ATOM      8  C   UNL A   1      31.459  24.203  26.487  1.00  0.00     0.048 C 
BRANCH   7   9
ATOM      9  C   UNL A   1      33.776  24.974  25.630  1.00  0.00     0.037 C 
ATOM     10  C   UNL A   1      33.302  26.374  26.013  1.00  0.00     0.007 C 
ENDBRANCH   7   9
BRANCH   7  11
ATOM     11  N   UNL A   1      32.710  22.839  24.842  1.00  0.00    -0.207 N 
ATOM     12  N   UNL A   1      32.670  21.497  25.022  1.00  0.00    -0.044 NA
ATOM     13  C   UNL A   1      32.607  23.093  23.489  1.00  0.00     0.218 A 
ATOM     14  N   UNL A   1      32.538  20.969  23.816  1.00  0.00    -0.023 NA
ATOM     15  N   UNL A   1      32.471  21.944  22.859  1.00  0.00    -0.105 NA
BRANCH  13  16
ATOM     16  C   UNL A   1      32.498  24.366  22.858  1.00  0.00     0.172 A 
ATOM     17  C   UNL A   1      31.418  25.228  22.777  1.00  0.00     0.054 A 
ATOM     18  O   UNL A   1      33.527  24.885  22.110  1.00  0.00    -0.461 OA
ATOM     19  C   UNL A   1      31.790  26.283  21.905  1.00  0.00     0.043 A 
ATOM     20  C   UNL A   1      33.085  26.026  21.530  1.00  0.00     0.196 A 
ENDBRANCH  13  16
ENDBRANCH   7  11
ENDBRANCH   4   7
ENDBRANCH   2   3
ENDBRANCH   1   2
BRANCH   1  21
ATOM     21  C   UNL A   1      37.556  21.108  24.917  1.00  0.00     0.118 C 
BRANCH  21  22
ATOM     22  N   UNL A   1      38.451  20.086  25.451  1.00  0.00    -0.352 N 
ATOM     23  C   UNL A   1      39.662  20.209  26.086  1.00  0.00     0.251 C 
ATOM     24  H   UNL A   1      38.136  19.160  25.336  1.00  0.00     0.163 HD
ATOM     25  O   UNL A   1      40.344  19.201  26.279  1.00  0.00    -0.269 OA
BRANCH  23  26
ATOM     26  C   UNL A   1      40.157  21.533  26.520  1.00  0.00     0.039 A 
ATOM     27  C   UNL A   1      41.271  21.602  27.362  1.00  0.00     0.014 A 
ATOM     28  C   UNL A   1      39.521  22.707  26.110  1.00  0.00     0.014 A 
ATOM     29  C   UNL A   1      41.788  22.848  27.727  1.00  0.00     0.010 A 
ATOM     30  C   UNL A   1      40.096  23.941  26.389  1.00  0.00     0.010 A 
ATOM     31  C   UNL A   1      41.230  24.028  27.209  1.00  0.00    -0.014 A 
BRANCH  31  32
ATOM     32  C   UNL A   1      41.820  25.361  27.502  1.00  0.00     0.031 A 
ATOM     33  C   UNL A   1      41.010  26.407  28.221  1.00  0.00     0.074 A 
ATOM     34  C   UNL A   1      43.051  25.661  27.042  1.00  0.00     0.049 A 
ATOM     35  N   UNL A   1      41.326  27.644  28.504  1.00  0.00    -0.248 NA
ATOM     36  C   UNL A   1      39.654  26.027  28.651  1.00  0.00     0.031 C 
ATOM     37  C   UNL A   1      43.905  24.763  26.261  1.00  0.00     0.029 A 
ATOM     38  N   UNL A   1      43.787  26.816  27.137  1.00  0.00    -0.354 N 
ATOM     39  C   UNL A   1      40.203  28.198  29.107  1.00  0.00     0.074 A 
ATOM     40  C   UNL A   1      39.182  27.174  29.116  1.00  0.00     0.031 C 
ATOM     41  C   UNL A   1      45.050  25.395  25.958  1.00  0.00     0.029 A 
ATOM     42  C   UNL A   1      44.998  26.754  26.486  1.00  0.00     0.049 A 
ATOM     43  H   UNL A   1      43.478  27.613  27.625  1.00  0.00     0.167 HD
ATOM     44  C   UNL A   1      40.043  29.435  29.634  1.00  0.00     0.034 A 
ATOM     45  C   UNL A   1      45.953  27.690  26.320  1.00  0.00     0.034 A 
ATOM     46  C   UNL A   1      41.074  30.437  29.659  1.00  0.00     0.049 A 
ATOM     47  C   UNL A   1      45.763  29.046  26.941  1.00  0.00     0.074 A 
ATOM     48  C   UNL A   1      41.042  31.688  30.248  1.00  0.00     0.029 A 
ATOM     49  N   UNL A   1      42.318  30.308  29.060  1.00  0.00    -0.354 N 
ATOM     50  N   UNL A   1      44.753  29.497  27.646  1.00  0.00    -0.248 NA
ATOM     51  C   UNL A   1      46.859  30.012  26.778  1.00  0.00     0.031 C 
ATOM     52  C   UNL A   1      42.254  32.331  29.975  1.00  0.00     0.029 A 
ATOM     53  C   UNL A   1      43.057  31.463  29.252  1.00  0.00     0.049 A 
ATOM     54  H   UNL A   1      42.629  29.514  28.570  1.00  0.00     0.167 HD
ATOM     55  C   UNL A   1      45.107  30.781  28.042  1.00  0.00     0.074 A 
ATOM     56  C   UNL A   1      46.434  31.029  27.516  1.00  0.00     0.031 C 
ATOM     57  C   UNL A   1      44.395  31.678  28.768  1.00  0.00     0.034 A 
BRANCH  44  58
ATOM     58  C   UNL A   1      38.716  29.762  30.268  1.00  0.00     0.023 A 
ATOM     59  C   UNL A   1      38.433  29.304  31.573  1.00  0.00     0.012 A 
ATOM     60  C   UNL A   1      37.775  30.570  29.602  1.00  0.00     0.148 A 
ATOM     61  C   UNL A   1      37.220  29.614  32.187  1.00  0.00     0.002 A 
ATOM     62  C   UNL A   1      36.589  30.916  30.240  1.00  0.00     0.091 A 
ATOM     63  F   UNL A   1      38.052  30.979  28.356  1.00  0.00    -0.205 F 
ATOM     64  C   UNL A   1      36.304  30.428  31.526  1.00  0.00     0.022 A 
BRANCH  62  65
ATOM     65  S   UNL A   1      35.383  32.026  29.509  1.00  0.00     0.127 S 
ATOM     66  O   UNL A   1      36.227  33.145  29.092  1.00  0.00    -0.237 OA
ATOM     67  O   UNL A   1      34.851  31.220  28.409  1.00  0.00    -0.237 OA
ATOM     68  O   UNL A   1      34.422  32.329  30.561  1.00  0.00    -0.744 OA
ENDBRANCH  62  65
ENDBRANCH  44  58
BRANCH  45  69
ATOM     69  C   UNL A   1      47.202  27.358  25.576  1.00  0.00     0.023 A 
ATOM     70  C   UNL A   1      48.275  26.751  26.257  1.00  0.00     0.012 A 
ATOM     71  C   UNL A   1      47.324  27.621  24.198  1.00  0.00     0.148 A 
ATOM     72  C   UNL A   1      49.461  26.448  25.589  1.00  0.00     0.002 A 
ATOM     73  C   UNL A   1      48.487  27.262  23.526  1.00  0.00     0.091 A 
ATOM     74  F   UNL A   1      46.295  28.206  23.569  1.00  0.00    -0.205 F 
ATOM     75  C   UNL A   1      49.564  26.694  24.223  1.00  0.00     0.022 A 
BRANCH  73  76
ATOM     76  S   UNL A   1      48.655  27.416  21.744  1.00  0.00     0.127 S 
ATOM     77  O   UNL A   1      48.655  26.018  21.322  1.00  0.00    -0.237 OA
ATOM     78  O   UNL A   1      47.450  28.169  21.392  1.00  0.00    -0.237 OA
ATOM     79  O   UNL A   1      49.899  28.143  21.528  1.00  0.00    -0.744 OA
ENDBRANCH  73  76
ENDBRANCH  45  69
BRANCH  57  80
ATOM     80  C   UNL A   1      45.048  32.998  29.085  1.00  0.00     0.023 A 
ATOM     81  C   UNL A   1      45.859  33.130  30.229  1.00  0.00     0.012 A 
ATOM     82  C   UNL A   1      44.915  34.089  28.202  1.00  0.00     0.148 A 
ATOM     83  C   UNL A   1      46.499  34.337  30.508  1.00  0.00     0.002 A 
ATOM     84  C   UNL A   1      45.599  35.271  28.458  1.00  0.00     0.091 A 
ATOM     85  F   UNL A   1      44.125  33.948  27.128  1.00  0.00    -0.205 F 
ATOM     86  C   UNL A   1      46.380  35.401  29.617  1.00  0.00     0.022 A 
BRANCH  84  87
ATOM     87  S   UNL A   1      45.587  36.658  27.317  1.00  0.00     0.127 S 
ATOM     88  O   UNL A   1      46.172  36.060  26.117  1.00  0.00    -0.237 OA
ATOM     89  O   UNL A   1      44.160  36.961  27.214  1.00  0.00    -0.237 OA
ATOM     90  O   UNL A   1      46.386  37.703  27.944  1.00  0.00    -0.744 OA
ENDBRANCH  84  87
ENDBRANCH  57  80
ENDBRANCH  31  32
ENDBRANCH  23  26
ENDBRANCH  21  22
ENDBRANCH   1  21
TORSDOF 16
ENDMDL
MODEL 3
REMARK VINA RESULT:     -11.3      5.037      9.714
REMARK SMILES CC[C@](C)(C(=O)NCCCNC(=O)c1ccc(-c2c3nc(c(-c4cccc(S(=O)(=O)[O-])c4F)c4ccc([nH]4)c(-c4cccc(S(=O)(=O)[O-])c4F)c4nc(c(-c5cccc(S(=O)(=O)[O-])c5F)c5ccc2[nH]5)C=C4)C=C3)cc1)n1nnnc1-c1ccco1
REMARK SMILES IDX 9 1 8 2 7 3 5 4 6 5 3 7 4 8 2 9 1 10 77 11 78 12 81 13 79 14
REMARK SMILES IDX 80 15 82 16 83 17 86 18 84 19 85 20 10 21 11 22 12 23 13 25
REMARK SMILES IDX 14 26 15 27 76 28 16 29 75 30 17 31 18 32 19 33 69 34 20 35
REMARK SMILES IDX 74 36 68 37 70 38 21 39 73 40 67 41 66 42 22 44 54 45 34 46
REMARK SMILES IDX 53 47 35 48 38 49 52 50 71 51 36 52 37 53 51 55 72 56 39 57
REMARK SMILES IDX 23 58 24 59 32 60 25 61 27 62 33 63 26 64 28 65 29 66 30 67
REMARK SMILES IDX 31 68 55 69 56 70 64 71 57 72 59 73 65 74 58 75 60 76 61 77
REMARK SMILES IDX 62 78 63 79 40 80 41 81 49 82 42 83 44 84 50 85 43 86 45 87
REMARK SMILES IDX 46 88 47 89 48 90
REMARK H PARENT 7 6 11 24 70 43 38 54
REMARK Flexibility Score: inf
ROOT
ATOM      1  C   UNL A   1      34.013  28.359  26.019  1.00  0.00     0.042 C 
ENDROOT
BRANCH   1   2
ATOM      2  C   UNL A   1      33.669  26.911  25.710  1.00  0.00     0.117 C 
BRANCH   2   3
ATOM      3  N   UNL A   1      32.849  26.753  24.522  1.00  0.00    -0.354 N 
ATOM      4  C   UNL A   1      32.396  25.643  23.866  1.00  0.00     0.247 C 
ATOM      5  O   UNL A   1      31.558  25.866  22.986  1.00  0.00    -0.272 OA
ATOM      6  H   UNL A   1      32.567  27.602  24.113  1.00  0.00     0.163 HD
BRANCH   4   7
ATOM      7  C   UNL A   1      32.889  24.202  24.191  1.00  0.00     0.142 C 
ATOM      8  C   UNL A   1      32.412  23.291  23.029  1.00  0.00     0.048 C 
BRANCH   7   9
ATOM      9  C   UNL A   1      34.449  24.167  24.364  1.00  0.00     0.037 C 
ATOM     10  C   UNL A   1      35.271  23.374  23.351  1.00  0.00     0.007 C 
ENDBRANCH   7   9
BRANCH   7  11
ATOM     11  N   UNL A   1      32.214  23.789  25.447  1.00  0.00    -0.207 N 
ATOM     12  N   UNL A   1      31.521  24.691  26.185  1.00  0.00    -0.044 NA
ATOM     13  C   UNL A   1      32.148  22.569  26.089  1.00  0.00     0.218 A 
ATOM     14  N   UNL A   1      31.051  24.026  27.228  1.00  0.00    -0.023 NA
ATOM     15  N   UNL A   1      31.408  22.707  27.171  1.00  0.00    -0.105 NA
BRANCH  13  16
ATOM     16  C   UNL A   1      32.643  21.320  25.616  1.00  0.00     0.172 A 
ATOM     17  C   UNL A   1      33.935  20.821  25.606  1.00  0.00     0.054 A 
ATOM     18  O   UNL A   1      31.826  20.424  24.971  1.00  0.00    -0.461 OA
ATOM     19  C   UNL A   1      33.907  19.602  24.883  1.00  0.00     0.043 A 
ATOM     20  C   UNL A   1      32.597  19.405  24.522  1.00  0.00     0.196 A 
ENDBRANCH  13  16
ENDBRANCH   7  11
ENDBRANCH   4   7
ENDBRANCH   2   3
ENDBRANCH   1   2
BRANCH   1  21
ATOM     21  C   UNL A   1      33.449  28.860  27.340  1.00  0.00     0.118 C 
BRANCH  21  22
ATOM     22  N   UNL A   1      33.596  30.302  27.505  1.00  0.00    -0.352 N 
ATOM     23  C   UNL A   1      34.615  31.034  28.065  1.00  0.00     0.251 C 
ATOM     24  H   UNL A   1      32.844  30.837  27.162  1.00  0.00     0.163 HD
ATOM     25  O   UNL A   1      34.444  32.235  28.279  1.00  0.00    -0.269 OA
BRANCH  23  26
ATOM     26  C   UNL A   1      35.897  30.391  28.425  1.00  0.00     0.039 A 
ATOM     27  C   UNL A   1      37.014  30.597  27.609  1.00  0.00     0.014 A 
ATOM     28  C   UNL A   1      36.001  29.578  29.555  1.00  0.00     0.014 A 
ATOM     29  C   UNL A   1      38.247  30.048  27.972  1.00  0.00     0.010 A 
ATOM     30  C   UNL A   1      37.247  29.119  29.968  1.00  0.00     0.010 A 
ATOM     31  C   UNL A   1      38.383  29.340  29.177  1.00  0.00    -0.014 A 
BRANCH  31  32
ATOM     32  C   UNL A   1      39.702  28.830  29.635  1.00  0.00     0.031 A 
ATOM     33  C   UNL A   1      40.446  29.532  30.740  1.00  0.00     0.074 A 
ATOM     34  C   UNL A   1      40.273  27.790  28.994  1.00  0.00     0.049 A 
ATOM     35  N   UNL A   1      41.633  29.277  31.227  1.00  0.00    -0.248 NA
ATOM     36  C   UNL A   1      39.784  30.692  31.362  1.00  0.00     0.031 C 
ATOM     37  C   UNL A   1      39.692  27.076  27.855  1.00  0.00     0.029 A 
ATOM     38  N   UNL A   1      41.482  27.171  29.190  1.00  0.00    -0.354 N 
ATOM     39  C   UNL A   1      41.875  30.261  32.178  1.00  0.00     0.074 A 
ATOM     40  C   UNL A   1      40.728  31.142  32.175  1.00  0.00     0.031 C 
ATOM     41  C   UNL A   1      40.539  26.111  27.460  1.00  0.00     0.029 A 
ATOM     42  C   UNL A   1      41.738  26.162  28.289  1.00  0.00     0.049 A 
ATOM     43  H   UNL A   1      42.107  27.423  29.908  1.00  0.00     0.167 HD
ATOM     44  C   UNL A   1      42.940  30.404  33.002  1.00  0.00     0.034 A 
ATOM     45  C   UNL A   1      42.823  25.376  28.137  1.00  0.00     0.034 A 
ATOM     46  C   UNL A   1      44.061  29.504  33.029  1.00  0.00     0.049 A 
ATOM     47  C   UNL A   1      43.979  25.536  29.086  1.00  0.00     0.074 A 
ATOM     48  C   UNL A   1      45.146  29.509  33.887  1.00  0.00     0.029 A 
ATOM     49  N   UNL A   1      44.247  28.444  32.155  1.00  0.00    -0.354 N 
ATOM     50  N   UNL A   1      44.119  26.376  30.083  1.00  0.00    -0.248 NA
ATOM     51  C   UNL A   1      45.113  24.617  28.912  1.00  0.00     0.031 C 
ATOM     52  C   UNL A   1      46.007  28.474  33.508  1.00  0.00     0.029 A 
ATOM     53  C   UNL A   1      45.437  27.798  32.442  1.00  0.00     0.049 A 
ATOM     54  H   UNL A   1      43.625  28.190  31.436  1.00  0.00     0.167 HD
ATOM     55  C   UNL A   1      45.335  26.061  30.680  1.00  0.00     0.074 A 
ATOM     56  C   UNL A   1      45.883  24.940  29.943  1.00  0.00     0.031 C 
ATOM     57  C   UNL A   1      45.946  26.652  31.735  1.00  0.00     0.034 A 
BRANCH  44  58
ATOM     58  C   UNL A   1      42.926  31.555  33.975  1.00  0.00     0.023 A 
ATOM     59  C   UNL A   1      43.499  32.790  33.605  1.00  0.00     0.012 A 
ATOM     60  C   UNL A   1      42.293  31.436  35.227  1.00  0.00     0.148 A 
ATOM     61  C   UNL A   1      43.477  33.874  34.481  1.00  0.00     0.002 A 
ATOM     62  C   UNL A   1      42.231  32.536  36.075  1.00  0.00     0.091 A 
ATOM     63  F   UNL A   1      41.770  30.250  35.570  1.00  0.00    -0.205 F 
ATOM     64  C   UNL A   1      42.834  33.751  35.710  1.00  0.00     0.022 A 
BRANCH  62  65
ATOM     65  S   UNL A   1      41.354  32.506  37.641  1.00  0.00     0.127 S 
ATOM     66  O   UNL A   1      40.051  31.977  37.238  1.00  0.00    -0.237 OA
ATOM     67  O   UNL A   1      42.169  31.581  38.431  1.00  0.00    -0.237 OA
ATOM     68  O   UNL A   1      41.346  33.878  38.127  1.00  0.00    -0.744 OA
ENDBRANCH  62  65
ENDBRANCH  44  58
BRANCH  45  69
ATOM     69  C   UNL A   1      42.842  24.329  27.077  1.00  0.00     0.023 A 
ATOM     70  C   UNL A   1      43.522  24.576  25.869  1.00  0.00     0.012 A 
ATOM     71  C   UNL A   1      42.209  23.085  27.266  1.00  0.00     0.148 A 
ATOM     72  C   UNL A   1      43.540  23.621  24.853  1.00  0.00     0.002 A 
ATOM     73  C   UNL A   1      42.280  22.115  26.273  1.00  0.00     0.091 A 
ATOM     74  F   UNL A   1      41.560  22.871  28.419  1.00  0.00    -0.205 F 
ATOM     75  C   UNL A   1      42.928  22.387  25.058  1.00  0.00     0.022 A 
BRANCH  73  76
ATOM     76  S   UNL A   1      41.640  20.453  26.504  1.00  0.00     0.127 S 
ATOM     77  O   UNL A   1      40.207  20.653  26.306  1.00  0.00    -0.237 OA
ATOM     78  O   UNL A   1      42.316  19.719  25.432  1.00  0.00    -0.237 OA
ATOM     79  O   UNL A   1      42.045  20.057  27.846  1.00  0.00    -0.744 OA
ENDBRANCH  73  76
ENDBRANCH  45  69
BRANCH  57  80
ATOM     80  C   UNL A   1      47.258  26.073  32.199  1.00  0.00     0.023 A 
ATOM     81  C   UNL A   1      48.466  26.506  31.620  1.00  0.00     0.012 A 
ATOM     82  C   UNL A   1      47.292  25.153  33.266  1.00  0.00     0.148 A 
ATOM     83  C   UNL A   1      49.687  26.005  32.071  1.00  0.00     0.002 A 
ATOM     84  C   UNL A   1      48.515  24.700  33.746  1.00  0.00     0.091 A 
ATOM     85  F   UNL A   1      46.130  24.741  33.791  1.00  0.00    -0.205 F 
ATOM     86  C   UNL A   1      49.712  25.114  33.142  1.00  0.00     0.022 A 
BRANCH  84  87
ATOM     87  S   UNL A   1      48.649  23.630  35.183  1.00  0.00     0.127 S 
ATOM     88  O   UNL A   1      47.778  22.518  34.807  1.00  0.00    -0.237 OA
ATOM     89  O   UNL A   1      50.076  23.311  35.199  1.00  0.00    -0.237 OA
ATOM     90  O   UNL A   1      48.192  24.422  36.318  1.00  0.00    -0.744 OA
ENDBRANCH  84  87
ENDBRANCH  57  80
ENDBRANCH  31  32
ENDBRANCH  23  26
ENDBRANCH  21  22
ENDBRANCH   1  21
TORSDOF 16
ENDMDL
