MODEL 1
REMARK VINA RESULT:     -10.3      0.000      0.000
REMARK SMILES C[C@H]1C[C@](C(=O)NCCCNC(=O)c2ccc(-c3c4nc(c(-c5cccc(S(=O)(=O)[O-])c5F)c5ccc([nH]5)c(-c5cccc(S(=O)(=O)[O-])c5F)c5nc(c(-c6cccc(S(=O)(=O)[O-])c6F)c6ccc3[nH]6)C=C5)C=C4)cc2)(N(C=O)C2CC2)CS1
REMARK SMILES IDX 9 1 8 2 7 3 5 4 6 5 4 7 1 8 2 9 3 10 84 11 83 12 77 13 78 14
REMARK SMILES IDX 79 15 80 16 81 17 82 18 10 19 11 20 12 21 13 23 14 24 15 25
REMARK SMILES IDX 76 26 16 27 75 28 17 29 18 30 19 31 69 32 20 33 74 34 68 35
REMARK SMILES IDX 70 36 21 37 73 38 67 39 66 40 22 42 54 43 34 44 53 45 35 46
REMARK SMILES IDX 38 47 52 48 71 49 36 50 37 51 51 53 72 54 39 55 23 56 24 57
REMARK SMILES IDX 32 58 25 59 27 60 33 61 26 62 28 63 29 64 30 65 31 66 55 67
REMARK SMILES IDX 56 68 64 69 57 70 59 71 65 72 58 73 60 74 61 75 62 76 63 77
REMARK SMILES IDX 40 78 41 79 49 80 42 81 44 82 50 83 43 84 45 85 46 86 47 87
REMARK SMILES IDX 48 88
REMARK H PARENT 7 6 11 22 70 41 38 52
REMARK Flexibility Score: inf
ROOT
ATOM      1  C   UNL A   1      33.157  27.855  26.867  1.00  0.00     0.042 C 
ENDROOT
BRANCH   1   2
ATOM      2  C   UNL A   1      32.326  26.932  25.976  1.00  0.00     0.117 C 
BRANCH   2   3
ATOM      3  N   UNL A   1      32.345  25.542  26.425  1.00  0.00    -0.354 N 
ATOM      4  C   UNL A   1      32.240  24.460  25.579  1.00  0.00     0.246 C 
ATOM      5  O   UNL A   1      31.142  23.902  25.576  1.00  0.00    -0.272 OA
ATOM      6  H   UNL A   1      32.439  25.368  27.389  1.00  0.00     0.163 HD
BRANCH   4   7
ATOM      7  C   UNL A   1      33.420  24.072  24.619  1.00  0.00     0.131 C 
ATOM      8  C   UNL A   1      32.320  25.854  21.687  1.00  0.00     0.019 C 
ATOM      9  C   UNL A   1      33.463  24.991  22.213  1.00  0.00     0.046 C 
ATOM     10  C   UNL A   1      33.806  25.250  23.676  1.00  0.00     0.054 C 
ATOM     11  S   UNL A   1      33.178  23.215  22.040  1.00  0.00    -0.156 SA
ATOM     12  C   UNL A   1      32.860  22.890  23.791  1.00  0.00     0.108 C 
BRANCH   7  13
ATOM     13  N   UNL A   1      34.693  23.695  25.374  1.00  0.00    -0.327 N 
BRANCH  13  14
ATOM     14  C   UNL A   1      34.663  22.771  26.427  1.00  0.00     0.341 C 
ATOM     15  O   UNL A   1      34.499  21.558  26.320  1.00  0.00    -0.279 OA
ENDBRANCH  13  14
BRANCH  13  16
ATOM     16  C   UNL A   1      36.023  23.889  24.797  1.00  0.00     0.086 C 
ATOM     17  C   UNL A   1      37.319  23.195  25.090  1.00  0.00     0.027 C 
ATOM     18  C   UNL A   1      36.578  22.886  23.818  1.00  0.00     0.027 C 
ENDBRANCH  13  16
ENDBRANCH   7  13
ENDBRANCH   4   7
ENDBRANCH   2   3
ENDBRANCH   1   2
BRANCH   1  19
ATOM     19  C   UNL A   1      34.019  28.843  26.093  1.00  0.00     0.118 C 
BRANCH  19  20
ATOM     20  N   UNL A   1      33.842  30.208  26.569  1.00  0.00    -0.352 N 
ATOM     21  C   UNL A   1      34.523  30.891  27.546  1.00  0.00     0.251 C 
ATOM     22  H   UNL A   1      33.127  30.717  26.124  1.00  0.00     0.163 HD
ATOM     23  O   UNL A   1      34.055  31.942  27.979  1.00  0.00    -0.269 OA
BRANCH  21  24
ATOM     24  C   UNL A   1      35.803  30.373  28.076  1.00  0.00     0.039 A 
ATOM     25  C   UNL A   1      35.813  29.720  29.313  1.00  0.00     0.014 A 
ATOM     26  C   UNL A   1      37.001  30.570  27.383  1.00  0.00     0.014 A 
ATOM     27  C   UNL A   1      37.014  29.222  29.826  1.00  0.00     0.010 A 
ATOM     28  C   UNL A   1      38.180  30.001  27.855  1.00  0.00     0.010 A 
ATOM     29  C   UNL A   1      38.203  29.338  29.090  1.00  0.00    -0.014 A 
BRANCH  29  30
ATOM     30  C   UNL A   1      39.489  28.790  29.594  1.00  0.00     0.031 A 
ATOM     31  C   UNL A   1      40.219  29.489  30.711  1.00  0.00     0.074 A 
ATOM     32  C   UNL A   1      40.047  27.725  28.985  1.00  0.00     0.049 A 
ATOM     33  N   UNL A   1      41.391  29.221  31.225  1.00  0.00    -0.248 NA
ATOM     34  C   UNL A   1      39.559  30.663  31.306  1.00  0.00     0.031 C 
ATOM     35  C   UNL A   1      39.476  27.009  27.843  1.00  0.00     0.029 A 
ATOM     36  N   UNL A   1      41.236  27.081  29.220  1.00  0.00    -0.354 N 
ATOM     37  C   UNL A   1      41.628  30.213  32.170  1.00  0.00     0.074 A 
ATOM     38  C   UNL A   1      40.492  31.108  32.136  1.00  0.00     0.031 C 
ATOM     39  C   UNL A   1      40.314  26.025  27.476  1.00  0.00     0.029 A 
ATOM     40  C   UNL A   1      41.493  26.059  28.335  1.00  0.00     0.049 A 
ATOM     41  H   UNL A   1      41.846  27.327  29.952  1.00  0.00     0.167 HD
ATOM     42  C   UNL A   1      42.680  30.351  33.012  1.00  0.00     0.034 A 
ATOM     43  C   UNL A   1      42.562  25.246  28.225  1.00  0.00     0.034 A 
ATOM     44  C   UNL A   1      43.780  29.428  33.082  1.00  0.00     0.049 A 
ATOM     45  C   UNL A   1      43.693  25.388  29.208  1.00  0.00     0.074 A 
ATOM     46  C   UNL A   1      44.846  29.426  33.963  1.00  0.00     0.029 A 
ATOM     47  N   UNL A   1      43.955  28.343  32.238  1.00  0.00    -0.354 N 
ATOM     48  N   UNL A   1      43.823  26.237  30.198  1.00  0.00    -0.248 NA
ATOM     49  C   UNL A   1      44.807  24.436  29.082  1.00  0.00     0.031 C 
ATOM     50  C   UNL A   1      45.676  28.346  33.641  1.00  0.00     0.029 A 
ATOM     51  C   UNL A   1      45.114  27.664  32.573  1.00  0.00     0.049 A 
ATOM     52  H   UNL A   1      43.344  28.091  31.507  1.00  0.00     0.167 HD
ATOM     53  C   UNL A   1      45.011  25.898  30.837  1.00  0.00     0.074 A 
ATOM     54  C   UNL A   1      45.553  24.755  30.132  1.00  0.00     0.031 C 
ATOM     55  C   UNL A   1      45.608  26.491  31.901  1.00  0.00     0.034 A 
BRANCH  42  56
ATOM     56  C   UNL A   1      42.661  31.513  33.972  1.00  0.00     0.023 A 
ATOM     57  C   UNL A   1      43.216  32.748  33.577  1.00  0.00     0.012 A 
ATOM     58  C   UNL A   1      42.049  31.404  35.236  1.00  0.00     0.148 A 
ATOM     59  C   UNL A   1      43.194  33.845  34.437  1.00  0.00     0.002 A 
ATOM     60  C   UNL A   1      41.993  32.515  36.071  1.00  0.00     0.091 A 
ATOM     61  F   UNL A   1      41.545  30.217  35.604  1.00  0.00    -0.205 F 
ATOM     62  C   UNL A   1      42.574  33.732  35.678  1.00  0.00     0.022 A 
BRANCH  60  63
ATOM     63  S   UNL A   1      41.148  32.493  37.656  1.00  0.00     0.127 S 
ATOM     64  O   UNL A   1      42.005  31.599  38.434  1.00  0.00    -0.237 OA
ATOM     65  O   UNL A   1      41.211  33.899  38.059  1.00  0.00    -0.237 OA
ATOM     66  O   UNL A   1      39.805  32.000  37.388  1.00  0.00    -0.744 OA
ENDBRANCH  60  63
ENDBRANCH  42  56
BRANCH  43  67
ATOM     67  C   UNL A   1      42.577  24.175  27.189  1.00  0.00     0.023 A 
ATOM     68  C   UNL A   1      43.257  24.399  25.976  1.00  0.00     0.012 A 
ATOM     69  C   UNL A   1      41.954  22.931  27.406  1.00  0.00     0.148 A 
ATOM     70  C   UNL A   1      43.293  23.417  24.987  1.00  0.00     0.002 A 
ATOM     71  C   UNL A   1      42.040  21.936  26.438  1.00  0.00     0.091 A 
ATOM     72  F   UNL A   1      41.301  22.739  28.561  1.00  0.00    -0.205 F 
ATOM     73  C   UNL A   1      42.694  22.182  25.222  1.00  0.00     0.022 A 
BRANCH  71  74
ATOM     74  S   UNL A   1      41.415  20.274  26.711  1.00  0.00     0.127 S 
ATOM     75  O   UNL A   1      39.980  20.513  26.844  1.00  0.00    -0.237 OA
ATOM     76  O   UNL A   1      41.814  19.594  25.477  1.00  0.00    -0.237 OA
ATOM     77  O   UNL A   1      42.092  19.792  27.904  1.00  0.00    -0.744 OA
ENDBRANCH  71  74
ENDBRANCH  43  67
BRANCH  55  78
ATOM     78  C   UNL A   1      46.897  25.895  32.401  1.00  0.00     0.023 A 
ATOM     79  C   UNL A   1      48.127  26.366  31.900  1.00  0.00     0.012 A 
ATOM     80  C   UNL A   1      46.891  24.928  33.426  1.00  0.00     0.148 A 
ATOM     81  C   UNL A   1      49.330  25.863  32.391  1.00  0.00     0.002 A 
ATOM     82  C   UNL A   1      48.094  24.466  33.944  1.00  0.00     0.091 A 
ATOM     83  F   UNL A   1      45.709  24.479  33.875  1.00  0.00    -0.205 F 
ATOM     84  C   UNL A   1      49.315  24.924  33.421  1.00  0.00     0.022 A 
BRANCH  82  85
ATOM     85  S   UNL A   1      48.170  23.330  35.333  1.00  0.00     0.127 S 
ATOM     86  O   UNL A   1      47.435  22.177  34.817  1.00  0.00    -0.237 OA
ATOM     87  O   UNL A   1      49.609  23.118  35.485  1.00  0.00    -0.237 OA
ATOM     88  O   UNL A   1      47.542  24.023  36.451  1.00  0.00    -0.744 OA
ENDBRANCH  82  85
ENDBRANCH  55  78
ENDBRANCH  29  30
ENDBRANCH  21  24
ENDBRANCH  19  20
ENDBRANCH   1  19
TORSDOF 16
ENDMDL
MODEL 2
REMARK VINA RESULT:     -10.2      5.426      8.530
REMARK SMILES C[C@H]1C[C@](C(=O)NCCCNC(=O)c2ccc(-c3c4nc(c(-c5cccc(S(=O)(=O)[O-])c5F)c5ccc([nH]5)c(-c5cccc(S(=O)(=O)[O-])c5F)c5nc(c(-c6cccc(S(=O)(=O)[O-])c6F)c6ccc3[nH]6)C=C5)C=C4)cc2)(N(C=O)C2CC2)CS1
REMARK SMILES IDX 9 1 8 2 7 3 5 4 6 5 4 7 1 8 2 9 3 10 84 11 83 12 77 13 78 14
REMARK SMILES IDX 79 15 80 16 81 17 82 18 10 19 11 20 12 21 13 23 14 24 15 25
REMARK SMILES IDX 76 26 16 27 75 28 17 29 18 30 19 31 69 32 20 33 74 34 68 35
REMARK SMILES IDX 70 36 21 37 73 38 67 39 66 40 22 42 54 43 34 44 53 45 35 46
REMARK SMILES IDX 38 47 52 48 71 49 36 50 37 51 51 53 72 54 39 55 23 56 24 57
REMARK SMILES IDX 32 58 25 59 27 60 33 61 26 62 28 63 29 64 30 65 31 66 55 67
REMARK SMILES IDX 56 68 64 69 57 70 59 71 65 72 58 73 60 74 61 75 62 76 63 77
REMARK SMILES IDX 40 78 41 79 49 80 42 81 44 82 50 83 43 84 45 85 46 86 47 87
REMARK SMILES IDX 48 88
REMARK H PARENT 7 6 11 22 70 41 38 52
REMARK Flexibility Score: inf
ROOT
ATOM      1  C   UNL A   1      37.406  19.656  25.029  1.00  0.00     0.042 C 
ENDROOT
BRANCH   1   2
ATOM      2  C   UNL A   1      36.186  20.577  24.998  1.00  0.00     0.117 C 
BRANCH   2   3
ATOM      3  N   UNL A   1      36.533  21.968  24.711  1.00  0.00    -0.354 N 
ATOM      4  C   UNL A   1      35.814  22.778  23.861  1.00  0.00     0.246 C 
ATOM      5  O   UNL A   1      36.326  22.966  22.757  1.00  0.00    -0.272 OA
ATOM      6  H   UNL A   1      37.326  22.348  25.152  1.00  0.00     0.163 HD
BRANCH   4   7
ATOM      7  C   UNL A   1      34.393  23.310  24.267  1.00  0.00     0.131 C 
ATOM      8  C   UNL A   1      34.095  21.643  27.447  1.00  0.00     0.019 C 
ATOM      9  C   UNL A   1      33.368  22.618  26.527  1.00  0.00     0.046 C 
ATOM     10  C   UNL A   1      34.297  23.584  25.797  1.00  0.00     0.054 C 
ATOM     11  S   UNL A   1      32.344  21.815  25.273  1.00  0.00    -0.156 SA
ATOM     12  C   UNL A   1      33.433  22.162  23.870  1.00  0.00     0.108 C 
BRANCH   7  13
ATOM     13  N   UNL A   1      34.038  24.624  23.575  1.00  0.00    -0.327 N 
BRANCH  13  14
ATOM     14  C   UNL A   1      33.326  24.637  22.367  1.00  0.00     0.341 C 
ATOM     15  O   UNL A   1      33.655  25.225  21.340  1.00  0.00    -0.279 OA
ENDBRANCH  13  14
BRANCH  13  16
ATOM     16  C   UNL A   1      33.994  25.895  24.299  1.00  0.00     0.086 C 
ATOM     17  C   UNL A   1      33.458  27.231  23.883  1.00  0.00     0.027 C 
ATOM     18  C   UNL A   1      32.693  26.396  24.872  1.00  0.00     0.027 C 
ENDBRANCH  13  16
ENDBRANCH   7  13
ENDBRANCH   4   7
ENDBRANCH   2   3
ENDBRANCH   1   2
BRANCH   1  19
ATOM     19  C   UNL A   1      38.674  20.335  25.531  1.00  0.00     0.118 C 
BRANCH  19  20
ATOM     20  N   UNL A   1      39.710  19.368  25.869  1.00  0.00    -0.352 N 
ATOM     21  C   UNL A   1      41.039  19.567  26.147  1.00  0.00     0.251 C 
ATOM     22  H   UNL A   1      39.411  18.430  25.902  1.00  0.00     0.163 HD
ATOM     23  O   UNL A   1      41.801  18.602  26.152  1.00  0.00    -0.269 OA
BRANCH  21  24
ATOM     24  C   UNL A   1      41.554  20.923  26.435  1.00  0.00     0.039 A 
ATOM     25  C   UNL A   1      41.685  21.839  25.385  1.00  0.00     0.014 A 
ATOM     26  C   UNL A   1      41.954  21.282  27.725  1.00  0.00     0.014 A 
ATOM     27  C   UNL A   1      42.167  23.125  25.641  1.00  0.00     0.010 A 
ATOM     28  C   UNL A   1      42.354  22.587  27.992  1.00  0.00     0.010 A 
ATOM     29  C   UNL A   1      42.483  23.518  26.951  1.00  0.00    -0.014 A 
BRANCH  29  30
ATOM     30  C   UNL A   1      42.967  24.888  27.260  1.00  0.00     0.031 A 
ATOM     31  C   UNL A   1      42.050  25.877  27.932  1.00  0.00     0.074 A 
ATOM     32  C   UNL A   1      44.191  25.273  26.850  1.00  0.00     0.049 A 
ATOM     33  N   UNL A   1      42.253  27.140  28.201  1.00  0.00    -0.248 NA
ATOM     34  C   UNL A   1      40.716  25.389  28.324  1.00  0.00     0.031 C 
ATOM     35  C   UNL A   1      45.143  24.433  26.122  1.00  0.00     0.029 A 
ATOM     36  N   UNL A   1      44.833  26.482  26.959  1.00  0.00    -0.354 N 
ATOM     37  C   UNL A   1      41.066  27.608  28.751  1.00  0.00     0.074 A 
ATOM     38  C   UNL A   1      40.134  26.502  28.749  1.00  0.00     0.031 C 
ATOM     39  C   UNL A   1      46.245  25.150  25.848  1.00  0.00     0.029 A 
ATOM     40  C   UNL A   1      46.068  26.507  26.353  1.00  0.00     0.049 A 
ATOM     41  H   UNL A   1      44.444  27.257  27.425  1.00  0.00     0.167 HD
ATOM     42  C   UNL A   1      40.784  28.838  29.243  1.00  0.00     0.034 A 
ATOM     43  C   UNL A   1      46.953  27.513  26.216  1.00  0.00     0.034 A 
ATOM     44  C   UNL A   1      41.731  29.919  29.296  1.00  0.00     0.049 A 
ATOM     45  C   UNL A   1      46.636  28.855  26.819  1.00  0.00     0.074 A 
ATOM     46  C   UNL A   1      41.574  31.172  29.859  1.00  0.00     0.029 A 
ATOM     47  N   UNL A   1      43.010  29.875  28.765  1.00  0.00    -0.354 N 
ATOM     48  N   UNL A   1      45.567  29.231  27.476  1.00  0.00    -0.248 NA
ATOM     49  C   UNL A   1      47.664  29.900  26.694  1.00  0.00     0.031 C 
ATOM     50  C   UNL A   1      42.756  31.893  29.656  1.00  0.00     0.029 A 
ATOM     51  C   UNL A   1      43.655  31.079  28.984  1.00  0.00     0.049 A 
ATOM     52  H   UNL A   1      43.402  29.099  28.302  1.00  0.00     0.167 HD
ATOM     53  C   UNL A   1      45.806  30.540  27.877  1.00  0.00     0.074 A 
ATOM     54  C   UNL A   1      47.131  30.886  27.403  1.00  0.00     0.031 C 
ATOM     55  C   UNL A   1      44.997  31.387  28.560  1.00  0.00     0.034 A 
BRANCH  42  56
ATOM     56  C   UNL A   1      39.411  29.063  29.823  1.00  0.00     0.023 A 
ATOM     57  C   UNL A   1      39.110  28.565  31.108  1.00  0.00     0.012 A 
ATOM     58  C   UNL A   1      38.439  29.810  29.128  1.00  0.00     0.148 A 
ATOM     59  C   UNL A   1      37.855  28.775  31.676  1.00  0.00     0.002 A 
ATOM     60  C   UNL A   1      37.204  30.053  29.721  1.00  0.00     0.091 A 
ATOM     61  F   UNL A   1      38.734  30.258  27.899  1.00  0.00    -0.205 F 
ATOM     62  C   UNL A   1      36.907  29.527  30.988  1.00  0.00     0.022 A 
BRANCH  60  63
ATOM     63  S   UNL A   1      35.945  31.076  28.949  1.00  0.00     0.127 S 
ATOM     64  O   UNL A   1      35.130  31.458  30.102  1.00  0.00    -0.237 OA
ATOM     65  O   UNL A   1      36.740  32.165  28.378  1.00  0.00    -0.237 OA
ATOM     66  O   UNL A   1      35.285  30.228  27.967  1.00  0.00    -0.744 OA
ENDBRANCH  60  63
ENDBRANCH  42  56
BRANCH  43  67
ATOM     67  C   UNL A   1      48.259  27.265  25.541  1.00  0.00     0.023 A 
ATOM     68  C   UNL A   1      49.350  26.802  26.302  1.00  0.00     0.012 A 
ATOM     69  C   UNL A   1      48.419  27.450  24.154  1.00  0.00     0.148 A 
ATOM     70  C   UNL A   1      50.586  26.558  25.701  1.00  0.00     0.002 A 
ATOM     71  C   UNL A   1      49.637  27.152  23.552  1.00  0.00     0.091 A 
ATOM     72  F   UNL A   1      47.374  27.902  23.448  1.00  0.00    -0.205 F 
ATOM     73  C   UNL A   1      50.726  26.722  24.326  1.00  0.00     0.022 A 
BRANCH  71  74
ATOM     74  S   UNL A   1      49.867  27.206  21.772  1.00  0.00     0.127 S 
ATOM     75  O   UNL A   1      48.841  26.274  21.310  1.00  0.00    -0.237 OA
ATOM     76  O   UNL A   1      49.598  28.614  21.474  1.00  0.00    -0.237 OA
ATOM     77  O   UNL A   1      51.245  26.799  21.543  1.00  0.00    -0.744 OA
ENDBRANCH  71  74
ENDBRANCH  43  67
BRANCH  55  78
ATOM     78  C   UNL A   1      45.527  32.760  28.878  1.00  0.00     0.023 A 
ATOM     79  C   UNL A   1      46.315  32.957  30.029  1.00  0.00     0.012 A 
ATOM     80  C   UNL A   1      45.311  33.835  27.993  1.00  0.00     0.148 A 
ATOM     81  C   UNL A   1      46.858  34.211  30.309  1.00  0.00     0.002 A 
ATOM     82  C   UNL A   1      45.894  35.069  28.253  1.00  0.00     0.091 A 
ATOM     83  F   UNL A   1      44.541  33.631  26.914  1.00  0.00    -0.205 F 
ATOM     84  C   UNL A   1      46.658  35.262  29.416  1.00  0.00     0.022 A 
BRANCH  82  85
ATOM     85  S   UNL A   1      45.769  36.451  27.112  1.00  0.00     0.127 S 
ATOM     86  O   UNL A   1      44.322  36.592  26.970  1.00  0.00    -0.237 OA
ATOM     87  O   UNL A   1      46.418  37.530  27.858  1.00  0.00    -0.237 OA
ATOM     88  O   UNL A   1      46.480  36.040  25.908  1.00  0.00    -0.744 OA
ENDBRANCH  82  85
ENDBRANCH  55  78
ENDBRANCH  29  30
ENDBRANCH  21  24
ENDBRANCH  19  20
ENDBRANCH   1  19
TORSDOF 16
ENDMDL
MODEL 3
REMARK VINA RESULT:     -10.2      2.803      8.486
REMARK SMILES C[C@H]1C[C@](C(=O)NCCCNC(=O)c2ccc(-c3c4nc(c(-c5cccc(S(=O)(=O)[O-])c5F)c5ccc([nH]5)c(-c5cccc(S(=O)(=O)[O-])c5F)c5nc(c(-c6cccc(S(=O)(=O)[O-])c6F)c6ccc3[nH]6)C=C5)C=C4)cc2)(N(C=O)C2CC2)CS1
REMARK SMILES IDX 9 1 8 2 7 3 5 4 6 5 4 7 1 8 2 9 3 10 84 11 83 12 77 13 78 14
REMARK SMILES IDX 79 15 80 16 81 17 82 18 10 19 11 20 12 21 13 23 14 24 15 25
REMARK SMILES IDX 76 26 16 27 75 28 17 29 18 30 19 31 69 32 20 33 74 34 68 35
REMARK SMILES IDX 70 36 21 37 73 38 67 39 66 40 22 42 54 43 34 44 53 45 35 46
REMARK SMILES IDX 38 47 52 48 71 49 36 50 37 51 51 53 72 54 39 55 23 56 24 57
REMARK SMILES IDX 32 58 25 59 27 60 33 61 26 62 28 63 29 64 30 65 31 66 55 67
REMARK SMILES IDX 56 68 64 69 57 70 59 71 65 72 58 73 60 74 61 75 62 76 63 77
REMARK SMILES IDX 40 78 41 79 49 80 42 81 44 82 50 83 43 84 45 85 46 86 47 87
REMARK SMILES IDX 48 88
REMARK H PARENT 7 6 11 22 70 41 38 52
REMARK Flexibility Score: inf
ROOT
ATOM      1  C   UNL A   1      31.181  31.570  26.111  1.00  0.00     0.042 C 
ENDROOT
BRANCH   1   2
ATOM      2  C   UNL A   1      31.351  30.168  25.525  1.00  0.00     0.117 C 
BRANCH   2   3
ATOM      3  N   UNL A   1      32.149  29.289  26.377  1.00  0.00    -0.354 N 
ATOM      4  C   UNL A   1      31.834  27.973  26.632  1.00  0.00     0.246 C 
ATOM      5  O   UNL A   1      31.352  27.755  27.744  1.00  0.00    -0.272 OA
ATOM      6  H   UNL A   1      32.960  29.660  26.794  1.00  0.00     0.163 HD
BRANCH   4   7
ATOM      7  C   UNL A   1      31.987  26.879  25.516  1.00  0.00     0.131 C 
ATOM      8  C   UNL A   1      33.529  28.924  22.981  1.00  0.00     0.019 C 
ATOM      9  C   UNL A   1      33.086  27.493  23.268  1.00  0.00     0.046 C 
ATOM     10  C   UNL A   1      33.309  27.057  24.712  1.00  0.00     0.054 C 
ATOM     11  S   UNL A   1      31.350  27.173  22.879  1.00  0.00    -0.156 SA
ATOM     12  C   UNL A   1      30.767  27.111  24.591  1.00  0.00     0.108 C 
BRANCH   7  13
ATOM     13  N   UNL A   1      32.019  25.462  26.083  1.00  0.00    -0.327 N 
BRANCH  13  14
ATOM     14  C   UNL A   1      30.851  24.693  26.177  1.00  0.00     0.341 C 
ATOM     15  O   UNL A   1      30.454  24.100  27.177  1.00  0.00    -0.279 OA
ENDBRANCH  13  14
BRANCH  13  16
ATOM     16  C   UNL A   1      33.251  24.672  26.127  1.00  0.00     0.086 C 
ATOM     17  C   UNL A   1      33.466  23.230  26.471  1.00  0.00     0.027 C 
ATOM     18  C   UNL A   1      33.551  23.675  25.037  1.00  0.00     0.027 C 
ENDBRANCH  13  16
ENDBRANCH   7  13
ENDBRANCH   4   7
ENDBRANCH   2   3
ENDBRANCH   1   2
BRANCH   1  19
ATOM     19  C   UNL A   1      32.258  31.947  27.120  1.00  0.00     0.118 C 
BRANCH  19  20
ATOM     20  N   UNL A   1      32.359  33.390  27.291  1.00  0.00    -0.352 N 
ATOM     21  C   UNL A   1      33.190  34.120  28.105  1.00  0.00     0.251 C 
ATOM     22  H   UNL A   1      31.739  33.921  26.742  1.00  0.00     0.163 HD
ATOM     23  O   UNL A   1      32.944  35.309  28.299  1.00  0.00    -0.269 OA
BRANCH  21  24
ATOM     24  C   UNL A   1      34.365  33.489  28.744  1.00  0.00     0.039 A 
ATOM     25  C   UNL A   1      35.635  34.033  28.520  1.00  0.00     0.014 A 
ATOM     26  C   UNL A   1      34.228  32.338  29.524  1.00  0.00     0.014 A 
ATOM     27  C   UNL A   1      36.755  33.450  29.119  1.00  0.00     0.010 A 
ATOM     28  C   UNL A   1      35.333  31.811  30.186  1.00  0.00     0.010 A 
ATOM     29  C   UNL A   1      36.610  32.349  29.977  1.00  0.00    -0.014 A 
BRANCH  29  30
ATOM     30  C   UNL A   1      37.778  31.728  30.654  1.00  0.00     0.031 A 
ATOM     31  C   UNL A   1      38.567  30.649  29.958  1.00  0.00     0.074 A 
ATOM     32  C   UNL A   1      38.068  32.062  31.927  1.00  0.00     0.049 A 
ATOM     33  N   UNL A   1      39.555  29.926  30.414  1.00  0.00    -0.248 NA
ATOM     34  C   UNL A   1      38.170  30.319  28.579  1.00  0.00     0.031 C 
ATOM     35  C   UNL A   1      37.331  33.035  32.735  1.00  0.00     0.029 A 
ATOM     36  N   UNL A   1      39.040  31.594  32.776  1.00  0.00    -0.354 N 
ATOM     37  C   UNL A   1      39.871  29.030  29.400  1.00  0.00     0.074 A 
ATOM     38  C   UNL A   1      38.946  29.277  28.314  1.00  0.00     0.031 C 
ATOM     39  C   UNL A   1      37.876  33.092  33.961  1.00  0.00     0.029 A 
ATOM     40  C   UNL A   1      38.979  32.141  34.037  1.00  0.00     0.049 A 
ATOM     41  H   UNL A   1      39.716  30.931  32.507  1.00  0.00     0.167 HD
ATOM     42  C   UNL A   1      40.858  28.104  29.360  1.00  0.00     0.034 A 
ATOM     43  C   UNL A   1      39.725  31.896  35.132  1.00  0.00     0.034 A 
ATOM     44  C   UNL A   1      41.810  27.899  30.418  1.00  0.00     0.049 A 
ATOM     45  C   UNL A   1      40.851  30.900  35.044  1.00  0.00     0.074 A 
ATOM     46  C   UNL A   1      42.905  27.054  30.438  1.00  0.00     0.029 A 
ATOM     47  N   UNL A   1      41.781  28.545  31.643  1.00  0.00    -0.354 N 
ATOM     48  N   UNL A   1      41.231  30.176  34.021  1.00  0.00    -0.248 NA
ATOM     49  C   UNL A   1      41.672  30.717  36.250  1.00  0.00     0.031 C 
ATOM     50  C   UNL A   1      43.530  27.178  31.683  1.00  0.00     0.029 A 
ATOM     51  C   UNL A   1      42.836  28.117  32.430  1.00  0.00     0.049 A 
ATOM     52  H   UNL A   1      41.109  29.212  31.914  1.00  0.00     0.167 HD
ATOM     53  C   UNL A   1      42.357  29.480  34.444  1.00  0.00     0.074 A 
ATOM     54  C   UNL A   1      42.608  29.885  35.813  1.00  0.00     0.031 C 
ATOM     55  C   UNL A   1      43.107  28.575  33.768  1.00  0.00     0.034 A 
BRANCH  42  56
ATOM     56  C   UNL A   1      40.999  27.282  28.104  1.00  0.00     0.023 A 
ATOM     57  C   UNL A   1      41.659  27.833  26.986  1.00  0.00     0.012 A 
ATOM     58  C   UNL A   1      40.532  25.955  28.045  1.00  0.00     0.148 A 
ATOM     59  C   UNL A   1      41.821  27.089  25.818  1.00  0.00     0.002 A 
ATOM     60  C   UNL A   1      40.736  25.204  26.891  1.00  0.00     0.091 A 
ATOM     61  F   UNL A   1      39.887  25.454  29.109  1.00  0.00    -0.205 F 
ATOM     62  C   UNL A   1      41.370  25.773  25.774  1.00  0.00     0.022 A 
BRANCH  60  63
ATOM     63  S   UNL A   1      40.262  23.476  26.764  1.00  0.00     0.127 S 
ATOM     64  O   UNL A   1      41.219  22.980  25.775  1.00  0.00    -0.237 OA
ATOM     65  O   UNL A   1      40.490  22.993  28.127  1.00  0.00    -0.237 OA
ATOM     66  O   UNL A   1      38.868  23.472  26.345  1.00  0.00    -0.744 OA
ENDBRANCH  60  63
ENDBRANCH  42  56
BRANCH  43  67
ATOM     67  C   UNL A   1      39.478  32.665  36.385  1.00  0.00     0.023 A 
ATOM     68  C   UNL A   1      40.121  33.904  36.571  1.00  0.00     0.012 A 
ATOM     69  C   UNL A   1      38.590  32.198  37.374  1.00  0.00     0.148 A 
ATOM     70  C   UNL A   1      39.910  34.649  37.731  1.00  0.00     0.002 A 
ATOM     71  C   UNL A   1      38.342  32.971  38.502  1.00  0.00     0.091 A 
ATOM     72  F   UNL A   1      37.996  31.011  37.185  1.00  0.00    -0.205 F 
ATOM     73  C   UNL A   1      39.013  34.189  38.691  1.00  0.00     0.022 A 
BRANCH  71  74
ATOM     74  S   UNL A   1      37.103  32.520  39.722  1.00  0.00     0.127 S 
ATOM     75  O   UNL A   1      37.238  33.600  40.697  1.00  0.00    -0.237 OA
ATOM     76  O   UNL A   1      35.871  32.556  38.931  1.00  0.00    -0.237 OA
ATOM     77  O   UNL A   1      37.476  31.194  40.187  1.00  0.00    -0.744 OA
ENDBRANCH  71  74
ENDBRANCH  43  67
BRANCH  55  78
ATOM     78  C   UNL A   1      44.298  27.983  34.475  1.00  0.00     0.023 A 
ATOM     79  C   UNL A   1      45.535  28.656  34.446  1.00  0.00     0.012 A 
ATOM     80  C   UNL A   1      44.168  26.803  35.235  1.00  0.00     0.148 A 
ATOM     81  C   UNL A   1      46.633  28.149  35.140  1.00  0.00     0.002 A 
ATOM     82  C   UNL A   1      45.252  26.330  35.962  1.00  0.00     0.091 A 
ATOM     83  F   UNL A   1      42.987  26.168  35.233  1.00  0.00    -0.205 F 
ATOM     84  C   UNL A   1      46.489  26.994  35.907  1.00  0.00     0.022 A 
BRANCH  82  85
ATOM     85  S   UNL A   1      45.132  24.906  37.051  1.00  0.00     0.127 S 
ATOM     86  O   UNL A   1      44.210  25.391  38.076  1.00  0.00    -0.237 OA
ATOM     87  O   UNL A   1      44.578  23.882  36.166  1.00  0.00    -0.237 OA
ATOM     88  O   UNL A   1      46.489  24.636  37.507  1.00  0.00    -0.744 OA
ENDBRANCH  82  85
ENDBRANCH  55  78
ENDBRANCH  29  30
ENDBRANCH  21  24
ENDBRANCH  19  20
ENDBRANCH   1  19
TORSDOF 16
ENDMDL
