MODEL 1
REMARK VINA RESULT:     -11.2      0.000      0.000
REMARK SMILES C[C@]1(C(=O)NCc2ccc(C(=O)NCCCNC(=O)c3ccc(-c4c5nc(c(-c6cccc(S(=O)(=O)[O-])c6F)c6ccc([nH]6)c(-c6cccc(S(=O)(=O)[O-])c6F)c6nc(c(-c7cccc(S(=O)(=O)[O-])c7F)c7ccc4[nH]7)C=C6)C=C5)cc3)o2)CCC[NH2+]C1
REMARK SMILES IDX 15 1 14 2 13 3 11 4 12 5 10 7 7 8 8 9 83 10 9 11 6 12 5 13
REMARK SMILES IDX 3 14 4 15 2 17 1 18 84 19 88 20 85 21 87 22 86 23 16 26
REMARK SMILES IDX 17 27 18 28 19 30 20 31 21 32 82 33 22 34 81 35 23 36 24 37
REMARK SMILES IDX 25 38 75 39 26 40 80 41 74 42 76 43 27 44 79 45 73 46 72 47
REMARK SMILES IDX 28 49 60 50 40 51 59 52 41 53 44 54 58 55 77 56 42 57 43 58
REMARK SMILES IDX 57 60 78 61 45 62 29 63 30 64 38 65 31 66 33 67 39 68 32 69
REMARK SMILES IDX 34 70 35 71 36 72 37 73 61 74 62 75 70 76 63 77 65 78 71 79
REMARK SMILES IDX 64 80 66 81 67 82 68 83 69 84 46 85 47 86 55 87 48 88 50 89
REMARK SMILES IDX 56 90 49 91 51 92 52 93 53 94 54 95
REMARK H PARENT 13 6 5 16 87 24 87 25 17 29 76 48 44 59
REMARK Flexibility Score: inf
ROOT
ATOM      1  C   UNL A   1      35.262  33.317  28.049  1.00  0.00     0.042 C 
ENDROOT
BRANCH   1   2
ATOM      2  C   UNL A   1      35.156  34.786  28.454  1.00  0.00     0.118 C 
BRANCH   2   3
ATOM      3  N   UNL A   1      33.823  35.336  28.288  1.00  0.00    -0.349 N 
ATOM      4  C   UNL A   1      33.009  35.975  29.201  1.00  0.00     0.286 C 
ATOM      5  O   UNL A   1      32.053  36.595  28.731  1.00  0.00    -0.266 OA
ATOM      6  H   UNL A   1      33.441  35.239  27.385  1.00  0.00     0.163 HD
BRANCH   4   7
ATOM      7  C   UNL A   1      33.281  35.900  30.625  1.00  0.00     0.191 A 
ATOM      8  C   UNL A   1      33.702  34.803  32.507  1.00  0.00     0.124 A 
ATOM      9  C   UNL A   1      33.834  36.142  32.794  1.00  0.00     0.048 A 
ATOM     10  O   UNL A   1      33.379  34.646  31.190  1.00  0.00    -0.454 OA
ATOM     11  C   UNL A   1      33.539  36.840  31.606  1.00  0.00     0.056 A 
BRANCH   8  12
ATOM     12  C   UNL A   1      33.868  33.564  33.312  1.00  0.00     0.191 C 
BRANCH  12  13
ATOM     13  N   UNL A   1      34.822  33.810  34.379  1.00  0.00    -0.348 N 
ATOM     14  C   UNL A   1      36.091  33.419  34.620  1.00  0.00     0.232 C 
ATOM     15  O   UNL A   1      36.425  33.517  35.813  1.00  0.00    -0.274 OA
ATOM     16  H   UNL A   1      34.461  34.393  35.086  1.00  0.00     0.163 HD
BRANCH  14  17
ATOM     17  C   UNL A   1      37.160  32.993  33.584  1.00  0.00     0.095 C 
ATOM     18  C   UNL A   1      37.577  34.330  32.914  1.00  0.00     0.028 C 
ATOM     19  C   UNL A   1      38.402  32.434  34.329  1.00  0.00     0.028 C 
ATOM     20  C   UNL A   1      36.789  32.024  32.454  1.00  0.00     0.277 C 
ATOM     21  C   UNL A   1      38.233  30.968  34.724  1.00  0.00     0.063 C 
ATOM     22  N   UNL A   1      36.593  30.643  32.897  1.00  0.00    -0.345 N 
ATOM     23  C   UNL A   1      37.787  30.107  33.547  1.00  0.00     0.260 C 
ATOM     24  H   UNL A   1      35.817  30.616  33.559  1.00  0.00     0.346 HD
ATOM     25  H   UNL A   1      36.395  30.072  32.077  1.00  0.00     0.346 HD
ENDBRANCH  14  17
ENDBRANCH  12  13
ENDBRANCH   8  12
ENDBRANCH   4   7
ENDBRANCH   2   3
ENDBRANCH   1   2
BRANCH   1  26
ATOM     26  C   UNL A   1      34.508  32.344  28.947  1.00  0.00     0.118 C 
BRANCH  26  27
ATOM     27  N   UNL A   1      34.006  31.185  28.223  1.00  0.00    -0.352 N 
ATOM     28  C   UNL A   1      34.655  30.063  27.769  1.00  0.00     0.251 C 
ATOM     29  H   UNL A   1      33.041  31.210  28.028  1.00  0.00     0.163 HD
ATOM     30  O   UNL A   1      34.049  29.297  27.020  1.00  0.00    -0.269 OA
BRANCH  28  31
ATOM     31  C   UNL A   1      36.057  29.762  28.146  1.00  0.00     0.039 A 
ATOM     32  C   UNL A   1      36.309  29.255  29.428  1.00  0.00     0.014 A 
ATOM     33  C   UNL A   1      37.128  30.031  27.291  1.00  0.00     0.014 A 
ATOM     34  C   UNL A   1      37.620  28.973  29.827  1.00  0.00     0.010 A 
ATOM     35  C   UNL A   1      38.428  29.687  27.664  1.00  0.00     0.010 A 
ATOM     36  C   UNL A   1      38.690  29.163  28.939  1.00  0.00    -0.014 A 
BRANCH  36  37
ATOM     37  C   UNL A   1      40.084  28.818  29.322  1.00  0.00     0.031 A 
ATOM     38  C   UNL A   1      40.782  27.644  28.688  1.00  0.00     0.074 A 
ATOM     39  C   UNL A   1      40.693  29.507  30.308  1.00  0.00     0.049 A 
ATOM     40  N   UNL A   1      41.966  27.150  28.946  1.00  0.00    -0.248 NA
ATOM     41  C   UNL A   1      40.043  26.914  27.644  1.00  0.00     0.031 C 
ATOM     42  C   UNL A   1      40.100  30.618  31.053  1.00  0.00     0.029 A 
ATOM     43  N   UNL A   1      41.936  29.355  30.872  1.00  0.00    -0.354 N 
ATOM     44  C   UNL A   1      42.099  26.033  28.130  1.00  0.00     0.074 A 
ATOM     45  C   UNL A   1      40.866  25.906  27.384  1.00  0.00     0.031 C 
ATOM     46  C   UNL A   1      40.976  31.045  31.977  1.00  0.00     0.029 A 
ATOM     47  C   UNL A   1      42.183  30.227  31.907  1.00  0.00     0.049 A 
ATOM     48  H   UNL A   1      42.589  28.685  30.565  1.00  0.00     0.167 HD
ATOM     49  C   UNL A   1      43.162  25.204  27.990  1.00  0.00     0.034 A 
ATOM     50  C   UNL A   1      43.257  30.353  32.710  1.00  0.00     0.034 A 
ATOM     51  C   UNL A   1      44.410  25.364  28.686  1.00  0.00     0.049 A 
ATOM     52  C   UNL A   1      44.446  29.457  32.493  1.00  0.00     0.074 A 
ATOM     53  C   UNL A   1      45.576  24.633  28.542  1.00  0.00     0.029 A 
ATOM     54  N   UNL A   1      44.658  26.324  29.654  1.00  0.00    -0.354 N 
ATOM     55  N   UNL A   1      44.611  28.508  31.604  1.00  0.00    -0.248 NA
ATOM     56  C   UNL A   1      45.610  29.672  33.365  1.00  0.00     0.031 C 
ATOM     57  C   UNL A   1      46.529  25.148  29.428  1.00  0.00     0.029 A 
ATOM     58  C   UNL A   1      45.957  26.205  30.119  1.00  0.00     0.049 A 
ATOM     59  H   UNL A   1      44.006  26.993  29.965  1.00  0.00     0.167 HD
ATOM     60  C   UNL A   1      45.905  28.034  31.788  1.00  0.00     0.074 A 
ATOM     61  C   UNL A   1      46.488  28.817  32.858  1.00  0.00     0.031 C 
ATOM     62  C   UNL A   1      46.545  27.029  31.142  1.00  0.00     0.034 A 
BRANCH  49  63
ATOM     63  C   UNL A   1      43.046  24.085  26.988  1.00  0.00     0.023 A 
ATOM     64  C   UNL A   1      43.633  24.239  25.715  1.00  0.00     0.012 A 
ATOM     65  C   UNL A   1      42.417  22.869  27.317  1.00  0.00     0.148 A 
ATOM     66  C   UNL A   1      43.568  23.212  24.774  1.00  0.00     0.002 A 
ATOM     67  C   UNL A   1      42.389  21.835  26.386  1.00  0.00     0.091 A 
ATOM     68  F   UNL A   1      41.844  22.748  28.523  1.00  0.00    -0.205 F 
ATOM     69  C   UNL A   1      42.955  22.010  25.113  1.00  0.00     0.022 A 
BRANCH  67  70
ATOM     70  S   UNL A   1      41.683  20.225  26.756  1.00  0.00     0.127 S 
ATOM     71  O   UNL A   1      41.849  19.530  25.481  1.00  0.00    -0.237 OA
ATOM     72  O   UNL A   1      42.551  19.742  27.831  1.00  0.00    -0.237 OA
ATOM     73  O   UNL A   1      40.307  20.480  27.162  1.00  0.00    -0.744 OA
ENDBRANCH  67  70
ENDBRANCH  49  63
BRANCH  50  74
ATOM     74  C   UNL A   1      43.289  31.431  33.738  1.00  0.00     0.023 A 
ATOM     75  C   UNL A   1      43.833  32.685  33.401  1.00  0.00     0.012 A 
ATOM     76  C   UNL A   1      42.748  31.241  35.025  1.00  0.00     0.148 A 
ATOM     77  C   UNL A   1      43.860  33.723  34.331  1.00  0.00     0.002 A 
ATOM     78  C   UNL A   1      42.730  32.295  35.930  1.00  0.00     0.091 A 
ATOM     79  F   UNL A   1      42.250  30.034  35.335  1.00  0.00    -0.205 F 
ATOM     80  C   UNL A   1      43.298  33.533  35.591  1.00  0.00     0.022 A 
BRANCH  78  81
ATOM     81  S   UNL A   1      41.905  32.172  37.522  1.00  0.00     0.127 S 
ATOM     82  O   UNL A   1      40.551  31.793  37.129  1.00  0.00    -0.237 OA
ATOM     83  O   UNL A   1      42.674  31.117  38.186  1.00  0.00    -0.237 OA
ATOM     84  O   UNL A   1      42.052  33.487  38.133  1.00  0.00    -0.744 OA
ENDBRANCH  78  81
ENDBRANCH  50  74
BRANCH  62  85
ATOM     85  C   UNL A   1      47.960  26.725  31.555  1.00  0.00     0.023 A 
ATOM     86  C   UNL A   1      48.195  25.828  32.616  1.00  0.00     0.012 A 
ATOM     87  C   UNL A   1      49.054  27.264  30.851  1.00  0.00     0.148 A 
ATOM     88  C   UNL A   1      49.496  25.491  32.985  1.00  0.00     0.002 A 
ATOM     89  C   UNL A   1      50.348  26.892  31.198  1.00  0.00     0.091 A 
ATOM     90  F   UNL A   1      48.813  28.134  29.859  1.00  0.00    -0.205 F 
ATOM     91  C   UNL A   1      50.572  26.012  32.269  1.00  0.00     0.022 A 
BRANCH  89  92
ATOM     92  S   UNL A   1      51.782  27.452  30.271  1.00  0.00     0.127 S 
ATOM     93  O   UNL A   1      51.455  27.007  28.918  1.00  0.00    -0.237 OA
ATOM     94  O   UNL A   1      51.738  28.902  30.463  1.00  0.00    -0.237 OA
ATOM     95  O   UNL A   1      52.929  26.801  30.890  1.00  0.00    -0.744 OA
ENDBRANCH  89  92
ENDBRANCH  62  85
ENDBRANCH  36  37
ENDBRANCH  28  31
ENDBRANCH  26  27
ENDBRANCH   1  26
TORSDOF 16
ENDMDL
MODEL 2
REMARK VINA RESULT:     -11.2      0.739      7.598
REMARK SMILES C[C@]1(C(=O)NCc2ccc(C(=O)NCCCNC(=O)c3ccc(-c4c5nc(c(-c6cccc(S(=O)(=O)[O-])c6F)c6ccc([nH]6)c(-c6cccc(S(=O)(=O)[O-])c6F)c6nc(c(-c7cccc(S(=O)(=O)[O-])c7F)c7ccc4[nH]7)C=C6)C=C5)cc3)o2)CCC[NH2+]C1
REMARK SMILES IDX 15 1 14 2 13 3 11 4 12 5 10 7 7 8 8 9 83 10 9 11 6 12 5 13
REMARK SMILES IDX 3 14 4 15 2 17 1 18 84 19 88 20 85 21 87 22 86 23 16 26
REMARK SMILES IDX 17 27 18 28 19 30 20 31 21 32 82 33 22 34 81 35 23 36 24 37
REMARK SMILES IDX 25 38 75 39 26 40 80 41 74 42 76 43 27 44 79 45 73 46 72 47
REMARK SMILES IDX 28 49 60 50 40 51 59 52 41 53 44 54 58 55 77 56 42 57 43 58
REMARK SMILES IDX 57 60 78 61 45 62 29 63 30 64 38 65 31 66 33 67 39 68 32 69
REMARK SMILES IDX 34 70 35 71 36 72 37 73 61 74 62 75 70 76 63 77 65 78 71 79
REMARK SMILES IDX 64 80 66 81 67 82 68 83 69 84 46 85 47 86 55 87 48 88 50 89
REMARK SMILES IDX 56 90 49 91 51 92 52 93 53 94 54 95
REMARK H PARENT 13 6 5 16 87 24 87 25 17 29 76 48 44 59
REMARK Flexibility Score: inf
ROOT
ATOM      1  C   UNL A   1      35.277  33.462  28.080  1.00  0.00     0.042 C 
ENDROOT
BRANCH   1   2
ATOM      2  C   UNL A   1      35.141  34.932  28.470  1.00  0.00     0.118 C 
BRANCH   2   3
ATOM      3  N   UNL A   1      33.792  35.447  28.323  1.00  0.00    -0.349 N 
ATOM      4  C   UNL A   1      32.971  36.055  29.249  1.00  0.00     0.286 C 
ATOM      5  O   UNL A   1      31.993  36.653  28.795  1.00  0.00    -0.266 OA
ATOM      6  H   UNL A   1      33.404  35.349  27.423  1.00  0.00     0.163 HD
BRANCH   4   7
ATOM      7  C   UNL A   1      33.259  35.974  30.670  1.00  0.00     0.191 A 
ATOM      8  C   UNL A   1      33.758  34.875  32.532  1.00  0.00     0.124 A 
ATOM      9  C   UNL A   1      33.816  36.214  32.839  1.00  0.00     0.048 A 
ATOM     10  O   UNL A   1      33.434  34.720  31.215  1.00  0.00    -0.454 OA
ATOM     11  C   UNL A   1      33.471  36.912  31.664  1.00  0.00     0.056 A 
BRANCH   8  12
ATOM     12  C   UNL A   1      34.002  33.636  33.315  1.00  0.00     0.191 C 
BRANCH  12  13
ATOM     13  N   UNL A   1      34.759  33.965  34.511  1.00  0.00    -0.348 N 
ATOM     14  C   UNL A   1      36.012  33.700  34.939  1.00  0.00     0.232 C 
ATOM     15  O   UNL A   1      36.154  33.820  36.166  1.00  0.00    -0.274 OA
ATOM     16  H   UNL A   1      34.242  34.503  35.153  1.00  0.00     0.163 HD
BRANCH  14  17
ATOM     17  C   UNL A   1      37.258  33.392  34.073  1.00  0.00     0.095 C 
ATOM     18  C   UNL A   1      38.449  33.771  34.994  1.00  0.00     0.028 C 
ATOM     19  C   UNL A   1      37.335  31.863  33.811  1.00  0.00     0.028 C 
ATOM     20  C   UNL A   1      37.469  34.128  32.743  1.00  0.00     0.277 C 
ATOM     21  C   UNL A   1      36.446  31.426  32.648  1.00  0.00     0.063 C 
ATOM     22  N   UNL A   1      36.560  33.702  31.679  1.00  0.00    -0.345 N 
ATOM     23  C   UNL A   1      36.680  32.273  31.401  1.00  0.00     0.260 C 
ATOM     24  H   UNL A   1      35.601  33.903  31.964  1.00  0.00     0.346 HD
ATOM     25  H   UNL A   1      36.804  34.212  30.831  1.00  0.00     0.346 HD
ENDBRANCH  14  17
ENDBRANCH  12  13
ENDBRANCH   8  12
ENDBRANCH   4   7
ENDBRANCH   2   3
ENDBRANCH   1   2
BRANCH   1  26
ATOM     26  C   UNL A   1      34.379  32.503  28.853  1.00  0.00     0.118 C 
BRANCH  26  27
ATOM     27  N   UNL A   1      33.868  31.420  28.026  1.00  0.00    -0.352 N 
ATOM     28  C   UNL A   1      34.483  30.284  27.558  1.00  0.00     0.251 C 
ATOM     29  H   UNL A   1      32.926  31.518  27.758  1.00  0.00     0.163 HD
ATOM     30  O   UNL A   1      33.895  29.601  26.721  1.00  0.00    -0.269 OA
BRANCH  28  31
ATOM     31  C   UNL A   1      35.829  29.873  28.025  1.00  0.00     0.039 A 
ATOM     32  C   UNL A   1      35.949  29.309  29.301  1.00  0.00     0.014 A 
ATOM     33  C   UNL A   1      36.977  30.093  27.260  1.00  0.00     0.014 A 
ATOM     34  C   UNL A   1      37.204  28.923  29.784  1.00  0.00     0.010 A 
ATOM     35  C   UNL A   1      38.219  29.646  27.714  1.00  0.00     0.010 A 
ATOM     36  C   UNL A   1      38.348  29.065  28.984  1.00  0.00    -0.014 A 
BRANCH  36  37
ATOM     37  C   UNL A   1      39.683  28.610  29.454  1.00  0.00     0.031 A 
ATOM     38  C   UNL A   1      40.401  29.353  30.550  1.00  0.00     0.074 A 
ATOM     39  C   UNL A   1      40.291  27.580  28.834  1.00  0.00     0.049 A 
ATOM     40  N   UNL A   1      41.596  29.148  31.040  1.00  0.00    -0.248 NA
ATOM     41  C   UNL A   1      39.692  30.491  31.158  1.00  0.00     0.031 C 
ATOM     42  C   UNL A   1      39.736  26.823  27.710  1.00  0.00     0.029 A 
ATOM     43  N   UNL A   1      41.524  27.010  29.040  1.00  0.00    -0.354 N 
ATOM     44  C   UNL A   1      41.800  30.149  31.982  1.00  0.00     0.074 A 
ATOM     45  C   UNL A   1      40.614  30.977  31.979  1.00  0.00     0.031 C 
ATOM     46  C   UNL A   1      40.624  25.892  27.326  1.00  0.00     0.029 A 
ATOM     47  C   UNL A   1      41.819  25.998  28.157  1.00  0.00     0.049 A 
ATOM     48  H   UNL A   1      42.138  27.299  29.753  1.00  0.00     0.167 HD
ATOM     49  C   UNL A   1      42.864  30.345  32.797  1.00  0.00     0.034 A 
ATOM     50  C   UNL A   1      42.927  25.241  28.028  1.00  0.00     0.034 A 
ATOM     51  C   UNL A   1      44.018  29.488  32.844  1.00  0.00     0.049 A 
ATOM     52  C   UNL A   1      44.069  25.443  28.985  1.00  0.00     0.074 A 
ATOM     53  C   UNL A   1      45.103  29.551  33.699  1.00  0.00     0.029 A 
ATOM     54  N   UNL A   1      44.235  28.409  32.001  1.00  0.00    -0.354 N 
ATOM     55  N   UNL A   1      44.174  26.295  29.976  1.00  0.00    -0.248 NA
ATOM     56  C   UNL A   1      45.232  24.556  28.831  1.00  0.00     0.031 C 
ATOM     57  C   UNL A   1      45.980  28.511  33.371  1.00  0.00     0.029 A 
ATOM     58  C   UNL A   1      45.437  27.798  32.314  1.00  0.00     0.049 A 
ATOM     59  H   UNL A   1      43.624  28.120  31.286  1.00  0.00     0.167 HD
ATOM     60  C   UNL A   1      45.396  26.028  30.582  1.00  0.00     0.074 A 
ATOM     61  C   UNL A   1      45.986  24.919  29.861  1.00  0.00     0.031 C 
ATOM     62  C   UNL A   1      45.985  26.657  31.628  1.00  0.00     0.034 A 
BRANCH  49  63
ATOM     63  C   UNL A   1      42.798  31.499  33.764  1.00  0.00     0.023 A 
ATOM     64  C   UNL A   1      43.217  32.776  33.339  1.00  0.00     0.012 A 
ATOM     65  C   UNL A   1      42.273  31.340  35.061  1.00  0.00     0.148 A 
ATOM     66  C   UNL A   1      43.144  33.871  34.199  1.00  0.00     0.002 A 
ATOM     67  C   UNL A   1      42.169  32.444  35.901  1.00  0.00     0.091 A 
ATOM     68  F   UNL A   1      41.902  30.114  35.457  1.00  0.00    -0.205 F 
ATOM     69  C   UNL A   1      42.612  33.707  35.474  1.00  0.00     0.022 A 
BRANCH  67  70
ATOM     70  S   UNL A   1      41.433  32.343  37.537  1.00  0.00     0.127 S 
ATOM     71  O   UNL A   1      41.421  33.747  37.942  1.00  0.00    -0.237 OA
ATOM     72  O   UNL A   1      40.112  31.781  37.251  1.00  0.00    -0.237 OA
ATOM     73  O   UNL A   1      42.304  31.470  38.310  1.00  0.00    -0.744 OA
ENDBRANCH  67  70
ENDBRANCH  49  63
BRANCH  50  74
ATOM     74  C   UNL A   1      42.969  24.162  27.002  1.00  0.00     0.023 A 
ATOM     75  C   UNL A   1      43.727  24.357  25.832  1.00  0.00     0.012 A 
ATOM     76  C   UNL A   1      42.306  22.934  27.194  1.00  0.00     0.148 A 
ATOM     77  C   UNL A   1      43.807  23.360  24.860  1.00  0.00     0.002 A 
ATOM     78  C   UNL A   1      42.432  21.925  26.246  1.00  0.00     0.091 A 
ATOM     79  F   UNL A   1      41.574  22.772  28.306  1.00  0.00    -0.205 F 
ATOM     80  C   UNL A   1      43.169  22.141  25.071  1.00  0.00     0.022 A 
BRANCH  78  81
ATOM     81  S   UNL A   1      41.755  20.281  26.507  1.00  0.00     0.127 S 
ATOM     82  O   UNL A   1      40.321  20.549  26.541  1.00  0.00    -0.237 OA
ATOM     83  O   UNL A   1      42.223  19.563  25.320  1.00  0.00    -0.237 OA
ATOM     84  O   UNL A   1      42.350  19.815  27.754  1.00  0.00    -0.744 OA
ENDBRANCH  78  81
ENDBRANCH  50  74
BRANCH  62  85
ATOM     85  C   UNL A   1      47.330  26.152  32.077  1.00  0.00     0.023 A 
ATOM     86  C   UNL A   1      47.406  25.254  33.161  1.00  0.00     0.012 A 
ATOM     87  C   UNL A   1      48.506  26.502  31.386  1.00  0.00     0.148 A 
ATOM     88  C   UNL A   1      48.634  24.733  33.565  1.00  0.00     0.002 A 
ATOM     89  C   UNL A   1      49.721  25.946  31.768  1.00  0.00     0.091 A 
ATOM     90  F   UNL A   1      48.417  27.375  30.372  1.00  0.00    -0.205 F 
ATOM     91  C   UNL A   1      49.789  25.068  32.862  1.00  0.00     0.022 A 
BRANCH  89  92
ATOM     92  S   UNL A   1      51.240  26.260  30.860  1.00  0.00     0.127 S 
ATOM     93  O   UNL A   1      52.207  25.461  31.610  1.00  0.00    -0.237 OA
ATOM     94  O   UNL A   1      50.926  25.743  29.528  1.00  0.00    -0.237 OA
ATOM     95  O   UNL A   1      51.438  27.702  30.911  1.00  0.00    -0.744 OA
ENDBRANCH  89  92
ENDBRANCH  62  85
ENDBRANCH  36  37
ENDBRANCH  28  31
ENDBRANCH  26  27
ENDBRANCH   1  26
TORSDOF 16
ENDMDL
MODEL 3
REMARK VINA RESULT:     -10.8      4.359      7.845
REMARK SMILES C[C@]1(C(=O)NCc2ccc(C(=O)NCCCNC(=O)c3ccc(-c4c5nc(c(-c6cccc(S(=O)(=O)[O-])c6F)c6ccc([nH]6)c(-c6cccc(S(=O)(=O)[O-])c6F)c6nc(c(-c7cccc(S(=O)(=O)[O-])c7F)c7ccc4[nH]7)C=C6)C=C5)cc3)o2)CCC[NH2+]C1
REMARK SMILES IDX 15 1 14 2 13 3 11 4 12 5 10 7 7 8 8 9 83 10 9 11 6 12 5 13
REMARK SMILES IDX 3 14 4 15 2 17 1 18 84 19 88 20 85 21 87 22 86 23 16 26
REMARK SMILES IDX 17 27 18 28 19 30 20 31 21 32 82 33 22 34 81 35 23 36 24 37
REMARK SMILES IDX 25 38 75 39 26 40 80 41 74 42 76 43 27 44 79 45 73 46 72 47
REMARK SMILES IDX 28 49 60 50 40 51 59 52 41 53 44 54 58 55 77 56 42 57 43 58
REMARK SMILES IDX 57 60 78 61 45 62 29 63 30 64 38 65 31 66 33 67 39 68 32 69
REMARK SMILES IDX 34 70 35 71 36 72 37 73 61 74 62 75 70 76 63 77 65 78 71 79
REMARK SMILES IDX 64 80 66 81 67 82 68 83 69 84 46 85 47 86 55 87 48 88 50 89
REMARK SMILES IDX 56 90 49 91 51 92 52 93 53 94 54 95
REMARK H PARENT 13 6 5 16 87 24 87 25 17 29 76 48 44 59
REMARK Flexibility Score: inf
ROOT
ATOM      1  C   UNL A   1      31.515  32.229  26.849  1.00  0.00     0.042 C 
ENDROOT
BRANCH   1   2
ATOM      2  C   UNL A   1      31.723  30.716  26.885  1.00  0.00     0.118 C 
BRANCH   2   3
ATOM      3  N   UNL A   1      33.010  30.323  27.430  1.00  0.00    -0.349 N 
ATOM      4  C   UNL A   1      33.784  29.214  27.158  1.00  0.00     0.286 C 
ATOM      5  O   UNL A   1      34.956  29.267  27.537  1.00  0.00    -0.266 OA
ATOM      6  H   UNL A   1      33.389  30.944  28.093  1.00  0.00     0.163 HD
BRANCH   4   7
ATOM      7  C   UNL A   1      33.226  28.063  26.471  1.00  0.00     0.191 A 
ATOM      8  C   UNL A   1      33.300  26.408  24.995  1.00  0.00     0.124 A 
ATOM      9  C   UNL A   1      32.142  26.239  25.718  1.00  0.00     0.048 A 
ATOM     10  O   UNL A   1      33.971  27.505  25.454  1.00  0.00    -0.454 OA
ATOM     11  C   UNL A   1      32.081  27.306  26.636  1.00  0.00     0.056 A 
BRANCH   8  12
ATOM     12  C   UNL A   1      33.938  25.642  23.892  1.00  0.00     0.191 C 
BRANCH  12  13
ATOM     13  N   UNL A   1      33.289  24.348  23.770  1.00  0.00    -0.348 N 
ATOM     14  C   UNL A   1      33.700  23.069  23.906  1.00  0.00     0.232 C 
ATOM     15  O   UNL A   1      32.958  22.245  23.346  1.00  0.00    -0.274 OA
ATOM     16  H   UNL A   1      32.336  24.419  23.536  1.00  0.00     0.163 HD
BRANCH  14  17
ATOM     17  C   UNL A   1      34.885  22.544  24.754  1.00  0.00     0.095 C 
ATOM     18  C   UNL A   1      36.128  22.831  23.869  1.00  0.00     0.028 C 
ATOM     19  C   UNL A   1      35.015  23.404  26.040  1.00  0.00     0.028 C 
ATOM     20  C   UNL A   1      34.949  21.062  25.148  1.00  0.00     0.277 C 
ATOM     21  C   UNL A   1      34.056  22.955  27.141  1.00  0.00     0.063 C 
ATOM     22  N   UNL A   1      33.976  20.678  26.172  1.00  0.00    -0.345 N 
ATOM     23  C   UNL A   1      34.144  21.454  27.398  1.00  0.00     0.260 C 
ATOM     24  H   UNL A   1      33.036  20.834  25.808  1.00  0.00     0.346 HD
ATOM     25  H   UNL A   1      34.125  19.695  26.396  1.00  0.00     0.346 HD
ENDBRANCH  14  17
ENDBRANCH  12  13
ENDBRANCH   8  12
ENDBRANCH   4   7
ENDBRANCH   2   3
ENDBRANCH   1   2
BRANCH   1  26
ATOM     26  C   UNL A   1      32.778  33.059  27.047  1.00  0.00     0.118 C 
BRANCH  26  27
ATOM     27  N   UNL A   1      32.513  34.343  27.679  1.00  0.00    -0.352 N 
ATOM     28  C   UNL A   1      33.058  34.919  28.800  1.00  0.00     0.251 C 
ATOM     29  H   UNL A   1      31.830  34.889  27.227  1.00  0.00     0.163 HD
ATOM     30  O   UNL A   1      32.542  35.943  29.245  1.00  0.00    -0.269 OA
BRANCH  28  31
ATOM     31  C   UNL A   1      34.235  34.335  29.487  1.00  0.00     0.039 A 
ATOM     32  C   UNL A   1      34.032  33.647  30.690  1.00  0.00     0.014 A 
ATOM     33  C   UNL A   1      35.535  34.510  29.007  1.00  0.00     0.014 A 
ATOM     34  C   UNL A   1      35.119  33.094  31.377  1.00  0.00     0.010 A 
ATOM     35  C   UNL A   1      36.611  33.902  29.656  1.00  0.00     0.010 A 
ATOM     36  C   UNL A   1      36.417  33.196  30.853  1.00  0.00    -0.014 A 
BRANCH  36  37
ATOM     37  C   UNL A   1      37.579  32.569  31.536  1.00  0.00     0.031 A 
ATOM     38  C   UNL A   1      38.315  31.423  30.894  1.00  0.00     0.074 A 
ATOM     39  C   UNL A   1      37.918  32.972  32.777  1.00  0.00     0.049 A 
ATOM     40  N   UNL A   1      39.302  30.707  31.369  1.00  0.00    -0.248 NA
ATOM     41  C   UNL A   1      37.867  31.011  29.553  1.00  0.00     0.031 C 
ATOM     42  C   UNL A   1      37.239  34.022  33.539  1.00  0.00     0.029 A 
ATOM     43  N   UNL A   1      38.900  32.527  33.627  1.00  0.00    -0.354 N 
ATOM     44  C   UNL A   1      39.567  29.738  30.408  1.00  0.00     0.074 A 
ATOM     45  C   UNL A   1      38.622  29.942  29.332  1.00  0.00     0.031 C 
ATOM     46  C   UNL A   1      37.823  34.137  34.743  1.00  0.00     0.029 A 
ATOM     47  C   UNL A   1      38.900  33.158  34.849  1.00  0.00     0.049 A 
ATOM     48  H   UNL A   1      39.544  31.822  33.385  1.00  0.00     0.167 HD
ATOM     49  C   UNL A   1      40.529  28.785  30.405  1.00  0.00     0.034 A 
ATOM     50  C   UNL A   1      39.677  32.970  35.933  1.00  0.00     0.034 A 
ATOM     51  C   UNL A   1      41.508  28.619  31.447  1.00  0.00     0.049 A 
ATOM     52  C   UNL A   1      40.776  31.943  35.881  1.00  0.00     0.074 A 
ATOM     53  C   UNL A   1      42.578  27.743  31.491  1.00  0.00     0.029 A 
ATOM     54  N   UNL A   1      41.539  29.347  32.625  1.00  0.00    -0.354 N 
ATOM     55  N   UNL A   1      41.111  31.145  34.896  1.00  0.00    -0.248 NA
ATOM     56  C   UNL A   1      41.626  31.815  37.074  1.00  0.00     0.031 C 
ATOM     57  C   UNL A   1      43.255  27.939  32.700  1.00  0.00     0.029 A 
ATOM     58  C   UNL A   1      42.608  28.941  33.406  1.00  0.00     0.049 A 
ATOM     59  H   UNL A   1      40.895  30.050  32.871  1.00  0.00     0.167 HD
ATOM     60  C   UNL A   1      42.228  30.444  35.337  1.00  0.00     0.074 A 
ATOM     61  C   UNL A   1      42.525  30.928  36.670  1.00  0.00     0.031 C 
ATOM     62  C   UNL A   1      42.929  29.473  34.704  1.00  0.00     0.034 A 
BRANCH  49  63
ATOM     63  C   UNL A   1      40.618  27.886  29.200  1.00  0.00     0.023 A 
ATOM     64  C   UNL A   1      39.770  26.762  29.117  1.00  0.00     0.012 A 
ATOM     65  C   UNL A   1      41.486  28.177  28.130  1.00  0.00     0.148 A 
ATOM     66  C   UNL A   1      39.806  25.925  28.002  1.00  0.00     0.002 A 
ATOM     67  C   UNL A   1      41.490  27.358  27.005  1.00  0.00     0.091 A 
ATOM     68  F   UNL A   1      42.302  29.235  28.236  1.00  0.00    -0.205 F 
ATOM     69  C   UNL A   1      40.658  26.228  26.945  1.00  0.00     0.022 A 
BRANCH  67  70
ATOM     70  S   UNL A   1      42.504  27.707  25.563  1.00  0.00     0.127 S 
ATOM     71  O   UNL A   1      41.911  28.952  25.080  1.00  0.00    -0.237 OA
ATOM     72  O   UNL A   1      43.838  27.855  26.147  1.00  0.00    -0.237 OA
ATOM     73  O   UNL A   1      42.355  26.554  24.686  1.00  0.00    -0.744 OA
ENDBRANCH  67  70
ENDBRANCH  49  63
BRANCH  50  74
ATOM     74  C   UNL A   1      39.497  33.837  37.131  1.00  0.00     0.023 A 
ATOM     75  C   UNL A   1      39.948  35.170  37.086  1.00  0.00     0.012 A 
ATOM     76  C   UNL A   1      38.849  33.370  38.291  1.00  0.00     0.148 A 
ATOM     77  C   UNL A   1      39.777  36.018  38.181  1.00  0.00     0.002 A 
ATOM     78  C   UNL A   1      38.635  34.234  39.359  1.00  0.00     0.091 A 
ATOM     79  F   UNL A   1      38.443  32.092  38.323  1.00  0.00    -0.205 F 
ATOM     80  C   UNL A   1      39.111  35.554  39.313  1.00  0.00     0.022 A 
BRANCH  78  81
ATOM     81  S   UNL A   1      37.667  33.754  40.795  1.00  0.00     0.127 S 
ATOM     82  O   UNL A   1      37.472  35.035  41.467  1.00  0.00    -0.237 OA
ATOM     83  O   UNL A   1      36.465  33.188  40.180  1.00  0.00    -0.237 OA
ATOM     84  O   UNL A   1      38.487  32.777  41.501  1.00  0.00    -0.744 OA
ENDBRANCH  78  81
ENDBRANCH  50  74
BRANCH  62  85
ATOM     85  C   UNL A   1      44.106  28.878  35.430  1.00  0.00     0.023 A 
ATOM     86  C   UNL A   1      45.389  29.431  35.241  1.00  0.00     0.012 A 
ATOM     87  C   UNL A   1      43.936  27.828  36.353  1.00  0.00     0.148 A 
ATOM     88  C   UNL A   1      46.487  28.931  35.939  1.00  0.00     0.002 A 
ATOM     89  C   UNL A   1      45.028  27.361  37.075  1.00  0.00     0.091 A 
ATOM     90  F   UNL A   1      42.713  27.299  36.503  1.00  0.00    -0.205 F 
ATOM     91  C   UNL A   1      46.305  27.906  36.865  1.00  0.00     0.022 A 
BRANCH  89  92
ATOM     92  S   UNL A   1      44.862  26.104  38.348  1.00  0.00     0.127 S 
ATOM     93  O   UNL A   1      46.253  25.889  38.741  1.00  0.00    -0.237 OA
ATOM     94  O   UNL A   1      44.041  26.778  39.355  1.00  0.00    -0.237 OA
ATOM     95  O   UNL A   1      44.206  24.974  37.702  1.00  0.00    -0.744 OA
ENDBRANCH  89  92
ENDBRANCH  62  85
ENDBRANCH  36  37
ENDBRANCH  28  31
ENDBRANCH  26  27
ENDBRANCH   1  26
TORSDOF 16
ENDMDL
