MODEL 1
REMARK VINA RESULT:     -11.1      0.000      0.000
REMARK SMILES CSCCC(=O)N1[C@H](C)CCC[C@@H]1C(=O)NCCCNC(=O)c1ccc(-c2c3nc(c(-c4cccc(S(=O)(=O)[O-])c4F)c4ccc([nH]4)c(-c4cccc(S(=O)(=O)[O-])c4F)c4nc(c(-c5cccc(S(=O)(=O)[O-])c5F)c5ccc2[nH]5)C=C4)C=C3)cc1
REMARK SMILES IDX 17 1 16 2 14 3 15 4 13 6 7 7 8 8 9 9 10 10 12 11 11 12 5 13
REMARK SMILES IDX 6 14 4 15 3 16 2 17 1 18 18 19 19 20 20 21 21 22 22 24 23 25
REMARK SMILES IDX 24 26 85 27 25 28 84 29 26 30 27 31 28 32 78 33 29 34 83 35
REMARK SMILES IDX 77 36 79 37 30 38 82 39 76 40 75 41 31 43 63 44 43 45 62 46
REMARK SMILES IDX 44 47 47 48 61 49 80 50 45 51 46 52 60 54 81 55 48 56 32 57
REMARK SMILES IDX 33 58 41 59 34 60 36 61 42 62 35 63 37 64 38 65 39 66 40 67
REMARK SMILES IDX 64 68 65 69 73 70 66 71 68 72 74 73 67 74 69 75 70 76 71 77
REMARK SMILES IDX 72 78 49 79 50 80 58 81 51 82 53 83 59 84 52 85 54 86 55 87
REMARK SMILES IDX 56 88 57 89
REMARK H PARENT 16 5 20 23 79 42 47 53
REMARK Flexibility Score: inf
ROOT
ATOM      1  C   UNL A   1      31.496  29.325  24.425  1.00  0.00     0.117 C 
ENDROOT
BRANCH   1   2
ATOM      2  N   UNL A   1      32.744  29.148  23.712  1.00  0.00    -0.354 N 
ATOM      3  C   UNL A   1      33.391  28.056  23.219  1.00  0.00     0.242 C 
ATOM      4  O   UNL A   1      34.017  28.263  22.169  1.00  0.00    -0.273 OA
ATOM      5  H   UNL A   1      33.224  29.992  23.551  1.00  0.00     0.163 HD
BRANCH   3   6
ATOM      6  C   UNL A   1      33.461  26.646  23.893  1.00  0.00     0.174 C 
ATOM      7  N   UNL A   1      32.469  25.590  23.561  1.00  0.00    -0.328 N 
ATOM      8  C   UNL A   1      31.220  25.578  24.308  1.00  0.00     0.082 C 
ATOM      9  C   UNL A   1      30.038  26.126  23.510  1.00  0.00     0.031 C 
ATOM     10  C   UNL A   1      31.370  26.070  25.754  1.00  0.00     0.025 C 
ATOM     11  C   UNL A   1      33.771  26.724  25.396  1.00  0.00     0.035 C 
ATOM     12  C   UNL A   1      32.802  25.919  26.255  1.00  0.00     0.005 C 
BRANCH   7  13
ATOM     13  C   UNL A   1      32.885  24.428  22.895  1.00  0.00     0.224 C 
ATOM     14  O   UNL A   1      33.617  24.461  21.903  1.00  0.00    -0.275 OA
BRANCH  13  15
ATOM     15  C   UNL A   1      32.389  23.069  23.410  1.00  0.00     0.111 C 
BRANCH  15  16
ATOM     16  C   UNL A   1      33.008  22.583  24.728  1.00  0.00     0.079 C 
BRANCH  16  17
ATOM     17  S   UNL A   1      33.918  20.978  24.609  1.00  0.00    -0.165 SA
ATOM     18  C   UNL A   1      32.563  19.772  24.804  1.00  0.00     0.085 C 
ENDBRANCH  16  17
ENDBRANCH  15  16
ENDBRANCH  13  15
ENDBRANCH   7  13
ENDBRANCH   3   6
ENDBRANCH   1   2
BRANCH   1  19
ATOM     19  C   UNL A   1      31.616  29.524  25.927  1.00  0.00     0.042 C 
BRANCH  19  20
ATOM     20  C   UNL A   1      32.883  30.285  26.305  1.00  0.00     0.118 C 
BRANCH  20  21
ATOM     21  N   UNL A   1      32.716  31.629  26.849  1.00  0.00    -0.352 N 
ATOM     22  C   UNL A   1      33.605  32.363  27.625  1.00  0.00     0.251 C 
ATOM     23  H   UNL A   1      31.863  32.073  26.640  1.00  0.00     0.163 HD
ATOM     24  O   UNL A   1      33.311  33.491  27.974  1.00  0.00    -0.269 OA
BRANCH  22  25
ATOM     25  C   UNL A   1      34.885  31.746  28.073  1.00  0.00     0.039 A 
ATOM     26  C   UNL A   1      36.035  32.538  28.154  1.00  0.00     0.014 A 
ATOM     27  C   UNL A   1      34.946  30.410  28.464  1.00  0.00     0.014 A 
ATOM     28  C   UNL A   1      37.205  32.010  28.716  1.00  0.00     0.010 A 
ATOM     29  C   UNL A   1      36.054  29.935  29.151  1.00  0.00     0.010 A 
ATOM     30  C   UNL A   1      37.208  30.718  29.266  1.00  0.00    -0.014 A 
BRANCH  30  31
ATOM     31  C   UNL A   1      38.400  30.140  29.939  1.00  0.00     0.031 A 
ATOM     32  C   UNL A   1      38.767  30.592  31.332  1.00  0.00     0.074 A 
ATOM     33  C   UNL A   1      39.213  29.304  29.263  1.00  0.00     0.049 A 
ATOM     34  N   UNL A   1      39.810  30.276  32.055  1.00  0.00    -0.248 NA
ATOM     35  C   UNL A   1      37.874  31.571  31.979  1.00  0.00     0.031 C 
ATOM     36  C   UNL A   1      39.036  28.889  27.869  1.00  0.00     0.029 A 
ATOM     37  N   UNL A   1      40.368  28.672  29.650  1.00  0.00    -0.354 N 
ATOM     38  C   UNL A   1      39.724  31.052  33.205  1.00  0.00     0.074 A 
ATOM     39  C   UNL A   1      38.564  31.899  33.060  1.00  0.00     0.031 C 
ATOM     40  C   UNL A   1      40.030  28.052  27.527  1.00  0.00     0.029 A 
ATOM     41  C   UNL A   1      40.927  27.890  28.665  1.00  0.00     0.049 A 
ATOM     42  H   UNL A   1      40.760  28.769  30.547  1.00  0.00     0.167 HD
ATOM     43  C   UNL A   1      40.509  31.030  34.309  1.00  0.00     0.034 A 
ATOM     44  C   UNL A   1      42.033  27.120  28.686  1.00  0.00     0.034 A 
ATOM     45  C   UNL A   1      41.607  30.121  34.484  1.00  0.00     0.049 A 
ATOM     46  C   UNL A   1      42.823  27.025  29.963  1.00  0.00     0.074 A 
ATOM     47  C   UNL A   1      42.394  29.926  35.603  1.00  0.00     0.029 A 
ATOM     48  N   UNL A   1      42.063  29.245  33.511  1.00  0.00    -0.354 N 
ATOM     49  N   UNL A   1      42.622  27.638  31.105  1.00  0.00    -0.248 NA
ATOM     50  C   UNL A   1      43.964  26.098  29.971  1.00  0.00     0.031 C 
ATOM     51  C   UNL A   1      43.336  28.936  35.303  1.00  0.00     0.029 A 
ATOM     52  C   UNL A   1      43.121  28.503  34.003  1.00  0.00     0.049 A 
ATOM     53  H   UNL A   1      41.689  29.163  32.605  1.00  0.00     0.167 HD
ATOM     54  C   UNL A   1      43.589  27.150  31.976  1.00  0.00     0.074 A 
ATOM     55  C   UNL A   1      44.356  26.168  31.237  1.00  0.00     0.031 C 
ATOM     56  C   UNL A   1      43.835  27.494  33.264  1.00  0.00     0.034 A 
BRANCH  43  57
ATOM     57  C   UNL A   1      40.150  31.961  35.440  1.00  0.00     0.023 A 
ATOM     58  C   UNL A   1      40.860  33.170  35.598  1.00  0.00     0.012 A 
ATOM     59  C   UNL A   1      39.095  31.663  36.324  1.00  0.00     0.148 A 
ATOM     60  C   UNL A   1      40.562  34.043  36.642  1.00  0.00     0.002 A 
ATOM     61  C   UNL A   1      38.770  32.563  37.334  1.00  0.00     0.091 A 
ATOM     62  F   UNL A   1      38.444  30.501  36.175  1.00  0.00    -0.205 F 
ATOM     63  C   UNL A   1      39.510  33.744  37.503  1.00  0.00     0.022 A 
BRANCH  61  64
ATOM     64  S   UNL A   1      37.383  32.311  38.447  1.00  0.00     0.127 S 
ATOM     65  O   UNL A   1      37.867  32.948  39.671  1.00  0.00    -0.237 OA
ATOM     66  O   UNL A   1      36.307  33.035  37.767  1.00  0.00    -0.237 OA
ATOM     67  O   UNL A   1      37.189  30.870  38.527  1.00  0.00    -0.744 OA
ENDBRANCH  61  64
ENDBRANCH  43  57
BRANCH  44  68
ATOM     68  C   UNL A   1      42.393  26.299  27.494  1.00  0.00     0.023 A 
ATOM     69  C   UNL A   1      43.173  26.875  26.472  1.00  0.00     0.012 A 
ATOM     70  C   UNL A   1      42.005  24.949  27.380  1.00  0.00     0.148 A 
ATOM     71  C   UNL A   1      43.532  26.135  25.344  1.00  0.00     0.002 A 
ATOM     72  C   UNL A   1      42.412  24.203  26.280  1.00  0.00     0.091 A 
ATOM     73  F   UNL A   1      41.256  24.420  28.356  1.00  0.00    -0.205 F 
ATOM     74  C   UNL A   1      43.161  24.797  25.253  1.00  0.00     0.022 A 
BRANCH  72  75
ATOM     75  S   UNL A   1      42.096  22.439  26.146  1.00  0.00     0.127 S 
ATOM     76  O   UNL A   1      42.805  22.101  24.915  1.00  0.00    -0.237 OA
ATOM     77  O   UNL A   1      42.708  21.925  27.371  1.00  0.00    -0.237 OA
ATOM     78  O   UNL A   1      40.646  22.305  26.103  1.00  0.00    -0.744 OA
ENDBRANCH  72  75
ENDBRANCH  44  68
BRANCH  56  79
ATOM     79  C   UNL A   1      44.962  26.787  33.967  1.00  0.00     0.023 A 
ATOM     80  C   UNL A   1      46.267  27.313  33.896  1.00  0.00     0.012 A 
ATOM     81  C   UNL A   1      44.717  25.644  34.751  1.00  0.00     0.148 A 
ATOM     82  C   UNL A   1      47.319  26.689  34.565  1.00  0.00     0.002 A 
ATOM     83  C   UNL A   1      45.760  25.056  35.455  1.00  0.00     0.091 A 
ATOM     84  F   UNL A   1      43.471  25.147  34.789  1.00  0.00    -0.205 F 
ATOM     85  C   UNL A   1      47.064  25.569  35.354  1.00  0.00     0.022 A 
BRANCH  83  86
ATOM     86  S   UNL A   1      45.499  23.672  36.570  1.00  0.00     0.127 S 
ATOM     87  O   UNL A   1      46.857  23.407  37.041  1.00  0.00    -0.237 OA
ATOM     88  O   UNL A   1      44.606  24.247  37.578  1.00  0.00    -0.237 OA
ATOM     89  O   UNL A   1      44.895  22.621  35.763  1.00  0.00    -0.744 OA
ENDBRANCH  83  86
ENDBRANCH  56  79
ENDBRANCH  30  31
ENDBRANCH  22  25
ENDBRANCH  20  21
ENDBRANCH  19  20
ENDBRANCH   1  19
TORSDOF 17
ENDMDL
MODEL 2
REMARK VINA RESULT:     -11.1      1.597      2.240
REMARK SMILES CSCCC(=O)N1[C@H](C)CCC[C@@H]1C(=O)NCCCNC(=O)c1ccc(-c2c3nc(c(-c4cccc(S(=O)(=O)[O-])c4F)c4ccc([nH]4)c(-c4cccc(S(=O)(=O)[O-])c4F)c4nc(c(-c5cccc(S(=O)(=O)[O-])c5F)c5ccc2[nH]5)C=C4)C=C3)cc1
REMARK SMILES IDX 17 1 16 2 14 3 15 4 13 6 7 7 8 8 9 9 10 10 12 11 11 12 5 13
REMARK SMILES IDX 6 14 4 15 3 16 2 17 1 18 18 19 19 20 20 21 21 22 22 24 23 25
REMARK SMILES IDX 24 26 85 27 25 28 84 29 26 30 27 31 28 32 78 33 29 34 83 35
REMARK SMILES IDX 77 36 79 37 30 38 82 39 76 40 75 41 31 43 63 44 43 45 62 46
REMARK SMILES IDX 44 47 47 48 61 49 80 50 45 51 46 52 60 54 81 55 48 56 32 57
REMARK SMILES IDX 33 58 41 59 34 60 36 61 42 62 35 63 37 64 38 65 39 66 40 67
REMARK SMILES IDX 64 68 65 69 73 70 66 71 68 72 74 73 67 74 69 75 70 76 71 77
REMARK SMILES IDX 72 78 49 79 50 80 58 81 51 82 53 83 59 84 52 85 54 86 55 87
REMARK SMILES IDX 56 88 57 89
REMARK H PARENT 16 5 20 23 79 42 47 53
REMARK Flexibility Score: inf
ROOT
ATOM      1  C   UNL A   1      32.111  27.278  26.469  1.00  0.00     0.117 C 
ENDROOT
BRANCH   1   2
ATOM      2  N   UNL A   1      31.147  26.213  26.653  1.00  0.00    -0.354 N 
ATOM      3  C   UNL A   1      30.998  24.982  26.091  1.00  0.00     0.242 C 
ATOM      4  O   UNL A   1      30.547  24.120  26.861  1.00  0.00    -0.273 OA
ATOM      5  H   UNL A   1      30.457  26.424  27.322  1.00  0.00     0.163 HD
BRANCH   3   6
ATOM      6  C   UNL A   1      31.266  24.614  24.595  1.00  0.00     0.174 C 
ATOM      7  N   UNL A   1      32.579  24.061  24.168  1.00  0.00    -0.328 N 
ATOM      8  C   UNL A   1      33.634  25.007  23.836  1.00  0.00     0.082 C 
ATOM      9  C   UNL A   1      34.695  25.130  24.928  1.00  0.00     0.031 C 
ATOM     10  C   UNL A   1      33.110  26.315  23.226  1.00  0.00     0.025 C 
ATOM     11  C   UNL A   1      30.714  25.664  23.619  1.00  0.00     0.035 C 
ATOM     12  C   UNL A   1      31.738  26.129  22.589  1.00  0.00     0.005 C 
BRANCH   7  13
ATOM     13  C   UNL A   1      32.659  22.744  23.692  1.00  0.00     0.224 C 
ATOM     14  O   UNL A   1      33.146  22.467  22.594  1.00  0.00    -0.275 OA
BRANCH  13  15
ATOM     15  C   UNL A   1      32.100  21.613  24.566  1.00  0.00     0.111 C 
BRANCH  15  16
ATOM     16  C   UNL A   1      32.272  20.190  24.017  1.00  0.00     0.079 C 
BRANCH  16  17
ATOM     17  S   UNL A   1      32.864  18.950  25.253  1.00  0.00    -0.165 SA
ATOM     18  C   UNL A   1      34.383  18.331  24.455  1.00  0.00     0.085 C 
ENDBRANCH  16  17
ENDBRANCH  15  16
ENDBRANCH  13  15
ENDBRANCH   7  13
ENDBRANCH   3   6
ENDBRANCH   1   2
BRANCH   1  19
ATOM     19  C   UNL A   1      31.530  28.663  26.240  1.00  0.00     0.042 C 
BRANCH  19  20
ATOM     20  C   UNL A   1      32.614  29.712  26.021  1.00  0.00     0.118 C 
BRANCH  20  21
ATOM     21  N   UNL A   1      32.334  31.069  26.482  1.00  0.00    -0.352 N 
ATOM     22  C   UNL A   1      33.145  31.912  27.232  1.00  0.00     0.251 C 
ATOM     23  H   UNL A   1      31.455  31.433  26.229  1.00  0.00     0.163 HD
ATOM     24  O   UNL A   1      32.759  33.032  27.508  1.00  0.00    -0.269 OA
BRANCH  22  25
ATOM     25  C   UNL A   1      34.456  31.420  27.741  1.00  0.00     0.039 A 
ATOM     26  C   UNL A   1      35.488  32.337  27.973  1.00  0.00     0.014 A 
ATOM     27  C   UNL A   1      34.658  30.075  28.042  1.00  0.00     0.014 A 
ATOM     28  C   UNL A   1      36.669  31.913  28.593  1.00  0.00     0.010 A 
ATOM     29  C   UNL A   1      35.763  29.685  28.785  1.00  0.00     0.010 A 
ATOM     30  C   UNL A   1      36.796  30.591  29.050  1.00  0.00    -0.014 A 
BRANCH  30  31
ATOM     31  C   UNL A   1      37.998  30.110  29.779  1.00  0.00     0.031 A 
ATOM     32  C   UNL A   1      38.264  30.590  31.186  1.00  0.00     0.074 A 
ATOM     33  C   UNL A   1      38.906  29.342  29.144  1.00  0.00     0.049 A 
ATOM     34  N   UNL A   1      39.295  30.358  31.957  1.00  0.00    -0.248 NA
ATOM     35  C   UNL A   1      37.267  31.494  31.788  1.00  0.00     0.031 C 
ATOM     36  C   UNL A   1      38.826  28.914  27.745  1.00  0.00     0.029 A 
ATOM     37  N   UNL A   1      40.089  28.805  29.585  1.00  0.00    -0.354 N 
ATOM     38  C   UNL A   1      39.095  31.125  33.099  1.00  0.00     0.074 A 
ATOM     39  C   UNL A   1      37.878  31.877  32.897  1.00  0.00     0.031 C 
ATOM     40  C   UNL A   1      39.899  28.159  27.451  1.00  0.00     0.029 A 
ATOM     41  C   UNL A   1      40.753  28.069  28.630  1.00  0.00     0.049 A 
ATOM     42  H   UNL A   1      40.430  28.933  30.499  1.00  0.00     0.167 HD
ATOM     43  C   UNL A   1      39.827  31.166  34.237  1.00  0.00     0.034 A 
ATOM     44  C   UNL A   1      41.915  27.391  28.703  1.00  0.00     0.034 A 
ATOM     45  C   UNL A   1      40.985  30.348  34.465  1.00  0.00     0.049 A 
ATOM     46  C   UNL A   1      42.651  27.359  30.016  1.00  0.00     0.074 A 
ATOM     47  C   UNL A   1      41.734  30.217  35.620  1.00  0.00     0.029 A 
ATOM     48  N   UNL A   1      41.554  29.511  33.518  1.00  0.00    -0.354 N 
ATOM     49  N   UNL A   1      42.350  27.955  31.145  1.00  0.00    -0.248 NA
ATOM     50  C   UNL A   1      43.861  26.527  30.079  1.00  0.00     0.031 C 
ATOM     51  C   UNL A   1      42.765  29.305  35.366  1.00  0.00     0.029 A 
ATOM     52  C   UNL A   1      42.644  28.857  34.060  1.00  0.00     0.049 A 
ATOM     53  H   UNL A   1      41.230  29.400  32.596  1.00  0.00     0.167 HD
ATOM     54  C   UNL A   1      43.311  27.545  32.061  1.00  0.00     0.074 A 
ATOM     55  C   UNL A   1      44.188  26.628  31.361  1.00  0.00     0.031 C 
ATOM     56  C   UNL A   1      43.470  27.907  33.358  1.00  0.00     0.034 A 
BRANCH  43  57
ATOM     57  C   UNL A   1      39.344  32.065  35.347  1.00  0.00     0.023 A 
ATOM     58  C   UNL A   1      38.390  31.582  36.268  1.00  0.00     0.012 A 
ATOM     59  C   UNL A   1      39.853  33.369  35.504  1.00  0.00     0.148 A 
ATOM     60  C   UNL A   1      37.914  32.394  37.295  1.00  0.00     0.002 A 
ATOM     61  C   UNL A   1      39.409  34.156  36.562  1.00  0.00     0.091 A 
ATOM     62  F   UNL A   1      40.742  33.822  34.609  1.00  0.00    -0.205 F 
ATOM     63  C   UNL A   1      38.431  33.677  37.448  1.00  0.00     0.022 A 
BRANCH  61  64
ATOM     64  S   UNL A   1      40.069  35.794  36.895  1.00  0.00     0.127 S 
ATOM     65  O   UNL A   1      41.498  35.514  37.028  1.00  0.00    -0.237 OA
ATOM     66  O   UNL A   1      39.702  36.526  35.682  1.00  0.00    -0.237 OA
ATOM     67  O   UNL A   1      39.406  36.255  38.107  1.00  0.00    -0.744 OA
ENDBRANCH  61  64
ENDBRANCH  43  57
BRANCH  44  68
ATOM     68  C   UNL A   1      42.394  26.601  27.532  1.00  0.00     0.023 A 
ATOM     69  C   UNL A   1      43.211  27.226  26.569  1.00  0.00     0.012 A 
ATOM     70  C   UNL A   1      42.082  25.236  27.383  1.00  0.00     0.148 A 
ATOM     71  C   UNL A   1      43.680  26.517  25.462  1.00  0.00     0.002 A 
ATOM     72  C   UNL A   1      42.597  24.522  26.307  1.00  0.00     0.091 A 
ATOM     73  F   UNL A   1      41.296  24.660  28.303  1.00  0.00    -0.205 F 
ATOM     74  C   UNL A   1      43.382  25.163  25.336  1.00  0.00     0.022 A 
BRANCH  72  75
ATOM     75  S   UNL A   1      42.379  22.746  26.138  1.00  0.00     0.127 S 
ATOM     76  O   UNL A   1      40.925  22.619  26.164  1.00  0.00    -0.237 OA
ATOM     77  O   UNL A   1      42.998  22.485  24.839  1.00  0.00    -0.237 OA
ATOM     78  O   UNL A   1      43.090  22.158  27.266  1.00  0.00    -0.744 OA
ENDBRANCH  72  75
ENDBRANCH  44  68
BRANCH  56  79
ATOM     79  C   UNL A   1      44.617  27.293  34.114  1.00  0.00     0.023 A 
ATOM     80  C   UNL A   1      45.880  27.916  34.092  1.00  0.00     0.012 A 
ATOM     81  C   UNL A   1      44.426  26.140  34.899  1.00  0.00     0.148 A 
ATOM     82  C   UNL A   1      46.947  27.379  34.810  1.00  0.00     0.002 A 
ATOM     83  C   UNL A   1      45.480  25.638  35.652  1.00  0.00     0.091 A 
ATOM     84  F   UNL A   1      43.221  25.551  34.891  1.00  0.00    -0.205 F 
ATOM     85  C   UNL A   1      46.744  26.248  35.599  1.00  0.00     0.022 A 
BRANCH  83  86
ATOM     86  S   UNL A   1      45.277  24.247  36.769  1.00  0.00     0.127 S 
ATOM     87  O   UNL A   1      44.827  23.196  35.859  1.00  0.00    -0.237 OA
ATOM     88  O   UNL A   1      46.633  24.063  37.289  1.00  0.00    -0.237 OA
ATOM     89  O   UNL A   1      44.306  24.678  37.765  1.00  0.00    -0.744 OA
ENDBRANCH  83  86
ENDBRANCH  56  79
ENDBRANCH  30  31
ENDBRANCH  22  25
ENDBRANCH  20  21
ENDBRANCH  19  20
ENDBRANCH   1  19
TORSDOF 17
ENDMDL
MODEL 3
REMARK VINA RESULT:     -10.8      2.277      3.189
REMARK SMILES CSCCC(=O)N1[C@H](C)CCC[C@@H]1C(=O)NCCCNC(=O)c1ccc(-c2c3nc(c(-c4cccc(S(=O)(=O)[O-])c4F)c4ccc([nH]4)c(-c4cccc(S(=O)(=O)[O-])c4F)c4nc(c(-c5cccc(S(=O)(=O)[O-])c5F)c5ccc2[nH]5)C=C4)C=C3)cc1
REMARK SMILES IDX 17 1 16 2 14 3 15 4 13 6 7 7 8 8 9 9 10 10 12 11 11 12 5 13
REMARK SMILES IDX 6 14 4 15 3 16 2 17 1 18 18 19 19 20 20 21 21 22 22 24 23 25
REMARK SMILES IDX 24 26 85 27 25 28 84 29 26 30 27 31 28 32 78 33 29 34 83 35
REMARK SMILES IDX 77 36 79 37 30 38 82 39 76 40 75 41 31 43 63 44 43 45 62 46
REMARK SMILES IDX 44 47 47 48 61 49 80 50 45 51 46 52 60 54 81 55 48 56 32 57
REMARK SMILES IDX 33 58 41 59 34 60 36 61 42 62 35 63 37 64 38 65 39 66 40 67
REMARK SMILES IDX 64 68 65 69 73 70 66 71 68 72 74 73 67 74 69 75 70 76 71 77
REMARK SMILES IDX 72 78 49 79 50 80 58 81 51 82 53 83 59 84 52 85 54 86 55 87
REMARK SMILES IDX 56 88 57 89
REMARK H PARENT 16 5 20 23 79 42 47 53
REMARK Flexibility Score: inf
ROOT
ATOM      1  C   UNL A   1      31.566  27.466  26.578  1.00  0.00     0.117 C 
ENDROOT
BRANCH   1   2
ATOM      2  N   UNL A   1      31.561  26.020  26.497  1.00  0.00    -0.354 N 
ATOM      3  C   UNL A   1      32.500  25.101  26.140  1.00  0.00     0.242 C 
ATOM      4  O   UNL A   1      32.436  24.033  26.767  1.00  0.00    -0.273 OA
ATOM      5  H   UNL A   1      30.699  25.618  26.753  1.00  0.00     0.163 HD
BRANCH   3   6
ATOM      6  C   UNL A   1      33.554  25.260  24.995  1.00  0.00     0.174 C 
ATOM      7  N   UNL A   1      33.183  25.019  23.576  1.00  0.00    -0.328 N 
ATOM      8  C   UNL A   1      33.260  23.653  23.080  1.00  0.00     0.082 C 
ATOM      9  C   UNL A   1      31.893  22.984  22.947  1.00  0.00     0.031 C 
ATOM     10  C   UNL A   1      34.375  22.828  23.738  1.00  0.00     0.025 C 
ATOM     11  C   UNL A   1      34.922  24.666  25.364  1.00  0.00     0.035 C 
ATOM     12  C   UNL A   1      35.475  23.719  24.305  1.00  0.00     0.005 C 
BRANCH   7  13
ATOM     13  C   UNL A   1      33.187  26.084  22.664  1.00  0.00     0.224 C 
ATOM     14  O   UNL A   1      33.807  26.040  21.599  1.00  0.00    -0.275 OA
BRANCH  13  15
ATOM     15  C   UNL A   1      32.407  27.358  23.019  1.00  0.00     0.111 C 
BRANCH  15  16
ATOM     16  C   UNL A   1      31.019  27.497  22.378  1.00  0.00     0.079 C 
BRANCH  16  17
ATOM     17  S   UNL A   1      30.324  29.210  22.403  1.00  0.00    -0.165 SA
ATOM     18  C   UNL A   1      28.588  28.895  22.869  1.00  0.00     0.085 C 
ENDBRANCH  16  17
ENDBRANCH  15  16
ENDBRANCH  13  15
ENDBRANCH   7  13
ENDBRANCH   3   6
ENDBRANCH   1   2
BRANCH   1  19
ATOM     19  C   UNL A   1      32.701  28.077  27.384  1.00  0.00     0.042 C 
BRANCH  19  20
ATOM     20  C   UNL A   1      33.446  29.152  26.600  1.00  0.00     0.118 C 
BRANCH  20  21
ATOM     21  N   UNL A   1      33.443  30.504  27.151  1.00  0.00    -0.352 N 
ATOM     22  C   UNL A   1      34.449  31.151  27.859  1.00  0.00     0.251 C 
ATOM     23  H   UNL A   1      32.621  31.024  27.003  1.00  0.00     0.163 HD
ATOM     24  O   UNL A   1      34.285  32.299  28.226  1.00  0.00    -0.269 OA
BRANCH  22  25
ATOM     25  C   UNL A   1      35.696  30.417  28.214  1.00  0.00     0.039 A 
ATOM     26  C   UNL A   1      36.801  30.492  27.359  1.00  0.00     0.014 A 
ATOM     27  C   UNL A   1      35.802  29.703  29.405  1.00  0.00     0.014 A 
ATOM     28  C   UNL A   1      38.024  29.936  27.753  1.00  0.00     0.010 A 
ATOM     29  C   UNL A   1      37.044  29.283  29.858  1.00  0.00     0.010 A 
ATOM     30  C   UNL A   1      38.168  29.369  29.030  1.00  0.00    -0.014 A 
BRANCH  30  31
ATOM     31  C   UNL A   1      39.463  28.833  29.524  1.00  0.00     0.031 A 
ATOM     32  C   UNL A   1      40.176  29.523  30.661  1.00  0.00     0.074 A 
ATOM     33  C   UNL A   1      40.052  27.805  28.881  1.00  0.00     0.049 A 
ATOM     34  N   UNL A   1      41.350  29.266  31.179  1.00  0.00    -0.248 NA
ATOM     35  C   UNL A   1      39.509  30.692  31.263  1.00  0.00     0.031 C 
ATOM     36  C   UNL A   1      39.524  27.132  27.691  1.00  0.00     0.029 A 
ATOM     37  N   UNL A   1      41.239  27.160  29.123  1.00  0.00    -0.354 N 
ATOM     38  C   UNL A   1      41.578  30.264  32.118  1.00  0.00     0.074 A 
ATOM     39  C   UNL A   1      40.453  31.168  32.058  1.00  0.00     0.031 C 
ATOM     40  C   UNL A   1      40.369  26.154  27.324  1.00  0.00     0.029 A 
ATOM     41  C   UNL A   1      41.509  26.145  28.234  1.00  0.00     0.049 A 
ATOM     42  H   UNL A   1      41.841  27.401  29.863  1.00  0.00     0.167 HD
ATOM     43  C   UNL A   1      42.606  30.395  32.990  1.00  0.00     0.034 A 
ATOM     44  C   UNL A   1      42.554  25.296  28.170  1.00  0.00     0.034 A 
ATOM     45  C   UNL A   1      43.675  29.443  33.106  1.00  0.00     0.049 A 
ATOM     46  C   UNL A   1      43.626  25.390  29.222  1.00  0.00     0.074 A 
ATOM     47  C   UNL A   1      44.702  29.408  34.030  1.00  0.00     0.029 A 
ATOM     48  N   UNL A   1      43.844  28.349  32.272  1.00  0.00    -0.354 N 
ATOM     49  N   UNL A   1      43.734  26.240  30.216  1.00  0.00    -0.248 NA
ATOM     50  C   UNL A   1      44.695  24.383  29.173  1.00  0.00     0.031 C 
ATOM     51  C   UNL A   1      45.501  28.294  33.748  1.00  0.00     0.029 A 
ATOM     52  C   UNL A   1      44.958  27.627  32.660  1.00  0.00     0.049 A 
ATOM     53  H   UNL A   1      43.258  28.119  31.516  1.00  0.00     0.167 HD
ATOM     54  C   UNL A   1      44.862  25.851  30.929  1.00  0.00     0.074 A 
ATOM     55  C   UNL A   1      45.386  24.672  30.269  1.00  0.00     0.031 C 
ATOM     56  C   UNL A   1      45.429  26.426  32.019  1.00  0.00     0.034 A 
BRANCH  43  57
ATOM     57  C   UNL A   1      42.572  31.566  33.940  1.00  0.00     0.023 A 
ATOM     58  C   UNL A   1      43.055  32.822  33.514  1.00  0.00     0.012 A 
ATOM     59  C   UNL A   1      42.035  31.440  35.235  1.00  0.00     0.148 A 
ATOM     60  C   UNL A   1      43.050  33.918  34.373  1.00  0.00     0.002 A 
ATOM     61  C   UNL A   1      41.987  32.551  36.071  1.00  0.00     0.091 A 
ATOM     62  F   UNL A   1      41.600  30.236  35.634  1.00  0.00    -0.205 F 
ATOM     63  C   UNL A   1      42.507  33.785  35.647  1.00  0.00     0.022 A 
BRANCH  61  64
ATOM     64  S   UNL A   1      41.236  32.507  37.702  1.00  0.00     0.127 S 
ATOM     65  O   UNL A   1      42.085  31.535  38.391  1.00  0.00    -0.237 OA
ATOM     66  O   UNL A   1      41.401  33.889  38.154  1.00  0.00    -0.237 OA
ATOM     67  O   UNL A   1      39.855  32.095  37.497  1.00  0.00    -0.744 OA
ENDBRANCH  61  64
ENDBRANCH  43  57
BRANCH  44  68
ATOM     68  C   UNL A   1      42.579  24.219  27.138  1.00  0.00     0.023 A 
ATOM     69  C   UNL A   1      43.302  24.426  25.947  1.00  0.00     0.012 A 
ATOM     70  C   UNL A   1      41.929  22.986  27.341  1.00  0.00     0.148 A 
ATOM     71  C   UNL A   1      43.350  23.439  24.961  1.00  0.00     0.002 A 
ATOM     72  C   UNL A   1      42.027  21.987  26.378  1.00  0.00     0.091 A 
ATOM     73  F   UNL A   1      41.239  22.810  28.475  1.00  0.00    -0.205 F 
ATOM     74  C   UNL A   1      42.722  22.216  25.181  1.00  0.00     0.022 A 
BRANCH  72  75
ATOM     75  S   UNL A   1      41.366  20.336  26.636  1.00  0.00     0.127 S 
ATOM     76  O   UNL A   1      42.010  19.948  27.887  1.00  0.00    -0.237 OA
ATOM     77  O   UNL A   1      39.929  20.595  26.737  1.00  0.00    -0.237 OA
ATOM     78  O   UNL A   1      41.752  19.573  25.457  1.00  0.00    -0.744 OA
ENDBRANCH  72  75
ENDBRANCH  44  68
BRANCH  56  79
ATOM     79  C   UNL A   1      46.662  25.776  32.583  1.00  0.00     0.023 A 
ATOM     80  C   UNL A   1      47.934  26.188  32.139  1.00  0.00     0.012 A 
ATOM     81  C   UNL A   1      46.564  24.808  33.600  1.00  0.00     0.148 A 
ATOM     82  C   UNL A   1      49.089  25.619  32.671  1.00  0.00     0.002 A 
ATOM     83  C   UNL A   1      47.720  24.280  34.162  1.00  0.00     0.091 A 
ATOM     84  F   UNL A   1      45.344  24.414  33.996  1.00  0.00    -0.205 F 
ATOM     85  C   UNL A   1      48.982  24.675  33.691  1.00  0.00     0.022 A 
BRANCH  83  86
ATOM     86  S   UNL A   1      47.672  23.135  35.545  1.00  0.00     0.127 S 
ATOM     87  O   UNL A   1      46.274  23.227  35.960  1.00  0.00    -0.237 OA
ATOM     88  O   UNL A   1      48.038  21.867  34.914  1.00  0.00    -0.237 OA
ATOM     89  O   UNL A   1      48.649  23.632  36.504  1.00  0.00    -0.744 OA
ENDBRANCH  83  86
ENDBRANCH  56  79
ENDBRANCH  30  31
ENDBRANCH  22  25
ENDBRANCH  20  21
ENDBRANCH  19  20
ENDBRANCH   1  19
TORSDOF 17
ENDMDL
