MODEL 1
REMARK VINA RESULT:     -12.3      0.000      0.000
REMARK SMILES CS(=O)(=O)c1ccc(/C=C(/C(=O)NCCCNC(=O)c2ccc(-c3c4nc(c(-c5cccc(S(=O)(=O)[O-])c5F)c5ccc([nH]5)c(-c5cccc(S(=O)(=O)[O-])c5F)c5nc(c(-c6cccc(S(=O)(=O)[O-])c6F)c6ccc3[nH]6)C=C5)C=C4)cc2)c2ccc(O)cc2)cc1
REMARK SMILES IDX 15 1 14 2 13 3 11 4 12 5 10 7 9 8 8 9 5 10 6 11 91 12 7 13
REMARK SMILES IDX 90 14 2 15 1 16 3 17 4 18 83 19 84 20 89 21 85 22 88 23
REMARK SMILES IDX 86 24 87 25 16 27 17 28 18 29 19 31 20 32 21 33 82 34 22 35
REMARK SMILES IDX 81 36 23 37 24 38 25 39 75 40 26 41 80 42 74 43 76 44 27 45
REMARK SMILES IDX 79 46 73 47 72 48 28 50 60 51 40 52 59 53 41 54 44 55 58 56
REMARK SMILES IDX 77 57 42 58 43 59 57 61 78 62 45 63 29 64 30 65 38 66 31 67
REMARK SMILES IDX 33 68 39 69 32 70 34 71 35 72 36 73 37 74 61 75 62 76 70 77
REMARK SMILES IDX 63 78 65 79 71 80 64 81 66 82 67 83 68 84 69 85 46 86 47 87
REMARK SMILES IDX 55 88 48 89 50 90 56 91 49 92 51 93 52 94 53 95 54 96
REMARK H PARENT 13 6 87 26 17 30 76 49 44 60
REMARK Flexibility Score: inf
ROOT
ATOM      1  C   UNL A   1      33.081  27.986  26.914  1.00  0.00     0.042 C 
ENDROOT
BRANCH   1   2
ATOM      2  C   UNL A   1      32.640  26.785  26.075  1.00  0.00     0.118 C 
BRANCH   2   3
ATOM      3  N   UNL A   1      33.000  26.957  24.679  1.00  0.00    -0.352 N 
ATOM      4  C   UNL A   1      33.432  26.122  23.698  1.00  0.00     0.251 C 
ATOM      5  O   UNL A   1      33.614  26.641  22.594  1.00  0.00    -0.269 OA
ATOM      6  H   UNL A   1      32.911  27.890  24.375  1.00  0.00     0.163 HD
BRANCH   4   7
ATOM      7  C   UNL A   1      33.602  24.630  23.875  1.00  0.00     0.047 C 
ATOM      8  C   UNL A   1      32.545  23.785  23.900  1.00  0.00     0.022 C 
BRANCH   8   9
ATOM      9  C   UNL A   1      32.522  22.305  23.977  1.00  0.00    -0.025 A 
ATOM     10  C   UNL A   1      32.576  19.498  23.936  1.00  0.00     0.067 A 
ATOM     11  C   UNL A   1      32.737  20.178  25.143  1.00  0.00     0.021 A 
ATOM     12  C   UNL A   1      32.320  20.199  22.758  1.00  0.00     0.021 A 
ATOM     13  C   UNL A   1      32.690  21.577  25.160  1.00  0.00     0.009 A 
ATOM     14  C   UNL A   1      32.298  21.597  22.784  1.00  0.00     0.009 A 
BRANCH  10  15
ATOM     15  S   UNL A   1      32.673  17.724  23.912  1.00  0.00     0.175 S 
ATOM     16  C   UNL A   1      34.368  17.406  24.332  1.00  0.00     0.163 C 
ATOM     17  O   UNL A   1      32.472  17.278  22.550  1.00  0.00    -0.224 OA
ATOM     18  O   UNL A   1      31.848  17.223  24.999  1.00  0.00    -0.224 OA
ENDBRANCH  10  15
ENDBRANCH   8   9
BRANCH   7  19
ATOM     19  C   UNL A   1      34.966  24.145  24.211  1.00  0.00    -0.013 A 
ATOM     20  C   UNL A   1      35.475  24.406  25.496  1.00  0.00     0.013 A 
ATOM     21  C   UNL A   1      35.722  23.361  23.329  1.00  0.00     0.013 A 
ATOM     22  C   UNL A   1      36.690  23.861  25.907  1.00  0.00     0.047 A 
ATOM     23  C   UNL A   1      36.934  22.801  23.748  1.00  0.00     0.047 A 
ATOM     24  C   UNL A   1      37.398  23.044  25.040  1.00  0.00     0.115 A 
BRANCH  24  25
ATOM     25  O   UNL A   1      38.548  22.477  25.502  1.00  0.00    -0.508 OA
ATOM     26  H   UNL A   1      39.363  22.932  25.414  1.00  0.00     0.293 HD
ENDBRANCH  24  25
ENDBRANCH   7  19
ENDBRANCH   4   7
ENDBRANCH   2   3
ENDBRANCH   1   2
BRANCH   1  27
ATOM     27  C   UNL A   1      33.950  28.991  26.154  1.00  0.00     0.118 C 
BRANCH  27  28
ATOM     28  N   UNL A   1      33.834  30.340  26.690  1.00  0.00    -0.352 N 
ATOM     29  C   UNL A   1      34.579  30.977  27.651  1.00  0.00     0.251 C 
ATOM     30  H   UNL A   1      33.106  30.879  26.302  1.00  0.00     0.163 HD
ATOM     31  O   UNL A   1      34.180  32.048  28.104  1.00  0.00    -0.269 OA
BRANCH  29  32
ATOM     32  C   UNL A   1      35.845  30.392  28.148  1.00  0.00     0.039 A 
ATOM     33  C   UNL A   1      36.990  30.487  27.349  1.00  0.00     0.014 A 
ATOM     34  C   UNL A   1      35.900  29.702  29.363  1.00  0.00     0.014 A 
ATOM     35  C   UNL A   1      38.197  29.938  27.791  1.00  0.00     0.010 A 
ATOM     36  C   UNL A   1      37.118  29.207  29.828  1.00  0.00     0.010 A 
ATOM     37  C   UNL A   1      38.277  29.313  29.046  1.00  0.00    -0.014 A 
BRANCH  37  38
ATOM     38  C   UNL A   1      39.564  28.778  29.561  1.00  0.00     0.031 A 
ATOM     39  C   UNL A   1      40.290  29.480  30.679  1.00  0.00     0.074 A 
ATOM     40  C   UNL A   1      40.128  27.713  28.960  1.00  0.00     0.049 A 
ATOM     41  N   UNL A   1      41.453  29.201  31.210  1.00  0.00    -0.248 NA
ATOM     42  C   UNL A   1      39.635  30.664  31.259  1.00  0.00     0.031 C 
ATOM     43  C   UNL A   1      39.565  26.992  27.817  1.00  0.00     0.029 A 
ATOM     44  N   UNL A   1      41.316  27.069  29.205  1.00  0.00    -0.354 N 
ATOM     45  C   UNL A   1      41.687  30.193  32.155  1.00  0.00     0.074 A 
ATOM     46  C   UNL A   1      40.557  31.095  32.108  1.00  0.00     0.031 C 
ATOM     47  C   UNL A   1      40.406  26.010  27.457  1.00  0.00     0.029 A 
ATOM     48  C   UNL A   1      41.579  26.044  28.326  1.00  0.00     0.049 A 
ATOM     49  H   UNL A   1      41.921  27.316  29.940  1.00  0.00     0.167 HD
ATOM     50  C   UNL A   1      42.735  30.325  33.005  1.00  0.00     0.034 A 
ATOM     51  C   UNL A   1      42.646  25.226  28.226  1.00  0.00     0.034 A 
ATOM     52  C   UNL A   1      43.829  29.397  33.089  1.00  0.00     0.049 A 
ATOM     53  C   UNL A   1      43.767  25.360  29.220  1.00  0.00     0.074 A 
ATOM     54  C   UNL A   1      44.888  29.392  33.980  1.00  0.00     0.029 A 
ATOM     55  N   UNL A   1      44.010  28.309  32.249  1.00  0.00    -0.354 N 
ATOM     56  N   UNL A   1      43.890  26.204  30.215  1.00  0.00    -0.248 NA
ATOM     57  C   UNL A   1      44.877  24.402  29.104  1.00  0.00     0.031 C 
ATOM     58  C   UNL A   1      45.713  28.305  33.674  1.00  0.00     0.029 A 
ATOM     59  C   UNL A   1      45.162  27.626  32.599  1.00  0.00     0.049 A 
ATOM     60  H   UNL A   1      43.406  28.058  31.513  1.00  0.00     0.167 HD
ATOM     61  C   UNL A   1      45.072  25.862  30.862  1.00  0.00     0.074 A 
ATOM     62  C   UNL A   1      45.616  24.718  30.159  1.00  0.00     0.031 C 
ATOM     63  C   UNL A   1      45.662  26.452  31.930  1.00  0.00     0.034 A 
BRANCH  50  64
ATOM     64  C   UNL A   1      42.714  31.487  33.965  1.00  0.00     0.023 A 
ATOM     65  C   UNL A   1      43.290  32.714  33.576  1.00  0.00     0.012 A 
ATOM     66  C   UNL A   1      42.076  31.389  35.217  1.00  0.00     0.148 A 
ATOM     67  C   UNL A   1      43.260  33.815  34.429  1.00  0.00     0.002 A 
ATOM     68  C   UNL A   1      42.016  32.505  36.046  1.00  0.00     0.091 A 
ATOM     69  F   UNL A   1      41.553  30.209  35.580  1.00  0.00    -0.205 F 
ATOM     70  C   UNL A   1      42.615  33.714  35.659  1.00  0.00     0.022 A 
BRANCH  68  71
ATOM     71  S   UNL A   1      41.143  32.494  37.618  1.00  0.00     0.127 S 
ATOM     72  O   UNL A   1      41.998  31.626  38.424  1.00  0.00    -0.237 OA
ATOM     73  O   UNL A   1      41.176  33.907  38.000  1.00  0.00    -0.237 OA
ATOM     74  O   UNL A   1      39.812  31.977  37.331  1.00  0.00    -0.744 OA
ENDBRANCH  68  71
ENDBRANCH  50  64
BRANCH  51  75
ATOM     75  C   UNL A   1      42.664  24.156  27.189  1.00  0.00     0.023 A 
ATOM     76  C   UNL A   1      43.373  24.373  25.991  1.00  0.00     0.012 A 
ATOM     77  C   UNL A   1      42.025  22.919  27.395  1.00  0.00     0.148 A 
ATOM     78  C   UNL A   1      43.423  23.387  25.006  1.00  0.00     0.002 A 
ATOM     79  C   UNL A   1      42.125  21.921  26.433  1.00  0.00     0.091 A 
ATOM     80  F   UNL A   1      41.343  22.738  28.535  1.00  0.00    -0.205 F 
ATOM     81  C   UNL A   1      42.810  22.157  25.231  1.00  0.00     0.022 A 
BRANCH  79  82
ATOM     82  S   UNL A   1      41.481  20.265  26.702  1.00  0.00     0.127 S 
ATOM     83  O   UNL A   1      42.324  19.789  27.795  1.00  0.00    -0.237 OA
ATOM     84  O   UNL A   1      40.089  20.535  27.068  1.00  0.00    -0.237 OA
ATOM     85  O   UNL A   1      41.638  19.577  25.427  1.00  0.00    -0.744 OA
ENDBRANCH  79  82
ENDBRANCH  51  75
BRANCH  63  86
ATOM     86  C   UNL A   1      46.953  25.862  32.431  1.00  0.00     0.023 A 
ATOM     87  C   UNL A   1      48.179  26.340  31.927  1.00  0.00     0.012 A 
ATOM     88  C   UNL A   1      46.956  24.893  33.453  1.00  0.00     0.148 A 
ATOM     89  C   UNL A   1      49.387  25.843  32.414  1.00  0.00     0.002 A 
ATOM     90  C   UNL A   1      48.164  24.434  33.964  1.00  0.00     0.091 A 
ATOM     91  F   UNL A   1      45.779  24.434  33.905  1.00  0.00    -0.205 F 
ATOM     92  C   UNL A   1      49.380  24.900  33.439  1.00  0.00     0.022 A 
BRANCH  90  93
ATOM     93  S   UNL A   1      48.246  23.289  35.347  1.00  0.00     0.127 S 
ATOM     94  O   UNL A   1      49.689  23.150  35.534  1.00  0.00    -0.237 OA
ATOM     95  O   UNL A   1      47.562  24.029  36.408  1.00  0.00    -0.237 OA
ATOM     96  O   UNL A   1      47.550  22.086  34.909  1.00  0.00    -0.744 OA
ENDBRANCH  90  93
ENDBRANCH  63  86
ENDBRANCH  37  38
ENDBRANCH  29  32
ENDBRANCH  27  28
ENDBRANCH   1  27
TORSDOF 17
ENDMDL
MODEL 2
REMARK VINA RESULT:     -12.2      4.971      9.893
REMARK SMILES CS(=O)(=O)c1ccc(/C=C(/C(=O)NCCCNC(=O)c2ccc(-c3c4nc(c(-c5cccc(S(=O)(=O)[O-])c5F)c5ccc([nH]5)c(-c5cccc(S(=O)(=O)[O-])c5F)c5nc(c(-c6cccc(S(=O)(=O)[O-])c6F)c6ccc3[nH]6)C=C5)C=C4)cc2)c2ccc(O)cc2)cc1
REMARK SMILES IDX 15 1 14 2 13 3 11 4 12 5 10 7 9 8 8 9 5 10 6 11 91 12 7 13
REMARK SMILES IDX 90 14 2 15 1 16 3 17 4 18 83 19 84 20 89 21 85 22 88 23
REMARK SMILES IDX 86 24 87 25 16 27 17 28 18 29 19 31 20 32 21 33 82 34 22 35
REMARK SMILES IDX 81 36 23 37 24 38 25 39 75 40 26 41 80 42 74 43 76 44 27 45
REMARK SMILES IDX 79 46 73 47 72 48 28 50 60 51 40 52 59 53 41 54 44 55 58 56
REMARK SMILES IDX 77 57 42 58 43 59 57 61 78 62 45 63 29 64 30 65 38 66 31 67
REMARK SMILES IDX 33 68 39 69 32 70 34 71 35 72 36 73 37 74 61 75 62 76 70 77
REMARK SMILES IDX 63 78 65 79 71 80 64 81 66 82 67 83 68 84 69 85 46 86 47 87
REMARK SMILES IDX 55 88 48 89 50 90 56 91 49 92 51 93 52 94 53 95 54 96
REMARK H PARENT 13 6 87 26 17 30 76 49 44 60
REMARK Flexibility Score: inf
ROOT
ATOM      1  C   UNL A   1      36.388  23.610  24.294  1.00  0.00     0.042 C 
ENDROOT
BRANCH   1   2
ATOM      2  C   UNL A   1      34.922  23.952  24.021  1.00  0.00     0.118 C 
BRANCH   2   3
ATOM      3  N   UNL A   1      34.064  23.482  25.094  1.00  0.00    -0.352 N 
ATOM      4  C   UNL A   1      32.948  23.965  25.701  1.00  0.00     0.251 C 
ATOM      5  O   UNL A   1      32.466  23.251  26.583  1.00  0.00    -0.269 OA
ATOM      6  H   UNL A   1      34.357  22.618  25.466  1.00  0.00     0.163 HD
BRANCH   4   7
ATOM      7  C   UNL A   1      32.252  25.244  25.290  1.00  0.00     0.047 C 
ATOM      8  C   UNL A   1      31.509  25.326  24.162  1.00  0.00     0.022 C 
BRANCH   8   9
ATOM      9  C   UNL A   1      30.695  26.453  23.649  1.00  0.00    -0.025 A 
ATOM     10  C   UNL A   1      29.046  28.586  22.860  1.00  0.00     0.067 A 
ATOM     11  C   UNL A   1      30.385  28.560  22.469  1.00  0.00     0.021 A 
ATOM     12  C   UNL A   1      28.502  27.526  23.584  1.00  0.00     0.021 A 
ATOM     13  C   UNL A   1      31.197  27.486  22.848  1.00  0.00     0.009 A 
ATOM     14  C   UNL A   1      29.328  26.468  23.977  1.00  0.00     0.009 A 
BRANCH  10  15
ATOM     15  S   UNL A   1      28.029  29.969  22.407  1.00  0.00     0.175 S 
ATOM     16  C   UNL A   1      28.971  31.365  22.967  1.00  0.00     0.163 C 
ATOM     17  O   UNL A   1      26.817  29.918  23.197  1.00  0.00    -0.224 OA
ATOM     18  O   UNL A   1      27.980  30.024  20.956  1.00  0.00    -0.224 OA
ENDBRANCH  10  15
ENDBRANCH   8   9
BRANCH   7  19
ATOM     19  C   UNL A   1      32.570  26.463  26.077  1.00  0.00    -0.013 A 
ATOM     20  C   UNL A   1      33.812  27.091  25.874  1.00  0.00     0.013 A 
ATOM     21  C   UNL A   1      31.643  27.060  26.943  1.00  0.00     0.013 A 
ATOM     22  C   UNL A   1      34.106  28.309  26.484  1.00  0.00     0.047 A 
ATOM     23  C   UNL A   1      31.934  28.291  27.544  1.00  0.00     0.047 A 
ATOM     24  C   UNL A   1      33.157  28.910  27.296  1.00  0.00     0.115 A 
BRANCH  24  25
ATOM     25  O   UNL A   1      33.457  30.131  27.822  1.00  0.00    -0.508 OA
ATOM     26  H   UNL A   1      33.276  30.310  28.724  1.00  0.00     0.293 HD
ENDBRANCH  24  25
ENDBRANCH   7  19
ENDBRANCH   4   7
ENDBRANCH   2   3
ENDBRANCH   1   2
BRANCH   1  27
ATOM     27  C   UNL A   1      36.721  23.434  25.777  1.00  0.00     0.118 C 
BRANCH  27  28
ATOM     28  N   UNL A   1      37.835  22.519  25.990  1.00  0.00    -0.352 N 
ATOM     29  C   UNL A   1      39.123  22.775  26.389  1.00  0.00     0.251 C 
ATOM     30  H   UNL A   1      37.631  21.571  25.821  1.00  0.00     0.163 HD
ATOM     31  O   UNL A   1      39.963  21.880  26.304  1.00  0.00    -0.269 OA
BRANCH  29  32
ATOM     32  C   UNL A   1      39.513  24.105  26.910  1.00  0.00     0.039 A 
ATOM     33  C   UNL A   1      39.279  24.393  28.259  1.00  0.00     0.014 A 
ATOM     34  C   UNL A   1      40.051  25.086  26.072  1.00  0.00     0.014 A 
ATOM     35  C   UNL A   1      39.630  25.643  28.777  1.00  0.00     0.010 A 
ATOM     36  C   UNL A   1      40.455  26.310  26.603  1.00  0.00     0.010 A 
ATOM     37  C   UNL A   1      40.243  26.605  27.959  1.00  0.00    -0.014 A 
BRANCH  37  38
ATOM     38  C   UNL A   1      40.682  27.916  28.504  1.00  0.00     0.031 A 
ATOM     39  C   UNL A   1      42.146  28.214  28.691  1.00  0.00     0.074 A 
ATOM     40  C   UNL A   1      39.758  28.805  28.918  1.00  0.00     0.049 A 
ATOM     41  N   UNL A   1      42.712  29.271  29.215  1.00  0.00    -0.248 NA
ATOM     42  C   UNL A   1      43.098  27.179  28.256  1.00  0.00     0.031 C 
ATOM     43  C   UNL A   1      38.309  28.603  28.864  1.00  0.00     0.029 A 
ATOM     44  N   UNL A   1      39.899  30.042  29.497  1.00  0.00    -0.354 N 
ATOM     45  C   UNL A   1      44.078  29.013  29.210  1.00  0.00     0.074 A 
ATOM     46  C   UNL A   1      44.255  27.690  28.653  1.00  0.00     0.031 C 
ATOM     47  C   UNL A   1      37.695  29.674  29.391  1.00  0.00     0.029 A 
ATOM     48  C   UNL A   1      38.704  30.629  29.841  1.00  0.00     0.049 A 
ATOM     49  H   UNL A   1      40.772  30.469  29.650  1.00  0.00     0.167 HD
ATOM     50  C   UNL A   1      45.095  29.817  29.606  1.00  0.00     0.034 A 
ATOM     51  C   UNL A   1      38.447  31.800  30.456  1.00  0.00     0.034 A 
ATOM     52  C   UNL A   1      44.920  31.153  30.107  1.00  0.00     0.049 A 
ATOM     53  C   UNL A   1      39.595  32.698  30.832  1.00  0.00     0.074 A 
ATOM     54  C   UNL A   1      45.891  32.080  30.445  1.00  0.00     0.029 A 
ATOM     55  N   UNL A   1      43.695  31.755  30.346  1.00  0.00    -0.354 N 
ATOM     56  N   UNL A   1      40.881  32.505  30.665  1.00  0.00    -0.248 NA
ATOM     57  C   UNL A   1      39.256  33.992  31.443  1.00  0.00     0.031 C 
ATOM     58  C   UNL A   1      45.252  33.240  30.895  1.00  0.00     0.029 A 
ATOM     59  C   UNL A   1      43.882  33.039  30.827  1.00  0.00     0.049 A 
ATOM     60  H   UNL A   1      42.819  31.332  30.193  1.00  0.00     0.167 HD
ATOM     61  C   UNL A   1      41.503  33.662  31.120  1.00  0.00     0.074 A 
ATOM     62  C   UNL A   1      40.450  34.560  31.549  1.00  0.00     0.031 C 
ATOM     63  C   UNL A   1      42.825  33.947  31.194  1.00  0.00     0.034 A 
BRANCH  50  64
ATOM     64  C   UNL A   1      46.499  29.295  29.450  1.00  0.00     0.023 A 
ATOM     65  C   UNL A   1      47.074  28.536  30.492  1.00  0.00     0.012 A 
ATOM     66  C   UNL A   1      47.227  29.497  28.261  1.00  0.00     0.148 A 
ATOM     67  C   UNL A   1      48.360  28.015  30.366  1.00  0.00     0.002 A 
ATOM     68  C   UNL A   1      48.495  28.939  28.128  1.00  0.00     0.091 A 
ATOM     69  F   UNL A   1      46.675  30.239  27.291  1.00  0.00    -0.205 F 
ATOM     70  C   UNL A   1      49.066  28.207  29.181  1.00  0.00     0.022 A 
BRANCH  68  71
ATOM     71  S   UNL A   1      49.453  29.070  26.612  1.00  0.00     0.127 S 
ATOM     72  O   UNL A   1      48.521  28.524  25.627  1.00  0.00    -0.237 OA
ATOM     73  O   UNL A   1      49.674  30.513  26.509  1.00  0.00    -0.237 OA
ATOM     74  O   UNL A   1      50.661  28.288  26.836  1.00  0.00    -0.744 OA
ENDBRANCH  68  71
ENDBRANCH  50  64
BRANCH  51  75
ATOM     75  C   UNL A   1      37.036  32.225  30.681  1.00  0.00     0.023 A 
ATOM     76  C   UNL A   1      36.481  32.105  31.971  1.00  0.00     0.012 A 
ATOM     77  C   UNL A   1      36.261  32.782  29.648  1.00  0.00     0.148 A 
ATOM     78  C   UNL A   1      35.168  32.507  32.219  1.00  0.00     0.002 A 
ATOM     79  C   UNL A   1      34.972  33.231  29.916  1.00  0.00     0.091 A 
ATOM     80  F   UNL A   1      36.803  32.875  28.425  1.00  0.00    -0.205 F 
ATOM     81  C   UNL A   1      34.419  33.081  31.196  1.00  0.00     0.022 A 
BRANCH  79  82
ATOM     82  S   UNL A   1      33.990  34.105  28.691  1.00  0.00     0.127 S 
ATOM     83  O   UNL A   1      34.916  35.144  28.249  1.00  0.00    -0.237 OA
ATOM     84  O   UNL A   1      33.725  33.054  27.707  1.00  0.00    -0.237 OA
ATOM     85  O   UNL A   1      32.805  34.566  29.402  1.00  0.00    -0.744 OA
ENDBRANCH  79  82
ENDBRANCH  51  75
BRANCH  63  86
ATOM     86  C   UNL A   1      43.221  35.296  31.732  1.00  0.00     0.023 A 
ATOM     87  C   UNL A   1      43.392  35.469  33.120  1.00  0.00     0.012 A 
ATOM     88  C   UNL A   1      43.499  36.368  30.861  1.00  0.00     0.148 A 
ATOM     89  C   UNL A   1      43.808  36.697  33.634  1.00  0.00     0.002 A 
ATOM     90  C   UNL A   1      43.955  37.575  31.378  1.00  0.00     0.091 A 
ATOM     91  F   UNL A   1      43.310  36.190  29.545  1.00  0.00    -0.205 F 
ATOM     92  C   UNL A   1      44.100  37.744  32.764  1.00  0.00     0.022 A 
BRANCH  90  93
ATOM     93  S   UNL A   1      44.442  38.946  30.323  1.00  0.00     0.127 S 
ATOM     94  O   UNL A   1      45.465  38.326  29.482  1.00  0.00    -0.237 OA
ATOM     95  O   UNL A   1      43.195  39.267  29.629  1.00  0.00    -0.237 OA
ATOM     96  O   UNL A   1      44.915  39.991  31.222  1.00  0.00    -0.744 OA
ENDBRANCH  90  93
ENDBRANCH  63  86
ENDBRANCH  37  38
ENDBRANCH  29  32
ENDBRANCH  27  28
ENDBRANCH   1  27
TORSDOF 17
ENDMDL
MODEL 3
REMARK VINA RESULT:     -11.6      2.033      7.853
REMARK SMILES CS(=O)(=O)c1ccc(/C=C(/C(=O)NCCCNC(=O)c2ccc(-c3c4nc(c(-c5cccc(S(=O)(=O)[O-])c5F)c5ccc([nH]5)c(-c5cccc(S(=O)(=O)[O-])c5F)c5nc(c(-c6cccc(S(=O)(=O)[O-])c6F)c6ccc3[nH]6)C=C5)C=C4)cc2)c2ccc(O)cc2)cc1
REMARK SMILES IDX 15 1 14 2 13 3 11 4 12 5 10 7 9 8 8 9 5 10 6 11 91 12 7 13
REMARK SMILES IDX 90 14 2 15 1 16 3 17 4 18 83 19 84 20 89 21 85 22 88 23
REMARK SMILES IDX 86 24 87 25 16 27 17 28 18 29 19 31 20 32 21 33 82 34 22 35
REMARK SMILES IDX 81 36 23 37 24 38 25 39 75 40 26 41 80 42 74 43 76 44 27 45
REMARK SMILES IDX 79 46 73 47 72 48 28 50 60 51 40 52 59 53 41 54 44 55 58 56
REMARK SMILES IDX 77 57 42 58 43 59 57 61 78 62 45 63 29 64 30 65 38 66 31 67
REMARK SMILES IDX 33 68 39 69 32 70 34 71 35 72 36 73 37 74 61 75 62 76 70 77
REMARK SMILES IDX 63 78 65 79 71 80 64 81 66 82 67 83 68 84 69 85 46 86 47 87
REMARK SMILES IDX 55 88 48 89 50 90 56 91 49 92 51 93 52 94 53 95 54 96
REMARK H PARENT 13 6 87 26 17 30 76 49 44 60
REMARK Flexibility Score: inf
ROOT
ATOM      1  C   UNL A   1      31.665  27.886  26.340  1.00  0.00     0.042 C 
ENDROOT
BRANCH   1   2
ATOM      2  C   UNL A   1      31.761  26.508  25.681  1.00  0.00     0.118 C 
BRANCH   2   3
ATOM      3  N   UNL A   1      32.058  26.622  24.264  1.00  0.00    -0.352 N 
ATOM      4  C   UNL A   1      32.575  25.781  23.330  1.00  0.00     0.251 C 
ATOM      5  O   UNL A   1      32.656  26.235  22.186  1.00  0.00    -0.269 OA
ATOM      6  H   UNL A   1      31.835  27.508  23.898  1.00  0.00     0.163 HD
BRANCH   4   7
ATOM      7  C   UNL A   1      32.952  24.342  23.607  1.00  0.00     0.047 C 
ATOM      8  C   UNL A   1      32.021  23.368  23.731  1.00  0.00     0.022 C 
BRANCH   8   9
ATOM      9  C   UNL A   1      32.203  21.909  23.914  1.00  0.00    -0.025 A 
ATOM     10  C   UNL A   1      32.656  19.142  24.081  1.00  0.00     0.067 A 
ATOM     11  C   UNL A   1      32.639  19.914  25.242  1.00  0.00     0.021 A 
ATOM     12  C   UNL A   1      32.382  19.721  22.843  1.00  0.00     0.021 A 
ATOM     13  C   UNL A   1      32.393  21.289  25.155  1.00  0.00     0.009 A 
ATOM     14  C   UNL A   1      32.161  21.100  22.765  1.00  0.00     0.009 A 
BRANCH  10  15
ATOM     15  S   UNL A   1      33.004  17.404  24.192  1.00  0.00     0.175 S 
ATOM     16  C   UNL A   1      34.687  17.363  24.754  1.00  0.00     0.163 C 
ATOM     17  O   UNL A   1      32.979  16.851  22.855  1.00  0.00    -0.224 OA
ATOM     18  O   UNL A   1      32.173  16.855  25.250  1.00  0.00    -0.224 OA
ENDBRANCH  10  15
ENDBRANCH   8   9
BRANCH   7  19
ATOM     19  C   UNL A   1      34.378  24.072  23.926  1.00  0.00    -0.013 A 
ATOM     20  C   UNL A   1      34.859  24.420  25.201  1.00  0.00     0.013 A 
ATOM     21  C   UNL A   1      35.231  23.401  23.039  1.00  0.00     0.013 A 
ATOM     22  C   UNL A   1      36.148  24.068  25.599  1.00  0.00     0.047 A 
ATOM     23  C   UNL A   1      36.520  23.035  23.445  1.00  0.00     0.047 A 
ATOM     24  C   UNL A   1      36.960  23.358  24.727  1.00  0.00     0.115 A 
BRANCH  24  25
ATOM     25  O   UNL A   1      38.188  22.976  25.177  1.00  0.00    -0.508 OA
ATOM     26  H   UNL A   1      38.413  23.092  26.080  1.00  0.00     0.293 HD
ENDBRANCH  24  25
ENDBRANCH   7  19
ENDBRANCH   4   7
ENDBRANCH   2   3
ENDBRANCH   1   2
BRANCH   1  27
ATOM     27  C   UNL A   1      32.756  28.865  25.899  1.00  0.00     0.118 C 
BRANCH  27  28
ATOM     28  N   UNL A   1      32.392  30.252  26.154  1.00  0.00    -0.352 N 
ATOM     29  C   UNL A   1      32.961  31.174  26.997  1.00  0.00     0.251 C 
ATOM     30  H   UNL A   1      31.616  30.578  25.642  1.00  0.00     0.163 HD
ATOM     31  O   UNL A   1      32.367  32.229  27.216  1.00  0.00    -0.269 OA
BRANCH  29  32
ATOM     32  C   UNL A   1      34.267  30.914  27.645  1.00  0.00     0.039 A 
ATOM     33  C   UNL A   1      35.160  31.978  27.806  1.00  0.00     0.014 A 
ATOM     34  C   UNL A   1      34.639  29.626  28.040  1.00  0.00     0.014 A 
ATOM     35  C   UNL A   1      36.404  31.761  28.408  1.00  0.00     0.010 A 
ATOM     36  C   UNL A   1      35.855  29.422  28.693  1.00  0.00     0.010 A 
ATOM     37  C   UNL A   1      36.752  30.485  28.879  1.00  0.00    -0.014 A 
BRANCH  37  38
ATOM     38  C   UNL A   1      38.041  30.245  29.578  1.00  0.00     0.031 A 
ATOM     39  C   UNL A   1      39.090  29.356  28.963  1.00  0.00     0.074 A 
ATOM     40  C   UNL A   1      38.232  30.754  30.811  1.00  0.00     0.049 A 
ATOM     41  N   UNL A   1      40.242  28.978  29.456  1.00  0.00    -0.248 NA
ATOM     42  C   UNL A   1      38.795  28.799  27.633  1.00  0.00     0.031 C 
ATOM     43  C   UNL A   1      37.261  31.566  31.548  1.00  0.00     0.029 A 
ATOM     44  N   UNL A   1      39.292  30.638  31.675  1.00  0.00    -0.354 N 
ATOM     45  C   UNL A   1      40.790  28.110  28.518  1.00  0.00     0.074 A 
ATOM     46  C   UNL A   1      39.834  27.999  27.438  1.00  0.00     0.031 C 
ATOM     47  C   UNL A   1      37.768  31.871  32.753  1.00  0.00     0.029 A 
ATOM     48  C   UNL A   1      39.087  31.259  32.886  1.00  0.00     0.049 A 
ATOM     49  H   UNL A   1      40.120  30.157  31.451  1.00  0.00     0.167 HD
ATOM     50  C   UNL A   1      41.992  27.486  28.541  1.00  0.00     0.034 A 
ATOM     51  C   UNL A   1      39.868  31.324  33.982  1.00  0.00     0.034 A 
ATOM     52  C   UNL A   1      42.964  27.641  29.588  1.00  0.00     0.049 A 
ATOM     53  C   UNL A   1      41.223  30.669  33.955  1.00  0.00     0.074 A 
ATOM     54  C   UNL A   1      44.248  27.127  29.656  1.00  0.00     0.029 A 
ATOM     55  N   UNL A   1      42.762  28.364  30.754  1.00  0.00    -0.354 N 
ATOM     56  N   UNL A   1      41.791  29.990  32.989  1.00  0.00    -0.248 NA
ATOM     57  C   UNL A   1      42.060  30.823  35.155  1.00  0.00     0.031 C 
ATOM     58  C   UNL A   1      44.818  27.532  30.868  1.00  0.00     0.029 A 
ATOM     59  C   UNL A   1      43.894  28.309  31.549  1.00  0.00     0.049 A 
ATOM     60  H   UNL A   1      41.935  28.847  30.982  1.00  0.00     0.167 HD
ATOM     61  C   UNL A   1      43.062  29.663  33.449  1.00  0.00     0.074 A 
ATOM     62  C   UNL A   1      43.188  30.239  34.773  1.00  0.00     0.031 C 
ATOM     63  C   UNL A   1      44.030  28.937  32.838  1.00  0.00     0.034 A 
BRANCH  50  64
ATOM     64  C   UNL A   1      42.354  26.624  27.359  1.00  0.00     0.023 A 
ATOM     65  C   UNL A   1      43.004  27.208  26.252  1.00  0.00     0.012 A 
ATOM     66  C   UNL A   1      42.113  25.235  27.365  1.00  0.00     0.148 A 
ATOM     67  C   UNL A   1      43.379  26.432  25.157  1.00  0.00     0.002 A 
ATOM     68  C   UNL A   1      42.527  24.462  26.285  1.00  0.00     0.091 A 
ATOM     69  F   UNL A   1      41.476  24.700  28.415  1.00  0.00    -0.205 F 
ATOM     70  C   UNL A   1      43.150  25.059  25.177  1.00  0.00     0.022 A 
BRANCH  68  71
ATOM     71  S   UNL A   1      42.342  22.674  26.250  1.00  0.00     0.127 S 
ATOM     72  O   UNL A   1      40.889  22.529  26.216  1.00  0.00    -0.237 OA
ATOM     73  O   UNL A   1      43.021  22.317  25.003  1.00  0.00    -0.237 OA
ATOM     74  O   UNL A   1      42.996  22.183  27.456  1.00  0.00    -0.744 OA
ENDBRANCH  68  71
ENDBRANCH  50  64
BRANCH  51  75
ATOM     75  C   UNL A   1      39.417  32.105  35.168  1.00  0.00     0.023 A 
ATOM     76  C   UNL A   1      38.603  31.481  36.133  1.00  0.00     0.012 A 
ATOM     77  C   UNL A   1      39.820  33.439  35.368  1.00  0.00     0.148 A 
ATOM     78  C   UNL A   1      38.176  32.179  37.262  1.00  0.00     0.002 A 
ATOM     79  C   UNL A   1      39.436  34.111  36.523  1.00  0.00     0.091 A 
ATOM     80  F   UNL A   1      40.583  34.020  34.431  1.00  0.00    -0.205 F 
ATOM     81  C   UNL A   1      38.601  33.489  37.463  1.00  0.00     0.022 A 
BRANCH  79  82
ATOM     82  S   UNL A   1      40.051  35.751  36.924  1.00  0.00     0.127 S 
ATOM     83  O   UNL A   1      41.495  35.536  36.935  1.00  0.00    -0.237 OA
ATOM     84  O   UNL A   1      39.553  36.547  35.800  1.00  0.00    -0.237 OA
ATOM     85  O   UNL A   1      39.446  36.089  38.205  1.00  0.00    -0.744 OA
ENDBRANCH  79  82
ENDBRANCH  51  75
BRANCH  63  86
ATOM     86  C   UNL A   1      45.327  28.740  33.576  1.00  0.00     0.023 A 
ATOM     87  C   UNL A   1      46.363  29.684  33.426  1.00  0.00     0.012 A 
ATOM     88  C   UNL A   1      45.492  27.668  34.474  1.00  0.00     0.148 A 
ATOM     89  C   UNL A   1      47.553  29.549  34.140  1.00  0.00     0.002 A 
ATOM     90  C   UNL A   1      46.664  27.563  35.214  1.00  0.00     0.091 A 
ATOM     91  F   UNL A   1      44.504  26.768  34.586  1.00  0.00    -0.205 F 
ATOM     92  C   UNL A   1      47.698  28.496  35.041  1.00  0.00     0.022 A 
BRANCH  90  93
ATOM     93  S   UNL A   1      46.898  26.293  36.463  1.00  0.00     0.127 S 
ATOM     94  O   UNL A   1      48.188  26.671  37.036  1.00  0.00    -0.237 OA
ATOM     95  O   UNL A   1      45.752  26.507  37.347  1.00  0.00    -0.237 OA
ATOM     96  O   UNL A   1      46.876  25.023  35.748  1.00  0.00    -0.744 OA
ENDBRANCH  90  93
ENDBRANCH  63  86
ENDBRANCH  37  38
ENDBRANCH  29  32
ENDBRANCH  27  28
ENDBRANCH   1  27
TORSDOF 17
ENDMDL
