MODEL 1
REMARK VINA RESULT:     -13.0      0.000      0.000
REMARK SMILES CC1(C)[C@H](C(=O)NCCCNC(=O)c2ccc(-c3c4nc(c(-c5cccc(S(=O)(=O)[O-])c5F)c5ccc([nH]5)c(-c5cccc(S(=O)(=O)[O-])c5F)c5nc(c(-c6cccc(S(=O)(=O)[O-])c6F)c6ccc3[nH]6)C=C5)C=C4)cc2)[C@@H]1C(=O)Nc1ccc(NC(=O)C2CCC2)cc1
REMARK SMILES IDX 8 1 7 2 5 3 6 4 4 6 1 7 2 8 3 9 77 10 78 11 79 12 80 13
REMARK SMILES IDX 81 15 82 16 93 17 83 18 92 19 84 20 85 21 86 22 87 24 88 25
REMARK SMILES IDX 89 26 91 27 90 28 9 29 10 30 11 31 12 32 13 34 14 35 15 36
REMARK SMILES IDX 76 37 16 38 75 39 17 40 18 41 19 42 69 43 20 44 74 45 68 46
REMARK SMILES IDX 70 47 21 48 73 49 67 50 66 51 22 53 54 54 34 55 53 56 35 57
REMARK SMILES IDX 38 58 52 59 71 60 36 61 37 62 51 64 72 65 39 66 23 67 24 68
REMARK SMILES IDX 32 69 25 70 27 71 33 72 26 73 28 74 29 75 30 76 31 77 55 78
REMARK SMILES IDX 56 79 64 80 57 81 59 82 65 83 58 84 60 85 61 86 62 87 63 88
REMARK SMILES IDX 40 89 41 90 49 91 42 92 44 93 50 94 43 95 45 96 46 97 47 98
REMARK SMILES IDX 48 99
REMARK H PARENT 7 5 80 14 85 23 11 33 70 52 38 63
REMARK Flexibility Score: inf
ROOT
ATOM      1  C   UNL A   1      32.215  30.471  26.050  1.00  0.00     0.117 C 
ENDROOT
BRANCH   1   2
ATOM      2  N   UNL A   1      31.195  30.100  25.090  1.00  0.00    -0.356 N 
ATOM      3  C   UNL A   1      30.993  29.063  24.233  1.00  0.00     0.224 C 
ATOM      4  O   UNL A   1      29.939  29.114  23.592  1.00  0.00    -0.275 OA
ATOM      5  H   UNL A   1      30.468  30.763  25.048  1.00  0.00     0.163 HD
BRANCH   3   6
ATOM      6  C   UNL A   1      31.859  27.887  23.980  1.00  0.00     0.098 C 
ATOM      7  C   UNL A   1      33.912  26.719  24.971  1.00  0.00     0.013 C 
ATOM      8  C   UNL A   1      32.414  26.934  25.024  1.00  0.00    -0.011 C 
ATOM      9  C   UNL A   1      31.904  26.974  26.444  1.00  0.00     0.013 C 
ATOM     10  C   UNL A   1      31.579  26.426  23.825  1.00  0.00     0.098 C 
BRANCH  10  11
ATOM     11  C   UNL A   1      30.275  25.740  23.921  1.00  0.00     0.228 C 
ATOM     12  O   UNL A   1      29.234  26.375  23.777  1.00  0.00    -0.274 OA
ATOM     13  N   UNL A   1      30.205  24.397  24.220  1.00  0.00    -0.326 N 
ATOM     14  H   UNL A   1      29.315  24.043  24.448  1.00  0.00     0.169 HD
BRANCH  13  15
ATOM     15  C   UNL A   1      31.260  23.480  24.236  1.00  0.00     0.041 A 
ATOM     16  C   UNL A   1      31.689  23.083  25.493  1.00  0.00     0.028 A 
ATOM     17  C   UNL A   1      31.796  22.870  23.105  1.00  0.00     0.028 A 
ATOM     18  C   UNL A   1      32.448  21.931  25.617  1.00  0.00     0.028 A 
ATOM     19  C   UNL A   1      32.748  21.847  23.257  1.00  0.00     0.028 A 
ATOM     20  C   UNL A   1      33.080  21.367  24.532  1.00  0.00     0.041 A 
BRANCH  20  21
ATOM     21  N   UNL A   1      34.031  20.349  24.652  1.00  0.00    -0.326 N 
ATOM     22  C   UNL A   1      35.390  20.327  24.902  1.00  0.00     0.227 C 
ATOM     23  H   UNL A   1      33.647  19.450  24.532  1.00  0.00     0.169 HD
ATOM     24  O   UNL A   1      35.879  19.179  24.916  1.00  0.00    -0.274 OA
BRANCH  22  25
ATOM     25  C   UNL A   1      36.303  21.560  25.148  1.00  0.00     0.079 C 
ATOM     26  C   UNL A   1      36.443  22.490  23.886  1.00  0.00     0.013 C 
ATOM     27  C   UNL A   1      35.906  22.882  25.882  1.00  0.00     0.013 C 
ATOM     28  C   UNL A   1      36.723  23.653  24.842  1.00  0.00     0.002 C 
ENDBRANCH  22  25
ENDBRANCH  20  21
ENDBRANCH  13  15
ENDBRANCH  10  11
ENDBRANCH   3   6
ENDBRANCH   1   2
BRANCH   1  29
ATOM     29  C   UNL A   1      31.791  31.657  26.896  1.00  0.00     0.042 C 
BRANCH  29  30
ATOM     30  C   UNL A   1      32.975  32.483  27.386  1.00  0.00     0.118 C 
BRANCH  30  31
ATOM     31  N   UNL A   1      32.636  33.888  27.607  1.00  0.00    -0.352 N 
ATOM     32  C   UNL A   1      33.127  34.758  28.552  1.00  0.00     0.251 C 
ATOM     33  H   UNL A   1      31.964  34.263  26.993  1.00  0.00     0.163 HD
ATOM     34  O   UNL A   1      32.604  35.858  28.710  1.00  0.00    -0.269 OA
BRANCH  32  35
ATOM     35  C   UNL A   1      34.275  34.345  29.383  1.00  0.00     0.039 A 
ATOM     36  C   UNL A   1      34.050  33.782  30.641  1.00  0.00     0.014 A 
ATOM     37  C   UNL A   1      35.572  34.462  28.881  1.00  0.00     0.014 A 
ATOM     38  C   UNL A   1      35.127  33.259  31.360  1.00  0.00     0.010 A 
ATOM     39  C   UNL A   1      36.623  33.849  29.549  1.00  0.00     0.010 A 
ATOM     40  C   UNL A   1      36.415  33.248  30.800  1.00  0.00    -0.014 A 
BRANCH  40  41
ATOM     41  C   UNL A   1      37.574  32.632  31.497  1.00  0.00     0.031 A 
ATOM     42  C   UNL A   1      38.300  31.480  30.850  1.00  0.00     0.074 A 
ATOM     43  C   UNL A   1      37.900  33.027  32.744  1.00  0.00     0.049 A 
ATOM     44  N   UNL A   1      39.243  30.720  31.340  1.00  0.00    -0.248 NA
ATOM     45  C   UNL A   1      37.880  31.108  29.487  1.00  0.00     0.031 C 
ATOM     46  C   UNL A   1      37.222  34.077  33.509  1.00  0.00     0.029 A 
ATOM     47  N   UNL A   1      38.869  32.569  33.602  1.00  0.00    -0.354 N 
ATOM     48  C   UNL A   1      39.498  29.759  30.369  1.00  0.00     0.074 A 
ATOM     49  C   UNL A   1      38.580  30.002  29.279  1.00  0.00     0.031 C 
ATOM     50  C   UNL A   1      37.798  34.186  34.717  1.00  0.00     0.029 A 
ATOM     51  C   UNL A   1      38.863  33.195  34.829  1.00  0.00     0.049 A 
ATOM     52  H   UNL A   1      39.506  31.858  33.364  1.00  0.00     0.167 HD
ATOM     53  C   UNL A   1      40.437  28.785  30.363  1.00  0.00     0.034 A 
ATOM     54  C   UNL A   1      39.627  32.987  35.919  1.00  0.00     0.034 A 
ATOM     55  C   UNL A   1      41.391  28.590  31.418  1.00  0.00     0.049 A 
ATOM     56  C   UNL A   1      40.700  31.931  35.864  1.00  0.00     0.074 A 
ATOM     57  C   UNL A   1      42.435  27.683  31.477  1.00  0.00     0.029 A 
ATOM     58  N   UNL A   1      41.425  29.319  32.596  1.00  0.00    -0.354 N 
ATOM     59  N   UNL A   1      41.017  31.126  34.879  1.00  0.00    -0.248 NA
ATOM     60  C   UNL A   1      41.546  31.779  37.058  1.00  0.00     0.031 C 
ATOM     61  C   UNL A   1      43.097  27.861  32.696  1.00  0.00     0.029 A 
ATOM     62  C   UNL A   1      42.476  28.889  33.387  1.00  0.00     0.049 A 
ATOM     63  H   UNL A   1      40.795  30.036  32.835  1.00  0.00     0.167 HD
ATOM     64  C   UNL A   1      42.124  30.407  35.314  1.00  0.00     0.074 A 
ATOM     65  C   UNL A   1      42.434  30.882  36.647  1.00  0.00     0.031 C 
ATOM     66  C   UNL A   1      42.813  29.429  34.677  1.00  0.00     0.034 A 
BRANCH  53  67
ATOM     67  C   UNL A   1      40.530  27.906  29.144  1.00  0.00     0.023 A 
ATOM     68  C   UNL A   1      39.626  26.834  28.996  1.00  0.00     0.012 A 
ATOM     69  C   UNL A   1      41.460  28.173  28.121  1.00  0.00     0.148 A 
ATOM     70  C   UNL A   1      39.668  26.020  27.866  1.00  0.00     0.002 A 
ATOM     71  C   UNL A   1      41.465  27.385  26.976  1.00  0.00     0.091 A 
ATOM     72  F   UNL A   1      42.324  29.184  28.289  1.00  0.00    -0.205 F 
ATOM     73  C   UNL A   1      40.579  26.301  26.852  1.00  0.00     0.022 A 
BRANCH  71  74
ATOM     74  S   UNL A   1      42.543  27.709  25.576  1.00  0.00     0.127 S 
ATOM     75  O   UNL A   1      42.320  26.523  24.751  1.00  0.00    -0.237 OA
ATOM     76  O   UNL A   1      41.978  28.944  25.033  1.00  0.00    -0.237 OA
ATOM     77  O   UNL A   1      43.886  27.843  26.124  1.00  0.00    -0.744 OA
ENDBRANCH  71  74
ENDBRANCH  53  67
BRANCH  54  78
ATOM     78  C   UNL A   1      39.463  33.841  37.130  1.00  0.00     0.023 A 
ATOM     79  C   UNL A   1      39.969  35.156  37.117  1.00  0.00     0.012 A 
ATOM     80  C   UNL A   1      38.812  33.370  38.286  1.00  0.00     0.148 A 
ATOM     81  C   UNL A   1      39.867  35.971  38.245  1.00  0.00     0.002 A 
ATOM     82  C   UNL A   1      38.667  34.207  39.388  1.00  0.00     0.091 A 
ATOM     83  F   UNL A   1      38.348  32.113  38.289  1.00  0.00    -0.205 F 
ATOM     84  C   UNL A   1      39.210  35.500  39.377  1.00  0.00     0.022 A 
BRANCH  82  85
ATOM     85  S   UNL A   1      37.721  33.723  40.838  1.00  0.00     0.127 S 
ATOM     86  O   UNL A   1      37.507  35.007  41.498  1.00  0.00    -0.237 OA
ATOM     87  O   UNL A   1      36.525  33.130  40.239  1.00  0.00    -0.237 OA
ATOM     88  O   UNL A   1      38.564  32.772  41.550  1.00  0.00    -0.744 OA
ENDBRANCH  82  85
ENDBRANCH  54  78
BRANCH  66  89
ATOM     89  C   UNL A   1      44.007  28.839  35.380  1.00  0.00     0.023 A 
ATOM     90  C   UNL A   1      45.283  29.397  35.183  1.00  0.00     0.012 A 
ATOM     91  C   UNL A   1      43.842  27.790  36.307  1.00  0.00     0.148 A 
ATOM     92  C   UNL A   1      46.386  28.902  35.879  1.00  0.00     0.002 A 
ATOM     93  C   UNL A   1      44.936  27.335  37.031  1.00  0.00     0.091 A 
ATOM     94  F   UNL A   1      42.619  27.262  36.465  1.00  0.00    -0.205 F 
ATOM     95  C   UNL A   1      46.210  27.882  36.811  1.00  0.00     0.022 A 
BRANCH  93  96
ATOM     96  S   UNL A   1      44.785  26.094  38.321  1.00  0.00     0.127 S 
ATOM     97  O   UNL A   1      44.336  24.928  37.561  1.00  0.00    -0.237 OA
ATOM     98  O   UNL A   1      46.155  26.003  38.825  1.00  0.00    -0.237 OA
ATOM     99  O   UNL A   1      43.824  26.625  39.279  1.00  0.00    -0.744 OA
ENDBRANCH  93  96
ENDBRANCH  66  89
ENDBRANCH  40  41
ENDBRANCH  32  35
ENDBRANCH  30  31
ENDBRANCH  29  30
ENDBRANCH   1  29
TORSDOF 17
ENDMDL
MODEL 2
REMARK VINA RESULT:     -12.9      0.595      7.627
REMARK SMILES CC1(C)[C@H](C(=O)NCCCNC(=O)c2ccc(-c3c4nc(c(-c5cccc(S(=O)(=O)[O-])c5F)c5ccc([nH]5)c(-c5cccc(S(=O)(=O)[O-])c5F)c5nc(c(-c6cccc(S(=O)(=O)[O-])c6F)c6ccc3[nH]6)C=C5)C=C4)cc2)[C@@H]1C(=O)Nc1ccc(NC(=O)C2CCC2)cc1
REMARK SMILES IDX 8 1 7 2 5 3 6 4 4 6 1 7 2 8 3 9 77 10 78 11 79 12 80 13
REMARK SMILES IDX 81 15 82 16 93 17 83 18 92 19 84 20 85 21 86 22 87 24 88 25
REMARK SMILES IDX 89 26 91 27 90 28 9 29 10 30 11 31 12 32 13 34 14 35 15 36
REMARK SMILES IDX 76 37 16 38 75 39 17 40 18 41 19 42 69 43 20 44 74 45 68 46
REMARK SMILES IDX 70 47 21 48 73 49 67 50 66 51 22 53 54 54 34 55 53 56 35 57
REMARK SMILES IDX 38 58 52 59 71 60 36 61 37 62 51 64 72 65 39 66 23 67 24 68
REMARK SMILES IDX 32 69 25 70 27 71 33 72 26 73 28 74 29 75 30 76 31 77 55 78
REMARK SMILES IDX 56 79 64 80 57 81 59 82 65 83 58 84 60 85 61 86 62 87 63 88
REMARK SMILES IDX 40 89 41 90 49 91 42 92 44 93 50 94 43 95 45 96 46 97 47 98
REMARK SMILES IDX 48 99
REMARK H PARENT 7 5 80 14 85 23 11 33 70 52 38 63
REMARK Flexibility Score: inf
ROOT
ATOM      1  C   UNL A   1      32.060  30.652  26.346  1.00  0.00     0.117 C 
ENDROOT
BRANCH   1   2
ATOM      2  N   UNL A   1      31.272  30.346  25.169  1.00  0.00    -0.356 N 
ATOM      3  C   UNL A   1      31.183  29.305  24.297  1.00  0.00     0.224 C 
ATOM      4  O   UNL A   1      30.327  29.433  23.417  1.00  0.00    -0.275 OA
ATOM      5  H   UNL A   1      30.647  31.073  24.943  1.00  0.00     0.163 HD
BRANCH   3   6
ATOM      6  C   UNL A   1      31.964  28.046  24.275  1.00  0.00     0.098 C 
ATOM      7  C   UNL A   1      33.636  26.754  25.723  1.00  0.00     0.013 C 
ATOM      8  C   UNL A   1      32.189  27.103  25.445  1.00  0.00    -0.011 C 
ATOM      9  C   UNL A   1      31.397  27.263  26.720  1.00  0.00     0.013 C 
ATOM     10  C   UNL A   1      31.581  26.609  24.111  1.00  0.00     0.098 C 
BRANCH  10  11
ATOM     11  C   UNL A   1      30.226  26.048  23.945  1.00  0.00     0.228 C 
ATOM     12  O   UNL A   1      29.294  26.776  23.619  1.00  0.00    -0.274 OA
ATOM     13  N   UNL A   1      29.979  24.716  24.201  1.00  0.00    -0.326 N 
ATOM     14  H   UNL A   1      29.032  24.447  24.250  1.00  0.00     0.169 HD
BRANCH  13  15
ATOM     15  C   UNL A   1      30.923  23.706  24.400  1.00  0.00     0.041 A 
ATOM     16  C   UNL A   1      31.468  23.160  23.248  1.00  0.00     0.028 A 
ATOM     17  C   UNL A   1      31.422  23.323  25.642  1.00  0.00     0.028 A 
ATOM     18  C   UNL A   1      32.649  22.440  23.332  1.00  0.00     0.028 A 
ATOM     19  C   UNL A   1      32.484  22.404  25.706  1.00  0.00     0.028 A 
ATOM     20  C   UNL A   1      33.110  21.955  24.535  1.00  0.00     0.041 A 
BRANCH  20  21
ATOM     21  N   UNL A   1      34.164  21.041  24.630  1.00  0.00    -0.326 N 
ATOM     22  C   UNL A   1      35.454  21.109  25.120  1.00  0.00     0.227 C 
ATOM     23  H   UNL A   1      33.936  20.154  24.267  1.00  0.00     0.169 HD
ATOM     24  O   UNL A   1      36.092  20.043  25.002  1.00  0.00    -0.274 OA
BRANCH  22  25
ATOM     25  C   UNL A   1      36.131  22.348  25.769  1.00  0.00     0.079 C 
ATOM     26  C   UNL A   1      37.699  22.338  25.636  1.00  0.00     0.013 C 
ATOM     27  C   UNL A   1      36.246  23.778  25.150  1.00  0.00     0.013 C 
ATOM     28  C   UNL A   1      37.662  23.866  25.724  1.00  0.00     0.002 C 
ENDBRANCH  22  25
ENDBRANCH  20  21
ENDBRANCH  13  15
ENDBRANCH  10  11
ENDBRANCH   3   6
ENDBRANCH   1   2
BRANCH   1  29
ATOM     29  C   UNL A   1      31.716  32.014  26.918  1.00  0.00     0.042 C 
BRANCH  29  30
ATOM     30  C   UNL A   1      32.951  32.812  27.322  1.00  0.00     0.118 C 
BRANCH  30  31
ATOM     31  N   UNL A   1      32.638  34.181  27.729  1.00  0.00    -0.352 N 
ATOM     32  C   UNL A   1      33.131  34.902  28.791  1.00  0.00     0.251 C 
ATOM     33  H   UNL A   1      31.984  34.651  27.163  1.00  0.00     0.163 HD
ATOM     34  O   UNL A   1      32.628  35.981  29.092  1.00  0.00    -0.269 OA
BRANCH  32  35
ATOM     35  C   UNL A   1      34.257  34.352  29.573  1.00  0.00     0.039 A 
ATOM     36  C   UNL A   1      33.998  33.602  30.722  1.00  0.00     0.014 A 
ATOM     37  C   UNL A   1      35.566  34.534  29.125  1.00  0.00     0.014 A 
ATOM     38  C   UNL A   1      35.054  32.962  31.374  1.00  0.00     0.010 A 
ATOM     39  C   UNL A   1      36.596  33.815  29.713  1.00  0.00     0.010 A 
ATOM     40  C   UNL A   1      36.356  33.028  30.849  1.00  0.00    -0.014 A 
BRANCH  40  41
ATOM     41  C   UNL A   1      37.494  32.299  31.466  1.00  0.00     0.031 A 
ATOM     42  C   UNL A   1      38.057  32.781  32.779  1.00  0.00     0.074 A 
ATOM     43  C   UNL A   1      38.087  31.286  30.803  1.00  0.00     0.049 A 
ATOM     44  N   UNL A   1      39.122  32.374  33.418  1.00  0.00    -0.248 NA
ATOM     45  C   UNL A   1      37.353  33.895  33.438  1.00  0.00     0.031 C 
ATOM     46  C   UNL A   1      37.684  30.778  29.489  1.00  0.00     0.029 A 
ATOM     47  N   UNL A   1      39.177  30.519  31.132  1.00  0.00    -0.354 N 
ATOM     48  C   UNL A   1      39.239  33.206  34.525  1.00  0.00     0.074 A 
ATOM     49  C   UNL A   1      38.165  34.170  34.448  1.00  0.00     0.031 C 
ATOM     50  C   UNL A   1      38.511  29.783  29.127  1.00  0.00     0.029 A 
ATOM     51  C   UNL A   1      39.521  29.602  30.164  1.00  0.00     0.049 A 
ATOM     52  H   UNL A   1      39.668  30.617  31.979  1.00  0.00     0.167 HD
ATOM     53  C   UNL A   1      40.135  33.152  35.538  1.00  0.00     0.034 A 
ATOM     54  C   UNL A   1      40.540  28.721  30.118  1.00  0.00     0.034 A 
ATOM     55  C   UNL A   1      41.160  32.151  35.645  1.00  0.00     0.049 A 
ATOM     56  C   UNL A   1      41.490  28.646  31.285  1.00  0.00     0.074 A 
ATOM     57  C   UNL A   1      42.069  31.957  36.670  1.00  0.00     0.029 A 
ATOM     58  N   UNL A   1      41.404  31.169  34.699  1.00  0.00    -0.354 N 
ATOM     59  N   UNL A   1      41.496  29.351  32.390  1.00  0.00    -0.248 NA
ATOM     60  C   UNL A   1      42.551  27.631  31.215  1.00  0.00     0.031 C 
ATOM     61  C   UNL A   1      42.870  30.860  36.339  1.00  0.00     0.029 A 
ATOM     62  C   UNL A   1      42.446  30.360  35.117  1.00  0.00     0.049 A 
ATOM     63  H   UNL A   1      40.910  31.062  33.854  1.00  0.00     0.167 HD
ATOM     64  C   UNL A   1      42.528  28.835  33.165  1.00  0.00     0.074 A 
ATOM     65  C   UNL A   1      43.116  27.748  32.410  1.00  0.00     0.031 C 
ATOM     66  C   UNL A   1      42.964  29.235  34.385  1.00  0.00     0.034 A 
BRANCH  53  67
ATOM     67  C   UNL A   1      39.998  34.156  36.651  1.00  0.00     0.023 A 
ATOM     68  C   UNL A   1      40.322  35.506  36.407  1.00  0.00     0.012 A 
ATOM     69  C   UNL A   1      39.494  33.783  37.912  1.00  0.00     0.148 A 
ATOM     70  C   UNL A   1      40.179  36.464  37.409  1.00  0.00     0.002 A 
ATOM     71  C   UNL A   1      39.310  34.752  38.892  1.00  0.00     0.091 A 
ATOM     72  F   UNL A   1      39.210  32.491  38.132  1.00  0.00    -0.205 F 
ATOM     73  C   UNL A   1      39.663  36.090  38.646  1.00  0.00     0.022 A 
BRANCH  71  74
ATOM     74  S   UNL A   1      38.578  34.392  40.492  1.00  0.00     0.127 S 
ATOM     75  O   UNL A   1      39.664  33.674  41.159  1.00  0.00    -0.237 OA
ATOM     76  O   UNL A   1      38.319  35.732  41.020  1.00  0.00    -0.237 OA
ATOM     77  O   UNL A   1      37.385  33.603  40.221  1.00  0.00    -0.744 OA
ENDBRANCH  71  74
ENDBRANCH  53  67
BRANCH  54  78
ATOM     78  C   UNL A   1      40.675  27.782  28.967  1.00  0.00     0.023 A 
ATOM     79  C   UNL A   1      39.848  26.642  28.909  1.00  0.00     0.012 A 
ATOM     80  C   UNL A   1      41.604  28.007  27.933  1.00  0.00     0.148 A 
ATOM     81  C   UNL A   1      39.974  25.723  27.867  1.00  0.00     0.002 A 
ATOM     82  C   UNL A   1      41.686  27.114  26.870  1.00  0.00     0.091 A 
ATOM     83  F   UNL A   1      42.392  29.089  28.009  1.00  0.00    -0.205 F 
ATOM     84  C   UNL A   1      40.886  25.962  26.843  1.00  0.00     0.022 A 
BRANCH  82  85
ATOM     85  S   UNL A   1      42.742  27.416  25.447  1.00  0.00     0.127 S 
ATOM     86  O   UNL A   1      42.609  26.166  24.705  1.00  0.00    -0.237 OA
ATOM     87  O   UNL A   1      42.097  28.574  24.827  1.00  0.00    -0.237 OA
ATOM     88  O   UNL A   1      44.062  27.694  25.998  1.00  0.00    -0.744 OA
ENDBRANCH  82  85
ENDBRANCH  54  78
BRANCH  66  89
ATOM     89  C   UNL A   1      44.094  28.464  35.014  1.00  0.00     0.023 A 
ATOM     90  C   UNL A   1      45.425  28.774  34.680  1.00  0.00     0.012 A 
ATOM     91  C   UNL A   1      43.832  27.498  36.006  1.00  0.00     0.148 A 
ATOM     92  C   UNL A   1      46.482  28.113  35.305  1.00  0.00     0.002 A 
ATOM     93  C   UNL A   1      44.891  26.878  36.657  1.00  0.00     0.091 A 
ATOM     94  F   UNL A   1      42.556  27.206  36.295  1.00  0.00    -0.205 F 
ATOM     95  C   UNL A   1      46.216  27.176  36.300  1.00  0.00     0.022 A 
BRANCH  93  96
ATOM     96  S   UNL A   1      44.643  25.733  38.019  1.00  0.00     0.127 S 
ATOM     97  O   UNL A   1      43.742  24.749  37.420  1.00  0.00    -0.237 OA
ATOM     98  O   UNL A   1      46.000  25.246  38.266  1.00  0.00    -0.237 OA
ATOM     99  O   UNL A   1      44.077  26.519  39.107  1.00  0.00    -0.744 OA
ENDBRANCH  93  96
ENDBRANCH  66  89
ENDBRANCH  40  41
ENDBRANCH  32  35
ENDBRANCH  30  31
ENDBRANCH  29  30
ENDBRANCH   1  29
TORSDOF 17
ENDMDL
MODEL 3
REMARK VINA RESULT:     -12.8      1.272      1.965
REMARK SMILES CC1(C)[C@H](C(=O)NCCCNC(=O)c2ccc(-c3c4nc(c(-c5cccc(S(=O)(=O)[O-])c5F)c5ccc([nH]5)c(-c5cccc(S(=O)(=O)[O-])c5F)c5nc(c(-c6cccc(S(=O)(=O)[O-])c6F)c6ccc3[nH]6)C=C5)C=C4)cc2)[C@@H]1C(=O)Nc1ccc(NC(=O)C2CCC2)cc1
REMARK SMILES IDX 8 1 7 2 5 3 6 4 4 6 1 7 2 8 3 9 77 10 78 11 79 12 80 13
REMARK SMILES IDX 81 15 82 16 93 17 83 18 92 19 84 20 85 21 86 22 87 24 88 25
REMARK SMILES IDX 89 26 91 27 90 28 9 29 10 30 11 31 12 32 13 34 14 35 15 36
REMARK SMILES IDX 76 37 16 38 75 39 17 40 18 41 19 42 69 43 20 44 74 45 68 46
REMARK SMILES IDX 70 47 21 48 73 49 67 50 66 51 22 53 54 54 34 55 53 56 35 57
REMARK SMILES IDX 38 58 52 59 71 60 36 61 37 62 51 64 72 65 39 66 23 67 24 68
REMARK SMILES IDX 32 69 25 70 27 71 33 72 26 73 28 74 29 75 30 76 31 77 55 78
REMARK SMILES IDX 56 79 64 80 57 81 59 82 65 83 58 84 60 85 61 86 62 87 63 88
REMARK SMILES IDX 40 89 41 90 49 91 42 92 44 93 50 94 43 95 45 96 46 97 47 98
REMARK SMILES IDX 48 99
REMARK H PARENT 7 5 80 14 85 23 11 33 70 52 38 63
REMARK Flexibility Score: inf
ROOT
ATOM      1  C   UNL A   1      31.782  30.763  26.712  1.00  0.00     0.117 C 
ENDROOT
BRANCH   1   2
ATOM      2  N   UNL A   1      31.585  30.257  25.369  1.00  0.00    -0.356 N 
ATOM      3  C   UNL A   1      31.406  29.033  24.803  1.00  0.00     0.224 C 
ATOM      4  O   UNL A   1      31.236  29.042  23.581  1.00  0.00    -0.275 OA
ATOM      5  H   UNL A   1      31.582  30.979  24.698  1.00  0.00     0.163 HD
BRANCH   3   6
ATOM      6  C   UNL A   1      31.376  27.705  25.460  1.00  0.00     0.098 C 
ATOM      7  C   UNL A   1      29.803  25.706  25.765  1.00  0.00     0.013 C 
ATOM      8  C   UNL A   1      30.801  26.424  24.880  1.00  0.00    -0.011 C 
ATOM      9  C   UNL A   1      30.412  26.351  23.424  1.00  0.00     0.013 C 
ATOM     10  C   UNL A   1      32.264  26.504  25.376  1.00  0.00     0.098 C 
BRANCH  10  11
ATOM     11  C   UNL A   1      33.463  26.322  24.535  1.00  0.00     0.228 C 
ATOM     12  O   UNL A   1      34.042  27.300  24.071  1.00  0.00    -0.274 OA
ATOM     13  N   UNL A   1      33.918  25.060  24.218  1.00  0.00    -0.326 N 
ATOM     14  H   UNL A   1      34.603  25.005  23.513  1.00  0.00     0.169 HD
BRANCH  13  15
ATOM     15  C   UNL A   1      33.514  23.851  24.788  1.00  0.00     0.041 A 
ATOM     16  C   UNL A   1      32.807  23.001  23.950  1.00  0.00     0.028 A 
ATOM     17  C   UNL A   1      33.878  23.413  26.058  1.00  0.00     0.028 A 
ATOM     18  C   UNL A   1      32.690  21.662  24.285  1.00  0.00     0.028 A 
ATOM     19  C   UNL A   1      33.541  22.109  26.463  1.00  0.00     0.028 A 
ATOM     20  C   UNL A   1      32.939  21.217  25.564  1.00  0.00     0.041 A 
BRANCH  20  21
ATOM     21  N   UNL A   1      32.615  19.927  25.995  1.00  0.00    -0.326 N 
ATOM     22  C   UNL A   1      32.836  18.661  25.488  1.00  0.00     0.227 C 
ATOM     23  H   UNL A   1      32.121  19.921  26.847  1.00  0.00     0.169 HD
ATOM     24  O   UNL A   1      32.359  17.748  26.194  1.00  0.00    -0.274 OA
BRANCH  22  25
ATOM     25  C   UNL A   1      33.590  18.310  24.176  1.00  0.00     0.079 C 
ATOM     26  C   UNL A   1      34.371  16.945  24.255  1.00  0.00     0.013 C 
ATOM     27  C   UNL A   1      32.969  17.697  22.879  1.00  0.00     0.013 C 
ATOM     28  C   UNL A   1      34.227  16.837  22.735  1.00  0.00     0.002 C 
ENDBRANCH  22  25
ENDBRANCH  20  21
ENDBRANCH  13  15
ENDBRANCH  10  11
ENDBRANCH   3   6
ENDBRANCH   1   2
BRANCH   1  29
ATOM     29  C   UNL A   1      31.497  32.251  26.803  1.00  0.00     0.042 C 
BRANCH  29  30
ATOM     30  C   UNL A   1      32.759  33.078  27.029  1.00  0.00     0.118 C 
BRANCH  30  31
ATOM     31  N   UNL A   1      32.503  34.319  27.759  1.00  0.00    -0.352 N 
ATOM     32  C   UNL A   1      33.108  34.792  28.899  1.00  0.00     0.251 C 
ATOM     33  H   UNL A   1      31.801  34.896  27.380  1.00  0.00     0.163 HD
ATOM     34  O   UNL A   1      32.650  35.772  29.481  1.00  0.00    -0.269 OA
BRANCH  32  35
ATOM     35  C   UNL A   1      34.300  34.096  29.423  1.00  0.00     0.039 A 
ATOM     36  C   UNL A   1      35.573  34.520  29.035  1.00  0.00     0.014 A 
ATOM     37  C   UNL A   1      34.149  33.062  30.348  1.00  0.00     0.014 A 
ATOM     38  C   UNL A   1      36.697  33.957  29.643  1.00  0.00     0.010 A 
ATOM     39  C   UNL A   1      35.261  32.580  31.024  1.00  0.00     0.010 A 
ATOM     40  C   UNL A   1      36.548  33.015  30.675  1.00  0.00    -0.014 A 
BRANCH  40  41
ATOM     41  C   UNL A   1      37.714  32.450  31.402  1.00  0.00     0.031 A 
ATOM     42  C   UNL A   1      38.484  31.306  30.793  1.00  0.00     0.074 A 
ATOM     43  C   UNL A   1      38.010  32.883  32.645  1.00  0.00     0.049 A 
ATOM     44  N   UNL A   1      39.442  30.586  31.314  1.00  0.00    -0.248 NA
ATOM     45  C   UNL A   1      38.096  30.890  29.433  1.00  0.00     0.031 C 
ATOM     46  C   UNL A   1      37.289  33.929  33.375  1.00  0.00     0.029 A 
ATOM     47  N   UNL A   1      38.979  32.474  33.527  1.00  0.00    -0.354 N 
ATOM     48  C   UNL A   1      39.740  29.611  30.369  1.00  0.00     0.074 A 
ATOM     49  C   UNL A   1      38.831  29.802  29.261  1.00  0.00     0.031 C 
ATOM     50  C   UNL A   1      37.844  34.083  34.589  1.00  0.00     0.029 A 
ATOM     51  C   UNL A   1      38.936  33.127  34.738  1.00  0.00     0.049 A 
ATOM     52  H   UNL A   1      39.641  31.777  33.314  1.00  0.00     0.167 HD
ATOM     53  C   UNL A   1      40.708  28.666  30.399  1.00  0.00     0.034 A 
ATOM     54  C   UNL A   1      39.689  32.967  35.844  1.00  0.00     0.034 A 
ATOM     55  C   UNL A   1      41.652  28.524  31.472  1.00  0.00     0.049 A 
ATOM     56  C   UNL A   1      40.795  31.943  35.829  1.00  0.00     0.074 A 
ATOM     57  C   UNL A   1      42.721  27.651  31.567  1.00  0.00     0.029 A 
ATOM     58  N   UNL A   1      41.646  29.281  32.633  1.00  0.00    -0.354 N 
ATOM     59  N   UNL A   1      41.150  31.126  34.867  1.00  0.00    -0.248 NA
ATOM     60  C   UNL A   1      41.627  31.844  37.038  1.00  0.00     0.031 C 
ATOM     61  C   UNL A   1      43.359  27.876  32.791  1.00  0.00     0.029 A 
ATOM     62  C   UNL A   1      42.697  28.901  33.449  1.00  0.00     0.049 A 
ATOM     63  H   UNL A   1      40.992  29.984  32.846  1.00  0.00     0.167 HD
ATOM     64  C   UNL A   1      42.271  30.451  35.335  1.00  0.00     0.074 A 
ATOM     65  C   UNL A   1      42.547  30.965  36.661  1.00  0.00     0.031 C 
ATOM     66  C   UNL A   1      42.999  29.480  34.731  1.00  0.00     0.034 A 
BRANCH  53  67
ATOM     67  C   UNL A   1      40.845  27.763  29.203  1.00  0.00     0.023 A 
ATOM     68  C   UNL A   1      40.046  26.604  29.117  1.00  0.00     0.012 A 
ATOM     69  C   UNL A   1      41.710  28.087  28.140  1.00  0.00     0.148 A 
ATOM     70  C   UNL A   1      40.130  25.764  28.009  1.00  0.00     0.002 A 
ATOM     71  C   UNL A   1      41.754  27.267  27.017  1.00  0.00     0.091 A 
ATOM     72  F   UNL A   1      42.476  29.182  28.248  1.00  0.00    -0.205 F 
ATOM     73  C   UNL A   1      40.974  26.100  26.956  1.00  0.00     0.022 A 
BRANCH  71  74
ATOM     74  S   UNL A   1      42.747  27.651  25.570  1.00  0.00     0.127 S 
ATOM     75  O   UNL A   1      42.086  28.855  25.069  1.00  0.00    -0.237 OA
ATOM     76  O   UNL A   1      44.068  27.880  26.157  1.00  0.00    -0.237 OA
ATOM     77  O   UNL A   1      42.661  26.485  24.702  1.00  0.00    -0.744 OA
ENDBRANCH  71  74
ENDBRANCH  53  67
BRANCH  54  78
ATOM     78  C   UNL A   1      39.482  33.843  37.032  1.00  0.00     0.023 A 
ATOM     79  C   UNL A   1      39.912  35.185  36.981  1.00  0.00     0.012 A 
ATOM     80  C   UNL A   1      38.863  33.368  38.204  1.00  0.00     0.148 A 
ATOM     81  C   UNL A   1      39.769  36.023  38.087  1.00  0.00     0.002 A 
ATOM     82  C   UNL A   1      38.675  34.225  39.284  1.00  0.00     0.091 A 
ATOM     83  F   UNL A   1      38.471  32.087  38.243  1.00  0.00    -0.205 F 
ATOM     84  C   UNL A   1      39.143  35.546  39.235  1.00  0.00     0.022 A 
BRANCH  82  85
ATOM     85  S   UNL A   1      37.764  33.728  40.751  1.00  0.00     0.127 S 
ATOM     86  O   UNL A   1      37.579  35.004  41.436  1.00  0.00    -0.237 OA
ATOM     87  O   UNL A   1      36.546  33.155  40.176  1.00  0.00    -0.237 OA
ATOM     88  O   UNL A   1      38.616  32.759  41.426  1.00  0.00    -0.744 OA
ENDBRANCH  82  85
ENDBRANCH  54  78
BRANCH  66  89
ATOM     89  C   UNL A   1      44.199  28.943  35.464  1.00  0.00     0.023 A 
ATOM     90  C   UNL A   1      45.457  29.546  35.287  1.00  0.00     0.012 A 
ATOM     91  C   UNL A   1      44.054  27.898  36.399  1.00  0.00     0.148 A 
ATOM     92  C   UNL A   1      46.563  29.100  36.011  1.00  0.00     0.002 A 
ATOM     93  C   UNL A   1      45.149  27.491  37.150  1.00  0.00     0.091 A 
ATOM     94  F   UNL A   1      42.849  27.326  36.538  1.00  0.00    -0.205 F 
ATOM     95  C   UNL A   1      46.406  28.084  36.950  1.00  0.00     0.022 A 
BRANCH  93  96
ATOM     96  S   UNL A   1      45.018  26.259  38.451  1.00  0.00     0.127 S 
ATOM     97  O   UNL A   1      44.603  25.076  37.698  1.00  0.00    -0.237 OA
ATOM     98  O   UNL A   1      46.386  26.206  38.966  1.00  0.00    -0.237 OA
ATOM     99  O   UNL A   1      44.036  26.775  39.396  1.00  0.00    -0.744 OA
ENDBRANCH  93  96
ENDBRANCH  66  89
ENDBRANCH  40  41
ENDBRANCH  32  35
ENDBRANCH  30  31
ENDBRANCH  29  30
ENDBRANCH   1  29
TORSDOF 17
ENDMDL
