MODEL 1
REMARK VINA RESULT:     -13.4      0.000      0.000
REMARK SMILES CC1(C)CC2=NC(=O)[C@H](C(=O)NCCCNC(=O)c3ccc(-c4c5nc(c(-c6cccc(S(=O)(=O)[O-])c6F)c6ccc([nH]6)c(-c6cccc(S(=O)(=O)[O-])c6F)c6nc(c(-c7cccc(S(=O)(=O)[O-])c7F)c7ccc4[nH]7)C=C6)C=C5)cc3)C=C2CS1
REMARK SMILES IDX 16 1 17 2 18 3 15 5 14 6 13 7 12 8 10 9 11 10 9 12 1 13 2 14
REMARK SMILES IDX 3 15 4 16 85 17 5 18 84 19 6 20 83 21 7 22 82 23 8 24 19 25
REMARK SMILES IDX 20 26 81 27 21 28 80 29 22 30 23 31 24 32 74 33 25 34 79 35
REMARK SMILES IDX 73 36 75 37 26 38 78 39 72 40 71 41 27 43 59 44 39 45 58 46
REMARK SMILES IDX 40 47 43 48 57 49 76 50 41 51 42 52 56 54 77 55 44 56 28 57
REMARK SMILES IDX 29 58 37 59 30 60 32 61 38 62 31 63 33 64 34 65 35 66 36 67
REMARK SMILES IDX 60 68 61 69 69 70 62 71 64 72 70 73 63 74 65 75 66 76 67 77
REMARK SMILES IDX 68 78 45 79 46 80 54 81 47 82 49 83 55 84 48 85 50 86 51 87
REMARK SMILES IDX 52 88 53 89
REMARK H PARENT 16 4 12 11 75 42 43 53
REMARK Flexibility Score: inf
ROOT
ATOM      1  N   UNL A   1      32.034  31.782  26.875  1.00  0.00    -0.352 N 
ATOM      2  C   UNL A   1      32.937  32.623  27.476  1.00  0.00     0.251 C 
ATOM      3  O   UNL A   1      32.646  33.808  27.629  1.00  0.00    -0.269 OA
ATOM      4  H   UNL A   1      31.287  32.237  26.424  1.00  0.00     0.163 HD
ENDROOT
BRANCH   1   5
ATOM      5  C   UNL A   1      31.995  30.323  26.790  1.00  0.00     0.118 C 
BRANCH   5   6
ATOM      6  C   UNL A   1      32.270  29.818  25.376  1.00  0.00     0.042 C 
BRANCH   6   7
ATOM      7  C   UNL A   1      33.537  28.983  25.267  1.00  0.00     0.117 C 
BRANCH   7   8
ATOM      8  N   UNL A   1      33.996  28.810  23.899  1.00  0.00    -0.355 N 
ATOM      9  C   UNL A   1      33.759  27.896  22.918  1.00  0.00     0.236 C 
ATOM     10  O   UNL A   1      34.216  28.203  21.809  1.00  0.00    -0.274 OA
ATOM     11  H   UNL A   1      34.622  29.516  23.617  1.00  0.00     0.163 HD
BRANCH   9  12
ATOM     12  C   UNL A   1      32.996  26.569  23.091  1.00  0.00     0.193 C 
ATOM     13  C   UNL A   1      35.944  20.965  25.210  1.00  0.00     0.023 C 
ATOM     14  C   UNL A   1      35.492  22.430  25.104  1.00  0.00     0.016 C 
ATOM     15  C   UNL A   1      36.729  23.334  25.211  1.00  0.00     0.023 C 
ATOM     16  C   UNL A   1      34.751  22.653  23.787  1.00  0.00     0.074 C 
ATOM     17  S   UNL A   1      34.287  22.708  26.463  1.00  0.00    -0.150 SA
ATOM     18  C   UNL A   1      34.142  24.037  23.583  1.00  0.00     0.049 C 
ATOM     19  C   UNL A   1      33.894  24.427  26.174  1.00  0.00     0.107 C 
ATOM     20  N   UNL A   1      34.029  24.412  22.349  1.00  0.00    -0.217 NA
ATOM     21  C   UNL A   1      33.628  24.803  24.752  1.00  0.00    -0.019 C 
ATOM     22  C   UNL A   1      33.391  25.579  22.001  1.00  0.00     0.262 C 
ATOM     23  C   UNL A   1      33.010  25.960  24.456  1.00  0.00     0.002 C 
ATOM     24  O   UNL A   1      33.118  25.814  20.824  1.00  0.00    -0.271 OA
ENDBRANCH   9  12
ENDBRANCH   7   8
ENDBRANCH   6   7
ENDBRANCH   5   6
ENDBRANCH   1   5
BRANCH   2  25
ATOM     25  C   UNL A   1      34.243  32.117  27.949  1.00  0.00     0.039 A 
ATOM     26  C   UNL A   1      35.334  32.991  28.001  1.00  0.00     0.014 A 
ATOM     27  C   UNL A   1      34.400  30.782  28.325  1.00  0.00     0.014 A 
ATOM     28  C   UNL A   1      36.552  32.548  28.522  1.00  0.00     0.010 A 
ATOM     29  C   UNL A   1      35.587  30.365  28.918  1.00  0.00     0.010 A 
ATOM     30  C   UNL A   1      36.671  31.248  29.038  1.00  0.00    -0.014 A 
BRANCH  30  31
ATOM     31  C   UNL A   1      37.885  30.808  29.771  1.00  0.00     0.031 A 
ATOM     32  C   UNL A   1      38.823  29.800  29.168  1.00  0.00     0.074 A 
ATOM     33  C   UNL A   1      38.068  31.228  31.040  1.00  0.00     0.049 A 
ATOM     34  N   UNL A   1      39.864  29.221  29.707  1.00  0.00    -0.248 NA
ATOM     35  C   UNL A   1      38.539  29.365  27.792  1.00  0.00     0.031 C 
ATOM     36  C   UNL A   1      37.183  32.145  31.762  1.00  0.00     0.029 A 
ATOM     37  N   UNL A   1      39.035  30.909  31.961  1.00  0.00    -0.354 N 
ATOM     38  C   UNL A   1      40.341  28.330  28.753  1.00  0.00     0.074 A 
ATOM     39  C   UNL A   1      39.457  28.426  27.610  1.00  0.00     0.031 C 
ATOM     40  C   UNL A   1      37.643  32.310  33.012  1.00  0.00     0.029 A 
ATOM     41  C   UNL A   1      38.827  31.479  33.196  1.00  0.00     0.049 A 
ATOM     42  H   UNL A   1      39.803  30.327  31.758  1.00  0.00     0.167 HD
ATOM     43  C   UNL A   1      41.426  27.523  28.814  1.00  0.00     0.034 A 
ATOM     44  C   UNL A   1      39.497  31.332  34.356  1.00  0.00     0.034 A 
ATOM     45  C   UNL A   1      42.317  27.454  29.942  1.00  0.00     0.049 A 
ATOM     46  C   UNL A   1      40.704  30.435  34.393  1.00  0.00     0.074 A 
ATOM     47  C   UNL A   1      43.499  26.744  30.062  1.00  0.00     0.029 A 
ATOM     48  N   UNL A   1      42.117  28.103  31.151  1.00  0.00    -0.354 N 
ATOM     49  N   UNL A   1      41.239  29.734  33.424  1.00  0.00    -0.248 NA
ATOM     50  C   UNL A   1      41.416  30.331  35.675  1.00  0.00     0.031 C 
ATOM     51  C   UNL A   1      43.993  26.934  31.356  1.00  0.00     0.029 A 
ATOM     52  C   UNL A   1      43.137  27.787  32.032  1.00  0.00     0.049 A 
ATOM     53  H   UNL A   1      41.359  28.698  31.353  1.00  0.00     0.167 HD
ATOM     54  C   UNL A   1      42.361  29.123  33.971  1.00  0.00     0.074 A 
ATOM     55  C   UNL A   1      42.446  29.562  35.349  1.00  0.00     0.031 C 
ATOM     56  C   UNL A   1      43.232  28.260  33.390  1.00  0.00     0.034 A 
BRANCH  43  57
ATOM     57  C   UNL A   1      41.741  26.675  27.609  1.00  0.00     0.023 A 
ATOM     58  C   UNL A   1      42.367  27.261  26.490  1.00  0.00     0.012 A 
ATOM     59  C   UNL A   1      41.480  25.291  27.608  1.00  0.00     0.148 A 
ATOM     60  C   UNL A   1      42.699  26.490  25.376  1.00  0.00     0.002 A 
ATOM     61  C   UNL A   1      41.855  24.521  26.513  1.00  0.00     0.091 A 
ATOM     62  F   UNL A   1      40.867  24.754  28.673  1.00  0.00    -0.205 F 
ATOM     63  C   UNL A   1      42.452  25.120  25.392  1.00  0.00     0.022 A 
BRANCH  61  64
ATOM     64  S   UNL A   1      41.654  22.736  26.466  1.00  0.00     0.127 S 
ATOM     65  O   UNL A   1      40.197  22.605  26.447  1.00  0.00    -0.237 OA
ATOM     66  O   UNL A   1      42.314  22.387  25.207  1.00  0.00    -0.237 OA
ATOM     67  O   UNL A   1      42.311  22.226  27.660  1.00  0.00    -0.744 OA
ENDBRANCH  61  64
ENDBRANCH  43  57
BRANCH  44  68
ATOM     68  C   UNL A   1      39.058  32.082  35.567  1.00  0.00     0.023 A 
ATOM     69  C   UNL A   1      39.304  33.466  35.650  1.00  0.00     0.012 A 
ATOM     70  C   UNL A   1      38.366  31.444  36.615  1.00  0.00     0.148 A 
ATOM     71  C   UNL A   1      38.896  34.195  36.769  1.00  0.00     0.002 A 
ATOM     72  C   UNL A   1      37.907  32.185  37.696  1.00  0.00     0.091 A 
ATOM     73  F   UNL A   1      38.153  30.123  36.524  1.00  0.00    -0.205 F 
ATOM     74  C   UNL A   1      38.189  33.557  37.786  1.00  0.00     0.022 A 
BRANCH  72  75
ATOM     75  S   UNL A   1      36.858  31.476  38.971  1.00  0.00     0.127 S 
ATOM     76  O   UNL A   1      37.712  31.578  40.152  1.00  0.00    -0.237 OA
ATOM     77  O   UNL A   1      35.710  32.383  38.959  1.00  0.00    -0.237 OA
ATOM     78  O   UNL A   1      36.552  30.124  38.522  1.00  0.00    -0.744 OA
ENDBRANCH  72  75
ENDBRANCH  44  68
BRANCH  56  79
ATOM     79  C   UNL A   1      44.364  27.737  34.236  1.00  0.00     0.023 A 
ATOM     80  C   UNL A   1      45.570  28.459  34.309  1.00  0.00     0.012 A 
ATOM     81  C   UNL A   1      44.205  26.574  35.016  1.00  0.00     0.148 A 
ATOM     82  C   UNL A   1      46.613  28.019  35.124  1.00  0.00     0.002 A 
ATOM     83  C   UNL A   1      45.229  26.168  35.862  1.00  0.00     0.091 A 
ATOM     84  F   UNL A   1      43.055  25.892  34.919  1.00  0.00    -0.205 F 
ATOM     85  C   UNL A   1      46.438  26.881  35.908  1.00  0.00     0.022 A 
BRANCH  83  86
ATOM     86  S   UNL A   1      45.065  24.770  36.980  1.00  0.00     0.127 S 
ATOM     87  O   UNL A   1      46.321  24.836  37.725  1.00  0.00    -0.237 OA
ATOM     88  O   UNL A   1      43.877  25.132  37.753  1.00  0.00    -0.237 OA
ATOM     89  O   UNL A   1      44.905  23.594  36.135  1.00  0.00    -0.744 OA
ENDBRANCH  83  86
ENDBRANCH  56  79
ENDBRANCH  30  31
ENDBRANCH   2  25
TORSDOF 13
ENDMDL
MODEL 2
REMARK VINA RESULT:     -13.3      5.523     10.640
REMARK SMILES CC1(C)CC2=NC(=O)[C@H](C(=O)NCCCNC(=O)c3ccc(-c4c5nc(c(-c6cccc(S(=O)(=O)[O-])c6F)c6ccc([nH]6)c(-c6cccc(S(=O)(=O)[O-])c6F)c6nc(c(-c7cccc(S(=O)(=O)[O-])c7F)c7ccc4[nH]7)C=C6)C=C5)cc3)C=C2CS1
REMARK SMILES IDX 16 1 17 2 18 3 15 5 14 6 13 7 12 8 10 9 11 10 9 12 1 13 2 14
REMARK SMILES IDX 3 15 4 16 85 17 5 18 84 19 6 20 83 21 7 22 82 23 8 24 19 25
REMARK SMILES IDX 20 26 81 27 21 28 80 29 22 30 23 31 24 32 74 33 25 34 79 35
REMARK SMILES IDX 73 36 75 37 26 38 78 39 72 40 71 41 27 43 59 44 39 45 58 46
REMARK SMILES IDX 40 47 43 48 57 49 76 50 41 51 42 52 56 54 77 55 44 56 28 57
REMARK SMILES IDX 29 58 37 59 30 60 32 61 38 62 31 63 33 64 34 65 35 66 36 67
REMARK SMILES IDX 60 68 61 69 69 70 62 71 64 72 70 73 63 74 65 75 66 76 67 77
REMARK SMILES IDX 68 78 45 79 46 80 54 81 47 82 49 83 55 84 48 85 50 86 51 87
REMARK SMILES IDX 52 88 53 89
REMARK H PARENT 16 4 12 11 75 42 43 53
REMARK Flexibility Score: inf
ROOT
ATOM      1  N   UNL A   1      37.618  20.859  25.523  1.00  0.00    -0.352 N 
ATOM      2  C   UNL A   1      38.934  20.946  25.907  1.00  0.00     0.251 C 
ATOM      3  O   UNL A   1      39.669  19.973  25.756  1.00  0.00    -0.269 OA
ATOM      4  H   UNL A   1      37.306  19.945  25.335  1.00  0.00     0.163 HD
ENDROOT
BRANCH   1   5
ATOM      5  C   UNL A   1      36.601  21.895  25.348  1.00  0.00     0.118 C 
BRANCH   5   6
ATOM      6  C   UNL A   1      35.353  21.367  24.646  1.00  0.00     0.042 C 
BRANCH   6   7
ATOM      7  C   UNL A   1      34.404  20.626  25.577  1.00  0.00     0.117 C 
BRANCH   7   8
ATOM      8  N   UNL A   1      34.093  21.367  26.788  1.00  0.00    -0.355 N 
ATOM      9  C   UNL A   1      33.179  22.320  27.119  1.00  0.00     0.236 C 
ATOM     10  O   UNL A   1      33.121  22.578  28.330  1.00  0.00    -0.274 OA
ATOM     11  H   UNL A   1      34.676  21.122  27.543  1.00  0.00     0.163 HD
BRANCH   9  12
ATOM     12  C   UNL A   1      32.259  23.064  26.133  1.00  0.00     0.193 C 
ATOM     13  C   UNL A   1      32.035  29.725  25.733  1.00  0.00     0.023 C 
ATOM     14  C   UNL A   1      32.554  28.280  25.799  1.00  0.00     0.016 C 
ATOM     15  C   UNL A   1      33.653  28.203  26.868  1.00  0.00     0.023 C 
ATOM     16  C   UNL A   1      31.403  27.327  26.111  1.00  0.00     0.074 C 
ATOM     17  S   UNL A   1      33.167  27.865  24.117  1.00  0.00    -0.150 SA
ATOM     18  C   UNL A   1      31.740  25.838  26.102  1.00  0.00     0.049 C 
ATOM     19  C   UNL A   1      33.717  26.189  24.399  1.00  0.00     0.107 C 
ATOM     20  N   UNL A   1      31.002  25.101  26.869  1.00  0.00    -0.217 NA
ATOM     21  C   UNL A   1      32.778  25.317  25.168  1.00  0.00    -0.019 C 
ATOM     22  C   UNL A   1      31.106  23.731  26.876  1.00  0.00     0.262 C 
ATOM     23  C   UNL A   1      32.922  23.981  25.157  1.00  0.00     0.002 C 
ATOM     24  O   UNL A   1      30.264  23.044  27.456  1.00  0.00    -0.271 OA
ENDBRANCH   9  12
ENDBRANCH   7   8
ENDBRANCH   6   7
ENDBRANCH   5   6
ENDBRANCH   1   5
BRANCH   2  25
ATOM     25  C   UNL A   1      39.471  22.196  26.486  1.00  0.00     0.039 A 
ATOM     26  C   UNL A   1      40.490  22.122  27.440  1.00  0.00     0.014 A 
ATOM     27  C   UNL A   1      38.961  23.438  26.104  1.00  0.00     0.014 A 
ATOM     28  C   UNL A   1      41.064  23.296  27.935  1.00  0.00     0.010 A 
ATOM     29  C   UNL A   1      39.586  24.605  26.535  1.00  0.00     0.010 A 
ATOM     30  C   UNL A   1      40.654  24.545  27.442  1.00  0.00    -0.014 A 
BRANCH  30  31
ATOM     31  C   UNL A   1      41.369  25.796  27.801  1.00  0.00     0.031 A 
ATOM     32  C   UNL A   1      40.660  26.907  28.524  1.00  0.00     0.074 A 
ATOM     33  C   UNL A   1      42.629  25.977  27.354  1.00  0.00     0.049 A 
ATOM     34  N   UNL A   1      41.093  28.105  28.817  1.00  0.00    -0.248 NA
ATOM     35  C   UNL A   1      39.276  26.647  28.951  1.00  0.00     0.031 C 
ATOM     36  C   UNL A   1      43.397  25.003  26.573  1.00  0.00     0.029 A 
ATOM     37  N   UNL A   1      43.473  27.055  27.458  1.00  0.00    -0.354 N 
ATOM     38  C   UNL A   1      40.028  28.756  29.429  1.00  0.00     0.074 A 
ATOM     39  C   UNL A   1      38.919  27.825  29.443  1.00  0.00     0.031 C 
ATOM     40  C   UNL A   1      44.592  25.529  26.264  1.00  0.00     0.029 A 
ATOM     41  C   UNL A   1      44.662  26.890  26.784  1.00  0.00     0.049 A 
ATOM     42  H   UNL A   1      43.249  27.869  27.964  1.00  0.00     0.167 HD
ATOM     43  C   UNL A   1      39.985  30.004  29.953  1.00  0.00     0.034 A 
ATOM     44  C   UNL A   1      45.685  27.744  26.583  1.00  0.00     0.034 A 
ATOM     45  C   UNL A   1      41.100  30.912  29.962  1.00  0.00     0.049 A 
ATOM     46  C   UNL A   1      45.614  29.122  27.182  1.00  0.00     0.074 A 
ATOM     47  C   UNL A   1      41.187  32.159  30.557  1.00  0.00     0.029 A 
ATOM     48  N   UNL A   1      42.315  30.684  29.335  1.00  0.00    -0.354 N 
ATOM     49  N   UNL A   1      44.662  29.655  27.910  1.00  0.00    -0.248 NA
ATOM     50  C   UNL A   1      46.766  30.005  26.959  1.00  0.00     0.031 C 
ATOM     51  C   UNL A   1      42.442  32.699  30.256  1.00  0.00     0.029 A 
ATOM     52  C   UNL A   1      43.148  31.777  29.502  1.00  0.00     0.049 A 
ATOM     53  H   UNL A   1      42.550  29.864  28.841  1.00  0.00     0.167 HD
ATOM     54  C   UNL A   1      45.110  30.927  28.249  1.00  0.00     0.074 A 
ATOM     55  C   UNL A   1      46.431  31.072  27.672  1.00  0.00     0.031 C 
ATOM     56  C   UNL A   1      44.476  31.895  28.955  1.00  0.00     0.034 A 
BRANCH  43  57
ATOM     57  C   UNL A   1      38.700  30.451  30.600  1.00  0.00     0.023 A 
ATOM     58  C   UNL A   1      38.508  30.246  31.981  1.00  0.00     0.012 A 
ATOM     59  C   UNL A   1      37.713  31.131  29.859  1.00  0.00     0.148 A 
ATOM     60  C   UNL A   1      37.342  30.681  32.610  1.00  0.00     0.002 A 
ATOM     61  C   UNL A   1      36.574  31.602  30.501  1.00  0.00     0.091 A 
ATOM     62  F   UNL A   1      37.904  31.299  28.543  1.00  0.00    -0.205 F 
ATOM     63  C   UNL A   1      36.380  31.367  31.873  1.00  0.00     0.022 A 
BRANCH  61  64
ATOM     64  S   UNL A   1      35.313  32.565  29.659  1.00  0.00     0.127 S 
ATOM     65  O   UNL A   1      36.098  33.682  29.134  1.00  0.00    -0.237 OA
ATOM     66  O   UNL A   1      34.835  31.625  28.645  1.00  0.00    -0.237 OA
ATOM     67  O   UNL A   1      34.331  32.916  30.675  1.00  0.00    -0.744 OA
ENDBRANCH  61  64
ENDBRANCH  43  57
BRANCH  44  68
ATOM     68  C   UNL A   1      46.878  27.303  25.807  1.00  0.00     0.023 A 
ATOM     69  C   UNL A   1      47.793  26.407  26.394  1.00  0.00     0.012 A 
ATOM     70  C   UNL A   1      47.092  27.732  24.482  1.00  0.00     0.148 A 
ATOM     71  C   UNL A   1      48.915  25.972  25.686  1.00  0.00     0.002 A 
ATOM     72  C   UNL A   1      48.175  27.246  23.761  1.00  0.00     0.091 A 
ATOM     73  F   UNL A   1      46.218  28.596  23.945  1.00  0.00    -0.205 F 
ATOM     74  C   UNL A   1      49.100  26.382  24.368  1.00  0.00     0.022 A 
BRANCH  72  75
ATOM     75  S   UNL A   1      48.404  27.601  22.015  1.00  0.00     0.127 S 
ATOM     76  O   UNL A   1      49.566  28.485  22.038  1.00  0.00    -0.237 OA
ATOM     77  O   UNL A   1      48.653  26.268  21.465  1.00  0.00    -0.237 OA
ATOM     78  O   UNL A   1      47.154  28.203  21.569  1.00  0.00    -0.744 OA
ENDBRANCH  72  75
ENDBRANCH  44  68
BRANCH  56  79
ATOM     79  C   UNL A   1      45.203  33.199  29.161  1.00  0.00     0.023 A 
ATOM     80  C   UNL A   1      46.054  33.354  30.272  1.00  0.00     0.012 A 
ATOM     81  C   UNL A   1      45.104  34.238  28.214  1.00  0.00     0.148 A 
ATOM     82  C   UNL A   1      46.774  34.535  30.454  1.00  0.00     0.002 A 
ATOM     83  C   UNL A   1      45.862  35.391  28.376  1.00  0.00     0.091 A 
ATOM     84  F   UNL A   1      44.277  34.075  27.171  1.00  0.00    -0.205 F 
ATOM     85  C   UNL A   1      46.687  35.547  29.501  1.00  0.00     0.022 A 
BRANCH  83  86
ATOM     86  S   UNL A   1      45.889  36.710  27.156  1.00  0.00     0.127 S 
ATOM     87  O   UNL A   1      46.808  37.666  27.772  1.00  0.00    -0.237 OA
ATOM     88  O   UNL A   1      46.419  36.028  25.975  1.00  0.00    -0.237 OA
ATOM     89  O   UNL A   1      44.513  37.168  27.025  1.00  0.00    -0.744 OA
ENDBRANCH  83  86
ENDBRANCH  56  79
ENDBRANCH  30  31
ENDBRANCH   2  25
TORSDOF 13
ENDMDL
MODEL 3
REMARK VINA RESULT:     -13.2      1.445      1.700
REMARK SMILES CC1(C)CC2=NC(=O)[C@H](C(=O)NCCCNC(=O)c3ccc(-c4c5nc(c(-c6cccc(S(=O)(=O)[O-])c6F)c6ccc([nH]6)c(-c6cccc(S(=O)(=O)[O-])c6F)c6nc(c(-c7cccc(S(=O)(=O)[O-])c7F)c7ccc4[nH]7)C=C6)C=C5)cc3)C=C2CS1
REMARK SMILES IDX 16 1 17 2 18 3 15 5 14 6 13 7 12 8 10 9 11 10 9 12 1 13 2 14
REMARK SMILES IDX 3 15 4 16 85 17 5 18 84 19 6 20 83 21 7 22 82 23 8 24 19 25
REMARK SMILES IDX 20 26 81 27 21 28 80 29 22 30 23 31 24 32 74 33 25 34 79 35
REMARK SMILES IDX 73 36 75 37 26 38 78 39 72 40 71 41 27 43 59 44 39 45 58 46
REMARK SMILES IDX 40 47 43 48 57 49 76 50 41 51 42 52 56 54 77 55 44 56 28 57
REMARK SMILES IDX 29 58 37 59 30 60 32 61 38 62 31 63 33 64 34 65 35 66 36 67
REMARK SMILES IDX 60 68 61 69 69 70 62 71 64 72 70 73 63 74 65 75 66 76 67 77
REMARK SMILES IDX 68 78 45 79 46 80 54 81 47 82 49 83 55 84 48 85 50 86 51 87
REMARK SMILES IDX 52 88 53 89
REMARK H PARENT 16 4 12 11 75 42 43 53
REMARK Flexibility Score: inf
ROOT
ATOM      1  N   UNL A   1      32.421  31.129  26.340  1.00  0.00    -0.352 N 
ATOM      2  C   UNL A   1      33.114  31.924  27.220  1.00  0.00     0.251 C 
ATOM      3  O   UNL A   1      32.606  32.974  27.608  1.00  0.00    -0.269 OA
ATOM      4  H   UNL A   1      31.640  31.561  25.925  1.00  0.00     0.163 HD
ENDROOT
BRANCH   1   5
ATOM      5  C   UNL A   1      32.649  29.749  25.915  1.00  0.00     0.118 C 
BRANCH   5   6
ATOM      6  C   UNL A   1      31.412  29.132  25.266  1.00  0.00     0.042 C 
BRANCH   6   7
ATOM      7  C   UNL A   1      31.366  29.318  23.756  1.00  0.00     0.117 C 
BRANCH   7   8
ATOM      8  N   UNL A   1      32.622  28.994  23.100  1.00  0.00    -0.355 N 
ATOM      9  C   UNL A   1      33.174  27.855  22.597  1.00  0.00     0.236 C 
ATOM     10  O   UNL A   1      34.213  28.033  21.946  1.00  0.00    -0.274 OA
ATOM     11  H   UNL A   1      33.207  29.779  22.993  1.00  0.00     0.163 HD
BRANCH   9  12
ATOM     12  C   UNL A   1      32.617  26.431  22.779  1.00  0.00     0.193 C 
ATOM     13  C   UNL A   1      36.250  21.437  25.318  1.00  0.00     0.023 C 
ATOM     14  C   UNL A   1      35.584  22.807  25.121  1.00  0.00     0.016 C 
ATOM     15  C   UNL A   1      36.654  23.898  25.267  1.00  0.00     0.023 C 
ATOM     16  C   UNL A   1      34.909  22.867  23.752  1.00  0.00     0.074 C 
ATOM     17  S   UNL A   1      34.259  22.935  26.388  1.00  0.00    -0.150 SA
ATOM     18  C   UNL A   1      34.107  24.130  23.450  1.00  0.00     0.049 C 
ATOM     19  C   UNL A   1      33.624  24.560  26.002  1.00  0.00     0.107 C 
ATOM     20  N   UNL A   1      34.022  24.441  22.197  1.00  0.00    -0.217 NA
ATOM     21  C   UNL A   1      33.401  24.842  24.551  1.00  0.00    -0.019 C 
ATOM     22  C   UNL A   1      33.236  25.480  21.759  1.00  0.00     0.262 C 
ATOM     23  C   UNL A   1      32.632  25.876  24.167  1.00  0.00     0.002 C 
ATOM     24  O   UNL A   1      33.011  25.631  20.558  1.00  0.00    -0.271 OA
ENDBRANCH   9  12
ENDBRANCH   7   8
ENDBRANCH   6   7
ENDBRANCH   5   6
ENDBRANCH   1   5
BRANCH   2  25
ATOM     25  C   UNL A   1      34.451  31.525  27.708  1.00  0.00     0.039 A 
ATOM     26  C   UNL A   1      35.434  32.504  27.877  1.00  0.00     0.014 A 
ATOM     27  C   UNL A   1      34.742  30.188  27.983  1.00  0.00     0.014 A 
ATOM     28  C   UNL A   1      36.676  32.154  28.415  1.00  0.00     0.010 A 
ATOM     29  C   UNL A   1      35.947  29.853  28.594  1.00  0.00     0.010 A 
ATOM     30  C   UNL A   1      36.920  30.836  28.831  1.00  0.00    -0.014 A 
BRANCH  30  31
ATOM     31  C   UNL A   1      38.149  30.470  29.580  1.00  0.00     0.031 A 
ATOM     32  C   UNL A   1      39.127  29.478  29.015  1.00  0.00     0.074 A 
ATOM     33  C   UNL A   1      38.314  30.942  30.833  1.00  0.00     0.049 A 
ATOM     34  N   UNL A   1      40.189  28.960  29.574  1.00  0.00    -0.248 NA
ATOM     35  C   UNL A   1      38.862  28.983  27.654  1.00  0.00     0.031 C 
ATOM     36  C   UNL A   1      37.392  31.850  31.521  1.00  0.00     0.029 A 
ATOM     37  N   UNL A   1      39.291  30.695  31.765  1.00  0.00    -0.354 N 
ATOM     38  C   UNL A   1      40.701  28.054  28.653  1.00  0.00     0.074 A 
ATOM     39  C   UNL A   1      39.817  28.074  27.507  1.00  0.00     0.031 C 
ATOM     40  C   UNL A   1      37.843  32.078  32.764  1.00  0.00     0.029 A 
ATOM     41  C   UNL A   1      39.059  31.301  32.978  1.00  0.00     0.049 A 
ATOM     42  H   UNL A   1      40.081  30.137  31.583  1.00  0.00     0.167 HD
ATOM     43  C   UNL A   1      41.817  27.293  28.744  1.00  0.00     0.034 A 
ATOM     44  C   UNL A   1      39.732  31.222  34.144  1.00  0.00     0.034 A 
ATOM     45  C   UNL A   1      42.707  27.299  29.874  1.00  0.00     0.049 A 
ATOM     46  C   UNL A   1      40.973  30.375  34.214  1.00  0.00     0.074 A 
ATOM     47  C   UNL A   1      43.916  26.641  30.019  1.00  0.00     0.029 A 
ATOM     48  N   UNL A   1      42.481  27.983  31.059  1.00  0.00    -0.354 N 
ATOM     49  N   UNL A   1      41.536  29.660  33.270  1.00  0.00    -0.248 NA
ATOM     50  C   UNL A   1      41.686  30.345  35.498  1.00  0.00     0.031 C 
ATOM     51  C   UNL A   1      44.400  26.896  31.307  1.00  0.00     0.029 A 
ATOM     52  C   UNL A   1      43.510  27.739  31.951  1.00  0.00     0.049 A 
ATOM     53  H   UNL A   1      41.700  28.556  31.239  1.00  0.00     0.167 HD
ATOM     54  C   UNL A   1      42.681  29.113  33.839  1.00  0.00     0.074 A 
ATOM     55  C   UNL A   1      42.745  29.605  35.200  1.00  0.00     0.031 C 
ATOM     56  C   UNL A   1      43.585  28.265  33.291  1.00  0.00     0.034 A 
BRANCH  43  57
ATOM     57  C   UNL A   1      42.167  26.414  27.570  1.00  0.00     0.023 A 
ATOM     58  C   UNL A   1      42.928  26.942  26.508  1.00  0.00     0.012 A 
ATOM     59  C   UNL A   1      41.801  25.055  27.548  1.00  0.00     0.148 A 
ATOM     60  C   UNL A   1      43.294  26.141  25.427  1.00  0.00     0.002 A 
ATOM     61  C   UNL A   1      42.206  24.250  26.489  1.00  0.00     0.091 A 
ATOM     62  F   UNL A   1      41.059  24.575  28.557  1.00  0.00    -0.205 F 
ATOM     63  C   UNL A   1      42.941  24.794  25.423  1.00  0.00     0.022 A 
BRANCH  61  64
ATOM     64  S   UNL A   1      41.873  22.486  26.426  1.00  0.00     0.127 S 
ATOM     65  O   UNL A   1      40.411  22.465  26.382  1.00  0.00    -0.237 OA
ATOM     66  O   UNL A   1      42.527  22.095  25.177  1.00  0.00    -0.237 OA
ATOM     67  O   UNL A   1      42.469  21.921  27.628  1.00  0.00    -0.744 OA
ENDBRANCH  61  64
ENDBRANCH  43  57
BRANCH  44  68
ATOM     68  C   UNL A   1      39.262  31.998  35.326  1.00  0.00     0.023 A 
ATOM     69  C   UNL A   1      38.401  31.386  36.258  1.00  0.00     0.012 A 
ATOM     70  C   UNL A   1      39.692  33.320  35.555  1.00  0.00     0.148 A 
ATOM     71  C   UNL A   1      37.952  32.087  37.378  1.00  0.00     0.002 A 
ATOM     72  C   UNL A   1      39.292  33.991  36.704  1.00  0.00     0.091 A 
ATOM     73  F   UNL A   1      40.500  33.891  34.650  1.00  0.00    -0.205 F 
ATOM     74  C   UNL A   1      38.406  33.384  37.607  1.00  0.00     0.022 A 
BRANCH  72  75
ATOM     75  S   UNL A   1      39.950  35.601  37.153  1.00  0.00     0.127 S 
ATOM     76  O   UNL A   1      39.266  35.862  38.416  1.00  0.00    -0.237 OA
ATOM     77  O   UNL A   1      41.382  35.322  37.271  1.00  0.00    -0.237 OA
ATOM     78  O   UNL A   1      39.608  36.488  36.049  1.00  0.00    -0.744 OA
ENDBRANCH  72  75
ENDBRANCH  44  68
BRANCH  56  79
ATOM     79  C   UNL A   1      44.735  27.817  34.155  1.00  0.00     0.023 A 
ATOM     80  C   UNL A   1      45.910  28.590  34.206  1.00  0.00     0.012 A 
ATOM     81  C   UNL A   1      44.622  26.675  34.973  1.00  0.00     0.148 A 
ATOM     82  C   UNL A   1      46.968  28.220  35.036  1.00  0.00     0.002 A 
ATOM     83  C   UNL A   1      45.659  26.340  35.834  1.00  0.00     0.091 A 
ATOM     84  F   UNL A   1      43.500  25.944  34.898  1.00  0.00    -0.205 F 
ATOM     85  C   UNL A   1      46.838  27.103  35.858  1.00  0.00     0.022 A 
BRANCH  83  86
ATOM     86  S   UNL A   1      45.549  24.975  36.998  1.00  0.00     0.127 S 
ATOM     87  O   UNL A   1      44.427  25.390  37.838  1.00  0.00    -0.237 OA
ATOM     88  O   UNL A   1      45.266  23.841  36.117  1.00  0.00    -0.237 OA
ATOM     89  O   UNL A   1      46.839  24.913  37.671  1.00  0.00    -0.744 OA
ENDBRANCH  83  86
ENDBRANCH  56  79
ENDBRANCH  30  31
ENDBRANCH   2  25
TORSDOF 13
ENDMDL
