MODEL 1
REMARK VINA RESULT:     -11.8      0.000      0.000
REMARK SMILES COc1nc(-c2ccccc2)nc(C)c1CC(=O)NCCCNC(=O)c1ccc(-c2c3nc(c(-c4cccc(S(=O)(=O)[O-])c4F)c4ccc([nH]4)c(-c4cccc(S(=O)(=O)[O-])c4F)c4nc(c(-c5cccc(S(=O)(=O)[O-])c5F)c5ccc2[nH]5)C=C4)C=C3)cc1
REMARK SMILES IDX 21 1 20 2 19 3 17 4 18 5 16 7 15 8 3 9 4 10 5 11 13 12 12 13
REMARK SMILES IDX 14 14 2 15 1 16 6 17 7 18 11 19 8 20 10 21 9 22 22 23 23 24
REMARK SMILES IDX 24 25 25 27 26 28 27 29 88 30 28 31 87 32 29 33 30 34 31 35
REMARK SMILES IDX 81 36 32 37 86 38 80 39 82 40 33 41 85 42 79 43 78 44 34 46
REMARK SMILES IDX 66 47 46 48 65 49 47 50 50 51 64 52 83 53 48 54 49 55 63 57
REMARK SMILES IDX 84 58 51 59 35 60 36 61 44 62 37 63 39 64 45 65 38 66 40 67
REMARK SMILES IDX 41 68 42 69 43 70 67 71 68 72 76 73 69 74 71 75 77 76 70 77
REMARK SMILES IDX 72 78 73 79 74 80 75 81 52 82 53 83 61 84 54 85 56 86 62 87
REMARK SMILES IDX 55 88 57 89 58 90 59 91 60 92
REMARK H PARENT 19 6 23 26 82 45 50 56
REMARK Flexibility Score: inf
ROOT
ATOM      1  C   UNL A   1      33.696  28.422  24.560  1.00  0.00     0.042 C 
ENDROOT
BRANCH   1   2
ATOM      2  C   UNL A   1      32.891  27.166  24.240  1.00  0.00     0.117 C 
BRANCH   2   3
ATOM      3  N   UNL A   1      33.550  26.289  23.290  1.00  0.00    -0.356 N 
ATOM      4  C   UNL A   1      33.999  25.009  23.425  1.00  0.00     0.224 C 
ATOM      5  O   UNL A   1      34.401  24.446  22.403  1.00  0.00    -0.275 OA
ATOM      6  H   UNL A   1      33.696  26.684  22.401  1.00  0.00     0.163 HD
BRANCH   4   7
ATOM      7  C   UNL A   1      33.939  24.262  24.751  1.00  0.00     0.143 C 
BRANCH   7   8
ATOM      8  C   UNL A   1      33.836  22.768  24.641  1.00  0.00     0.045 A 
ATOM      9  C   UNL A   1      34.924  21.953  24.936  1.00  0.00     0.220 A 
ATOM     10  N   UNL A   1      34.903  20.608  24.977  1.00  0.00    -0.193 NA
ATOM     11  C   UNL A   1      33.732  20.047  24.644  1.00  0.00     0.163 A 
ATOM     12  C   UNL A   1      32.694  22.083  24.257  1.00  0.00     0.049 A 
ATOM     13  N   UNL A   1      32.640  20.738  24.258  1.00  0.00    -0.233 NA
ATOM     14  C   UNL A   1      31.419  22.719  23.790  1.00  0.00     0.067 C 
BRANCH   9  15
ATOM     15  O   UNL A   1      36.171  22.541  24.957  1.00  0.00    -0.481 OA
ATOM     16  C   UNL A   1      37.206  21.623  24.630  1.00  0.00     0.280 C 
ENDBRANCH   9  15
BRANCH  11  17
ATOM     17  C   UNL A   1      33.574  18.588  24.673  1.00  0.00     0.019 A 
ATOM     18  C   UNL A   1      32.579  17.998  25.479  1.00  0.00     0.012 A 
ATOM     19  C   UNL A   1      34.458  17.734  23.994  1.00  0.00     0.012 A 
ATOM     20  C   UNL A   1      32.478  16.611  25.615  1.00  0.00     0.001 A 
ATOM     21  C   UNL A   1      34.369  16.345  24.144  1.00  0.00     0.001 A 
ATOM     22  C   UNL A   1      33.383  15.787  24.955  1.00  0.00     0.000 A 
ENDBRANCH  11  17
ENDBRANCH   7   8
ENDBRANCH   4   7
ENDBRANCH   2   3
ENDBRANCH   1   2
BRANCH   1  23
ATOM     23  C   UNL A   1      34.096  28.562  26.028  1.00  0.00     0.118 C 
BRANCH  23  24
ATOM     24  N   UNL A   1      33.843  29.895  26.558  1.00  0.00    -0.352 N 
ATOM     25  C   UNL A   1      34.512  30.624  27.510  1.00  0.00     0.251 C 
ATOM     26  H   UNL A   1      33.062  30.350  26.167  1.00  0.00     0.163 HD
ATOM     27  O   UNL A   1      33.997  31.655  27.938  1.00  0.00    -0.269 OA
BRANCH  25  28
ATOM     28  C   UNL A   1      35.827  30.187  28.028  1.00  0.00     0.039 A 
ATOM     29  C   UNL A   1      35.902  29.673  29.327  1.00  0.00     0.014 A 
ATOM     30  C   UNL A   1      36.991  30.329  27.270  1.00  0.00     0.014 A 
ATOM     31  C   UNL A   1      37.131  29.246  29.839  1.00  0.00     0.010 A 
ATOM     32  C   UNL A   1      38.204  29.838  27.755  1.00  0.00     0.010 A 
ATOM     33  C   UNL A   1      38.288  29.295  29.046  1.00  0.00    -0.014 A 
BRANCH  33  34
ATOM     34  C   UNL A   1      39.590  28.773  29.541  1.00  0.00     0.031 A 
ATOM     35  C   UNL A   1      40.339  29.502  30.626  1.00  0.00     0.074 A 
ATOM     36  C   UNL A   1      40.137  27.690  28.955  1.00  0.00     0.049 A 
ATOM     37  N   UNL A   1      41.524  29.252  31.120  1.00  0.00    -0.248 NA
ATOM     38  C   UNL A   1      39.683  30.681  31.216  1.00  0.00     0.031 C 
ATOM     39  C   UNL A   1      39.547  26.939  27.844  1.00  0.00     0.029 A 
ATOM     40  N   UNL A   1      41.330  27.050  29.188  1.00  0.00    -0.354 N 
ATOM     41  C   UNL A   1      41.766  30.251  32.056  1.00  0.00     0.074 A 
ATOM     42  C   UNL A   1      40.621  31.134  32.035  1.00  0.00     0.031 C 
ATOM     43  C   UNL A   1      40.382  25.950  27.488  1.00  0.00     0.029 A 
ATOM     44  C   UNL A   1      41.578  26.012  28.321  1.00  0.00     0.049 A 
ATOM     45  H   UNL A   1      41.949  27.312  29.907  1.00  0.00     0.167 HD
ATOM     46  C   UNL A   1      42.829  30.402  32.883  1.00  0.00     0.034 A 
ATOM     47  C   UNL A   1      42.654  25.209  28.199  1.00  0.00     0.034 A 
ATOM     48  C   UNL A   1      43.949  29.501  32.931  1.00  0.00     0.049 A 
ATOM     49  C   UNL A   1      43.806  25.381  29.152  1.00  0.00     0.074 A 
ATOM     50  C   UNL A   1      45.047  29.538  33.772  1.00  0.00     0.029 A 
ATOM     51  N   UNL A   1      44.114  28.399  32.107  1.00  0.00    -0.354 N 
ATOM     52  N   UNL A   1      43.951  26.250  30.123  1.00  0.00    -0.248 NA
ATOM     53  C   UNL A   1      44.926  24.438  29.020  1.00  0.00     0.031 C 
ATOM     54  C   UNL A   1      45.881  28.463  33.450  1.00  0.00     0.029 A 
ATOM     55  C   UNL A   1      45.293  27.744  32.424  1.00  0.00     0.049 A 
ATOM     56  H   UNL A   1      43.487  28.122  31.401  1.00  0.00     0.167 HD
ATOM     57  C   UNL A   1      45.157  25.934  30.739  1.00  0.00     0.074 A 
ATOM     58  C   UNL A   1      45.690  24.780  30.048  1.00  0.00     0.031 C 
ATOM     59  C   UNL A   1      45.778  26.556  31.771  1.00  0.00     0.034 A 
BRANCH  46  60
ATOM     60  C   UNL A   1      42.799  31.546  33.864  1.00  0.00     0.023 A 
ATOM     61  C   UNL A   1      43.251  32.816  33.450  1.00  0.00     0.012 A 
ATOM     62  C   UNL A   1      42.254  31.393  35.154  1.00  0.00     0.148 A 
ATOM     63  C   UNL A   1      43.186  33.910  34.312  1.00  0.00     0.002 A 
ATOM     64  C   UNL A   1      42.155  32.498  35.993  1.00  0.00     0.091 A 
ATOM     65  F   UNL A   1      41.845  30.175  35.534  1.00  0.00    -0.205 F 
ATOM     66  C   UNL A   1      42.630  33.753  35.577  1.00  0.00     0.022 A 
BRANCH  64  67
ATOM     67  S   UNL A   1      41.385  32.424  37.615  1.00  0.00     0.127 S 
ATOM     68  O   UNL A   1      40.051  31.925  37.285  1.00  0.00    -0.237 OA
ATOM     69  O   UNL A   1      42.239  31.464  38.315  1.00  0.00    -0.237 OA
ATOM     70  O   UNL A   1      41.428  33.779  38.144  1.00  0.00    -0.744 OA
ENDBRANCH  64  67
ENDBRANCH  46  60
BRANCH  47  71
ATOM     71  C   UNL A   1      42.681  24.139  27.162  1.00  0.00     0.023 A 
ATOM     72  C   UNL A   1      43.330  24.377  25.935  1.00  0.00     0.012 A 
ATOM     73  C   UNL A   1      42.065  22.893  27.383  1.00  0.00     0.148 A 
ATOM     74  C   UNL A   1      43.324  23.410  24.928  1.00  0.00     0.002 A 
ATOM     75  C   UNL A   1      42.110  21.914  26.396  1.00  0.00     0.091 A 
ATOM     76  F   UNL A   1      41.446  22.687  28.554  1.00  0.00    -0.205 F 
ATOM     77  C   UNL A   1      42.722  22.177  25.162  1.00  0.00     0.022 A 
BRANCH  75  78
ATOM     78  S   UNL A   1      41.461  20.260  26.655  1.00  0.00     0.127 S 
ATOM     79  O   UNL A   1      40.034  20.519  26.818  1.00  0.00    -0.237 OA
ATOM     80  O   UNL A   1      41.828  19.589  25.409  1.00  0.00    -0.237 OA
ATOM     81  O   UNL A   1      42.149  19.751  27.834  1.00  0.00    -0.744 OA
ENDBRANCH  75  78
ENDBRANCH  47  71
BRANCH  59  82
ATOM     82  C   UNL A   1      47.081  25.977  32.255  1.00  0.00     0.023 A 
ATOM     83  C   UNL A   1      48.296  26.421  31.698  1.00  0.00     0.012 A 
ATOM     84  C   UNL A   1      47.102  25.044  33.311  1.00  0.00     0.148 A 
ATOM     85  C   UNL A   1      49.511  25.922  32.163  1.00  0.00     0.002 A 
ATOM     86  C   UNL A   1      48.319  24.588  33.801  1.00  0.00     0.091 A 
ATOM     87  F   UNL A   1      45.933  24.620  33.814  1.00  0.00    -0.205 F 
ATOM     88  C   UNL A   1      49.524  25.016  33.221  1.00  0.00     0.022 A 
BRANCH  86  89
ATOM     89  S   UNL A   1      48.435  23.493  35.221  1.00  0.00     0.127 S 
ATOM     90  O   UNL A   1      47.765  22.293  34.728  1.00  0.00    -0.237 OA
ATOM     91  O   UNL A   1      49.883  23.358  35.390  1.00  0.00    -0.237 OA
ATOM     92  O   UNL A   1      47.763  24.181  36.314  1.00  0.00    -0.744 OA
ENDBRANCH  86  89
ENDBRANCH  59  82
ENDBRANCH  33  34
ENDBRANCH  25  28
ENDBRANCH  23  24
ENDBRANCH   1  23
TORSDOF 16
ENDMDL
MODEL 2
REMARK VINA RESULT:     -11.8      2.061      2.878
REMARK SMILES COc1nc(-c2ccccc2)nc(C)c1CC(=O)NCCCNC(=O)c1ccc(-c2c3nc(c(-c4cccc(S(=O)(=O)[O-])c4F)c4ccc([nH]4)c(-c4cccc(S(=O)(=O)[O-])c4F)c4nc(c(-c5cccc(S(=O)(=O)[O-])c5F)c5ccc2[nH]5)C=C4)C=C3)cc1
REMARK SMILES IDX 21 1 20 2 19 3 17 4 18 5 16 7 15 8 3 9 4 10 5 11 13 12 12 13
REMARK SMILES IDX 14 14 2 15 1 16 6 17 7 18 11 19 8 20 10 21 9 22 22 23 23 24
REMARK SMILES IDX 24 25 25 27 26 28 27 29 88 30 28 31 87 32 29 33 30 34 31 35
REMARK SMILES IDX 81 36 32 37 86 38 80 39 82 40 33 41 85 42 79 43 78 44 34 46
REMARK SMILES IDX 66 47 46 48 65 49 47 50 50 51 64 52 83 53 48 54 49 55 63 57
REMARK SMILES IDX 84 58 51 59 35 60 36 61 44 62 37 63 39 64 45 65 38 66 40 67
REMARK SMILES IDX 41 68 42 69 43 70 67 71 68 72 76 73 69 74 71 75 77 76 70 77
REMARK SMILES IDX 72 78 73 79 74 80 75 81 52 82 53 83 61 84 54 85 56 86 62 87
REMARK SMILES IDX 55 88 57 89 58 90 59 91 60 92
REMARK H PARENT 19 6 23 26 82 45 50 56
REMARK Flexibility Score: inf
ROOT
ATOM      1  C   UNL A   1      33.125  28.803  25.000  1.00  0.00     0.042 C 
ENDROOT
BRANCH   1   2
ATOM      2  C   UNL A   1      31.608  28.901  25.126  1.00  0.00     0.117 C 
BRANCH   2   3
ATOM      3  N   UNL A   1      30.938  29.087  23.852  1.00  0.00    -0.356 N 
ATOM      4  C   UNL A   1      30.194  28.222  23.105  1.00  0.00     0.224 C 
ATOM      5  O   UNL A   1      29.619  28.688  22.117  1.00  0.00    -0.275 OA
ATOM      6  H   UNL A   1      31.038  29.985  23.463  1.00  0.00     0.163 HD
BRANCH   4   7
ATOM      7  C   UNL A   1      30.001  26.764  23.501  1.00  0.00     0.143 C 
BRANCH   7   8
ATOM      8  C   UNL A   1      31.268  25.981  23.701  1.00  0.00     0.045 A 
ATOM      9  C   UNL A   1      32.165  25.795  22.653  1.00  0.00     0.220 A 
ATOM     10  N   UNL A   1      33.373  25.211  22.755  1.00  0.00    -0.193 NA
ATOM     11  C   UNL A   1      33.672  24.733  23.972  1.00  0.00     0.163 A 
ATOM     12  C   UNL A   1      31.655  25.399  24.897  1.00  0.00     0.049 A 
ATOM     13  N   UNL A   1      32.842  24.782  25.033  1.00  0.00    -0.233 NA
ATOM     14  C   UNL A   1      30.829  25.363  26.148  1.00  0.00     0.067 C 
BRANCH   9  15
ATOM     15  O   UNL A   1      31.699  26.005  21.373  1.00  0.00    -0.481 OA
ATOM     16  C   UNL A   1      32.620  25.564  20.384  1.00  0.00     0.280 C 
ENDBRANCH   9  15
BRANCH  11  17
ATOM     17  C   UNL A   1      34.970  24.093  24.218  1.00  0.00     0.019 A 
ATOM     18  C   UNL A   1      35.505  23.190  23.275  1.00  0.00     0.012 A 
ATOM     19  C   UNL A   1      35.666  24.269  25.424  1.00  0.00     0.012 A 
ATOM     20  C   UNL A   1      36.681  22.481  23.533  1.00  0.00     0.001 A 
ATOM     21  C   UNL A   1      36.834  23.545  25.690  1.00  0.00     0.001 A 
ATOM     22  C   UNL A   1      37.337  22.651  24.746  1.00  0.00     0.000 A 
ENDBRANCH  11  17
ENDBRANCH   7   8
ENDBRANCH   4   7
ENDBRANCH   2   3
ENDBRANCH   1   2
BRANCH   1  23
ATOM     23  C   UNL A   1      33.882  28.952  26.320  1.00  0.00     0.118 C 
BRANCH  23  24
ATOM     24  N   UNL A   1      33.826  30.307  26.852  1.00  0.00    -0.352 N 
ATOM     25  C   UNL A   1      34.626  30.944  27.768  1.00  0.00     0.251 C 
ATOM     26  H   UNL A   1      33.093  30.859  26.494  1.00  0.00     0.163 HD
ATOM     27  O   UNL A   1      34.269  32.033  28.212  1.00  0.00    -0.269 OA
BRANCH  25  28
ATOM     28  C   UNL A   1      35.897  30.342  28.228  1.00  0.00     0.039 A 
ATOM     29  C   UNL A   1      37.024  30.439  27.406  1.00  0.00     0.014 A 
ATOM     30  C   UNL A   1      35.975  29.636  29.430  1.00  0.00     0.014 A 
ATOM     31  C   UNL A   1      38.240  29.886  27.818  1.00  0.00     0.010 A 
ATOM     32  C   UNL A   1      37.204  29.146  29.873  1.00  0.00     0.010 A 
ATOM     33  C   UNL A   1      38.349  29.261  29.071  1.00  0.00    -0.014 A 
BRANCH  33  34
ATOM     34  C   UNL A   1      39.649  28.735  29.564  1.00  0.00     0.031 A 
ATOM     35  C   UNL A   1      40.400  29.459  30.651  1.00  0.00     0.074 A 
ATOM     36  C   UNL A   1      40.192  27.651  28.976  1.00  0.00     0.049 A 
ATOM     37  N   UNL A   1      41.584  29.204  31.145  1.00  0.00    -0.248 NA
ATOM     38  C   UNL A   1      39.748  30.639  31.244  1.00  0.00     0.031 C 
ATOM     39  C   UNL A   1      39.601  26.905  27.863  1.00  0.00     0.029 A 
ATOM     40  N   UNL A   1      41.384  27.008  29.207  1.00  0.00    -0.354 N 
ATOM     41  C   UNL A   1      41.830  30.200  32.083  1.00  0.00     0.074 A 
ATOM     42  C   UNL A   1      40.687  31.087  32.064  1.00  0.00     0.031 C 
ATOM     43  C   UNL A   1      40.432  25.913  27.505  1.00  0.00     0.029 A 
ATOM     44  C   UNL A   1      41.628  25.970  28.338  1.00  0.00     0.049 A 
ATOM     45  H   UNL A   1      42.004  27.265  29.928  1.00  0.00     0.167 HD
ATOM     46  C   UNL A   1      42.893  30.346  32.911  1.00  0.00     0.034 A 
ATOM     47  C   UNL A   1      42.702  25.164  28.215  1.00  0.00     0.034 A 
ATOM     48  C   UNL A   1      44.010  29.441  32.957  1.00  0.00     0.049 A 
ATOM     49  C   UNL A   1      43.854  25.330  29.169  1.00  0.00     0.074 A 
ATOM     50  C   UNL A   1      45.108  29.473  33.798  1.00  0.00     0.029 A 
ATOM     51  N   UNL A   1      44.172  28.341  32.130  1.00  0.00    -0.354 N 
ATOM     52  N   UNL A   1      44.002  26.197  30.141  1.00  0.00    -0.248 NA
ATOM     53  C   UNL A   1      44.971  24.385  29.034  1.00  0.00     0.031 C 
ATOM     54  C   UNL A   1      45.939  28.396  33.474  1.00  0.00     0.029 A 
ATOM     55  C   UNL A   1      45.348  27.681  32.446  1.00  0.00     0.049 A 
ATOM     56  H   UNL A   1      43.544  28.067  31.424  1.00  0.00     0.167 HD
ATOM     57  C   UNL A   1      45.207  25.876  30.756  1.00  0.00     0.074 A 
ATOM     58  C   UNL A   1      45.737  24.721  30.063  1.00  0.00     0.031 C 
ATOM     59  C   UNL A   1      45.830  26.493  31.790  1.00  0.00     0.034 A 
BRANCH  46  60
ATOM     60  C   UNL A   1      42.867  31.488  33.894  1.00  0.00     0.023 A 
ATOM     61  C   UNL A   1      43.390  32.738  33.507  1.00  0.00     0.012 A 
ATOM     62  C   UNL A   1      42.257  31.355  35.158  1.00  0.00     0.148 A 
ATOM     63  C   UNL A   1      43.332  33.832  34.370  1.00  0.00     0.002 A 
ATOM     64  C   UNL A   1      42.166  32.460  35.996  1.00  0.00     0.091 A 
ATOM     65  F   UNL A   1      41.779  30.155  35.513  1.00  0.00    -0.205 F 
ATOM     66  C   UNL A   1      42.712  33.696  35.607  1.00  0.00     0.022 A 
BRANCH  64  67
ATOM     67  S   UNL A   1      41.320  32.416  37.580  1.00  0.00     0.127 S 
ATOM     68  O   UNL A   1      42.168  31.499  38.341  1.00  0.00    -0.237 OA
ATOM     69  O   UNL A   1      41.397  33.813  38.008  1.00  0.00    -0.237 OA
ATOM     70  O   UNL A   1      39.974  31.934  37.306  1.00  0.00    -0.744 OA
ENDBRANCH  64  67
ENDBRANCH  46  60
BRANCH  47  71
ATOM     71  C   UNL A   1      42.725  24.096  27.176  1.00  0.00     0.023 A 
ATOM     72  C   UNL A   1      43.366  24.339  25.944  1.00  0.00     0.012 A 
ATOM     73  C   UNL A   1      42.115  22.848  27.397  1.00  0.00     0.148 A 
ATOM     74  C   UNL A   1      43.357  23.375  24.936  1.00  0.00     0.002 A 
ATOM     75  C   UNL A   1      42.157  21.871  26.408  1.00  0.00     0.091 A 
ATOM     76  F   UNL A   1      41.504  22.638  28.572  1.00  0.00    -0.205 F 
ATOM     77  C   UNL A   1      42.760  22.139  25.170  1.00  0.00     0.022 A 
BRANCH  75  78
ATOM     78  S   UNL A   1      41.514  20.215  26.668  1.00  0.00     0.127 S 
ATOM     79  O   UNL A   1      42.260  19.784  27.846  1.00  0.00    -0.237 OA
ATOM     80  O   UNL A   1      40.093  20.470  26.896  1.00  0.00    -0.237 OA
ATOM     81  O   UNL A   1      41.802  19.487  25.438  1.00  0.00    -0.744 OA
ENDBRANCH  75  78
ENDBRANCH  47  71
BRANCH  59  82
ATOM     82  C   UNL A   1      47.131  25.908  32.273  1.00  0.00     0.023 A 
ATOM     83  C   UNL A   1      48.345  26.329  31.697  1.00  0.00     0.012 A 
ATOM     84  C   UNL A   1      47.152  24.996  33.346  1.00  0.00     0.148 A 
ATOM     85  C   UNL A   1      49.560  25.825  32.160  1.00  0.00     0.002 A 
ATOM     86  C   UNL A   1      48.368  24.536  33.833  1.00  0.00     0.091 A 
ATOM     87  F   UNL A   1      45.983  24.594  33.868  1.00  0.00    -0.205 F 
ATOM     88  C   UNL A   1      49.572  24.939  33.234  1.00  0.00     0.022 A 
BRANCH  86  89
ATOM     89  S   UNL A   1      48.486  23.467  35.273  1.00  0.00     0.127 S 
ATOM     90  O   UNL A   1      49.897  23.601  35.628  1.00  0.00    -0.237 OA
ATOM     91  O   UNL A   1      47.558  24.103  36.208  1.00  0.00    -0.237 OA
ATOM     92  O   UNL A   1      48.077  22.143  34.824  1.00  0.00    -0.744 OA
ENDBRANCH  86  89
ENDBRANCH  59  82
ENDBRANCH  33  34
ENDBRANCH  25  28
ENDBRANCH  23  24
ENDBRANCH   1  23
TORSDOF 16
ENDMDL
MODEL 3
REMARK VINA RESULT:     -11.7      1.639      2.221
REMARK SMILES COc1nc(-c2ccccc2)nc(C)c1CC(=O)NCCCNC(=O)c1ccc(-c2c3nc(c(-c4cccc(S(=O)(=O)[O-])c4F)c4ccc([nH]4)c(-c4cccc(S(=O)(=O)[O-])c4F)c4nc(c(-c5cccc(S(=O)(=O)[O-])c5F)c5ccc2[nH]5)C=C4)C=C3)cc1
REMARK SMILES IDX 21 1 20 2 19 3 17 4 18 5 16 7 15 8 3 9 4 10 5 11 13 12 12 13
REMARK SMILES IDX 14 14 2 15 1 16 6 17 7 18 11 19 8 20 10 21 9 22 22 23 23 24
REMARK SMILES IDX 24 25 25 27 26 28 27 29 88 30 28 31 87 32 29 33 30 34 31 35
REMARK SMILES IDX 81 36 32 37 86 38 80 39 82 40 33 41 85 42 79 43 78 44 34 46
REMARK SMILES IDX 66 47 46 48 65 49 47 50 50 51 64 52 83 53 48 54 49 55 63 57
REMARK SMILES IDX 84 58 51 59 35 60 36 61 44 62 37 63 39 64 45 65 38 66 40 67
REMARK SMILES IDX 41 68 42 69 43 70 67 71 68 72 76 73 69 74 71 75 77 76 70 77
REMARK SMILES IDX 72 78 73 79 74 80 75 81 52 82 53 83 61 84 54 85 56 86 62 87
REMARK SMILES IDX 55 88 57 89 58 90 59 91 60 92
REMARK H PARENT 19 6 23 26 82 45 50 56
REMARK Flexibility Score: inf
ROOT
ATOM      1  C   UNL A   1      33.879  28.079  25.824  1.00  0.00     0.042 C 
ENDROOT
BRANCH   1   2
ATOM      2  C   UNL A   1      32.807  27.367  25.004  1.00  0.00     0.117 C 
BRANCH   2   3
ATOM      3  N   UNL A   1      32.034  26.414  25.777  1.00  0.00    -0.356 N 
ATOM      4  C   UNL A   1      32.312  25.130  26.140  1.00  0.00     0.224 C 
ATOM      5  O   UNL A   1      31.529  24.588  26.925  1.00  0.00    -0.275 OA
ATOM      6  H   UNL A   1      31.164  26.750  26.090  1.00  0.00     0.163 HD
BRANCH   4   7
ATOM      7  C   UNL A   1      33.570  24.408  25.675  1.00  0.00     0.143 C 
BRANCH   7   8
ATOM      8  C   UNL A   1      33.440  22.918  25.537  1.00  0.00     0.045 A 
ATOM      9  C   UNL A   1      33.096  22.341  24.319  1.00  0.00     0.220 A 
ATOM     10  N   UNL A   1      33.064  21.020  24.063  1.00  0.00    -0.193 NA
ATOM     11  C   UNL A   1      33.338  20.231  25.112  1.00  0.00     0.163 A 
ATOM     12  C   UNL A   1      33.648  22.011  26.563  1.00  0.00     0.049 A 
ATOM     13  N   UNL A   1      33.599  20.682  26.355  1.00  0.00    -0.233 NA
ATOM     14  C   UNL A   1      33.929  22.369  27.992  1.00  0.00     0.067 C 
BRANCH   9  15
ATOM     15  O   UNL A   1      32.517  23.156  23.371  1.00  0.00    -0.481 OA
ATOM     16  C   UNL A   1      33.220  23.132  22.136  1.00  0.00     0.280 C 
ENDBRANCH   9  15
BRANCH  11  17
ATOM     17  C   UNL A   1      33.357  18.771  24.957  1.00  0.00     0.019 A 
ATOM     18  C   UNL A   1      34.047  18.183  23.876  1.00  0.00     0.012 A 
ATOM     19  C   UNL A   1      32.616  17.927  25.799  1.00  0.00     0.012 A 
ATOM     20  C   UNL A   1      33.989  16.808  23.637  1.00  0.00     0.001 A 
ATOM     21  C   UNL A   1      32.543  16.551  25.549  1.00  0.00     0.001 A 
ATOM     22  C   UNL A   1      33.226  15.996  24.469  1.00  0.00     0.000 A 
ENDBRANCH  11  17
ENDBRANCH   7   8
ENDBRANCH   4   7
ENDBRANCH   2   3
ENDBRANCH   1   2
BRANCH   1  23
ATOM     23  C   UNL A   1      33.403  28.586  27.186  1.00  0.00     0.118 C 
BRANCH  23  24
ATOM     24  N   UNL A   1      33.503  30.033  27.316  1.00  0.00    -0.352 N 
ATOM     25  C   UNL A   1      34.466  30.817  27.903  1.00  0.00     0.251 C 
ATOM     26  H   UNL A   1      32.755  30.534  26.915  1.00  0.00     0.163 HD
ATOM     27  O   UNL A   1      34.239  32.014  28.063  1.00  0.00    -0.269 OA
BRANCH  25  28
ATOM     28  C   UNL A   1      35.756  30.245  28.344  1.00  0.00     0.039 A 
ATOM     29  C   UNL A   1      36.842  30.272  27.462  1.00  0.00     0.014 A 
ATOM     30  C   UNL A   1      35.894  29.635  29.593  1.00  0.00     0.014 A 
ATOM     31  C   UNL A   1      38.075  29.745  27.855  1.00  0.00     0.010 A 
ATOM     32  C   UNL A   1      37.142  29.173  30.011  1.00  0.00     0.010 A 
ATOM     33  C   UNL A   1      38.245  29.220  29.146  1.00  0.00    -0.014 A 
BRANCH  33  34
ATOM     34  C   UNL A   1      39.568  28.726  29.614  1.00  0.00     0.031 A 
ATOM     35  C   UNL A   1      40.325  29.472  30.681  1.00  0.00     0.074 A 
ATOM     36  C   UNL A   1      40.124  27.652  29.019  1.00  0.00     0.049 A 
ATOM     37  N   UNL A   1      41.525  29.248  31.150  1.00  0.00    -0.248 NA
ATOM     38  C   UNL A   1      39.658  30.640  31.282  1.00  0.00     0.031 C 
ATOM     39  C   UNL A   1      39.526  26.886  27.923  1.00  0.00     0.029 A 
ATOM     40  N   UNL A   1      41.334  27.037  29.228  1.00  0.00    -0.354 N 
ATOM     41  C   UNL A   1      41.768  30.254  32.078  1.00  0.00     0.074 A 
ATOM     42  C   UNL A   1      40.604  31.114  32.079  1.00  0.00     0.031 C 
ATOM     43  C   UNL A   1      40.372  25.913  27.552  1.00  0.00     0.029 A 
ATOM     44  C   UNL A   1      41.584  26.001  28.358  1.00  0.00     0.049 A 
ATOM     45  H   UNL A   1      41.963  27.313  29.934  1.00  0.00     0.167 HD
ATOM     46  C   UNL A   1      42.844  30.428  32.883  1.00  0.00     0.034 A 
ATOM     47  C   UNL A   1      42.673  25.219  28.216  1.00  0.00     0.034 A 
ATOM     48  C   UNL A   1      43.983  29.550  32.908  1.00  0.00     0.049 A 
ATOM     49  C   UNL A   1      43.841  25.417  29.144  1.00  0.00     0.074 A 
ATOM     50  C   UNL A   1      45.098  29.611  33.725  1.00  0.00     0.029 A 
ATOM     51  N   UNL A   1      44.153  28.450  32.084  1.00  0.00    -0.354 N 
ATOM     52  N   UNL A   1      43.990  26.292  30.109  1.00  0.00    -0.248 NA
ATOM     53  C   UNL A   1      44.977  24.497  28.989  1.00  0.00     0.031 C 
ATOM     54  C   UNL A   1      45.946  28.552  33.388  1.00  0.00     0.029 A 
ATOM     55  C   UNL A   1      45.350  27.819  32.377  1.00  0.00     0.049 A 
ATOM     56  H   UNL A   1      43.516  28.158  31.392  1.00  0.00     0.167 HD
ATOM     57  C   UNL A   1      45.215  26.002  30.699  1.00  0.00     0.074 A 
ATOM     58  C   UNL A   1      45.756  24.856  30.000  1.00  0.00     0.031 C 
ATOM     59  C   UNL A   1      45.845  26.639  31.717  1.00  0.00     0.034 A 
BRANCH  46  60
ATOM     60  C   UNL A   1      42.813  31.574  33.860  1.00  0.00     0.023 A 
ATOM     61  C   UNL A   1      43.231  32.851  33.434  1.00  0.00     0.012 A 
ATOM     62  C   UNL A   1      42.298  31.414  35.163  1.00  0.00     0.148 A 
ATOM     63  C   UNL A   1      43.163  33.947  34.294  1.00  0.00     0.002 A 
ATOM     64  C   UNL A   1      42.195  32.519  36.001  1.00  0.00     0.091 A 
ATOM     65  F   UNL A   1      41.920  30.190  35.554  1.00  0.00    -0.205 F 
ATOM     66  C   UNL A   1      42.636  33.783  35.571  1.00  0.00     0.022 A 
BRANCH  64  67
ATOM     67  S   UNL A   1      41.460  32.435  37.638  1.00  0.00     0.127 S 
ATOM     68  O   UNL A   1      41.539  33.830  38.069  1.00  0.00    -0.237 OA
ATOM     69  O   UNL A   1      40.107  31.965  37.343  1.00  0.00    -0.237 OA
ATOM     70  O   UNL A   1      42.278  31.503  38.400  1.00  0.00    -0.744 OA
ENDBRANCH  64  67
ENDBRANCH  46  60
BRANCH  47  71
ATOM     71  C   UNL A   1      42.699  24.147  27.181  1.00  0.00     0.023 A 
ATOM     72  C   UNL A   1      43.323  24.392  25.942  1.00  0.00     0.012 A 
ATOM     73  C   UNL A   1      42.107  22.892  27.415  1.00  0.00     0.148 A 
ATOM     74  C   UNL A   1      43.315  23.423  24.938  1.00  0.00     0.002 A 
ATOM     75  C   UNL A   1      42.151  21.911  26.430  1.00  0.00     0.091 A 
ATOM     76  F   UNL A   1      41.512  22.680  28.598  1.00  0.00    -0.205 F 
ATOM     77  C   UNL A   1      42.738  22.181  25.185  1.00  0.00     0.022 A 
BRANCH  75  78
ATOM     78  S   UNL A   1      41.534  20.247  26.705  1.00  0.00     0.127 S 
ATOM     79  O   UNL A   1      42.330  19.815  27.849  1.00  0.00    -0.237 OA
ATOM     80  O   UNL A   1      40.120  20.490  26.992  1.00  0.00    -0.237 OA
ATOM     81  O   UNL A   1      41.777  19.531  25.459  1.00  0.00    -0.744 OA
ENDBRANCH  75  78
ENDBRANCH  47  71
BRANCH  59  82
ATOM     82  C   UNL A   1      47.169  26.087  32.174  1.00  0.00     0.023 A 
ATOM     83  C   UNL A   1      47.221  25.207  33.273  1.00  0.00     0.012 A 
ATOM     84  C   UNL A   1      48.351  26.384  31.468  1.00  0.00     0.148 A 
ATOM     85  C   UNL A   1      48.435  24.658  33.683  1.00  0.00     0.002 A 
ATOM     86  C   UNL A   1      49.549  25.796  31.853  1.00  0.00     0.091 A 
ATOM     87  F   UNL A   1      48.283  27.239  30.435  1.00  0.00    -0.205 F 
ATOM     88  C   UNL A   1      49.595  24.942  32.967  1.00  0.00     0.022 A 
BRANCH  86  89
ATOM     89  S   UNL A   1      51.076  26.028  30.934  1.00  0.00     0.127 S 
ATOM     90  O   UNL A   1      51.326  27.454  31.128  1.00  0.00    -0.237 OA
ATOM     91  O   UNL A   1      52.002  25.144  31.642  1.00  0.00    -0.237 OA
ATOM     92  O   UNL A   1      50.785  25.625  29.565  1.00  0.00    -0.744 OA
ENDBRANCH  86  89
ENDBRANCH  59  82
ENDBRANCH  33  34
ENDBRANCH  25  28
ENDBRANCH  23  24
ENDBRANCH   1  23
TORSDOF 16
ENDMDL
