MODEL 1
REMARK VINA RESULT:     -12.8      0.000      0.000
REMARK SMILES O=C(NCCCNC(=O)c1nccnc1C(=O)Nc1ccc(-n2cncn2)c(Cl)c1)c1ccc(-c2c3nc(c(-c4cccc(S(=O)(=O)[O-])c4F)c4ccc([nH]4)c(-c4cccc(S(=O)(=O)[O-])c4F)c4nc(c(-c5cccc(S(=O)(=O)[O-])c5F)c5ccc2[nH]5)C=C4)C=C3)cc1
REMARK SMILES IDX 5 1 4 2 3 3 1 4 2 5 31 7 32 8 93 9 33 10 92 11 34 12 35 13
REMARK SMILES IDX 36 14 86 15 37 16 91 17 85 18 87 19 38 20 90 21 84 22 83 23
REMARK SMILES IDX 39 25 71 26 51 27 70 28 52 29 55 30 69 31 88 32 53 33 54 34
REMARK SMILES IDX 68 36 89 37 56 38 40 39 41 40 49 41 42 42 44 43 50 44 43 45
REMARK SMILES IDX 45 46 46 47 47 48 48 49 72 50 73 51 81 52 74 53 76 54 82 55
REMARK SMILES IDX 75 56 77 57 78 58 79 59 80 60 57 61 58 62 66 63 59 64 61 65
REMARK SMILES IDX 67 66 60 67 62 68 63 69 64 70 65 71 6 72 7 73 8 74 9 76
REMARK SMILES IDX 10 77 11 78 15 79 12 80 14 81 13 82 16 83 17 84 18 85 19 87
REMARK SMILES IDX 20 88 30 89 21 90 28 91 22 92 29 93 23 94 24 95 27 96 25 97
REMARK SMILES IDX 26 98
REMARK H PARENT 3 6 87 24 55 35 7 75 18 86
REMARK Flexibility Score: inf
ROOT
ATOM      1  C   UNL A   1      35.988  23.255  24.503  1.00  0.00     0.042 C 
ENDROOT
BRANCH   1   2
ATOM      2  C   UNL A   1      36.472  22.363  25.645  1.00  0.00     0.118 C 
BRANCH   2   3
ATOM      3  N   UNL A   1      37.748  21.695  25.489  1.00  0.00    -0.352 N 
ATOM      4  O   UNL A   1      39.792  20.948  25.915  1.00  0.00    -0.269 OA
ATOM      5  C   UNL A   1      38.978  21.862  26.069  1.00  0.00     0.251 C 
ATOM      6  H   UNL A   1      37.726  20.967  24.827  1.00  0.00     0.163 HD
BRANCH   5   7
ATOM      7  C   UNL A   1      39.405  23.104  26.762  1.00  0.00     0.039 A 
ATOM      8  C   UNL A   1      38.827  24.358  26.582  1.00  0.00     0.014 A 
ATOM      9  C   UNL A   1      40.516  22.983  27.617  1.00  0.00     0.014 A 
ATOM     10  C   UNL A   1      39.432  25.490  27.107  1.00  0.00     0.010 A 
ATOM     11  C   UNL A   1      41.105  24.107  28.179  1.00  0.00     0.010 A 
ATOM     12  C   UNL A   1      40.589  25.364  27.875  1.00  0.00    -0.014 A 
BRANCH  12  13
ATOM     13  C   UNL A   1      41.126  26.576  28.478  1.00  0.00     0.031 A 
ATOM     14  C   UNL A   1      42.486  26.938  27.995  1.00  0.00     0.074 A 
ATOM     15  C   UNL A   1      40.413  27.362  29.308  1.00  0.00     0.049 A 
ATOM     16  N   UNL A   1      43.585  27.010  28.674  1.00  0.00    -0.248 NA
ATOM     17  C   UNL A   1      42.669  27.083  26.543  1.00  0.00     0.031 C 
ATOM     18  C   UNL A   1      38.986  27.259  29.617  1.00  0.00     0.029 A 
ATOM     19  N   UNL A   1      40.786  28.516  29.932  1.00  0.00    -0.354 N 
ATOM     20  C   UNL A   1      44.555  27.445  27.768  1.00  0.00     0.074 A 
ATOM     21  C   UNL A   1      43.986  27.265  26.461  1.00  0.00     0.031 C 
ATOM     22  C   UNL A   1      38.563  28.432  30.136  1.00  0.00     0.029 A 
ATOM     23  C   UNL A   1      39.706  29.312  30.306  1.00  0.00     0.049 A 
ATOM     24  H   UNL A   1      41.724  28.763  30.101  1.00  0.00     0.167 HD
ATOM     25  C   UNL A   1      45.633  28.170  28.177  1.00  0.00     0.034 A 
ATOM     26  C   UNL A   1      39.743  30.628  30.628  1.00  0.00     0.034 A 
ATOM     27  C   UNL A   1      45.852  28.021  29.595  1.00  0.00     0.049 A 
ATOM     28  C   UNL A   1      41.140  30.967  30.979  1.00  0.00     0.074 A 
ATOM     29  C   UNL A   1      46.094  26.970  30.456  1.00  0.00     0.029 A 
ATOM     30  N   UNL A   1      45.492  29.082  30.388  1.00  0.00    -0.354 N 
ATOM     31  N   UNL A   1      41.749  30.522  32.041  1.00  0.00    -0.248 NA
ATOM     32  C   UNL A   1      42.003  31.492  29.932  1.00  0.00     0.031 C 
ATOM     33  C   UNL A   1      45.430  27.323  31.667  1.00  0.00     0.029 A 
ATOM     34  C   UNL A   1      44.863  28.586  31.493  1.00  0.00     0.049 A 
ATOM     35  H   UNL A   1      45.658  30.033  30.195  1.00  0.00     0.167 HD
ATOM     36  C   UNL A   1      43.047  30.282  31.615  1.00  0.00     0.074 A 
ATOM     37  C   UNL A   1      43.175  31.012  30.355  1.00  0.00     0.031 C 
ATOM     38  C   UNL A   1      43.790  29.278  32.169  1.00  0.00     0.034 A 
BRANCH  25  39
ATOM     39  C   UNL A   1      46.215  29.361  27.422  1.00  0.00     0.023 A 
ATOM     40  C   UNL A   1      47.621  29.524  27.487  1.00  0.00     0.012 A 
ATOM     41  C   UNL A   1      45.475  30.474  26.960  1.00  0.00     0.148 A 
ATOM     42  C   UNL A   1      48.235  30.760  27.256  1.00  0.00     0.002 A 
ATOM     43  C   UNL A   1      46.097  31.686  26.673  1.00  0.00     0.091 A 
ATOM     44  F   UNL A   1      44.146  30.425  26.886  1.00  0.00    -0.205 F 
ATOM     45  C   UNL A   1      47.468  31.846  26.863  1.00  0.00     0.022 A 
BRANCH  43  46
ATOM     46  S   UNL A   1      45.152  33.114  26.120  1.00  0.00     0.127 S 
ATOM     47  O   UNL A   1      44.369  33.418  27.321  1.00  0.00    -0.237 OA
ATOM     48  O   UNL A   1      46.220  34.075  25.823  1.00  0.00    -0.237 OA
ATOM     49  O   UNL A   1      44.403  32.676  24.962  1.00  0.00    -0.744 OA
ENDBRANCH  43  46
ENDBRANCH  25  39
BRANCH  26  50
ATOM     50  C   UNL A   1      38.725  31.680  30.397  1.00  0.00     0.023 A 
ATOM     51  C   UNL A   1      38.170  31.845  29.111  1.00  0.00     0.012 A 
ATOM     52  C   UNL A   1      38.098  32.336  31.480  1.00  0.00     0.148 A 
ATOM     53  C   UNL A   1      37.016  32.613  28.916  1.00  0.00     0.002 A 
ATOM     54  C   UNL A   1      36.959  33.109  31.280  1.00  0.00     0.091 A 
ATOM     55  F   UNL A   1      38.561  32.124  32.719  1.00  0.00    -0.205 F 
ATOM     56  C   UNL A   1      36.407  33.240  30.000  1.00  0.00     0.022 A 
BRANCH  54  57
ATOM     57  S   UNL A   1      36.116  33.936  32.636  1.00  0.00     0.127 S 
ATOM     58  O   UNL A   1      37.146  34.860  33.113  1.00  0.00    -0.237 OA
ATOM     59  O   UNL A   1      34.993  34.572  31.951  1.00  0.00    -0.237 OA
ATOM     60  O   UNL A   1      35.768  32.888  33.586  1.00  0.00    -0.744 OA
ENDBRANCH  54  57
ENDBRANCH  26  50
BRANCH  38  61
ATOM     61  C   UNL A   1      43.306  28.657  33.451  1.00  0.00     0.023 A 
ATOM     62  C   UNL A   1      42.362  27.610  33.474  1.00  0.00     0.012 A 
ATOM     63  C   UNL A   1      43.956  29.018  34.642  1.00  0.00     0.148 A 
ATOM     64  C   UNL A   1      42.056  26.955  34.669  1.00  0.00     0.002 A 
ATOM     65  C   UNL A   1      43.687  28.329  35.816  1.00  0.00     0.091 A 
ATOM     66  F   UNL A   1      44.855  30.014  34.598  1.00  0.00    -0.205 F 
ATOM     67  C   UNL A   1      42.729  27.304  35.837  1.00  0.00     0.022 A 
BRANCH  65  68
ATOM     68  S   UNL A   1      44.620  28.639  37.317  1.00  0.00     0.127 S 
ATOM     69  O   UNL A   1      44.211  27.524  38.166  1.00  0.00    -0.237 OA
ATOM     70  O   UNL A   1      46.005  28.575  36.844  1.00  0.00    -0.237 OA
ATOM     71  O   UNL A   1      44.213  29.962  37.775  1.00  0.00    -0.744 OA
ENDBRANCH  65  68
ENDBRANCH  38  61
ENDBRANCH  12  13
ENDBRANCH   5   7
ENDBRANCH   2   3
ENDBRANCH   1   2
BRANCH   1  72
ATOM     72  C   UNL A   1      35.113  24.453  24.863  1.00  0.00     0.118 C 
BRANCH  72  73
ATOM     73  N   UNL A   1      34.262  24.957  23.796  1.00  0.00    -0.351 N 
ATOM     74  C   UNL A   1      33.373  26.013  23.812  1.00  0.00     0.272 C 
ATOM     75  H   UNL A   1      34.330  24.475  22.940  1.00  0.00     0.163 HD
ATOM     76  O   UNL A   1      33.031  26.561  22.767  1.00  0.00    -0.267 OA
BRANCH  74  77
ATOM     77  C   UNL A   1      32.915  26.575  25.088  1.00  0.00     0.159 A 
ATOM     78  N   UNL A   1      33.797  27.544  25.526  1.00  0.00    -0.247 NA
ATOM     79  C   UNL A   1      31.739  26.259  25.759  1.00  0.00     0.159 A 
ATOM     80  C   UNL A   1      33.489  28.184  26.665  1.00  0.00     0.132 A 
ATOM     81  N   UNL A   1      31.478  26.939  26.936  1.00  0.00    -0.247 NA
ATOM     82  C   UNL A   1      32.348  27.881  27.363  1.00  0.00     0.132 A 
BRANCH  79  83
ATOM     83  C   UNL A   1      30.574  25.319  25.461  1.00  0.00     0.276 C 
ATOM     84  O   UNL A   1      29.427  25.737  25.691  1.00  0.00    -0.267 OA
ATOM     85  N   UNL A   1      30.585  24.135  24.757  1.00  0.00    -0.321 N 
ATOM     86  H   UNL A   1      29.792  24.011  24.188  1.00  0.00     0.170 HD
BRANCH  85  87
ATOM     87  C   UNL A   1      31.482  23.081  24.686  1.00  0.00     0.043 A 
ATOM     88  C   UNL A   1      31.746  22.426  23.492  1.00  0.00     0.028 A 
ATOM     89  C   UNL A   1      32.183  22.734  25.839  1.00  0.00     0.049 A 
ATOM     90  C   UNL A   1      32.516  21.263  23.518  1.00  0.00     0.032 A 
ATOM     91  C   UNL A   1      32.873  21.519  25.888  1.00  0.00     0.068 A 
ATOM     92  C   UNL A   1      32.911  20.710  24.748  1.00  0.00     0.085 A 
ATOM     93  Cl  UNL A   1      33.687  21.149  27.365  1.00  0.00    -0.082 Cl
BRANCH  92  94
ATOM     94  N   UNL A   1      33.092  19.300  24.787  1.00  0.00    -0.220 N 
ATOM     95  C   UNL A   1      34.204  18.550  24.481  1.00  0.00     0.226 A 
ATOM     96  N   UNL A   1      32.196  18.501  25.433  1.00  0.00    -0.155 NA
ATOM     97  N   UNL A   1      34.023  17.292  24.813  1.00  0.00    -0.223 NA
ATOM     98  C   UNL A   1      32.796  17.308  25.399  1.00  0.00     0.246 A 
ENDBRANCH  92  94
ENDBRANCH  85  87
ENDBRANCH  79  83
ENDBRANCH  74  77
ENDBRANCH  72  73
ENDBRANCH   1  72
TORSDOF 16
ENDMDL
MODEL 2
REMARK VINA RESULT:     -12.7      2.682      8.017
REMARK SMILES O=C(NCCCNC(=O)c1nccnc1C(=O)Nc1ccc(-n2cncn2)c(Cl)c1)c1ccc(-c2c3nc(c(-c4cccc(S(=O)(=O)[O-])c4F)c4ccc([nH]4)c(-c4cccc(S(=O)(=O)[O-])c4F)c4nc(c(-c5cccc(S(=O)(=O)[O-])c5F)c5ccc2[nH]5)C=C4)C=C3)cc1
REMARK SMILES IDX 5 1 4 2 3 3 1 4 2 5 31 7 32 8 93 9 33 10 92 11 34 12 35 13
REMARK SMILES IDX 36 14 86 15 37 16 91 17 85 18 87 19 38 20 90 21 84 22 83 23
REMARK SMILES IDX 39 25 71 26 51 27 70 28 52 29 55 30 69 31 88 32 53 33 54 34
REMARK SMILES IDX 68 36 89 37 56 38 40 39 41 40 49 41 42 42 44 43 50 44 43 45
REMARK SMILES IDX 45 46 46 47 47 48 48 49 72 50 73 51 81 52 74 53 76 54 82 55
REMARK SMILES IDX 75 56 77 57 78 58 79 59 80 60 57 61 58 62 66 63 59 64 61 65
REMARK SMILES IDX 67 66 60 67 62 68 63 69 64 70 65 71 6 72 7 73 8 74 9 76
REMARK SMILES IDX 10 77 11 78 15 79 12 80 14 81 13 82 16 83 17 84 18 85 19 87
REMARK SMILES IDX 20 88 30 89 21 90 28 91 22 92 29 93 23 94 24 95 27 96 25 97
REMARK SMILES IDX 26 98
REMARK H PARENT 3 6 87 24 55 35 7 75 18 86
REMARK Flexibility Score: inf
ROOT
ATOM      1  C   UNL A   1      33.364  29.086  27.386  1.00  0.00     0.042 C 
ENDROOT
BRANCH   1   2
ATOM      2  C   UNL A   1      33.854  30.498  27.068  1.00  0.00     0.118 C 
BRANCH   2   3
ATOM      3  N   UNL A   1      34.053  31.412  28.172  1.00  0.00    -0.352 N 
ATOM      4  O   UNL A   1      35.034  32.794  29.603  1.00  0.00    -0.269 OA
ATOM      5  C   UNL A   1      35.150  31.785  28.905  1.00  0.00     0.251 C 
ATOM      6  H   UNL A   1      33.226  31.862  28.458  1.00  0.00     0.163 HD
BRANCH   5   7
ATOM      7  C   UNL A   1      36.403  30.992  28.980  1.00  0.00     0.039 A 
ATOM      8  C   UNL A   1      36.473  29.601  28.933  1.00  0.00     0.014 A 
ATOM      9  C   UNL A   1      37.588  31.727  29.168  1.00  0.00     0.014 A 
ATOM     10  C   UNL A   1      37.661  28.950  29.227  1.00  0.00     0.010 A 
ATOM     11  C   UNL A   1      38.790  31.082  29.425  1.00  0.00     0.010 A 
ATOM     12  C   UNL A   1      38.808  29.692  29.507  1.00  0.00    -0.014 A 
BRANCH  12  13
ATOM     13  C   UNL A   1      40.046  28.954  29.714  1.00  0.00     0.031 A 
ATOM     14  C   UNL A   1      40.355  28.686  31.145  1.00  0.00     0.074 A 
ATOM     15  C   UNL A   1      40.785  28.458  28.704  1.00  0.00     0.049 A 
ATOM     16  N   UNL A   1      41.364  29.103  31.840  1.00  0.00    -0.248 NA
ATOM     17  C   UNL A   1      39.325  27.998  31.939  1.00  0.00     0.031 C 
ATOM     18  C   UNL A   1      40.426  28.410  27.285  1.00  0.00     0.029 A 
ATOM     19  N   UNL A   1      41.950  27.750  28.756  1.00  0.00    -0.354 N 
ATOM     20  C   UNL A   1      41.211  28.525  33.102  1.00  0.00     0.074 A 
ATOM     21  C   UNL A   1      39.857  28.047  33.160  1.00  0.00     0.031 C 
ATOM     22  C   UNL A   1      41.204  27.495  26.666  1.00  0.00     0.029 A 
ATOM     23  C   UNL A   1      42.183  26.991  27.613  1.00  0.00     0.049 A 
ATOM     24  H   UNL A   1      42.564  27.772  29.525  1.00  0.00     0.167 HD
ATOM     25  C   UNL A   1      42.288  28.244  33.888  1.00  0.00     0.034 A 
ATOM     26  C   UNL A   1      43.046  25.952  27.491  1.00  0.00     0.034 A 
ATOM     27  C   UNL A   1      43.446  28.996  33.471  1.00  0.00     0.049 A 
ATOM     28  C   UNL A   1      44.028  26.052  28.594  1.00  0.00     0.074 A 
ATOM     29  C   UNL A   1      43.761  30.332  33.327  1.00  0.00     0.029 A 
ATOM     30  N   UNL A   1      44.417  28.305  32.791  1.00  0.00    -0.354 N 
ATOM     31  N   UNL A   1      44.921  26.996  28.686  1.00  0.00    -0.248 NA
ATOM     32  C   UNL A   1      43.761  25.316  29.820  1.00  0.00     0.031 C 
ATOM     33  C   UNL A   1      44.632  30.387  32.199  1.00  0.00     0.029 A 
ATOM     34  C   UNL A   1      44.835  29.082  31.750  1.00  0.00     0.049 A 
ATOM     35  H   UNL A   1      44.753  27.407  33.015  1.00  0.00     0.167 HD
ATOM     36  C   UNL A   1      44.980  27.278  30.043  1.00  0.00     0.074 A 
ATOM     37  C   UNL A   1      44.346  26.136  30.697  1.00  0.00     0.031 C 
ATOM     38  C   UNL A   1      45.267  28.539  30.482  1.00  0.00     0.034 A 
BRANCH  25  39
ATOM     39  C   UNL A   1      42.443  26.980  34.727  1.00  0.00     0.023 A 
ATOM     40  C   UNL A   1      42.100  27.086  36.097  1.00  0.00     0.012 A 
ATOM     41  C   UNL A   1      43.196  25.842  34.355  1.00  0.00     0.148 A 
ATOM     42  C   UNL A   1      42.601  26.200  37.058  1.00  0.00     0.002 A 
ATOM     43  C   UNL A   1      43.643  24.929  35.306  1.00  0.00     0.091 A 
ATOM     44  F   UNL A   1      43.587  25.667  33.094  1.00  0.00    -0.205 F 
ATOM     45  C   UNL A   1      43.387  25.129  36.662  1.00  0.00     0.022 A 
BRANCH  43  46
ATOM     46  S   UNL A   1      44.631  23.500  34.839  1.00  0.00     0.127 S 
ATOM     47  O   UNL A   1      44.862  22.877  36.145  1.00  0.00    -0.237 OA
ATOM     48  O   UNL A   1      43.704  22.774  33.966  1.00  0.00    -0.237 OA
ATOM     49  O   UNL A   1      45.800  24.024  34.164  1.00  0.00    -0.744 OA
ENDBRANCH  43  46
ENDBRANCH  25  39
BRANCH  26  50
ATOM     50  C   UNL A   1      42.932  24.728  26.664  1.00  0.00     0.023 A 
ATOM     51  C   UNL A   1      43.982  24.375  25.792  1.00  0.00     0.012 A 
ATOM     52  C   UNL A   1      41.930  23.767  26.921  1.00  0.00     0.148 A 
ATOM     53  C   UNL A   1      44.046  23.098  25.220  1.00  0.00     0.002 A 
ATOM     54  C   UNL A   1      41.990  22.504  26.341  1.00  0.00     0.091 A 
ATOM     55  F   UNL A   1      40.971  24.055  27.811  1.00  0.00    -0.205 F 
ATOM     56  C   UNL A   1      43.055  22.161  25.499  1.00  0.00     0.022 A 
BRANCH  54  57
ATOM     57  S   UNL A   1      40.750  21.243  26.667  1.00  0.00     0.127 S 
ATOM     58  O   UNL A   1      41.347  20.064  26.038  1.00  0.00    -0.237 OA
ATOM     59  O   UNL A   1      40.726  21.214  28.127  1.00  0.00    -0.237 OA
ATOM     60  O   UNL A   1      39.530  21.710  26.022  1.00  0.00    -0.744 OA
ENDBRANCH  54  57
ENDBRANCH  26  50
BRANCH  38  61
ATOM     61  C   UNL A   1      45.828  29.528  29.497  1.00  0.00     0.023 A 
ATOM     62  C   UNL A   1      47.206  29.606  29.207  1.00  0.00     0.012 A 
ATOM     63  C   UNL A   1      44.922  30.267  28.719  1.00  0.00     0.148 A 
ATOM     64  C   UNL A   1      47.670  30.426  28.175  1.00  0.00     0.002 A 
ATOM     65  C   UNL A   1      45.383  31.039  27.663  1.00  0.00     0.091 A 
ATOM     66  F   UNL A   1      43.615  30.176  29.009  1.00  0.00    -0.205 F 
ATOM     67  C   UNL A   1      46.757  31.130  27.393  1.00  0.00     0.022 A 
BRANCH  65  68
ATOM     68  S   UNL A   1      44.249  31.856  26.537  1.00  0.00     0.127 S 
ATOM     69  O   UNL A   1      45.137  32.268  25.455  1.00  0.00    -0.237 OA
ATOM     70  O   UNL A   1      43.319  30.779  26.192  1.00  0.00    -0.237 OA
ATOM     71  O   UNL A   1      43.641  32.940  27.300  1.00  0.00    -0.744 OA
ENDBRANCH  65  68
ENDBRANCH  38  61
ENDBRANCH  12  13
ENDBRANCH   5   7
ENDBRANCH   2   3
ENDBRANCH   1   2
BRANCH   1  72
ATOM     72  C   UNL A   1      31.875  28.799  27.218  1.00  0.00     0.118 C 
BRANCH  72  73
ATOM     73  N   UNL A   1      31.464  27.427  27.471  1.00  0.00    -0.351 N 
ATOM     74  C   UNL A   1      31.235  26.402  26.574  1.00  0.00     0.272 C 
ATOM     75  H   UNL A   1      31.329  27.196  28.420  1.00  0.00     0.163 HD
ATOM     76  O   UNL A   1      31.283  25.229  26.936  1.00  0.00    -0.267 OA
BRANCH  74  77
ATOM     77  C   UNL A   1      31.050  26.696  25.148  1.00  0.00     0.159 A 
ATOM     78  N   UNL A   1      29.705  26.719  24.837  1.00  0.00    -0.247 NA
ATOM     79  C   UNL A   1      32.049  26.984  24.225  1.00  0.00     0.159 A 
ATOM     80  C   UNL A   1      29.373  27.020  23.571  1.00  0.00     0.132 A 
ATOM     81  N   UNL A   1      31.652  27.274  22.931  1.00  0.00    -0.247 NA
ATOM     82  C   UNL A   1      30.334  27.288  22.631  1.00  0.00     0.132 A 
BRANCH  79  83
ATOM     83  C   UNL A   1      33.567  27.114  24.318  1.00  0.00     0.276 C 
ATOM     84  O   UNL A   1      34.066  28.218  24.045  1.00  0.00    -0.267 OA
ATOM     85  N   UNL A   1      34.470  26.238  24.880  1.00  0.00    -0.321 N 
ATOM     86  H   UNL A   1      35.199  26.688  25.366  1.00  0.00     0.170 HD
BRANCH  85  87
ATOM     87  C   UNL A   1      34.565  24.857  24.904  1.00  0.00     0.043 A 
ATOM     88  C   UNL A   1      34.773  24.119  23.748  1.00  0.00     0.028 A 
ATOM     89  C   UNL A   1      34.522  24.215  26.140  1.00  0.00     0.049 A 
ATOM     90  C   UNL A   1      34.677  22.729  23.810  1.00  0.00     0.032 A 
ATOM     91  C   UNL A   1      34.329  22.830  26.193  1.00  0.00     0.068 A 
ATOM     92  C   UNL A   1      34.261  22.106  25.000  1.00  0.00     0.085 A 
ATOM     93  Cl  UNL A   1      34.253  22.118  27.764  1.00  0.00    -0.082 Cl
BRANCH  92  94
ATOM     94  N   UNL A   1      33.577  20.866  24.867  1.00  0.00    -0.220 N 
ATOM     95  C   UNL A   1      32.258  20.620  24.565  1.00  0.00     0.226 A 
ATOM     96  N   UNL A   1      34.270  19.697  24.755  1.00  0.00    -0.155 NA
ATOM     97  N   UNL A   1      32.057  19.338  24.362  1.00  0.00    -0.223 NA
ATOM     98  C   UNL A   1      33.307  18.816  24.475  1.00  0.00     0.246 A 
ENDBRANCH  92  94
ENDBRANCH  85  87
ENDBRANCH  79  83
ENDBRANCH  74  77
ENDBRANCH  72  73
ENDBRANCH   1  72
TORSDOF 16
ENDMDL
MODEL 3
REMARK VINA RESULT:     -12.5      2.911      7.863
REMARK SMILES O=C(NCCCNC(=O)c1nccnc1C(=O)Nc1ccc(-n2cncn2)c(Cl)c1)c1ccc(-c2c3nc(c(-c4cccc(S(=O)(=O)[O-])c4F)c4ccc([nH]4)c(-c4cccc(S(=O)(=O)[O-])c4F)c4nc(c(-c5cccc(S(=O)(=O)[O-])c5F)c5ccc2[nH]5)C=C4)C=C3)cc1
REMARK SMILES IDX 5 1 4 2 3 3 1 4 2 5 31 7 32 8 93 9 33 10 92 11 34 12 35 13
REMARK SMILES IDX 36 14 86 15 37 16 91 17 85 18 87 19 38 20 90 21 84 22 83 23
REMARK SMILES IDX 39 25 71 26 51 27 70 28 52 29 55 30 69 31 88 32 53 33 54 34
REMARK SMILES IDX 68 36 89 37 56 38 40 39 41 40 49 41 42 42 44 43 50 44 43 45
REMARK SMILES IDX 45 46 46 47 47 48 48 49 72 50 73 51 81 52 74 53 76 54 82 55
REMARK SMILES IDX 75 56 77 57 78 58 79 59 80 60 57 61 58 62 66 63 59 64 61 65
REMARK SMILES IDX 67 66 60 67 62 68 63 69 64 70 65 71 6 72 7 73 8 74 9 76
REMARK SMILES IDX 10 77 11 78 15 79 12 80 14 81 13 82 16 83 17 84 18 85 19 87
REMARK SMILES IDX 20 88 30 89 21 90 28 91 22 92 29 93 23 94 24 95 27 96 25 97
REMARK SMILES IDX 26 98
REMARK H PARENT 3 6 87 24 55 35 7 75 18 86
REMARK Flexibility Score: inf
ROOT
ATOM      1  C   UNL A   1      33.268  29.070  27.283  1.00  0.00     0.042 C 
ENDROOT
BRANCH   1   2
ATOM      2  C   UNL A   1      33.731  30.522  27.166  1.00  0.00     0.118 C 
BRANCH   2   3
ATOM      3  N   UNL A   1      33.894  31.283  28.387  1.00  0.00    -0.352 N 
ATOM      4  O   UNL A   1      34.812  32.519  29.982  1.00  0.00    -0.269 OA
ATOM      5  C   UNL A   1      34.982  31.631  29.144  1.00  0.00     0.251 C 
ATOM      6  H   UNL A   1      33.045  31.622  28.749  1.00  0.00     0.163 HD
BRANCH   5   7
ATOM      7  C   UNL A   1      36.292  30.934  29.081  1.00  0.00     0.039 A 
ATOM      8  C   UNL A   1      36.459  29.553  28.996  1.00  0.00     0.014 A 
ATOM      9  C   UNL A   1      37.432  31.752  29.174  1.00  0.00     0.014 A 
ATOM     10  C   UNL A   1      37.714  28.989  29.160  1.00  0.00     0.010 A 
ATOM     11  C   UNL A   1      38.697  31.196  29.300  1.00  0.00     0.010 A 
ATOM     12  C   UNL A   1      38.825  29.811  29.347  1.00  0.00    -0.014 A 
BRANCH  12  13
ATOM     13  C   UNL A   1      40.129  29.166  29.419  1.00  0.00     0.031 A 
ATOM     14  C   UNL A   1      40.660  29.033  30.803  1.00  0.00     0.074 A 
ATOM     15  C   UNL A   1      40.745  28.632  28.347  1.00  0.00     0.049 A 
ATOM     16  N   UNL A   1      41.728  29.563  31.306  1.00  0.00    -0.248 NA
ATOM     17  C   UNL A   1      39.807  28.354  31.790  1.00  0.00     0.031 C 
ATOM     18  C   UNL A   1      40.188  28.449  27.005  1.00  0.00     0.029 A 
ATOM     19  N   UNL A   1      41.952  27.999  28.274  1.00  0.00    -0.354 N 
ATOM     20  C   UNL A   1      41.800  29.082  32.615  1.00  0.00     0.074 A 
ATOM     21  C   UNL A   1      40.506  28.533  32.909  1.00  0.00     0.031 C 
ATOM     22  C   UNL A   1      40.929  27.532  26.344  1.00  0.00     0.029 A 
ATOM     23  C   UNL A   1      42.069  27.165  27.166  1.00  0.00     0.049 A 
ATOM     24  H   UNL A   1      42.669  28.120  28.939  1.00  0.00     0.167 HD
ATOM     25  C   UNL A   1      42.997  28.930  33.248  1.00  0.00     0.034 A 
ATOM     26  C   UNL A   1      42.975  26.171  26.992  1.00  0.00     0.034 A 
ATOM     27  C   UNL A   1      44.027  29.711  32.609  1.00  0.00     0.049 A 
ATOM     28  C   UNL A   1      44.097  26.417  27.924  1.00  0.00     0.074 A 
ATOM     29  C   UNL A   1      44.225  31.047  32.323  1.00  0.00     0.029 A 
ATOM     30  N   UNL A   1      44.935  29.024  31.842  1.00  0.00    -0.354 N 
ATOM     31  N   UNL A   1      44.926  27.416  27.813  1.00  0.00    -0.248 NA
ATOM     32  C   UNL A   1      44.063  25.770  29.226  1.00  0.00     0.031 C 
ATOM     33  C   UNL A   1      44.916  31.060  31.076  1.00  0.00     0.029 A 
ATOM     34  C   UNL A   1      45.142  29.736  30.697  1.00  0.00     0.049 A 
ATOM     35  H   UNL A   1      45.362  28.168  32.077  1.00  0.00     0.167 HD
ATOM     36  C   UNL A   1      45.162  27.811  29.122  1.00  0.00     0.074 A 
ATOM     37  C   UNL A   1      44.711  26.691  29.944  1.00  0.00     0.031 C 
ATOM     38  C   UNL A   1      45.422  29.119  29.421  1.00  0.00     0.034 A 
BRANCH  25  39
ATOM     39  C   UNL A   1      43.360  27.749  34.143  1.00  0.00     0.023 A 
ATOM     40  C   UNL A   1      43.875  28.064  35.425  1.00  0.00     0.012 A 
ATOM     41  C   UNL A   1      43.546  26.418  33.702  1.00  0.00     0.148 A 
ATOM     42  C   UNL A   1      44.655  27.159  36.153  1.00  0.00     0.002 A 
ATOM     43  C   UNL A   1      44.272  25.502  34.457  1.00  0.00     0.091 A 
ATOM     44  F   UNL A   1      43.118  26.033  32.501  1.00  0.00    -0.205 F 
ATOM     45  C   UNL A   1      44.866  25.880  35.660  1.00  0.00     0.022 A 
BRANCH  43  46
ATOM     46  S   UNL A   1      44.540  23.818  33.880  1.00  0.00     0.127 S 
ATOM     47  O   UNL A   1      43.193  23.258  34.006  1.00  0.00    -0.237 OA
ATOM     48  O   UNL A   1      44.986  24.047  32.502  1.00  0.00    -0.237 OA
ATOM     49  O   UNL A   1      45.552  23.253  34.749  1.00  0.00    -0.744 OA
ENDBRANCH  43  46
ENDBRANCH  25  39
BRANCH  26  50
ATOM     50  C   UNL A   1      42.827  24.880  26.281  1.00  0.00     0.023 A 
ATOM     51  C   UNL A   1      43.831  24.456  25.387  1.00  0.00     0.012 A 
ATOM     52  C   UNL A   1      41.849  23.940  26.675  1.00  0.00     0.148 A 
ATOM     53  C   UNL A   1      43.876  23.135  24.926  1.00  0.00     0.002 A 
ATOM     54  C   UNL A   1      41.888  22.632  26.204  1.00  0.00     0.091 A 
ATOM     55  F   UNL A   1      40.937  24.301  27.588  1.00  0.00    -0.205 F 
ATOM     56  C   UNL A   1      42.909  22.221  25.339  1.00  0.00     0.022 A 
BRANCH  54  57
ATOM     57  S   UNL A   1      40.679  21.400  26.706  1.00  0.00     0.127 S 
ATOM     58  O   UNL A   1      40.793  21.441  28.164  1.00  0.00    -0.237 OA
ATOM     59  O   UNL A   1      39.440  21.957  26.171  1.00  0.00    -0.237 OA
ATOM     60  O   UNL A   1      41.119  20.145  26.108  1.00  0.00    -0.744 OA
ENDBRANCH  54  57
ENDBRANCH  26  50
BRANCH  38  61
ATOM     61  C   UNL A   1      45.764  30.054  28.294  1.00  0.00     0.023 A 
ATOM     62  C   UNL A   1      44.778  30.735  27.551  1.00  0.00     0.012 A 
ATOM     63  C   UNL A   1      47.115  30.388  28.104  1.00  0.00     0.148 A 
ATOM     64  C   UNL A   1      45.136  31.712  26.619  1.00  0.00     0.002 A 
ATOM     65  C   UNL A   1      47.463  31.396  27.216  1.00  0.00     0.091 A 
ATOM     66  F   UNL A   1      48.038  29.732  28.824  1.00  0.00    -0.205 F 
ATOM     67  C   UNL A   1      46.477  32.053  26.463  1.00  0.00     0.022 A 
BRANCH  65  68
ATOM     68  S   UNL A   1      49.155  31.974  27.073  1.00  0.00     0.127 S 
ATOM     69  O   UNL A   1      49.451  32.390  28.441  1.00  0.00    -0.237 OA
ATOM     70  O   UNL A   1      49.862  30.770  26.632  1.00  0.00    -0.237 OA
ATOM     71  O   UNL A   1      49.130  33.042  26.081  1.00  0.00    -0.744 OA
ENDBRANCH  65  68
ENDBRANCH  38  61
ENDBRANCH  12  13
ENDBRANCH   5   7
ENDBRANCH   2   3
ENDBRANCH   1   2
BRANCH   1  72
ATOM     72  C   UNL A   1      31.771  28.793  27.171  1.00  0.00     0.118 C 
BRANCH  72  73
ATOM     73  N   UNL A   1      31.370  27.407  27.358  1.00  0.00    -0.351 N 
ATOM     74  C   UNL A   1      31.193  26.413  26.415  1.00  0.00     0.272 C 
ATOM     75  H   UNL A   1      31.201  27.139  28.290  1.00  0.00     0.163 HD
ATOM     76  O   UNL A   1      31.243  25.229  26.736  1.00  0.00    -0.267 OA
BRANCH  74  77
ATOM     77  C   UNL A   1      31.061  26.758  24.995  1.00  0.00     0.159 A 
ATOM     78  N   UNL A   1      29.727  26.834  24.644  1.00  0.00    -0.247 NA
ATOM     79  C   UNL A   1      32.096  27.041  24.110  1.00  0.00     0.159 A 
ATOM     80  C   UNL A   1      29.443  27.186  23.380  1.00  0.00     0.132 A 
ATOM     81  N   UNL A   1      31.748  27.384  22.816  1.00  0.00    -0.247 NA
ATOM     82  C   UNL A   1      30.441  27.452  22.477  1.00  0.00     0.132 A 
BRANCH  79  83
ATOM     83  C   UNL A   1      33.614  27.118  24.252  1.00  0.00     0.276 C 
ATOM     84  O   UNL A   1      34.153  28.219  24.052  1.00  0.00    -0.267 OA
ATOM     85  N   UNL A   1      34.473  26.186  24.792  1.00  0.00    -0.321 N 
ATOM     86  H   UNL A   1      35.201  26.586  25.320  1.00  0.00     0.170 HD
BRANCH  85  87
ATOM     87  C   UNL A   1      34.525  24.803  24.744  1.00  0.00     0.043 A 
ATOM     88  C   UNL A   1      34.748  24.120  23.558  1.00  0.00     0.028 A 
ATOM     89  C   UNL A   1      34.422  24.098  25.942  1.00  0.00     0.049 A 
ATOM     90  C   UNL A   1      34.609  22.733  23.542  1.00  0.00     0.032 A 
ATOM     91  C   UNL A   1      34.186  22.720  25.914  1.00  0.00     0.068 A 
ATOM     92  C   UNL A   1      34.136  22.062  24.683  1.00  0.00     0.085 A 
ATOM     93  Cl  UNL A   1      34.038  21.929  27.442  1.00  0.00    -0.082 Cl
BRANCH  92  94
ATOM     94  N   UNL A   1      33.419  20.853  24.462  1.00  0.00    -0.220 N 
ATOM     95  C   UNL A   1      32.464  20.560  23.517  1.00  0.00     0.226 A 
ATOM     96  N   UNL A   1      33.826  19.687  25.040  1.00  0.00    -0.155 NA
ATOM     97  N   UNL A   1      32.172  19.279  23.531  1.00  0.00    -0.223 NA
ATOM     98  C   UNL A   1      33.030  18.785  24.462  1.00  0.00     0.246 A 
ENDBRANCH  92  94
ENDBRANCH  85  87
ENDBRANCH  79  83
ENDBRANCH  74  77
ENDBRANCH  72  73
ENDBRANCH   1  72
TORSDOF 16
ENDMDL
