MODEL 1
REMARK VINA RESULT:     -12.5      0.000      0.000
REMARK SMILES C[C@H]1OCC[C@@H]1C(=O)Nc1ccc(Cl)c(C(=O)NCCCNC(=O)c2ccc(-c3c4nc(c(-c5cccc(S(=O)(=O)[O-])c5F)c5ccc([nH]5)c(-c5cccc(S(=O)(=O)[O-])c5F)c5nc(c(-c6cccc(S(=O)(=O)[O-])c6F)c6ccc3[nH]6)C=C5)C=C4)cc2)c1
REMARK SMILES IDX 20 1 19 2 18 3 16 4 17 5 15 7 10 8 11 9 88 10 12 11 13 12
REMARK SMILES IDX 14 13 9 14 7 15 8 16 6 18 1 19 2 20 3 21 4 22 5 23 21 24
REMARK SMILES IDX 22 25 23 26 24 28 25 29 26 30 87 31 27 32 86 33 28 34 29 35
REMARK SMILES IDX 30 36 80 37 31 38 85 39 79 40 81 41 32 42 84 43 78 44 77 45
REMARK SMILES IDX 33 47 65 48 45 49 64 50 46 51 49 52 63 53 82 54 47 55 48 56
REMARK SMILES IDX 62 58 83 59 50 60 34 61 35 62 43 63 36 64 38 65 44 66 37 67
REMARK SMILES IDX 39 68 40 69 41 70 42 71 66 72 67 73 75 74 68 75 70 76 76 77
REMARK SMILES IDX 69 78 71 79 72 80 73 81 74 82 51 83 52 84 60 85 53 86 55 87
REMARK SMILES IDX 61 88 54 89 56 90 57 91 58 92 59 93
REMARK H PARENT 18 6 9 17 22 27 81 46 49 57
REMARK Flexibility Score: inf
ROOT
ATOM      1  C   UNL A   1      35.017  22.285  26.905  1.00  0.00     0.042 C 
ENDROOT
BRANCH   1   2
ATOM      2  C   UNL A   1      33.720  21.520  26.762  1.00  0.00     0.118 C 
BRANCH   2   3
ATOM      3  N   UNL A   1      32.521  22.200  27.230  1.00  0.00    -0.352 N 
ATOM      4  C   UNL A   1      31.869  23.310  26.737  1.00  0.00     0.252 C 
ATOM      5  O   UNL A   1      30.801  23.642  27.252  1.00  0.00    -0.269 OA
ATOM      6  H   UNL A   1      32.107  21.802  28.030  1.00  0.00     0.163 HD
BRANCH   4   7
ATOM      7  C   UNL A   1      32.471  24.189  25.702  1.00  0.00     0.060 A 
ATOM      8  C   UNL A   1      33.574  26.277  25.207  1.00  0.00     0.042 A 
ATOM      9  C   UNL A   1      34.043  25.742  24.018  1.00  0.00     0.028 A 
ATOM     10  C   UNL A   1      32.942  25.446  26.128  1.00  0.00     0.041 A 
ATOM     11  C   UNL A   1      33.517  24.543  23.563  1.00  0.00     0.023 A 
ATOM     12  C   UNL A   1      32.583  23.874  24.348  1.00  0.00     0.053 A 
ATOM     13  Cl  UNL A   1      31.443  22.878  23.502  1.00  0.00    -0.083 Cl
BRANCH   8  14
ATOM     14  N   UNL A   1      33.656  27.650  25.446  1.00  0.00    -0.326 N 
ATOM     15  C   UNL A   1      32.832  28.639  24.970  1.00  0.00     0.230 C 
ATOM     16  O   UNL A   1      33.149  29.808  25.229  1.00  0.00    -0.274 OA
ATOM     17  H   UNL A   1      34.395  27.944  26.026  1.00  0.00     0.169 HD
BRANCH  15  18
ATOM     18  C   UNL A   1      31.490  28.390  24.246  1.00  0.00     0.110 C 
ATOM     19  C   UNL A   1      31.010  26.804  22.314  1.00  0.00     0.039 C 
ATOM     20  C   UNL A   1      31.616  28.138  22.745  1.00  0.00     0.127 C 
ATOM     21  O   UNL A   1      30.887  29.179  22.081  1.00  0.00    -0.378 OA
ATOM     22  C   UNL A   1      29.907  29.695  22.982  1.00  0.00     0.161 C 
ATOM     23  C   UNL A   1      30.396  29.428  24.393  1.00  0.00     0.044 C 
ENDBRANCH  15  18
ENDBRANCH   8  14
ENDBRANCH   4   7
ENDBRANCH   2   3
ENDBRANCH   1   2
BRANCH   1  24
ATOM     24  C   UNL A   1      35.845  22.370  25.641  1.00  0.00     0.118 C 
BRANCH  24  25
ATOM     25  N   UNL A   1      36.803  21.277  25.494  1.00  0.00    -0.352 N 
ATOM     26  C   UNL A   1      38.163  21.228  25.694  1.00  0.00     0.251 C 
ATOM     27  H   UNL A   1      36.404  20.426  25.199  1.00  0.00     0.163 HD
ATOM     28  O   UNL A   1      38.784  20.215  25.367  1.00  0.00    -0.269 OA
BRANCH  26  29
ATOM     29  C   UNL A   1      38.892  22.382  26.265  1.00  0.00     0.039 A 
ATOM     30  C   UNL A   1      40.025  22.159  27.055  1.00  0.00     0.014 A 
ATOM     31  C   UNL A   1      38.462  23.686  26.034  1.00  0.00     0.014 A 
ATOM     32  C   UNL A   1      40.772  23.245  27.525  1.00  0.00     0.010 A 
ATOM     33  C   UNL A   1      39.273  24.755  26.384  1.00  0.00     0.010 A 
ATOM     34  C   UNL A   1      40.430  24.553  27.151  1.00  0.00    -0.014 A 
BRANCH  34  35
ATOM     35  C   UNL A   1      41.225  25.741  27.562  1.00  0.00     0.031 A 
ATOM     36  C   UNL A   1      40.569  26.824  28.380  1.00  0.00     0.074 A 
ATOM     37  C   UNL A   1      42.480  25.909  27.098  1.00  0.00     0.049 A 
ATOM     38  N   UNL A   1      41.019  28.012  28.693  1.00  0.00    -0.248 NA
ATOM     39  C   UNL A   1      39.205  26.556  28.871  1.00  0.00     0.031 C 
ATOM     40  C   UNL A   1      43.202  24.969  26.237  1.00  0.00     0.029 A 
ATOM     41  N   UNL A   1      43.359  26.952  27.256  1.00  0.00    -0.354 N 
ATOM     42  C   UNL A   1      39.978  28.646  29.362  1.00  0.00     0.074 A 
ATOM     43  C   UNL A   1      38.860  27.731  29.375  1.00  0.00     0.031 C 
ATOM     44  C   UNL A   1      44.411  25.476  25.945  1.00  0.00     0.029 A 
ATOM     45  C   UNL A   1      44.537  26.792  26.561  1.00  0.00     0.049 A 
ATOM     46  H   UNL A   1      43.165  27.739  27.813  1.00  0.00     0.167 HD
ATOM     47  C   UNL A   1      39.964  29.868  29.946  1.00  0.00     0.034 A 
ATOM     48  C   UNL A   1      45.592  27.620  26.425  1.00  0.00     0.034 A 
ATOM     49  C   UNL A   1      41.101  30.743  29.994  1.00  0.00     0.049 A 
ATOM     50  C   UNL A   1      45.572  28.949  27.132  1.00  0.00     0.074 A 
ATOM     51  C   UNL A   1      41.222  31.959  30.642  1.00  0.00     0.029 A 
ATOM     52  N   UNL A   1      42.316  30.492  29.377  1.00  0.00    -0.354 N 
ATOM     53  N   UNL A   1      44.628  29.474  27.877  1.00  0.00    -0.248 NA
ATOM     54  C   UNL A   1      46.774  29.789  27.010  1.00  0.00     0.031 C 
ATOM     55  C   UNL A   1      42.507  32.453  30.399  1.00  0.00     0.029 A 
ATOM     56  C   UNL A   1      43.194  31.530  29.627  1.00  0.00     0.049 A 
ATOM     57  H   UNL A   1      42.523  29.694  28.839  1.00  0.00     0.167 HD
ATOM     58  C   UNL A   1      45.140  30.676  28.350  1.00  0.00     0.074 A 
ATOM     59  C   UNL A   1      46.481  30.799  27.816  1.00  0.00     0.031 C 
ATOM     60  C   UNL A   1      44.550  31.600  29.147  1.00  0.00     0.034 A 
BRANCH  47  61
ATOM     61  C   UNL A   1      38.696  30.303  30.634  1.00  0.00     0.023 A 
ATOM     62  C   UNL A   1      38.515  30.022  32.005  1.00  0.00     0.012 A 
ATOM     63  C   UNL A   1      37.712  31.038  29.945  1.00  0.00     0.148 A 
ATOM     64  C   UNL A   1      37.359  30.430  32.667  1.00  0.00     0.002 A 
ATOM     65  C   UNL A   1      36.585  31.485  30.624  1.00  0.00     0.091 A 
ATOM     66  F   UNL A   1      37.892  31.279  28.638  1.00  0.00    -0.205 F 
ATOM     67  C   UNL A   1      36.401  31.170  31.981  1.00  0.00     0.022 A 
BRANCH  65  68
ATOM     68  S   UNL A   1      35.333  32.517  29.854  1.00  0.00     0.127 S 
ATOM     69  O   UNL A   1      34.823  31.631  28.807  1.00  0.00    -0.237 OA
ATOM     70  O   UNL A   1      34.404  32.749  30.961  1.00  0.00    -0.237 OA
ATOM     71  O   UNL A   1      36.026  33.706  29.381  1.00  0.00    -0.744 OA
ENDBRANCH  65  68
ENDBRANCH  47  61
BRANCH  48  72
ATOM     72  C   UNL A   1      46.785  27.190  25.641  1.00  0.00     0.023 A 
ATOM     73  C   UNL A   1      47.695  26.281  26.215  1.00  0.00     0.012 A 
ATOM     74  C   UNL A   1      47.017  27.658  24.332  1.00  0.00     0.148 A 
ATOM     75  C   UNL A   1      48.834  25.874  25.518  1.00  0.00     0.002 A 
ATOM     76  C   UNL A   1      48.125  27.206  23.622  1.00  0.00     0.091 A 
ATOM     77  F   UNL A   1      46.147  28.529  23.805  1.00  0.00    -0.205 F 
ATOM     78  C   UNL A   1      49.044  26.329  24.220  1.00  0.00     0.022 A 
BRANCH  76  79
ATOM     79  S   UNL A   1      48.406  27.635  21.901  1.00  0.00     0.127 S 
ATOM     80  O   UNL A   1      49.527  28.566  22.004  1.00  0.00    -0.237 OA
ATOM     81  O   UNL A   1      48.735  26.336  21.313  1.00  0.00    -0.237 OA
ATOM     82  O   UNL A   1      47.152  28.204  21.428  1.00  0.00    -0.744 OA
ENDBRANCH  76  79
ENDBRANCH  48  72
BRANCH  60  83
ATOM     83  C   UNL A   1      45.359  32.802  29.554  1.00  0.00     0.023 A 
ATOM     84  C   UNL A   1      46.180  32.746  30.697  1.00  0.00     0.012 A 
ATOM     85  C   UNL A   1      45.386  33.948  28.735  1.00  0.00     0.148 A 
ATOM     86  C   UNL A   1      46.997  33.825  31.032  1.00  0.00     0.002 A 
ATOM     87  C   UNL A   1      46.240  34.997  29.047  1.00  0.00     0.091 A 
ATOM     88  F   UNL A   1      44.584  33.985  27.661  1.00  0.00    -0.205 F 
ATOM     89  C   UNL A   1      47.037  34.942  30.201  1.00  0.00     0.022 A 
BRANCH  87  90
ATOM     90  S   UNL A   1      46.435  36.430  27.981  1.00  0.00     0.127 S 
ATOM     91  O   UNL A   1      47.439  37.207  28.707  1.00  0.00    -0.237 OA
ATOM     92  O   UNL A   1      46.914  35.826  26.737  1.00  0.00    -0.237 OA
ATOM     93  O   UNL A   1      45.119  37.047  27.888  1.00  0.00    -0.744 OA
ENDBRANCH  87  90
ENDBRANCH  60  83
ENDBRANCH  34  35
ENDBRANCH  26  29
ENDBRANCH  24  25
ENDBRANCH   1  24
TORSDOF 15
ENDMDL
MODEL 2
REMARK VINA RESULT:     -12.3      5.824     10.979
REMARK SMILES C[C@H]1OCC[C@@H]1C(=O)Nc1ccc(Cl)c(C(=O)NCCCNC(=O)c2ccc(-c3c4nc(c(-c5cccc(S(=O)(=O)[O-])c5F)c5ccc([nH]5)c(-c5cccc(S(=O)(=O)[O-])c5F)c5nc(c(-c6cccc(S(=O)(=O)[O-])c6F)c6ccc3[nH]6)C=C5)C=C4)cc2)c1
REMARK SMILES IDX 20 1 19 2 18 3 16 4 17 5 15 7 10 8 11 9 88 10 12 11 13 12
REMARK SMILES IDX 14 13 9 14 7 15 8 16 6 18 1 19 2 20 3 21 4 22 5 23 21 24
REMARK SMILES IDX 22 25 23 26 24 28 25 29 26 30 87 31 27 32 86 33 28 34 29 35
REMARK SMILES IDX 30 36 80 37 31 38 85 39 79 40 81 41 32 42 84 43 78 44 77 45
REMARK SMILES IDX 33 47 65 48 45 49 64 50 46 51 49 52 63 53 82 54 47 55 48 56
REMARK SMILES IDX 62 58 83 59 50 60 34 61 35 62 43 63 36 64 38 65 44 66 37 67
REMARK SMILES IDX 39 68 40 69 41 70 42 71 66 72 67 73 75 74 68 75 70 76 76 77
REMARK SMILES IDX 69 78 71 79 72 80 73 81 74 82 51 83 52 84 60 85 53 86 55 87
REMARK SMILES IDX 61 88 54 89 56 90 57 91 58 92 59 93
REMARK H PARENT 18 6 9 17 22 27 81 46 49 57
REMARK Flexibility Score: inf
ROOT
ATOM      1  C   UNL A   1      31.596  31.867  26.660  1.00  0.00     0.042 C 
ENDROOT
BRANCH   1   2
ATOM      2  C   UNL A   1      31.785  30.383  26.436  1.00  0.00     0.118 C 
BRANCH   2   3
ATOM      3  N   UNL A   1      32.717  30.008  25.382  1.00  0.00    -0.352 N 
ATOM      4  C   UNL A   1      32.715  28.927  24.527  1.00  0.00     0.252 C 
ATOM      5  O   UNL A   1      33.567  28.877  23.640  1.00  0.00    -0.269 OA
ATOM      6  H   UNL A   1      33.472  30.628  25.260  1.00  0.00     0.163 HD
BRANCH   4   7
ATOM      7  C   UNL A   1      31.812  27.763  24.721  1.00  0.00     0.060 A 
ATOM      8  C   UNL A   1      31.119  25.950  26.153  1.00  0.00     0.042 A 
ATOM      9  C   UNL A   1      29.919  25.871  25.466  1.00  0.00     0.028 A 
ATOM     10  C   UNL A   1      31.985  27.010  25.897  1.00  0.00     0.041 A 
ATOM     11  C   UNL A   1      29.783  26.551  24.266  1.00  0.00     0.023 A 
ATOM     12  C   UNL A   1      30.829  27.352  23.819  1.00  0.00     0.053 A 
ATOM     13  Cl  UNL A   1      30.965  27.552  22.102  1.00  0.00    -0.083 Cl
BRANCH   8  14
ATOM     14  N   UNL A   1      31.498  24.936  27.034  1.00  0.00    -0.326 N 
ATOM     15  C   UNL A   1      32.130  23.754  26.735  1.00  0.00     0.230 C 
ATOM     16  O   UNL A   1      32.284  22.948  27.663  1.00  0.00    -0.274 OA
ATOM     17  H   UNL A   1      31.286  25.084  27.983  1.00  0.00     0.169 HD
BRANCH  15  18
ATOM     18  C   UNL A   1      32.761  23.417  25.365  1.00  0.00     0.110 C 
ATOM     19  C   UNL A   1      32.319  21.400  23.879  1.00  0.00     0.039 C 
ATOM     20  C   UNL A   1      33.013  21.929  25.131  1.00  0.00     0.127 C 
ATOM     21  O   UNL A   1      34.425  21.767  24.945  1.00  0.00    -0.378 OA
ATOM     22  C   UNL A   1      34.973  23.008  24.502  1.00  0.00     0.161 C 
ATOM     23  C   UNL A   1      34.051  24.113  24.982  1.00  0.00     0.044 C 
ENDBRANCH  15  18
ENDBRANCH   8  14
ENDBRANCH   4   7
ENDBRANCH   2   3
ENDBRANCH   1   2
BRANCH   1  24
ATOM     24  C   UNL A   1      32.786  32.570  27.279  1.00  0.00     0.118 C 
BRANCH  24  25
ATOM     25  N   UNL A   1      32.525  33.962  27.634  1.00  0.00    -0.352 N 
ATOM     26  C   UNL A   1      33.088  34.778  28.588  1.00  0.00     0.251 C 
ATOM     27  H   UNL A   1      31.821  34.392  27.095  1.00  0.00     0.163 HD
ATOM     28  O   UNL A   1      32.600  35.889  28.795  1.00  0.00    -0.269 OA
BRANCH  26  29
ATOM     29  C   UNL A   1      34.249  34.326  29.387  1.00  0.00     0.039 A 
ATOM     30  C   UNL A   1      34.034  33.662  30.599  1.00  0.00     0.014 A 
ATOM     31  C   UNL A   1      35.551  34.559  28.953  1.00  0.00     0.014 A 
ATOM     32  C   UNL A   1      35.121  33.152  31.318  1.00  0.00     0.010 A 
ATOM     33  C   UNL A   1      36.615  33.940  29.592  1.00  0.00     0.010 A 
ATOM     34  C   UNL A   1      36.420  33.244  30.794  1.00  0.00    -0.014 A 
BRANCH  34  35
ATOM     35  C   UNL A   1      37.605  32.661  31.477  1.00  0.00     0.031 A 
ATOM     36  C   UNL A   1      38.343  31.515  30.832  1.00  0.00     0.074 A 
ATOM     37  C   UNL A   1      37.936  33.065  32.720  1.00  0.00     0.049 A 
ATOM     38  N   UNL A   1      39.281  30.751  31.329  1.00  0.00    -0.248 NA
ATOM     39  C   UNL A   1      37.938  31.148  29.463  1.00  0.00     0.031 C 
ATOM     40  C   UNL A   1      37.255  34.113  33.484  1.00  0.00     0.029 A 
ATOM     41  N   UNL A   1      38.910  32.614  33.577  1.00  0.00    -0.354 N 
ATOM     42  C   UNL A   1      39.534  29.786  30.361  1.00  0.00     0.074 A 
ATOM     43  C   UNL A   1      38.625  30.033  29.266  1.00  0.00     0.031 C 
ATOM     44  C   UNL A   1      37.831  34.225  34.692  1.00  0.00     0.029 A 
ATOM     45  C   UNL A   1      38.894  33.233  34.807  1.00  0.00     0.049 A 
ATOM     46  H   UNL A   1      39.557  31.914  33.335  1.00  0.00     0.167 HD
ATOM     47  C   UNL A   1      40.465  28.802  30.365  1.00  0.00     0.034 A 
ATOM     48  C   UNL A   1      39.642  33.015  35.907  1.00  0.00     0.034 A 
ATOM     49  C   UNL A   1      41.415  28.607  31.424  1.00  0.00     0.049 A 
ATOM     50  C   UNL A   1      40.708  31.952  35.864  1.00  0.00     0.074 A 
ATOM     51  C   UNL A   1      42.460  27.702  31.485  1.00  0.00     0.029 A 
ATOM     52  N   UNL A   1      41.441  29.333  32.604  1.00  0.00    -0.354 N 
ATOM     53  N   UNL A   1      41.024  31.139  34.884  1.00  0.00    -0.248 NA
ATOM     54  C   UNL A   1      41.545  31.796  37.064  1.00  0.00     0.031 C 
ATOM     55  C   UNL A   1      43.107  27.870  32.713  1.00  0.00     0.029 A 
ATOM     56  C   UNL A   1      42.483  28.898  33.401  1.00  0.00     0.049 A 
ATOM     57  H   UNL A   1      40.810  30.051  32.840  1.00  0.00     0.167 HD
ATOM     58  C   UNL A   1      42.123  30.413  35.330  1.00  0.00     0.074 A 
ATOM     59  C   UNL A   1      42.424  30.889  36.665  1.00  0.00     0.031 C 
ATOM     60  C   UNL A   1      42.813  29.435  34.696  1.00  0.00     0.034 A 
BRANCH  47  61
ATOM     61  C   UNL A   1      40.541  27.900  29.160  1.00  0.00     0.023 A 
ATOM     62  C   UNL A   1      39.645  26.816  29.044  1.00  0.00     0.012 A 
ATOM     63  C   UNL A   1      41.454  28.156  28.119  1.00  0.00     0.148 A 
ATOM     64  C   UNL A   1      39.684  25.979  27.931  1.00  0.00     0.002 A 
ATOM     65  C   UNL A   1      41.453  27.347  26.990  1.00  0.00     0.091 A 
ATOM     66  F   UNL A   1      42.310  29.179  28.256  1.00  0.00    -0.205 F 
ATOM     67  C   UNL A   1      40.579  26.251  26.900  1.00  0.00     0.022 A 
BRANCH  65  68
ATOM     68  S   UNL A   1      42.507  27.661  25.569  1.00  0.00     0.127 S 
ATOM     69  O   UNL A   1      41.947  28.913  25.058  1.00  0.00    -0.237 OA
ATOM     70  O   UNL A   1      43.825  27.792  26.188  1.00  0.00    -0.237 OA
ATOM     71  O   UNL A   1      42.356  26.509  24.694  1.00  0.00    -0.744 OA
ENDBRANCH  65  68
ENDBRANCH  47  61
BRANCH  48  72
ATOM     72  C   UNL A   1      39.458  33.862  37.120  1.00  0.00     0.023 A 
ATOM     73  C   UNL A   1      39.934  35.188  37.111  1.00  0.00     0.012 A 
ATOM     74  C   UNL A   1      38.804  33.376  38.268  1.00  0.00     0.148 A 
ATOM     75  C   UNL A   1      39.797  36.002  38.237  1.00  0.00     0.002 A 
ATOM     76  C   UNL A   1      38.621  34.210  39.367  1.00  0.00     0.091 A 
ATOM     77  F   UNL A   1      38.365  32.110  38.262  1.00  0.00    -0.205 F 
ATOM     78  C   UNL A   1      39.134  35.517  39.360  1.00  0.00     0.022 A 
BRANCH  76  79
ATOM     79  S   UNL A   1      37.667  33.715  40.805  1.00  0.00     0.127 S 
ATOM     80  O   UNL A   1      36.483  33.123  40.189  1.00  0.00    -0.237 OA
ATOM     81  O   UNL A   1      38.567  32.761  41.454  1.00  0.00    -0.237 OA
ATOM     82  O   UNL A   1      37.441  34.936  41.566  1.00  0.00    -0.744 OA
ENDBRANCH  76  79
ENDBRANCH  48  72
BRANCH  60  83
ATOM     83  C   UNL A   1      44.008  28.846  35.397  1.00  0.00     0.023 A 
ATOM     84  C   UNL A   1      45.275  29.441  35.253  1.00  0.00     0.012 A 
ATOM     85  C   UNL A   1      43.846  27.765  36.286  1.00  0.00     0.148 A 
ATOM     86  C   UNL A   1      46.370  28.953  35.966  1.00  0.00     0.002 A 
ATOM     87  C   UNL A   1      44.929  27.318  37.031  1.00  0.00     0.091 A 
ATOM     88  F   UNL A   1      42.633  27.204  36.396  1.00  0.00    -0.205 F 
ATOM     89  C   UNL A   1      46.194  27.903  36.863  1.00  0.00     0.022 A 
BRANCH  87  90
ATOM     90  S   UNL A   1      44.774  26.041  38.285  1.00  0.00     0.127 S 
ATOM     91  O   UNL A   1      46.169  25.835  38.675  1.00  0.00    -0.237 OA
ATOM     92  O   UNL A   1      43.950  26.701  39.298  1.00  0.00    -0.237 OA
ATOM     93  O   UNL A   1      44.137  24.906  37.630  1.00  0.00    -0.744 OA
ENDBRANCH  87  90
ENDBRANCH  60  83
ENDBRANCH  34  35
ENDBRANCH  26  29
ENDBRANCH  24  25
ENDBRANCH   1  24
TORSDOF 15
ENDMDL
MODEL 3
REMARK VINA RESULT:     -12.3      1.936      7.912
REMARK SMILES C[C@H]1OCC[C@@H]1C(=O)Nc1ccc(Cl)c(C(=O)NCCCNC(=O)c2ccc(-c3c4nc(c(-c5cccc(S(=O)(=O)[O-])c5F)c5ccc([nH]5)c(-c5cccc(S(=O)(=O)[O-])c5F)c5nc(c(-c6cccc(S(=O)(=O)[O-])c6F)c6ccc3[nH]6)C=C5)C=C4)cc2)c1
REMARK SMILES IDX 20 1 19 2 18 3 16 4 17 5 15 7 10 8 11 9 88 10 12 11 13 12
REMARK SMILES IDX 14 13 9 14 7 15 8 16 6 18 1 19 2 20 3 21 4 22 5 23 21 24
REMARK SMILES IDX 22 25 23 26 24 28 25 29 26 30 87 31 27 32 86 33 28 34 29 35
REMARK SMILES IDX 30 36 80 37 31 38 85 39 79 40 81 41 32 42 84 43 78 44 77 45
REMARK SMILES IDX 33 47 65 48 45 49 64 50 46 51 49 52 63 53 82 54 47 55 48 56
REMARK SMILES IDX 62 58 83 59 50 60 34 61 35 62 43 63 36 64 38 65 44 66 37 67
REMARK SMILES IDX 39 68 40 69 41 70 42 71 66 72 67 73 75 74 68 75 70 76 76 77
REMARK SMILES IDX 69 78 71 79 72 80 73 81 74 82 51 83 52 84 60 85 53 86 55 87
REMARK SMILES IDX 61 88 54 89 56 90 57 91 58 92 59 93
REMARK H PARENT 18 6 9 17 22 27 81 46 49 57
REMARK Flexibility Score: inf
ROOT
ATOM      1  C   UNL A   1      35.700  21.882  24.599  1.00  0.00     0.042 C 
ENDROOT
BRANCH   1   2
ATOM      2  C   UNL A   1      35.249  21.479  25.985  1.00  0.00     0.118 C 
BRANCH   2   3
ATOM      3  N   UNL A   1      34.363  20.326  26.060  1.00  0.00    -0.352 N 
ATOM      4  C   UNL A   1      33.159  20.079  25.435  1.00  0.00     0.252 C 
ATOM      5  O   UNL A   1      32.637  18.973  25.581  1.00  0.00    -0.269 OA
ATOM      6  H   UNL A   1      34.674  19.605  26.654  1.00  0.00     0.163 HD
BRANCH   4   7
ATOM      7  C   UNL A   1      32.409  21.136  24.710  1.00  0.00     0.060 A 
ATOM      8  C   UNL A   1      31.144  23.185  24.850  1.00  0.00     0.042 A 
ATOM      9  C   UNL A   1      31.392  23.426  23.509  1.00  0.00     0.028 A 
ATOM     10  C   UNL A   1      31.801  22.138  25.489  1.00  0.00     0.041 A 
ATOM     11  C   UNL A   1      31.917  22.409  22.727  1.00  0.00     0.023 A 
ATOM     12  C   UNL A   1      32.247  21.197  23.325  1.00  0.00     0.053 A 
ATOM     13  Cl  UNL A   1      32.165  19.793  22.311  1.00  0.00    -0.083 Cl
BRANCH   8  14
ATOM     14  N   UNL A   1      30.183  23.929  25.537  1.00  0.00    -0.326 N 
ATOM     15  C   UNL A   1      30.212  25.268  25.839  1.00  0.00     0.230 C 
ATOM     16  O   UNL A   1      29.294  25.704  26.547  1.00  0.00    -0.274 OA
ATOM     17  H   UNL A   1      29.389  23.434  25.842  1.00  0.00     0.169 HD
BRANCH  15  18
ATOM     18  C   UNL A   1      31.232  26.276  25.264  1.00  0.00     0.110 C 
ATOM     19  C   UNL A   1      33.638  26.672  25.991  1.00  0.00     0.039 C 
ATOM     20  C   UNL A   1      32.161  26.901  26.303  1.00  0.00     0.127 C 
ATOM     21  O   UNL A   1      31.927  28.315  26.280  1.00  0.00    -0.378 OA
ATOM     22  C   UNL A   1      31.385  28.667  25.007  1.00  0.00     0.161 C 
ATOM     23  C   UNL A   1      30.705  27.434  24.441  1.00  0.00     0.044 C 
ENDBRANCH  15  18
ENDBRANCH   8  14
ENDBRANCH   4   7
ENDBRANCH   2   3
ENDBRANCH   1   2
BRANCH   1  24
ATOM     24  C   UNL A   1      37.201  21.950  24.416  1.00  0.00     0.118 C 
BRANCH  24  25
ATOM     25  N   UNL A   1      37.930  20.938  25.175  1.00  0.00    -0.352 N 
ATOM     26  C   UNL A   1      38.974  21.046  26.065  1.00  0.00     0.251 C 
ATOM     27  H   UNL A   1      37.621  20.016  25.021  1.00  0.00     0.163 HD
ATOM     28  O   UNL A   1      39.521  20.024  26.479  1.00  0.00    -0.269 OA
BRANCH  26  29
ATOM     29  C   UNL A   1      39.465  22.371  26.506  1.00  0.00     0.039 A 
ATOM     30  C   UNL A   1      40.505  22.444  27.439  1.00  0.00     0.014 A 
ATOM     31  C   UNL A   1      38.903  23.544  26.011  1.00  0.00     0.014 A 
ATOM     32  C   UNL A   1      41.037  23.688  27.795  1.00  0.00     0.010 A 
ATOM     33  C   UNL A   1      39.515  24.764  26.259  1.00  0.00     0.010 A 
ATOM     34  C   UNL A   1      40.578  24.858  27.169  1.00  0.00    -0.014 A 
BRANCH  34  35
ATOM     35  C   UNL A   1      41.151  26.200  27.454  1.00  0.00     0.031 A 
ATOM     36  C   UNL A   1      42.570  26.502  27.043  1.00  0.00     0.074 A 
ATOM     37  C   UNL A   1      40.455  27.090  28.190  1.00  0.00     0.049 A 
ATOM     38  N   UNL A   1      43.318  27.531  27.346  1.00  0.00    -0.248 NA
ATOM     39  C   UNL A   1      43.256  25.490  26.220  1.00  0.00     0.031 C 
ATOM     40  C   UNL A   1      39.102  26.889  28.713  1.00  0.00     0.029 A 
ATOM     41  N   UNL A   1      40.808  28.333  28.658  1.00  0.00    -0.354 N 
ATOM     42  C   UNL A   1      44.569  27.262  26.804  1.00  0.00     0.074 A 
ATOM     43  C   UNL A   1      44.494  25.957  26.188  1.00  0.00     0.031 C 
ATOM     44  C   UNL A   1      38.739  27.968  29.426  1.00  0.00     0.029 A 
ATOM     45  C   UNL A   1      39.845  28.919  29.448  1.00  0.00     0.049 A 
ATOM     46  H   UNL A   1      41.668  28.762  28.449  1.00  0.00     0.167 HD
ATOM     47  C   UNL A   1      45.674  28.045  26.786  1.00  0.00     0.034 A 
ATOM     48  C   UNL A   1      39.858  30.085  30.124  1.00  0.00     0.034 A 
ATOM     49  C   UNL A   1      45.720  29.372  27.335  1.00  0.00     0.049 A 
ATOM     50  C   UNL A   1      41.079  30.962  30.041  1.00  0.00     0.074 A 
ATOM     51  C   UNL A   1      46.758  30.285  27.286  1.00  0.00     0.029 A 
ATOM     52  N   UNL A   1      44.683  29.976  28.025  1.00  0.00    -0.354 N 
ATOM     53  N   UNL A   1      42.206  30.749  29.405  1.00  0.00    -0.248 NA
ATOM     54  C   UNL A   1      41.021  32.256  30.739  1.00  0.00     0.031 C 
ATOM     55  C   UNL A   1      46.353  31.438  27.965  1.00  0.00     0.029 A 
ATOM     56  C   UNL A   1      45.053  31.252  28.409  1.00  0.00     0.049 A 
ATOM     57  H   UNL A   1      43.811  29.560  28.215  1.00  0.00     0.167 HD
ATOM     58  C   UNL A   1      42.968  31.898  29.584  1.00  0.00     0.074 A 
ATOM     59  C   UNL A   1      42.171  32.809  30.380  1.00  0.00     0.031 C 
ATOM     60  C   UNL A   1      44.218  32.171  29.138  1.00  0.00     0.034 A 
BRANCH  47  61
ATOM     61  C   UNL A   1      46.904  27.511  26.098  1.00  0.00     0.023 A 
ATOM     62  C   UNL A   1      47.106  27.776  24.727  1.00  0.00     0.012 A 
ATOM     63  C   UNL A   1      47.885  26.800  26.816  1.00  0.00     0.148 A 
ATOM     64  C   UNL A   1      48.244  27.308  24.073  1.00  0.00     0.002 A 
ATOM     65  C   UNL A   1      49.041  26.381  26.169  1.00  0.00     0.091 A 
ATOM     66  F   UNL A   1      47.667  26.541  28.113  1.00  0.00    -0.205 F 
ATOM     67  C   UNL A   1      49.215  26.621  24.796  1.00  0.00     0.022 A 
BRANCH  65  68
ATOM     68  S   UNL A   1      50.391  25.563  27.026  1.00  0.00     0.127 S 
ATOM     69  O   UNL A   1      51.341  25.340  25.936  1.00  0.00    -0.237 OA
ATOM     70  O   UNL A   1      50.801  26.580  27.993  1.00  0.00    -0.237 OA
ATOM     71  O   UNL A   1      49.824  24.358  27.613  1.00  0.00    -0.744 OA
ENDBRANCH  65  68
ENDBRANCH  47  61
BRANCH  48  72
ATOM     72  C   UNL A   1      38.653  30.525  30.884  1.00  0.00     0.023 A 
ATOM     73  C   UNL A   1      38.570  30.248  32.263  1.00  0.00     0.012 A 
ATOM     74  C   UNL A   1      37.601  31.225  30.262  1.00  0.00     0.148 A 
ATOM     75  C   UNL A   1      37.447  30.626  33.001  1.00  0.00     0.002 A 
ATOM     76  C   UNL A   1      36.510  31.648  31.015  1.00  0.00     0.091 A 
ATOM     77  F   UNL A   1      37.692  31.473  28.948  1.00  0.00    -0.205 F 
ATOM     78  C   UNL A   1      36.422  31.333  32.379  1.00  0.00     0.022 A 
BRANCH  76  79
ATOM     79  S   UNL A   1      35.206  32.676  30.328  1.00  0.00     0.127 S 
ATOM     80  O   UNL A   1      35.941  33.879  29.949  1.00  0.00    -0.237 OA
ATOM     81  O   UNL A   1      34.735  31.861  29.207  1.00  0.00    -0.237 OA
ATOM     82  O   UNL A   1      34.231  32.840  31.398  1.00  0.00    -0.744 OA
ENDBRANCH  76  79
ENDBRANCH  48  72
BRANCH  60  83
ATOM     83  C   UNL A   1      44.794  33.529  29.437  1.00  0.00     0.023 A 
ATOM     84  C   UNL A   1      45.515  33.744  30.627  1.00  0.00     0.012 A 
ATOM     85  C   UNL A   1      44.709  34.560  28.481  1.00  0.00     0.148 A 
ATOM     86  C   UNL A   1      46.123  34.976  30.872  1.00  0.00     0.002 A 
ATOM     87  C   UNL A   1      45.360  35.765  28.708  1.00  0.00     0.091 A 
ATOM     88  F   UNL A   1      44.003  34.338  27.362  1.00  0.00    -0.205 F 
ATOM     89  C   UNL A   1      46.057  35.979  29.907  1.00  0.00     0.022 A 
BRANCH  87  90
ATOM     90  S   UNL A   1      45.417  37.076  27.481  1.00  0.00     0.127 S 
ATOM     91  O   UNL A   1      43.998  37.385  27.308  1.00  0.00    -0.237 OA
ATOM     92  O   UNL A   1      46.187  38.111  28.170  1.00  0.00    -0.237 OA
ATOM     93  O   UNL A   1      46.076  36.507  26.313  1.00  0.00    -0.744 OA
ENDBRANCH  87  90
ENDBRANCH  60  83
ENDBRANCH  34  35
ENDBRANCH  26  29
ENDBRANCH  24  25
ENDBRANCH   1  24
TORSDOF 15
ENDMDL
