MODEL 1
REMARK VINA RESULT:     -11.6      0.000      0.000
REMARK SMILES O=C(CCC1CC[NH+]([C@H]2CCO[C@]3(CCSC3)C2)CC1)NCCCNC(=O)c1ccc(-c2c3nc(c(-c4cccc(S(=O)(=O)[O-])c4F)c4ccc([nH]4)c(-c4cccc(S(=O)(=O)[O-])c4F)c4nc(c(-c5cccc(S(=O)(=O)[O-])c5F)c5ccc2[nH]5)C=C4)C=C3)cc1
REMARK SMILES IDX 23 1 22 2 21 3 1 4 2 5 3 7 4 8 5 9 6 10 20 11 7 12 19 13
REMARK SMILES IDX 8 14 9 16 10 17 18 18 11 19 13 20 12 21 14 22 17 23 15 24
REMARK SMILES IDX 16 25 24 26 25 27 26 28 27 30 28 31 29 32 90 33 30 34 89 35
REMARK SMILES IDX 31 36 32 37 33 38 83 39 34 40 88 41 82 42 84 43 35 44 87 45
REMARK SMILES IDX 81 46 80 47 36 49 68 50 48 51 67 52 49 53 52 54 66 55 85 56
REMARK SMILES IDX 50 57 51 58 65 60 86 61 53 62 37 63 38 64 46 65 39 66 41 67
REMARK SMILES IDX 47 68 40 69 42 70 43 71 44 72 45 73 69 74 70 75 78 76 71 77
REMARK SMILES IDX 73 78 79 79 72 80 74 81 75 82 76 83 77 84 54 85 55 86 63 87
REMARK SMILES IDX 56 88 58 89 64 90 57 91 59 92 60 93 61 94 62 95
REMARK H PARENT 21 6 8 15 25 29 84 48 52 59
REMARK Flexibility Score: inf
ROOT
ATOM      1  C   UNL A   1      31.603  31.241  26.659  1.00  0.00     0.042 C 
ENDROOT
BRANCH   1   2
ATOM      2  C   UNL A   1      30.676  31.512  25.467  1.00  0.00     0.117 C 
BRANCH   2   3
ATOM      3  N   UNL A   1      30.612  30.452  24.476  1.00  0.00    -0.356 N 
ATOM      4  O   UNL A   1      28.610  31.029  23.543  1.00  0.00    -0.275 OA
ATOM      5  C   UNL A   1      29.587  30.286  23.586  1.00  0.00     0.220 C 
ATOM      6  H   UNL A   1      31.358  29.811  24.442  1.00  0.00     0.163 HD
BRANCH   5   7
ATOM      7  C   UNL A   1      29.663  29.048  22.701  1.00  0.00     0.100 C 
BRANCH   7   8
ATOM      8  C   UNL A   1      29.266  27.689  23.285  1.00  0.00     0.014 C 
BRANCH   8   9
ATOM      9  C   UNL A   1      30.334  26.727  23.882  1.00  0.00     0.000 C 
ATOM     10  C   UNL A   1      30.280  26.492  25.400  1.00  0.00     0.065 C 
ATOM     11  C   UNL A   1      31.747  26.927  23.272  1.00  0.00     0.065 C 
ATOM     12  C   UNL A   1      31.466  27.040  26.177  1.00  0.00     0.262 C 
ATOM     13  C   UNL A   1      32.886  27.306  24.219  1.00  0.00     0.262 C 
ATOM     14  N   UNL A   1      32.777  26.804  25.577  1.00  0.00    -0.332 N 
ATOM     15  H   UNL A   1      33.456  27.393  26.060  1.00  0.00     0.348 HD
BRANCH  14  16
ATOM     16  C   UNL A   1      33.285  25.455  25.849  1.00  0.00     0.189 C 
ATOM     17  C   UNL A   1      32.295  24.455  26.445  1.00  0.00     0.093 C 
ATOM     18  C   UNL A   1      33.929  24.758  24.633  1.00  0.00     0.101 C 
ATOM     19  C   UNL A   1      33.115  23.307  26.989  1.00  0.00     0.167 C 
ATOM     20  C   UNL A   1      34.640  23.448  25.090  1.00  0.00     0.084 C 
ATOM     21  O   UNL A   1      33.781  22.641  25.927  1.00  0.00    -0.374 OA
ATOM     22  C   UNL A   1      35.970  23.778  25.825  1.00  0.00     0.047 C 
ATOM     23  C   UNL A   1      34.959  22.539  23.891  1.00  0.00     0.105 C 
ATOM     24  C   UNL A   1      37.171  23.179  25.104  1.00  0.00     0.072 C 
ATOM     25  S   UNL A   1      36.644  22.920  23.405  1.00  0.00    -0.159 SA
ENDBRANCH  14  16
ENDBRANCH   8   9
ENDBRANCH   7   8
ENDBRANCH   5   7
ENDBRANCH   2   3
ENDBRANCH   1   2
BRANCH   1  26
ATOM     26  C   UNL A   1      32.792  32.175  26.938  1.00  0.00     0.118 C 
BRANCH  26  27
ATOM     27  N   UNL A   1      32.466  33.514  27.397  1.00  0.00    -0.352 N 
ATOM     28  C   UNL A   1      33.085  34.281  28.357  1.00  0.00     0.251 C 
ATOM     29  H   UNL A   1      31.691  33.932  26.958  1.00  0.00     0.163 HD
ATOM     30  O   UNL A   1      32.640  35.402  28.609  1.00  0.00    -0.269 OA
BRANCH  28  31
ATOM     31  C   UNL A   1      34.246  33.768  29.122  1.00  0.00     0.039 A 
ATOM     32  C   UNL A   1      34.007  32.865  30.165  1.00  0.00     0.014 A 
ATOM     33  C   UNL A   1      35.554  34.183  28.856  1.00  0.00     0.014 A 
ATOM     34  C   UNL A   1      35.076  32.336  30.895  1.00  0.00     0.010 A 
ATOM     35  C   UNL A   1      36.626  33.611  29.552  1.00  0.00     0.010 A 
ATOM     36  C   UNL A   1      36.402  32.679  30.578  1.00  0.00    -0.014 A 
BRANCH  36  37
ATOM     37  C   UNL A   1      37.539  32.039  31.302  1.00  0.00     0.031 A 
ATOM     38  C   UNL A   1      38.330  30.917  30.679  1.00  0.00     0.074 A 
ATOM     39  C   UNL A   1      37.845  32.446  32.550  1.00  0.00     0.049 A 
ATOM     40  N   UNL A   1      39.374  30.282  31.152  1.00  0.00    -0.248 NA
ATOM     41  C   UNL A   1      37.881  30.430  29.366  1.00  0.00     0.031 C 
ATOM     42  C   UNL A   1      37.116  33.465  33.308  1.00  0.00     0.029 A 
ATOM     43  N   UNL A   1      38.842  32.048  33.410  1.00  0.00    -0.354 N 
ATOM     44  C   UNL A   1      39.693  29.310  30.211  1.00  0.00     0.074 A 
ATOM     45  C   UNL A   1      38.707  29.413  29.156  1.00  0.00     0.031 C 
ATOM     46  C   UNL A   1      37.695  33.623  34.508  1.00  0.00     0.029 A 
ATOM     47  C   UNL A   1      38.824  32.703  34.620  1.00  0.00     0.049 A 
ATOM     48  H   UNL A   1      39.506  31.359  33.180  1.00  0.00     0.167 HD
ATOM     49  C   UNL A   1      40.725  28.430  30.208  1.00  0.00     0.034 A 
ATOM     50  C   UNL A   1      39.624  32.584  35.698  1.00  0.00     0.034 A 
ATOM     51  C   UNL A   1      41.722  28.341  31.244  1.00  0.00     0.049 A 
ATOM     52  C   UNL A   1      40.788  31.632  35.649  1.00  0.00     0.074 A 
ATOM     53  C   UNL A   1      42.844  27.533  31.291  1.00  0.00     0.029 A 
ATOM     54  N   UNL A   1      41.712  29.075  32.420  1.00  0.00    -0.354 N 
ATOM     55  N   UNL A   1      41.163  30.832  34.681  1.00  0.00    -0.248 NA
ATOM     56  C   UNL A   1      41.670  31.601  36.827  1.00  0.00     0.031 C 
ATOM     57  C   UNL A   1      43.496  27.754  32.510  1.00  0.00     0.029 A 
ATOM     58  C   UNL A   1      42.805  28.735  33.202  1.00  0.00     0.049 A 
ATOM     59  H   UNL A   1      41.031  29.741  32.663  1.00  0.00     0.167 HD
ATOM     60  C   UNL A   1      42.346  30.240  35.111  1.00  0.00     0.074 A 
ATOM     61  C   UNL A   1      42.635  30.789  36.419  1.00  0.00     0.031 C 
ATOM     62  C   UNL A   1      43.116  29.318  34.482  1.00  0.00     0.034 A 
BRANCH  49  63
ATOM     63  C   UNL A   1      40.858  27.510  29.018  1.00  0.00     0.023 A 
ATOM     64  C   UNL A   1      40.026  26.375  28.917  1.00  0.00     0.012 A 
ATOM     65  C   UNL A   1      41.757  27.798  27.972  1.00  0.00     0.148 A 
ATOM     66  C   UNL A   1      40.114  25.522  27.818  1.00  0.00     0.002 A 
ATOM     67  C   UNL A   1      41.806  26.969  26.857  1.00  0.00     0.091 A 
ATOM     68  F   UNL A   1      42.551  28.872  28.089  1.00  0.00    -0.205 F 
ATOM     69  C   UNL A   1      40.997  25.824  26.784  1.00  0.00     0.022 A 
BRANCH  67  70
ATOM     70  S   UNL A   1      42.849  27.316  25.436  1.00  0.00     0.127 S 
ATOM     71  O   UNL A   1      42.790  26.046  24.711  1.00  0.00    -0.237 OA
ATOM     72  O   UNL A   1      42.133  28.418  24.790  1.00  0.00    -0.237 OA
ATOM     73  O   UNL A   1      44.154  27.669  25.969  1.00  0.00    -0.744 OA
ENDBRANCH  67  70
ENDBRANCH  49  63
BRANCH  50  74
ATOM     74  C   UNL A   1      39.398  33.443  36.896  1.00  0.00     0.023 A 
ATOM     75  C   UNL A   1      39.878  34.768  36.907  1.00  0.00     0.012 A 
ATOM     76  C   UNL A   1      38.702  32.957  38.019  1.00  0.00     0.148 A 
ATOM     77  C   UNL A   1      39.707  35.579  38.029  1.00  0.00     0.002 A 
ATOM     78  C   UNL A   1      38.485  33.789  39.112  1.00  0.00     0.091 A 
ATOM     79  F   UNL A   1      38.261  31.692  37.994  1.00  0.00    -0.205 F 
ATOM     80  C   UNL A   1      39.003  35.093  39.127  1.00  0.00     0.022 A 
BRANCH  78  81
ATOM     81  S   UNL A   1      37.478  33.293  40.514  1.00  0.00     0.127 S 
ATOM     82  O   UNL A   1      36.222  32.922  39.863  1.00  0.00    -0.237 OA
ATOM     83  O   UNL A   1      38.248  32.171  41.054  1.00  0.00    -0.237 OA
ATOM     84  O   UNL A   1      37.417  34.456  41.387  1.00  0.00    -0.744 OA
ENDBRANCH  78  81
ENDBRANCH  50  74
BRANCH  62  85
ATOM     85  C   UNL A   1      44.386  28.883  35.172  1.00  0.00     0.023 A 
ATOM     86  C   UNL A   1      45.615  29.498  34.858  1.00  0.00     0.012 A 
ATOM     87  C   UNL A   1      44.352  27.882  36.164  1.00  0.00     0.148 A 
ATOM     88  C   UNL A   1      46.794  29.087  35.480  1.00  0.00     0.002 A 
ATOM     89  C   UNL A   1      45.522  27.518  36.820  1.00  0.00     0.091 A 
ATOM     90  F   UNL A   1      43.180  27.291  36.440  1.00  0.00    -0.205 F 
ATOM     91  C   UNL A   1      46.747  28.107  36.467  1.00  0.00     0.022 A 
BRANCH  89  92
ATOM     92  S   UNL A   1      45.535  26.337  38.172  1.00  0.00     0.127 S 
ATOM     93  O   UNL A   1      45.035  25.129  37.519  1.00  0.00    -0.237 OA
ATOM     94  O   UNL A   1      46.954  26.291  38.533  1.00  0.00    -0.237 OA
ATOM     95  O   UNL A   1      44.671  26.899  39.201  1.00  0.00    -0.744 OA
ENDBRANCH  89  92
ENDBRANCH  62  85
ENDBRANCH  36  37
ENDBRANCH  28  31
ENDBRANCH  26  27
ENDBRANCH   1  26
TORSDOF 16
ENDMDL
MODEL 2
REMARK VINA RESULT:     -11.6      5.719     11.808
REMARK SMILES O=C(CCC1CC[NH+]([C@H]2CCO[C@]3(CCSC3)C2)CC1)NCCCNC(=O)c1ccc(-c2c3nc(c(-c4cccc(S(=O)(=O)[O-])c4F)c4ccc([nH]4)c(-c4cccc(S(=O)(=O)[O-])c4F)c4nc(c(-c5cccc(S(=O)(=O)[O-])c5F)c5ccc2[nH]5)C=C4)C=C3)cc1
REMARK SMILES IDX 23 1 22 2 21 3 1 4 2 5 3 7 4 8 5 9 6 10 20 11 7 12 19 13
REMARK SMILES IDX 8 14 9 16 10 17 18 18 11 19 13 20 12 21 14 22 17 23 15 24
REMARK SMILES IDX 16 25 24 26 25 27 26 28 27 30 28 31 29 32 90 33 30 34 89 35
REMARK SMILES IDX 31 36 32 37 33 38 83 39 34 40 88 41 82 42 84 43 35 44 87 45
REMARK SMILES IDX 81 46 80 47 36 49 68 50 48 51 67 52 49 53 52 54 66 55 85 56
REMARK SMILES IDX 50 57 51 58 65 60 86 61 53 62 37 63 38 64 46 65 39 66 41 67
REMARK SMILES IDX 47 68 40 69 42 70 43 71 44 72 45 73 69 74 70 75 78 76 71 77
REMARK SMILES IDX 73 78 79 79 72 80 74 81 75 82 76 83 77 84 54 85 55 86 63 87
REMARK SMILES IDX 56 88 58 89 64 90 57 91 59 92 60 93 61 94 62 95
REMARK H PARENT 21 6 8 15 25 29 84 48 52 59
REMARK Flexibility Score: inf
ROOT
ATOM      1  C   UNL A   1      37.955  20.023  24.724  1.00  0.00     0.042 C 
ENDROOT
BRANCH   1   2
ATOM      2  C   UNL A   1      36.763  19.096  24.998  1.00  0.00     0.117 C 
BRANCH   2   3
ATOM      3  N   UNL A   1      35.463  19.743  25.011  1.00  0.00    -0.356 N 
ATOM      4  O   UNL A   1      34.239  17.982  24.224  1.00  0.00    -0.275 OA
ATOM      5  C   UNL A   1      34.296  19.142  24.624  1.00  0.00     0.220 C 
ATOM      6  H   UNL A   1      35.418  20.676  25.319  1.00  0.00     0.163 HD
BRANCH   5   7
ATOM      7  C   UNL A   1      33.058  20.030  24.613  1.00  0.00     0.100 C 
BRANCH   7   8
ATOM      8  C   UNL A   1      32.961  21.186  25.614  1.00  0.00     0.014 C 
BRANCH   8   9
ATOM      9  C   UNL A   1      32.912  22.665  25.132  1.00  0.00     0.000 C 
ATOM     10  C   UNL A   1      32.497  23.717  26.173  1.00  0.00     0.065 C 
ATOM     11  C   UNL A   1      32.300  22.827  23.715  1.00  0.00     0.065 C 
ATOM     12  C   UNL A   1      31.166  24.398  25.901  1.00  0.00     0.262 C 
ATOM     13  C   UNL A   1      31.051  23.698  23.573  1.00  0.00     0.262 C 
ATOM     14  N   UNL A   1      30.932  24.797  24.514  1.00  0.00    -0.332 N 
ATOM     15  H   UNL A   1      29.945  25.034  24.416  1.00  0.00     0.348 HD
BRANCH  14  16
ATOM     16  C   UNL A   1      31.593  26.062  24.176  1.00  0.00     0.189 C 
ATOM     17  C   UNL A   1      31.445  26.552  22.737  1.00  0.00     0.093 C 
ATOM     18  C   UNL A   1      31.202  27.248  25.082  1.00  0.00     0.101 C 
ATOM     19  C   UNL A   1      32.498  27.617  22.532  1.00  0.00     0.167 C 
ATOM     20  C   UNL A   1      32.133  28.464  24.790  1.00  0.00     0.084 C 
ATOM     21  O   UNL A   1      32.232  28.729  23.373  1.00  0.00    -0.374 OA
ATOM     22  C   UNL A   1      33.541  28.233  25.407  1.00  0.00     0.047 C 
ATOM     23  C   UNL A   1      31.553  29.763  25.376  1.00  0.00     0.105 C 
ATOM     24  C   UNL A   1      33.881  29.298  26.442  1.00  0.00     0.072 C 
ATOM     25  S   UNL A   1      32.306  29.967  26.992  1.00  0.00    -0.159 SA
ENDBRANCH  14  16
ENDBRANCH   8   9
ENDBRANCH   7   8
ENDBRANCH   5   7
ENDBRANCH   2   3
ENDBRANCH   1   2
BRANCH   1  26
ATOM     26  C   UNL A   1      39.034  20.227  25.800  1.00  0.00     0.118 C 
BRANCH  26  27
ATOM     27  N   UNL A   1      40.087  19.230  25.855  1.00  0.00    -0.352 N 
ATOM     28  C   UNL A   1      41.425  19.388  26.137  1.00  0.00     0.251 C 
ATOM     29  H   UNL A   1      39.804  18.307  25.662  1.00  0.00     0.163 HD
ATOM     30  O   UNL A   1      42.162  18.402  26.120  1.00  0.00    -0.269 OA
BRANCH  28  31
ATOM     31  C   UNL A   1      41.999  20.725  26.415  1.00  0.00     0.039 A 
ATOM     32  C   UNL A   1      42.349  21.537  25.330  1.00  0.00     0.014 A 
ATOM     33  C   UNL A   1      42.231  21.179  27.717  1.00  0.00     0.014 A 
ATOM     34  C   UNL A   1      42.870  22.817  25.548  1.00  0.00     0.010 A 
ATOM     35  C   UNL A   1      42.701  22.481  27.933  1.00  0.00     0.010 A 
ATOM     36  C   UNL A   1      43.024  23.317  26.852  1.00  0.00    -0.014 A 
BRANCH  36  37
ATOM     37  C   UNL A   1      43.493  24.716  27.072  1.00  0.00     0.031 A 
ATOM     38  C   UNL A   1      42.566  25.777  27.608  1.00  0.00     0.074 A 
ATOM     39  C   UNL A   1      44.761  25.049  26.753  1.00  0.00     0.049 A 
ATOM     40  N   UNL A   1      42.824  27.027  27.900  1.00  0.00    -0.248 NA
ATOM     41  C   UNL A   1      41.164  25.391  27.827  1.00  0.00     0.031 C 
ATOM     42  C   UNL A   1      45.745  24.147  26.151  1.00  0.00     0.029 A 
ATOM     43  N   UNL A   1      45.439  26.238  26.879  1.00  0.00    -0.354 N 
ATOM     44  C   UNL A   1      41.620  27.584  28.313  1.00  0.00     0.074 A 
ATOM     45  C   UNL A   1      40.620  26.543  28.198  1.00  0.00     0.031 C 
ATOM     46  C   UNL A   1      46.900  24.806  25.975  1.00  0.00     0.029 A 
ATOM     47  C   UNL A   1      46.738  26.185  26.428  1.00  0.00     0.049 A 
ATOM     48  H   UNL A   1      45.033  27.052  27.257  1.00  0.00     0.167 HD
ATOM     49  C   UNL A   1      41.369  28.835  28.772  1.00  0.00     0.034 A 
ATOM     50  C   UNL A   1      47.695  27.133  26.385  1.00  0.00     0.034 A 
ATOM     51  C   UNL A   1      42.366  29.866  28.910  1.00  0.00     0.049 A 
ATOM     52  C   UNL A   1      47.403  28.500  26.942  1.00  0.00     0.074 A 
ATOM     53  C   UNL A   1      42.221  31.138  29.435  1.00  0.00     0.029 A 
ATOM     54  N   UNL A   1      43.689  29.749  28.513  1.00  0.00    -0.354 N 
ATOM     55  N   UNL A   1      46.296  28.957  27.475  1.00  0.00    -0.248 NA
ATOM     56  C   UNL A   1      48.510  29.469  26.937  1.00  0.00     0.031 C 
ATOM     57  C   UNL A   1      43.449  31.803  29.325  1.00  0.00     0.029 A 
ATOM     58  C   UNL A   1      44.370  30.928  28.774  1.00  0.00     0.049 A 
ATOM     59  H   UNL A   1      44.087  28.947  28.106  1.00  0.00     0.167 HD
ATOM     60  C   UNL A   1      46.586  30.246  27.909  1.00  0.00     0.074 A 
ATOM     61  C   UNL A   1      47.978  30.490  27.596  1.00  0.00     0.031 C 
ATOM     62  C   UNL A   1      45.768  31.149  28.505  1.00  0.00     0.034 A 
BRANCH  49  63
ATOM     63  C   UNL A   1      39.958  29.154  29.203  1.00  0.00     0.023 A 
ATOM     64  C   UNL A   1      38.975  29.424  28.228  1.00  0.00     0.012 A 
ATOM     65  C   UNL A   1      39.588  29.126  30.562  1.00  0.00     0.148 A 
ATOM     66  C   UNL A   1      37.659  29.700  28.599  1.00  0.00     0.002 A 
ATOM     67  C   UNL A   1      38.265  29.356  30.921  1.00  0.00     0.091 A 
ATOM     68  F   UNL A   1      40.537  28.884  31.478  1.00  0.00    -0.205 F 
ATOM     69  C   UNL A   1      37.303  29.657  29.944  1.00  0.00     0.022 A 
BRANCH  67  70
ATOM     70  S   UNL A   1      37.688  29.243  32.619  1.00  0.00     0.127 S 
ATOM     71  O   UNL A   1      36.319  29.749  32.498  1.00  0.00    -0.237 OA
ATOM     72  O   UNL A   1      37.783  27.806  32.881  1.00  0.00    -0.237 OA
ATOM     73  O   UNL A   1      38.589  30.066  33.408  1.00  0.00    -0.744 OA
ENDBRANCH  67  70
ENDBRANCH  49  63
BRANCH  50  74
ATOM     74  C   UNL A   1      49.051  26.804  25.857  1.00  0.00     0.023 A 
ATOM     75  C   UNL A   1      49.960  26.092  26.664  1.00  0.00     0.012 A 
ATOM     76  C   UNL A   1      49.439  27.185  24.559  1.00  0.00     0.148 A 
ATOM     77  C   UNL A   1      51.245  25.802  26.205  1.00  0.00     0.002 A 
ATOM     78  C   UNL A   1      50.700  26.842  24.086  1.00  0.00     0.091 A 
ATOM     79  F   UNL A   1      48.563  27.870  23.810  1.00  0.00    -0.205 F 
ATOM     80  C   UNL A   1      51.612  26.169  24.913  1.00  0.00     0.022 A 
BRANCH  78  81
ATOM     81  S   UNL A   1      51.212  27.158  22.392  1.00  0.00     0.127 S 
ATOM     82  O   UNL A   1      50.120  26.550  21.634  1.00  0.00    -0.237 OA
ATOM     83  O   UNL A   1      51.247  28.622  22.358  1.00  0.00    -0.237 OA
ATOM     84  O   UNL A   1      52.512  26.522  22.248  1.00  0.00    -0.744 OA
ENDBRANCH  78  81
ENDBRANCH  50  74
BRANCH  62  85
ATOM     85  C   UNL A   1      46.370  32.471  28.917  1.00  0.00     0.023 A 
ATOM     86  C   UNL A   1      46.989  32.611  30.175  1.00  0.00     0.012 A 
ATOM     87  C   UNL A   1      46.354  33.568  28.033  1.00  0.00     0.148 A 
ATOM     88  C   UNL A   1      47.532  33.834  30.568  1.00  0.00     0.002 A 
ATOM     89  C   UNL A   1      46.947  34.768  28.409  1.00  0.00     0.091 A 
ATOM     90  F   UNL A   1      45.746  33.428  26.846  1.00  0.00    -0.205 F 
ATOM     91  C   UNL A   1      47.521  34.908  29.682  1.00  0.00     0.022 A 
BRANCH  89  92
ATOM     92  S   UNL A   1      47.067  36.169  27.292  1.00  0.00     0.127 S 
ATOM     93  O   UNL A   1      48.067  37.000  27.960  1.00  0.00    -0.237 OA
ATOM     94  O   UNL A   1      47.527  35.542  26.052  1.00  0.00    -0.237 OA
ATOM     95  O   UNL A   1      45.727  36.736  27.218  1.00  0.00    -0.744 OA
ENDBRANCH  89  92
ENDBRANCH  62  85
ENDBRANCH  36  37
ENDBRANCH  28  31
ENDBRANCH  26  27
ENDBRANCH   1  26
TORSDOF 16
ENDMDL
MODEL 3
REMARK VINA RESULT:     -11.6      6.094     11.637
REMARK SMILES O=C(CCC1CC[NH+]([C@H]2CCO[C@]3(CCSC3)C2)CC1)NCCCNC(=O)c1ccc(-c2c3nc(c(-c4cccc(S(=O)(=O)[O-])c4F)c4ccc([nH]4)c(-c4cccc(S(=O)(=O)[O-])c4F)c4nc(c(-c5cccc(S(=O)(=O)[O-])c5F)c5ccc2[nH]5)C=C4)C=C3)cc1
REMARK SMILES IDX 23 1 22 2 21 3 1 4 2 5 3 7 4 8 5 9 6 10 20 11 7 12 19 13
REMARK SMILES IDX 8 14 9 16 10 17 18 18 11 19 13 20 12 21 14 22 17 23 15 24
REMARK SMILES IDX 16 25 24 26 25 27 26 28 27 30 28 31 29 32 90 33 30 34 89 35
REMARK SMILES IDX 31 36 32 37 33 38 83 39 34 40 88 41 82 42 84 43 35 44 87 45
REMARK SMILES IDX 81 46 80 47 36 49 68 50 48 51 67 52 49 53 52 54 66 55 85 56
REMARK SMILES IDX 50 57 51 58 65 60 86 61 53 62 37 63 38 64 46 65 39 66 41 67
REMARK SMILES IDX 47 68 40 69 42 70 43 71 44 72 45 73 69 74 70 75 78 76 71 77
REMARK SMILES IDX 73 78 79 79 72 80 74 81 75 82 76 83 77 84 54 85 55 86 63 87
REMARK SMILES IDX 56 88 58 89 64 90 57 91 59 92 60 93 61 94 62 95
REMARK H PARENT 21 6 8 15 25 29 84 48 52 59
REMARK Flexibility Score: inf
ROOT
ATOM      1  C   UNL A   1      37.284  20.048  24.757  1.00  0.00     0.042 C 
ENDROOT
BRANCH   1   2
ATOM      2  C   UNL A   1      35.883  20.623  25.003  1.00  0.00     0.117 C 
BRANCH   2   3
ATOM      3  N   UNL A   1      35.576  21.843  24.277  1.00  0.00    -0.356 N 
ATOM      4  O   UNL A   1      33.739  22.461  25.485  1.00  0.00    -0.275 OA
ATOM      5  C   UNL A   1      34.529  22.673  24.568  1.00  0.00     0.220 C 
ATOM      6  H   UNL A   1      36.161  22.089  23.525  1.00  0.00     0.163 HD
BRANCH   5   7
ATOM      7  C   UNL A   1      34.319  23.845  23.618  1.00  0.00     0.100 C 
BRANCH   7   8
ATOM      8  C   UNL A   1      33.132  23.816  22.649  1.00  0.00     0.014 C 
BRANCH   8   9
ATOM      9  C   UNL A   1      32.010  24.893  22.720  1.00  0.00     0.000 C 
ATOM     10  C   UNL A   1      32.125  26.074  21.744  1.00  0.00     0.065 C 
ATOM     11  C   UNL A   1      31.589  25.244  24.171  1.00  0.00     0.065 C 
ATOM     12  C   UNL A   1      32.386  27.422  22.396  1.00  0.00     0.262 C 
ATOM     13  C   UNL A   1      31.746  26.695  24.629  1.00  0.00     0.262 C 
ATOM     14  N   UNL A   1      31.602  27.705  23.596  1.00  0.00    -0.332 N 
ATOM     15  H   UNL A   1      32.012  28.518  24.057  1.00  0.00     0.348 HD
BRANCH  14  16
ATOM     16  C   UNL A   1      30.248  28.174  23.283  1.00  0.00     0.189 C 
ATOM     17  C   UNL A   1      29.089  27.404  23.915  1.00  0.00     0.093 C 
ATOM     18  C   UNL A   1      30.001  29.665  23.595  1.00  0.00     0.101 C 
ATOM     19  C   UNL A   1      27.842  27.803  23.160  1.00  0.00     0.167 C 
ATOM     20  C   UNL A   1      28.627  30.107  23.006  1.00  0.00     0.084 C 
ATOM     21  O   UNL A   1      27.574  29.182  23.360  1.00  0.00    -0.374 OA
ATOM     22  C   UNL A   1      28.722  30.268  21.463  1.00  0.00     0.047 C 
ATOM     23  C   UNL A   1      28.168  31.447  23.607  1.00  0.00     0.105 C 
ATOM     24  C   UNL A   1      28.415  31.696  21.028  1.00  0.00     0.072 C 
ATOM     25  S   UNL A   1      28.718  32.723  22.472  1.00  0.00    -0.159 SA
ENDBRANCH  14  16
ENDBRANCH   8   9
ENDBRANCH   7   8
ENDBRANCH   5   7
ENDBRANCH   2   3
ENDBRANCH   1   2
BRANCH   1  26
ATOM     26  C   UNL A   1      38.444  20.417  25.695  1.00  0.00     0.118 C 
BRANCH  26  27
ATOM     27  N   UNL A   1      39.518  19.446  25.807  1.00  0.00    -0.352 N 
ATOM     28  C   UNL A   1      40.835  19.637  26.156  1.00  0.00     0.251 C 
ATOM     29  H   UNL A   1      39.267  18.516  25.603  1.00  0.00     0.163 HD
ATOM     30  O   UNL A   1      41.596  18.669  26.180  1.00  0.00    -0.269 OA
BRANCH  28  31
ATOM     31  C   UNL A   1      41.362  20.989  26.459  1.00  0.00     0.039 A 
ATOM     32  C   UNL A   1      41.879  21.752  25.406  1.00  0.00     0.014 A 
ATOM     33  C   UNL A   1      41.387  21.503  27.759  1.00  0.00     0.014 A 
ATOM     34  C   UNL A   1      42.362  23.043  25.644  1.00  0.00     0.010 A 
ATOM     35  C   UNL A   1      41.821  22.815  27.985  1.00  0.00     0.010 A 
ATOM     36  C   UNL A   1      42.312  23.602  26.932  1.00  0.00    -0.014 A 
BRANCH  36  37
ATOM     37  C   UNL A   1      42.744  25.012  27.158  1.00  0.00     0.031 A 
ATOM     38  C   UNL A   1      41.848  26.002  27.858  1.00  0.00     0.074 A 
ATOM     39  C   UNL A   1      43.943  25.421  26.697  1.00  0.00     0.049 A 
ATOM     40  N   UNL A   1      42.087  27.250  28.175  1.00  0.00    -0.248 NA
ATOM     41  C   UNL A   1      40.504  25.539  28.235  1.00  0.00     0.031 C 
ATOM     42  C   UNL A   1      44.879  24.595  25.930  1.00  0.00     0.029 A 
ATOM     43  N   UNL A   1      44.579  26.636  26.793  1.00  0.00    -0.354 N 
ATOM     44  C   UNL A   1      40.923  27.729  28.765  1.00  0.00     0.074 A 
ATOM     45  C   UNL A   1      39.963  26.646  28.728  1.00  0.00     0.031 C 
ATOM     46  C   UNL A   1      45.972  25.318  25.641  1.00  0.00     0.029 A 
ATOM     47  C   UNL A   1      45.810  26.667  26.177  1.00  0.00     0.049 A 
ATOM     48  H   UNL A   1      44.191  27.412  27.258  1.00  0.00     0.167 HD
ATOM     49  C   UNL A   1      40.680  28.945  29.313  1.00  0.00     0.034 A 
ATOM     50  C   UNL A   1      46.711  27.662  26.059  1.00  0.00     0.034 A 
ATOM     51  C   UNL A   1      41.640  30.017  29.373  1.00  0.00     0.049 A 
ATOM     52  C   UNL A   1      46.435  28.988  26.715  1.00  0.00     0.074 A 
ATOM     53  C   UNL A   1      41.509  31.258  29.973  1.00  0.00     0.029 A 
ATOM     54  N   UNL A   1      42.904  29.984  28.805  1.00  0.00    -0.354 N 
ATOM     55  N   UNL A   1      45.387  29.366  27.406  1.00  0.00    -0.248 NA
ATOM     56  C   UNL A   1      47.488  30.010  26.615  1.00  0.00     0.031 C 
ATOM     57  C   UNL A   1      42.682  31.986  29.739  1.00  0.00     0.029 A 
ATOM     58  C   UNL A   1      43.561  31.182  29.034  1.00  0.00     0.049 A 
ATOM     59  H   UNL A   1      43.281  29.220  28.312  1.00  0.00     0.167 HD
ATOM     60  C   UNL A   1      45.674  30.649  27.861  1.00  0.00     0.074 A 
ATOM     61  C   UNL A   1      47.002  30.974  27.385  1.00  0.00     0.031 C 
ATOM     62  C   UNL A   1      44.901  31.484  28.600  1.00  0.00     0.034 A 
BRANCH  49  63
ATOM     63  C   UNL A   1      39.324  29.175  29.934  1.00  0.00     0.023 A 
ATOM     64  C   UNL A   1      39.047  28.657  31.217  1.00  0.00     0.012 A 
ATOM     65  C   UNL A   1      38.346  29.952  29.282  1.00  0.00     0.148 A 
ATOM     66  C   UNL A   1      37.809  28.873  31.822  1.00  0.00     0.002 A 
ATOM     67  C   UNL A   1      37.132  30.203  29.911  1.00  0.00     0.091 A 
ATOM     68  F   UNL A   1      38.618  30.424  28.057  1.00  0.00    -0.205 F 
ATOM     69  C   UNL A   1      36.856  29.653  31.173  1.00  0.00     0.022 A 
BRANCH  67  70
ATOM     70  S   UNL A   1      35.870  31.263  29.195  1.00  0.00     0.127 S 
ATOM     71  O   UNL A   1      36.681  32.335  28.617  1.00  0.00    -0.237 OA
ATOM     72  O   UNL A   1      35.244  30.377  28.213  1.00  0.00    -0.237 OA
ATOM     73  O   UNL A   1      35.005  31.661  30.294  1.00  0.00    -0.744 OA
ENDBRANCH  67  70
ENDBRANCH  49  63
BRANCH  50  74
ATOM     74  C   UNL A   1      48.001  27.424  25.347  1.00  0.00     0.023 A 
ATOM     75  C   UNL A   1      49.117  26.950  26.065  1.00  0.00     0.012 A 
ATOM     76  C   UNL A   1      48.122  27.655  23.964  1.00  0.00     0.148 A 
ATOM     77  C   UNL A   1      50.341  26.751  25.428  1.00  0.00     0.002 A 
ATOM     78  C   UNL A   1      49.329  27.399  23.324  1.00  0.00     0.091 A 
ATOM     79  F   UNL A   1      47.052  28.113  23.301  1.00  0.00    -0.205 F 
ATOM     80  C   UNL A   1      50.446  26.966  24.056  1.00  0.00     0.022 A 
BRANCH  78  81
ATOM     81  S   UNL A   1      49.518  27.523  21.541  1.00  0.00     0.127 S 
ATOM     82  O   UNL A   1      49.657  28.966  21.357  1.00  0.00    -0.237 OA
ATOM     83  O   UNL A   1      50.742  26.751  21.315  1.00  0.00    -0.237 OA
ATOM     84  O   UNL A   1      48.318  26.926  20.975  1.00  0.00    -0.744 OA
ENDBRANCH  78  81
ENDBRANCH  50  74
BRANCH  62  85
ATOM     85  C   UNL A   1      45.494  32.815  28.995  1.00  0.00     0.023 A 
ATOM     86  C   UNL A   1      46.207  32.947  30.204  1.00  0.00     0.012 A 
ATOM     87  C   UNL A   1      45.373  33.931  28.143  1.00  0.00     0.148 A 
ATOM     88  C   UNL A   1      46.742  34.178  30.582  1.00  0.00     0.002 A 
ATOM     89  C   UNL A   1      45.957  35.141  28.500  1.00  0.00     0.091 A 
ATOM     90  F   UNL A   1      44.676  33.797  27.006  1.00  0.00    -0.205 F 
ATOM     91  C   UNL A   1      46.626  35.271  29.727  1.00  0.00     0.022 A 
BRANCH  89  92
ATOM     92  S   UNL A   1      45.943  36.570  27.413  1.00  0.00     0.127 S 
ATOM     93  O   UNL A   1      44.521  36.910  27.383  1.00  0.00    -0.237 OA
ATOM     94  O   UNL A   1      46.782  37.524  28.141  1.00  0.00    -0.237 OA
ATOM     95  O   UNL A   1      46.507  36.115  26.149  1.00  0.00    -0.744 OA
ENDBRANCH  89  92
ENDBRANCH  62  85
ENDBRANCH  36  37
ENDBRANCH  28  31
ENDBRANCH  26  27
ENDBRANCH   1  26
TORSDOF 16
ENDMDL
