MODEL 1
REMARK VINA RESULT:     -12.1      0.000      0.000
REMARK SMILES Cc1c(Cl)cc2c(c1C)O[C@H](C(F)(F)F)C(C(=O)NCCCNC(=O)c1ccc(-c3c4nc(c(-c5cccc(S(=O)(=O)[O-])c5F)c5ccc([nH]5)c(-c5cccc(S(=O)(=O)[O-])c5F)c5nc(c(-c6cccc(S(=O)(=O)[O-])c6F)c6ccc3[nH]6)C=C5)C=C4)cc1)=C2
REMARK SMILES IDX 22 1 21 2 20 3 19 4 17 5 18 6 16 8 1 9 2 10 3 11 8 12 4 13
REMARK SMILES IDX 5 14 7 15 9 16 6 17 10 18 89 19 11 20 12 21 13 22 14 23
REMARK SMILES IDX 15 24 23 25 24 26 25 28 26 29 27 30 88 31 28 32 87 33 29 34
REMARK SMILES IDX 30 35 31 36 81 37 32 38 86 39 80 40 82 41 33 42 85 43 79 44
REMARK SMILES IDX 78 45 34 47 66 48 46 49 65 50 47 51 50 52 64 53 83 54 48 55
REMARK SMILES IDX 49 56 63 58 84 59 51 60 35 61 36 62 44 63 37 64 39 65 45 66
REMARK SMILES IDX 38 67 40 68 41 69 42 70 43 71 67 72 68 73 76 74 69 75 71 76
REMARK SMILES IDX 77 77 70 78 72 79 73 80 74 81 75 82 52 83 53 84 61 85 54 86
REMARK SMILES IDX 56 87 62 88 55 89 57 90 58 91 59 92 60 93
REMARK H PARENT 19 7 23 27 82 46 50 57
REMARK Flexibility Score: inf
ROOT
ATOM      1  C   UNL A   1      33.440  28.708  26.799  1.00  0.00     0.118 C 
ENDROOT
BRANCH   1   2
ATOM      2  C   UNL A   1      33.755  28.326  25.360  1.00  0.00     0.042 C 
BRANCH   2   3
ATOM      3  C   UNL A   1      32.516  27.868  24.608  1.00  0.00     0.118 C 
BRANCH   3   4
ATOM      4  N   UNL A   1      31.554  27.210  25.481  1.00  0.00    -0.352 N 
ATOM      5  C   UNL A   1      31.357  25.968  25.982  1.00  0.00     0.251 C 
ATOM      6  O   UNL A   1      30.391  25.851  26.743  1.00  0.00    -0.270 OA
ATOM      7  H   UNL A   1      30.862  27.839  25.790  1.00  0.00     0.163 HD
BRANCH   5   8
ATOM      8  C   UNL A   1      32.213  24.785  25.686  1.00  0.00     0.067 C 
ATOM      9  C   UNL A   1      36.967  20.341  25.023  1.00  0.00     0.046 C 
ATOM     10  C   UNL A   1      36.066  21.522  25.275  1.00  0.00    -0.026 A 
ATOM     11  C   UNL A   1      36.600  22.771  25.662  1.00  0.00     0.045 A 
ATOM     12  C   UNL A   1      34.670  21.420  25.078  1.00  0.00    -0.004 A 
ATOM     13  Cl  UNL A   1      38.306  23.023  25.839  1.00  0.00    -0.084 Cl
ATOM     14  C   UNL A   1      35.775  23.873  25.910  1.00  0.00     0.032 A 
ATOM     15  C   UNL A   1      33.859  22.541  25.343  1.00  0.00     0.131 A 
ATOM     16  C   UNL A   1      33.985  20.163  24.599  1.00  0.00     0.049 C 
ATOM     17  C   UNL A   1      34.396  23.759  25.760  1.00  0.00     0.019 A 
ATOM     18  O   UNL A   1      32.509  22.362  25.218  1.00  0.00    -0.475 OA
ATOM     19  C   UNL A   1      33.505  24.878  26.050  1.00  0.00     0.025 C 
ATOM     20  C   UNL A   1      31.715  23.551  24.993  1.00  0.00     0.314 C 
BRANCH  20  21
ATOM     21  C   UNL A   1      31.532  23.757  23.477  1.00  0.00     0.429 C 
ATOM     22  F   UNL A   1      31.787  22.608  22.805  1.00  0.00    -0.167 F 
ATOM     23  F   UNL A   1      30.270  24.123  23.146  1.00  0.00    -0.167 F 
ATOM     24  F   UNL A   1      32.352  24.708  22.975  1.00  0.00    -0.167 F 
ENDBRANCH  20  21
ENDBRANCH   5   8
ENDBRANCH   3   4
ENDBRANCH   2   3
ENDBRANCH   1   2
BRANCH   1  25
ATOM     25  N   UNL A   1      33.533  30.152  27.007  1.00  0.00    -0.352 N 
ATOM     26  C   UNL A   1      34.421  30.882  27.755  1.00  0.00     0.251 C 
ATOM     27  H   UNL A   1      32.850  30.685  26.537  1.00  0.00     0.163 HD
ATOM     28  O   UNL A   1      34.164  32.050  28.041  1.00  0.00    -0.269 OA
BRANCH  26  29
ATOM     29  C   UNL A   1      35.682  30.265  28.209  1.00  0.00     0.039 A 
ATOM     30  C   UNL A   1      36.805  30.299  27.379  1.00  0.00     0.014 A 
ATOM     31  C   UNL A   1      35.741  29.632  29.452  1.00  0.00     0.014 A 
ATOM     32  C   UNL A   1      38.005  29.746  27.828  1.00  0.00     0.010 A 
ATOM     33  C   UNL A   1      36.958  29.182  29.939  1.00  0.00     0.010 A 
ATOM     34  C   UNL A   1      38.095  29.211  29.123  1.00  0.00    -0.014 A 
BRANCH  34  35
ATOM     35  C   UNL A   1      39.363  28.647  29.645  1.00  0.00     0.031 A 
ATOM     36  C   UNL A   1      40.023  29.275  30.841  1.00  0.00     0.074 A 
ATOM     37  C   UNL A   1      39.957  27.631  28.990  1.00  0.00     0.049 A 
ATOM     38  N   UNL A   1      41.159  28.967  31.410  1.00  0.00    -0.248 NA
ATOM     39  C   UNL A   1      39.337  30.423  31.459  1.00  0.00     0.031 C 
ATOM     40  C   UNL A   1      39.445  26.997  27.774  1.00  0.00     0.029 A 
ATOM     41  N   UNL A   1      41.128  26.966  29.245  1.00  0.00    -0.354 N 
ATOM     42  C   UNL A   1      41.335  29.897  32.426  1.00  0.00     0.074 A 
ATOM     43  C   UNL A   1      40.222  30.816  32.362  1.00  0.00     0.031 C 
ATOM     44  C   UNL A   1      40.286  26.021  27.401  1.00  0.00     0.029 A 
ATOM     45  C   UNL A   1      41.413  25.981  28.330  1.00  0.00     0.049 A 
ATOM     46  H   UNL A   1      41.711  27.175  30.011  1.00  0.00     0.167 HD
ATOM     47  C   UNL A   1      42.315  29.956  33.358  1.00  0.00     0.034 A 
ATOM     48  C   UNL A   1      42.461  25.138  28.250  1.00  0.00     0.034 A 
ATOM     49  C   UNL A   1      43.391  29.008  33.441  1.00  0.00     0.049 A 
ATOM     50  C   UNL A   1      43.523  25.201  29.313  1.00  0.00     0.074 A 
ATOM     51  C   UNL A   1      44.388  28.924  34.394  1.00  0.00     0.029 A 
ATOM     52  N   UNL A   1      43.613  27.982  32.535  1.00  0.00    -0.354 N 
ATOM     53  N   UNL A   1      43.598  25.992  30.357  1.00  0.00    -0.248 NA
ATOM     54  C   UNL A   1      44.629  24.238  29.209  1.00  0.00     0.031 C 
ATOM     55  C   UNL A   1      45.232  27.864  34.048  1.00  0.00     0.029 A 
ATOM     56  C   UNL A   1      44.741  27.267  32.896  1.00  0.00     0.049 A 
ATOM     57  H   UNL A   1      43.051  27.790  31.750  1.00  0.00     0.167 HD
ATOM     58  C   UNL A   1      44.742  25.608  31.047  1.00  0.00     0.074 A 
ATOM     59  C   UNL A   1      45.316  24.498  30.315  1.00  0.00     0.031 C 
ATOM     60  C   UNL A   1      45.278  26.138  32.176  1.00  0.00     0.034 A 
BRANCH  47  61
ATOM     61  C   UNL A   1      42.229  31.044  34.397  1.00  0.00     0.023 A 
ATOM     62  C   UNL A   1      41.557  30.791  35.613  1.00  0.00     0.012 A 
ATOM     63  C   UNL A   1      42.851  32.291  34.202  1.00  0.00     0.148 A 
ATOM     64  C   UNL A   1      41.471  31.773  36.598  1.00  0.00     0.002 A 
ATOM     65  C   UNL A   1      42.806  33.248  35.210  1.00  0.00     0.091 A 
ATOM     66  F   UNL A   1      43.463  32.524  33.032  1.00  0.00    -0.205 F 
ATOM     67  C   UNL A   1      42.105  32.996  36.401  1.00  0.00     0.022 A 
BRANCH  65  68
ATOM     68  S   UNL A   1      43.664  34.822  35.093  1.00  0.00     0.127 S 
ATOM     69  O   UNL A   1      43.227  35.489  36.318  1.00  0.00    -0.237 OA
ATOM     70  O   UNL A   1      45.067  34.407  35.092  1.00  0.00    -0.237 OA
ATOM     71  O   UNL A   1      43.211  35.435  33.852  1.00  0.00    -0.744 OA
ENDBRANCH  65  68
ENDBRANCH  47  61
BRANCH  48  72
ATOM     72  C   UNL A   1      42.488  24.110  27.173  1.00  0.00     0.023 A 
ATOM     73  C   UNL A   1      43.205  24.375  25.989  1.00  0.00     0.012 A 
ATOM     74  C   UNL A   1      41.900  22.841  27.349  1.00  0.00     0.148 A 
ATOM     75  C   UNL A   1      43.325  23.402  24.996  1.00  0.00     0.002 A 
ATOM     76  C   UNL A   1      42.073  21.858  26.383  1.00  0.00     0.091 A 
ATOM     77  F   UNL A   1      41.221  22.611  28.481  1.00  0.00    -0.205 F 
ATOM     78  C   UNL A   1      42.773  22.141  25.199  1.00  0.00     0.022 A 
BRANCH  76  79
ATOM     79  S   UNL A   1      41.530  20.161  26.617  1.00  0.00     0.127 S 
ATOM     80  O   UNL A   1      41.972  19.530  25.376  1.00  0.00    -0.237 OA
ATOM     81  O   UNL A   1      42.281  19.771  27.810  1.00  0.00    -0.237 OA
ATOM     82  O   UNL A   1      40.087  20.229  26.807  1.00  0.00    -0.744 OA
ENDBRANCH  76  79
ENDBRANCH  48  72
BRANCH  60  83
ATOM     83  C   UNL A   1      46.552  25.534  32.705  1.00  0.00     0.023 A 
ATOM     84  C   UNL A   1      47.792  26.067  32.302  1.00  0.00     0.012 A 
ATOM     85  C   UNL A   1      46.518  24.528  33.691  1.00  0.00     0.148 A 
ATOM     86  C   UNL A   1      48.980  25.595  32.859  1.00  0.00     0.002 A 
ATOM     87  C   UNL A   1      47.702  24.101  34.281  1.00  0.00     0.091 A 
ATOM     88  F   UNL A   1      45.328  24.026  34.050  1.00  0.00    -0.205 F 
ATOM     89  C   UNL A   1      48.934  24.625  33.857  1.00  0.00     0.022 A 
BRANCH  87  90
ATOM     90  S   UNL A   1      47.736  22.939  35.651  1.00  0.00     0.127 S 
ATOM     91  O   UNL A   1      49.173  22.778  35.867  1.00  0.00    -0.237 OA
ATOM     92  O   UNL A   1      47.040  23.681  36.702  1.00  0.00    -0.237 OA
ATOM     93  O   UNL A   1      47.038  21.748  35.186  1.00  0.00    -0.744 OA
ENDBRANCH  87  90
ENDBRANCH  60  83
ENDBRANCH  34  35
ENDBRANCH  26  29
ENDBRANCH   1  25
TORSDOF 14
ENDMDL
MODEL 2
REMARK VINA RESULT:     -12.1      3.736      8.641
REMARK SMILES Cc1c(Cl)cc2c(c1C)O[C@H](C(F)(F)F)C(C(=O)NCCCNC(=O)c1ccc(-c3c4nc(c(-c5cccc(S(=O)(=O)[O-])c5F)c5ccc([nH]5)c(-c5cccc(S(=O)(=O)[O-])c5F)c5nc(c(-c6cccc(S(=O)(=O)[O-])c6F)c6ccc3[nH]6)C=C5)C=C4)cc1)=C2
REMARK SMILES IDX 22 1 21 2 20 3 19 4 17 5 18 6 16 8 1 9 2 10 3 11 8 12 4 13
REMARK SMILES IDX 5 14 7 15 9 16 6 17 10 18 89 19 11 20 12 21 13 22 14 23
REMARK SMILES IDX 15 24 23 25 24 26 25 28 26 29 27 30 88 31 28 32 87 33 29 34
REMARK SMILES IDX 30 35 31 36 81 37 32 38 86 39 80 40 82 41 33 42 85 43 79 44
REMARK SMILES IDX 78 45 34 47 66 48 46 49 65 50 47 51 50 52 64 53 83 54 48 55
REMARK SMILES IDX 49 56 63 58 84 59 51 60 35 61 36 62 44 63 37 64 39 65 45 66
REMARK SMILES IDX 38 67 40 68 41 69 42 70 43 71 67 72 68 73 76 74 69 75 71 76
REMARK SMILES IDX 77 77 70 78 72 79 73 80 74 81 75 82 52 83 53 84 61 85 54 86
REMARK SMILES IDX 56 87 62 88 55 89 57 90 58 91 59 92 60 93
REMARK H PARENT 19 7 23 27 82 46 50 57
REMARK Flexibility Score: inf
ROOT
ATOM      1  C   UNL A   1      32.797  32.757  27.307  1.00  0.00     0.118 C 
ENDROOT
BRANCH   1   2
ATOM      2  C   UNL A   1      31.531  32.219  26.657  1.00  0.00     0.042 C 
BRANCH   2   3
ATOM      3  C   UNL A   1      31.610  30.721  26.409  1.00  0.00     0.118 C 
BRANCH   3   4
ATOM      4  N   UNL A   1      31.336  30.378  25.021  1.00  0.00    -0.352 N 
ATOM      5  C   UNL A   1      31.275  29.254  24.271  1.00  0.00     0.251 C 
ATOM      6  O   UNL A   1      30.964  29.422  23.087  1.00  0.00    -0.270 OA
ATOM      7  H   UNL A   1      31.142  31.181  24.484  1.00  0.00     0.163 HD
BRANCH   5   8
ATOM      8  C   UNL A   1      31.543  27.877  24.776  1.00  0.00     0.067 C 
ATOM      9  C   UNL A   1      34.060  22.246  26.954  1.00  0.00     0.046 C 
ATOM     10  C   UNL A   1      33.736  23.616  26.418  1.00  0.00    -0.026 A 
ATOM     11  C   UNL A   1      34.750  24.442  25.883  1.00  0.00     0.045 A 
ATOM     12  C   UNL A   1      32.403  24.085  26.390  1.00  0.00    -0.004 A 
ATOM     13  Cl  UNL A   1      36.400  23.922  25.785  1.00  0.00    -0.084 Cl
ATOM     14  C   UNL A   1      34.466  25.722  25.392  1.00  0.00     0.032 A 
ATOM     15  C   UNL A   1      32.145  25.380  25.900  1.00  0.00     0.131 A 
ATOM     16  C   UNL A   1      31.224  23.273  26.867  1.00  0.00     0.049 C 
ATOM     17  C   UNL A   1      33.159  26.200  25.408  1.00  0.00     0.019 A 
ATOM     18  O   UNL A   1      30.850  25.814  25.975  1.00  0.00    -0.475 OA
ATOM     19  C   UNL A   1      32.837  27.545  24.940  1.00  0.00     0.025 C 
ATOM     20  C   UNL A   1      30.467  26.874  25.067  1.00  0.00     0.314 C 
BRANCH  20  21
ATOM     21  C   UNL A   1      29.875  26.254  23.787  1.00  0.00     0.429 C 
ATOM     22  F   UNL A   1      30.731  26.402  22.745  1.00  0.00    -0.167 F 
ATOM     23  F   UNL A   1      29.644  24.924  23.906  1.00  0.00    -0.167 F 
ATOM     24  F   UNL A   1      28.700  26.818  23.427  1.00  0.00    -0.167 F 
ENDBRANCH  20  21
ENDBRANCH   5   8
ENDBRANCH   3   4
ENDBRANCH   2   3
ENDBRANCH   1   2
BRANCH   1  25
ATOM     25  N   UNL A   1      32.652  34.159  27.695  1.00  0.00    -0.352 N 
ATOM     26  C   UNL A   1      33.181  34.841  28.761  1.00  0.00     0.251 C 
ATOM     27  H   UNL A   1      32.085  34.699  27.097  1.00  0.00     0.163 HD
ATOM     28  O   UNL A   1      32.713  35.933  29.080  1.00  0.00    -0.269 OA
BRANCH  26  29
ATOM     29  C   UNL A   1      34.310  34.266  29.515  1.00  0.00     0.039 A 
ATOM     30  C   UNL A   1      34.061  33.516  30.666  1.00  0.00     0.014 A 
ATOM     31  C   UNL A   1      35.621  34.491  29.087  1.00  0.00     0.014 A 
ATOM     32  C   UNL A   1      35.131  32.943  31.356  1.00  0.00     0.010 A 
ATOM     33  C   UNL A   1      36.670  33.832  29.708  1.00  0.00     0.010 A 
ATOM     34  C   UNL A   1      36.440  33.074  30.863  1.00  0.00    -0.014 A 
BRANCH  34  35
ATOM     35  C   UNL A   1      37.595  32.450  31.550  1.00  0.00     0.031 A 
ATOM     36  C   UNL A   1      38.321  31.305  30.900  1.00  0.00     0.074 A 
ATOM     37  C   UNL A   1      37.931  32.858  32.788  1.00  0.00     0.049 A 
ATOM     38  N   UNL A   1      39.313  30.591  31.363  1.00  0.00    -0.248 NA
ATOM     39  C   UNL A   1      37.849  30.880  29.571  1.00  0.00     0.031 C 
ATOM     40  C   UNL A   1      37.246  33.907  33.546  1.00  0.00     0.029 A 
ATOM     41  N   UNL A   1      38.919  32.427  33.635  1.00  0.00    -0.354 N 
ATOM     42  C   UNL A   1      39.560  29.620  30.400  1.00  0.00     0.074 A 
ATOM     43  C   UNL A   1      38.580  29.798  29.354  1.00  0.00     0.031 C 
ATOM     44  C   UNL A   1      37.848  34.053  34.735  1.00  0.00     0.029 A 
ATOM     45  C   UNL A   1      38.939  33.088  34.840  1.00  0.00     0.049 A 
ATOM     46  H   UNL A   1      39.555  31.712  33.402  1.00  0.00     0.167 HD
ATOM     47  C   UNL A   1      40.543  28.691  30.369  1.00  0.00     0.034 A 
ATOM     48  C   UNL A   1      39.747  32.936  35.907  1.00  0.00     0.034 A 
ATOM     49  C   UNL A   1      41.542  28.555  31.393  1.00  0.00     0.049 A 
ATOM     50  C   UNL A   1      40.853  31.917  35.840  1.00  0.00     0.074 A 
ATOM     51  C   UNL A   1      42.632  27.706  31.421  1.00  0.00     0.029 A 
ATOM     52  N   UNL A   1      41.571  29.286  32.571  1.00  0.00    -0.354 N 
ATOM     53  N   UNL A   1      41.166  31.107  34.857  1.00  0.00    -0.248 NA
ATOM     54  C   UNL A   1      41.734  31.811  37.010  1.00  0.00     0.031 C 
ATOM     55  C   UNL A   1      43.304  27.902  32.632  1.00  0.00     0.029 A 
ATOM     56  C   UNL A   1      42.651  28.897  33.343  1.00  0.00     0.049 A 
ATOM     57  H   UNL A   1      40.919  29.979  32.822  1.00  0.00     0.167 HD
ATOM     58  C   UNL A   1      42.294  30.412  35.279  1.00  0.00     0.074 A 
ATOM     59  C   UNL A   1      42.622  30.915  36.598  1.00  0.00     0.031 C 
ATOM     60  C   UNL A   1      42.985  29.435  34.639  1.00  0.00     0.034 A 
BRANCH  47  61
ATOM     61  C   UNL A   1      40.622  27.795  29.160  1.00  0.00     0.023 A 
ATOM     62  C   UNL A   1      39.735  26.703  29.047  1.00  0.00     0.012 A 
ATOM     63  C   UNL A   1      41.529  28.056  28.116  1.00  0.00     0.148 A 
ATOM     64  C   UNL A   1      39.776  25.863  27.935  1.00  0.00     0.002 A 
ATOM     65  C   UNL A   1      41.529  27.245  26.986  1.00  0.00     0.091 A 
ATOM     66  F   UNL A   1      42.381  29.082  28.250  1.00  0.00    -0.205 F 
ATOM     67  C   UNL A   1      40.665  26.141  26.901  1.00  0.00     0.022 A 
BRANCH  65  68
ATOM     68  S   UNL A   1      42.571  27.569  25.559  1.00  0.00     0.127 S 
ATOM     69  O   UNL A   1      41.997  28.814  25.050  1.00  0.00    -0.237 OA
ATOM     70  O   UNL A   1      43.893  27.713  26.171  1.00  0.00    -0.237 OA
ATOM     71  O   UNL A   1      42.428  26.413  24.686  1.00  0.00    -0.744 OA
ENDBRANCH  65  68
ENDBRANCH  47  61
BRANCH  48  72
ATOM     72  C   UNL A   1      39.586  33.842  37.078  1.00  0.00     0.023 A 
ATOM     73  C   UNL A   1      39.925  35.203  36.945  1.00  0.00     0.012 A 
ATOM     74  C   UNL A   1      39.010  33.394  38.284  1.00  0.00     0.148 A 
ATOM     75  C   UNL A   1      39.705  36.097  37.992  1.00  0.00     0.002 A 
ATOM     76  C   UNL A   1      38.739  34.301  39.301  1.00  0.00     0.091 A 
ATOM     77  F   UNL A   1      38.697  32.095  38.391  1.00  0.00    -0.205 F 
ATOM     78  C   UNL A   1      39.099  35.650  39.163  1.00  0.00     0.022 A 
BRANCH  76  79
ATOM     79  S   UNL A   1      37.828  33.853  40.783  1.00  0.00     0.127 S 
ATOM     80  O   UNL A   1      37.634  35.153  41.422  1.00  0.00    -0.237 OA
ATOM     81  O   UNL A   1      36.618  33.255  40.220  1.00  0.00    -0.237 OA
ATOM     82  O   UNL A   1      38.681  32.920  41.507  1.00  0.00    -0.744 OA
ENDBRANCH  76  79
ENDBRANCH  48  72
BRANCH  60  83
ATOM     83  C   UNL A   1      44.173  28.832  35.343  1.00  0.00     0.023 A 
ATOM     84  C   UNL A   1      45.445  29.415  35.181  1.00  0.00     0.012 A 
ATOM     85  C   UNL A   1      44.008  27.772  36.257  1.00  0.00     0.148 A 
ATOM     86  C   UNL A   1      46.538  28.941  35.905  1.00  0.00     0.002 A 
ATOM     87  C   UNL A   1      45.090  27.341  37.014  1.00  0.00     0.091 A 
ATOM     88  F   UNL A   1      42.791  27.223  36.384  1.00  0.00    -0.205 F 
ATOM     89  C   UNL A   1      46.358  27.916  36.830  1.00  0.00     0.022 A 
BRANCH  87  90
ATOM     90  S   UNL A   1      44.934  26.105  38.309  1.00  0.00     0.127 S 
ATOM     91  O   UNL A   1      43.986  26.748  39.219  1.00  0.00    -0.237 OA
ATOM     92  O   UNL A   1      44.396  24.959  37.578  1.00  0.00    -0.237 OA
ATOM     93  O   UNL A   1      46.274  25.909  38.844  1.00  0.00    -0.744 OA
ENDBRANCH  87  90
ENDBRANCH  60  83
ENDBRANCH  34  35
ENDBRANCH  26  29
ENDBRANCH   1  25
TORSDOF 14
ENDMDL
MODEL 3
REMARK VINA RESULT:     -12.1      4.398      9.624
REMARK SMILES Cc1c(Cl)cc2c(c1C)O[C@H](C(F)(F)F)C(C(=O)NCCCNC(=O)c1ccc(-c3c4nc(c(-c5cccc(S(=O)(=O)[O-])c5F)c5ccc([nH]5)c(-c5cccc(S(=O)(=O)[O-])c5F)c5nc(c(-c6cccc(S(=O)(=O)[O-])c6F)c6ccc3[nH]6)C=C5)C=C4)cc1)=C2
REMARK SMILES IDX 22 1 21 2 20 3 19 4 17 5 18 6 16 8 1 9 2 10 3 11 8 12 4 13
REMARK SMILES IDX 5 14 7 15 9 16 6 17 10 18 89 19 11 20 12 21 13 22 14 23
REMARK SMILES IDX 15 24 23 25 24 26 25 28 26 29 27 30 88 31 28 32 87 33 29 34
REMARK SMILES IDX 30 35 31 36 81 37 32 38 86 39 80 40 82 41 33 42 85 43 79 44
REMARK SMILES IDX 78 45 34 47 66 48 46 49 65 50 47 51 50 52 64 53 83 54 48 55
REMARK SMILES IDX 49 56 63 58 84 59 51 60 35 61 36 62 44 63 37 64 39 65 45 66
REMARK SMILES IDX 38 67 40 68 41 69 42 70 43 71 67 72 68 73 76 74 69 75 71 76
REMARK SMILES IDX 77 77 70 78 72 79 73 80 74 81 75 82 52 83 53 84 61 85 54 86
REMARK SMILES IDX 56 87 62 88 55 89 57 90 58 91 59 92 60 93
REMARK H PARENT 19 7 23 27 82 46 50 57
REMARK Flexibility Score: inf
ROOT
ATOM      1  C   UNL A   1      37.033  23.302  25.163  1.00  0.00     0.118 C 
ENDROOT
BRANCH   1   2
ATOM      2  C   UNL A   1      35.836  23.613  26.050  1.00  0.00     0.042 C 
BRANCH   2   3
ATOM      3  C   UNL A   1      34.561  22.967  25.532  1.00  0.00     0.118 C 
BRANCH   3   4
ATOM      4  N   UNL A   1      34.422  23.104  24.089  1.00  0.00    -0.352 N 
ATOM      5  C   UNL A   1      33.913  24.012  23.223  1.00  0.00     0.251 C 
ATOM      6  O   UNL A   1      34.039  23.732  22.027  1.00  0.00    -0.270 OA
ATOM      7  H   UNL A   1      34.801  22.327  23.616  1.00  0.00     0.163 HD
BRANCH   5   8
ATOM      8  C   UNL A   1      33.246  25.285  23.619  1.00  0.00     0.067 C 
ATOM      9  C   UNL A   1      31.512  31.103  26.055  1.00  0.00     0.046 C 
ATOM     10  C   UNL A   1      32.130  29.790  25.647  1.00  0.00    -0.026 A 
ATOM     11  C   UNL A   1      33.283  29.299  26.300  1.00  0.00     0.045 A 
ATOM     12  C   UNL A   1      31.540  28.996  24.639  1.00  0.00    -0.004 A 
ATOM     13  Cl  UNL A   1      34.027  30.152  27.612  1.00  0.00    -0.084 Cl
ATOM     14  C   UNL A   1      33.874  28.088  25.924  1.00  0.00     0.032 A 
ATOM     15  C   UNL A   1      32.159  27.786  24.272  1.00  0.00     0.131 A 
ATOM     16  C   UNL A   1      30.270  29.376  23.915  1.00  0.00     0.049 C 
ATOM     17  C   UNL A   1      33.319  27.329  24.899  1.00  0.00     0.019 A 
ATOM     18  O   UNL A   1      31.594  27.100  23.232  1.00  0.00    -0.475 OA
ATOM     19  C   UNL A   1      33.934  26.082  24.457  1.00  0.00     0.025 C 
ATOM     20  C   UNL A   1      31.874  25.682  23.162  1.00  0.00     0.314 C 
BRANCH  20  21
ATOM     21  C   UNL A   1      30.760  24.909  23.893  1.00  0.00     0.429 C 
ATOM     22  F   UNL A   1      31.116  24.659  25.177  1.00  0.00    -0.167 F 
ATOM     23  F   UNL A   1      29.593  25.595  23.946  1.00  0.00    -0.167 F 
ATOM     24  F   UNL A   1      30.482  23.719  23.313  1.00  0.00    -0.167 F 
ENDBRANCH  20  21
ENDBRANCH   5   8
ENDBRANCH   3   4
ENDBRANCH   2   3
ENDBRANCH   1   2
BRANCH   1  25
ATOM     25  N   UNL A   1      37.957  22.371  25.810  1.00  0.00    -0.352 N 
ATOM     26  C   UNL A   1      39.137  22.612  26.468  1.00  0.00     0.251 C 
ATOM     27  H   UNL A   1      37.691  21.424  25.768  1.00  0.00     0.163 HD
ATOM     28  O   UNL A   1      39.913  21.683  26.687  1.00  0.00    -0.269 OA
BRANCH  26  29
ATOM     29  C   UNL A   1      39.466  23.979  26.913  1.00  0.00     0.039 A 
ATOM     30  C   UNL A   1      39.206  24.357  28.231  1.00  0.00     0.014 A 
ATOM     31  C   UNL A   1      40.015  24.892  26.010  1.00  0.00     0.014 A 
ATOM     32  C   UNL A   1      39.553  25.640  28.657  1.00  0.00     0.010 A 
ATOM     33  C   UNL A   1      40.458  26.125  26.462  1.00  0.00     0.010 A 
ATOM     34  C   UNL A   1      40.209  26.522  27.782  1.00  0.00    -0.014 A 
BRANCH  34  35
ATOM     35  C   UNL A   1      40.623  27.878  28.211  1.00  0.00     0.031 A 
ATOM     36  C   UNL A   1      42.080  28.248  28.213  1.00  0.00     0.074 A 
ATOM     37  C   UNL A   1      39.698  28.738  28.678  1.00  0.00     0.049 A 
ATOM     38  N   UNL A   1      42.646  29.359  28.606  1.00  0.00    -0.248 NA
ATOM     39  C   UNL A   1      43.032  27.226  27.746  1.00  0.00     0.031 C 
ATOM     40  C   UNL A   1      38.266  28.456  28.794  1.00  0.00     0.029 A 
ATOM     41  N   UNL A   1      39.826  30.016  29.157  1.00  0.00    -0.354 N 
ATOM     42  C   UNL A   1      44.013  29.157  28.463  1.00  0.00     0.074 A 
ATOM     43  C   UNL A   1      44.197  27.799  28.003  1.00  0.00     0.031 C 
ATOM     44  C   UNL A   1      37.646  29.536  29.291  1.00  0.00     0.029 A 
ATOM     45  C   UNL A   1      38.636  30.575  29.560  1.00  0.00     0.049 A 
ATOM     46  H   UNL A   1      40.688  30.489  29.208  1.00  0.00     0.167 HD
ATOM     47  C   UNL A   1      45.023  30.035  28.656  1.00  0.00     0.034 A 
ATOM     48  C   UNL A   1      38.374  31.789  30.083  1.00  0.00     0.034 A 
ATOM     49  C   UNL A   1      44.824  31.398  29.069  1.00  0.00     0.049 A 
ATOM     50  C   UNL A   1      39.507  32.762  30.262  1.00  0.00     0.074 A 
ATOM     51  C   UNL A   1      45.767  32.397  29.213  1.00  0.00     0.029 A 
ATOM     52  N   UNL A   1      43.597  31.951  29.406  1.00  0.00    -0.354 N 
ATOM     53  N   UNL A   1      40.778  32.605  29.980  1.00  0.00    -0.248 NA
ATOM     54  C   UNL A   1      39.170  34.087  30.800  1.00  0.00     0.031 C 
ATOM     55  C   UNL A   1      45.115  33.548  29.667  1.00  0.00     0.029 A 
ATOM     56  C   UNL A   1      43.760  33.274  29.774  1.00  0.00     0.049 A 
ATOM     57  H   UNL A   1      42.738  31.472  29.387  1.00  0.00     0.167 HD
ATOM     58  C   UNL A   1      41.390  33.816  30.282  1.00  0.00     0.074 A 
ATOM     59  C   UNL A   1      40.344  34.704  30.747  1.00  0.00     0.031 C 
ATOM     60  C   UNL A   1      42.701  34.156  30.198  1.00  0.00     0.034 A 
BRANCH  47  61
ATOM     61  C   UNL A   1      46.425  29.568  28.362  1.00  0.00     0.023 A 
ATOM     62  C   UNL A   1      46.945  29.712  27.058  1.00  0.00     0.012 A 
ATOM     63  C   UNL A   1      47.246  29.039  29.375  1.00  0.00     0.148 A 
ATOM     64  C   UNL A   1      48.242  29.299  26.757  1.00  0.00     0.002 A 
ATOM     65  C   UNL A   1      48.556  28.678  29.081  1.00  0.00     0.091 A 
ATOM     66  F   UNL A   1      46.729  28.887  30.603  1.00  0.00    -0.205 F 
ATOM     67  C   UNL A   1      49.050  28.794  27.772  1.00  0.00     0.022 A 
BRANCH  65  68
ATOM     68  S   UNL A   1      49.708  28.101  30.333  1.00  0.00     0.127 S 
ATOM     69  O   UNL A   1      49.086  26.844  30.749  1.00  0.00    -0.237 OA
ATOM     70  O   UNL A   1      50.943  27.944  29.564  1.00  0.00    -0.237 OA
ATOM     71  O   UNL A   1      49.752  29.142  31.349  1.00  0.00    -0.744 OA
ENDBRANCH  65  68
ENDBRANCH  47  61
BRANCH  48  72
ATOM     72  C   UNL A   1      36.963  32.165  30.377  1.00  0.00     0.023 A 
ATOM     73  C   UNL A   1      36.447  31.938  31.669  1.00  0.00     0.012 A 
ATOM     74  C   UNL A   1      36.164  32.832  29.427  1.00  0.00     0.148 A 
ATOM     75  C   UNL A   1      35.160  32.357  32.005  1.00  0.00     0.002 A 
ATOM     76  C   UNL A   1      34.905  33.299  29.786  1.00  0.00     0.091 A 
ATOM     77  F   UNL A   1      36.673  33.035  28.204  1.00  0.00    -0.205 F 
ATOM     78  C   UNL A   1      34.395  33.050  31.070  1.00  0.00     0.022 A 
BRANCH  76  79
ATOM     79  S   UNL A   1      33.908  34.329  28.704  1.00  0.00     0.127 S 
ATOM     80  O   UNL A   1      33.543  33.389  27.646  1.00  0.00    -0.237 OA
ATOM     81  O   UNL A   1      32.811  34.717  29.590  1.00  0.00    -0.237 OA
ATOM     82  O   UNL A   1      34.771  35.429  28.295  1.00  0.00    -0.744 OA
ENDBRANCH  76  79
ENDBRANCH  48  72
BRANCH  60  83
ATOM     83  C   UNL A   1      43.098  35.550  30.614  1.00  0.00     0.023 A 
ATOM     84  C   UNL A   1      43.505  35.788  31.941  1.00  0.00     0.012 A 
ATOM     85  C   UNL A   1      43.187  36.587  29.664  1.00  0.00     0.148 A 
ATOM     86  C   UNL A   1      43.978  37.043  32.321  1.00  0.00     0.002 A 
ATOM     87  C   UNL A   1      43.710  37.819  30.038  1.00  0.00     0.091 A 
ATOM     88  F   UNL A   1      42.781  36.342  28.410  1.00  0.00    -0.205 F 
ATOM     89  C   UNL A   1      44.094  38.052  31.369  1.00  0.00     0.022 A 
BRANCH  87  90
ATOM     90  S   UNL A   1      44.003  39.143  28.860  1.00  0.00     0.127 S 
ATOM     91  O   UNL A   1      42.642  39.468  28.435  1.00  0.00    -0.237 OA
ATOM     92  O   UNL A   1      44.642  40.161  29.692  1.00  0.00    -0.237 OA
ATOM     93  O   UNL A   1      44.859  38.580  27.825  1.00  0.00    -0.744 OA
ENDBRANCH  87  90
ENDBRANCH  60  83
ENDBRANCH  34  35
ENDBRANCH  26  29
ENDBRANCH   1  25
TORSDOF 14
ENDMDL
