MODEL 1
REMARK VINA RESULT:     -12.8      0.000      0.000
REMARK SMILES CC(C)[NH2+][C@]1(C(=O)NCCCNC(=O)c2ccc(-c3c4nc(c(-c5cccc(S(=O)(=O)[O-])c5F)c5ccc([nH]5)c(-c5cccc(S(=O)(=O)[O-])c5F)c5nc(c(-c6cccc(S(=O)(=O)[O-])c6F)c6ccc3[nH]6)C=C5)C=C4)cc2)CC[C@H]([NH+]2CCC(C)(C)CC2)C1
REMARK SMILES IDX 10 1 9 2 8 3 6 4 7 5 5 7 78 8 89 9 79 10 80 11 4 12 2 15
REMARK SMILES IDX 1 16 3 17 81 18 82 19 88 20 83 22 87 23 84 24 85 25 86 26
REMARK SMILES IDX 11 27 12 28 13 29 14 31 15 32 16 33 77 34 17 35 76 36 18 37
REMARK SMILES IDX 19 38 20 39 70 40 21 41 75 42 69 43 71 44 22 45 74 46 68 47
REMARK SMILES IDX 67 48 23 50 55 51 35 52 54 53 36 54 39 55 53 56 72 57 37 58
REMARK SMILES IDX 38 59 52 61 73 62 40 63 24 64 25 65 33 66 26 67 28 68 34 69
REMARK SMILES IDX 27 70 29 71 30 72 31 73 32 74 56 75 57 76 65 77 58 78 60 79
REMARK SMILES IDX 66 80 59 81 61 82 62 83 63 84 64 85 41 86 42 87 50 88 43 89
REMARK SMILES IDX 45 90 51 91 44 92 46 93 47 94 48 95 49 96
REMARK H PARENT 8 6 4 13 4 14 81 21 12 30 71 49 39 60
REMARK Flexibility Score: inf
ROOT
ATOM      1  C   UNL A   1      35.186  22.794  24.846  1.00  0.00     0.042 C 
ENDROOT
BRANCH   1   2
ATOM      2  C   UNL A   1      34.503  24.133  25.015  1.00  0.00     0.118 C 
BRANCH   2   3
ATOM      3  N   UNL A   1      33.441  24.104  26.019  1.00  0.00    -0.351 N 
ATOM      4  C   UNL A   1      32.238  24.778  26.011  1.00  0.00     0.281 C 
ATOM      5  O   UNL A   1      31.411  24.536  26.891  1.00  0.00    -0.268 OA
ATOM      6  H   UNL A   1      33.606  23.529  26.802  1.00  0.00     0.163 HD
BRANCH   4   7
ATOM      7  C   UNL A   1      32.002  25.833  24.916  1.00  0.00     0.181 C 
ATOM      8  C   UNL A   1      32.240  25.426  23.454  1.00  0.00     0.085 C 
ATOM      9  C   UNL A   1      30.449  25.961  24.872  1.00  0.00     0.144 C 
ATOM     10  C   UNL A   1      31.301  26.347  22.641  1.00  0.00     0.072 C 
ATOM     11  C   UNL A   1      30.042  26.527  23.514  1.00  0.00     0.191 C 
BRANCH   7  12
ATOM     12  N   UNL A   1      32.708  27.105  25.208  1.00  0.00    -0.331 N 
ATOM     13  H   UNL A   1      33.644  27.001  24.816  1.00  0.00     0.347 HD
ATOM     14  H   UNL A   1      32.060  27.789  24.817  1.00  0.00     0.347 HD
BRANCH  12  15
ATOM     15  C   UNL A   1      32.897  27.630  26.565  1.00  0.00     0.176 C 
ATOM     16  C   UNL A   1      34.121  28.558  26.443  1.00  0.00     0.075 C 
ATOM     17  C   UNL A   1      31.781  28.445  27.224  1.00  0.00     0.075 C 
ENDBRANCH  12  15
ENDBRANCH   7  12
BRANCH  11  18
ATOM     18  N   UNL A   1      29.428  27.860  23.652  1.00  0.00    -0.332 N 
ATOM     19  C   UNL A   1      28.067  27.931  23.121  1.00  0.00     0.263 C 
ATOM     20  C   UNL A   1      30.282  28.992  23.295  1.00  0.00     0.263 C 
ATOM     21  H   UNL A   1      29.329  27.977  24.660  1.00  0.00     0.348 HD
ATOM     22  C   UNL A   1      27.412  29.306  23.335  1.00  0.00     0.068 C 
ATOM     23  C   UNL A   1      29.640  30.354  23.526  1.00  0.00     0.068 C 
ATOM     24  C   UNL A   1      28.284  30.469  22.821  1.00  0.00    -0.025 C 
ATOM     25  C   UNL A   1      27.654  31.823  23.180  1.00  0.00     0.011 C 
ATOM     26  C   UNL A   1      28.446  30.403  21.290  1.00  0.00     0.011 C 
ENDBRANCH  11  18
ENDBRANCH   4   7
ENDBRANCH   2   3
ENDBRANCH   1   2
BRANCH   1  27
ATOM     27  C   UNL A   1      35.910  22.391  26.108  1.00  0.00     0.118 C 
BRANCH  27  28
ATOM     28  N   UNL A   1      36.917  21.360  25.854  1.00  0.00    -0.352 N 
ATOM     29  C   UNL A   1      38.286  21.460  25.858  1.00  0.00     0.251 C 
ATOM     30  H   UNL A   1      36.561  20.466  25.650  1.00  0.00     0.163 HD
ATOM     31  O   UNL A   1      38.975  20.564  25.380  1.00  0.00    -0.269 OA
BRANCH  29  32
ATOM     32  C   UNL A   1      38.907  22.666  26.433  1.00  0.00     0.039 A 
ATOM     33  C   UNL A   1      40.028  22.552  27.256  1.00  0.00     0.014 A 
ATOM     34  C   UNL A   1      38.404  23.921  26.094  1.00  0.00     0.014 A 
ATOM     35  C   UNL A   1      40.684  23.711  27.672  1.00  0.00     0.010 A 
ATOM     36  C   UNL A   1      39.153  25.051  26.363  1.00  0.00     0.010 A 
ATOM     37  C   UNL A   1      40.275  24.968  27.192  1.00  0.00    -0.014 A 
BRANCH  37  38
ATOM     38  C   UNL A   1      40.978  26.218  27.567  1.00  0.00     0.031 A 
ATOM     39  C   UNL A   1      42.389  26.455  27.092  1.00  0.00     0.074 A 
ATOM     40  C   UNL A   1      40.387  27.088  28.410  1.00  0.00     0.049 A 
ATOM     41  N   UNL A   1      43.184  27.461  27.341  1.00  0.00    -0.248 NA
ATOM     42  C   UNL A   1      43.010  25.399  26.270  1.00  0.00     0.031 C 
ATOM     43  C   UNL A   1      39.074  26.906  29.036  1.00  0.00     0.029 A 
ATOM     44  N   UNL A   1      40.820  28.294  28.895  1.00  0.00    -0.354 N 
ATOM     45  C   UNL A   1      44.403  27.132  26.758  1.00  0.00     0.074 A 
ATOM     46  C   UNL A   1      44.266  25.807  26.203  1.00  0.00     0.031 C 
ATOM     47  C   UNL A   1      38.793  27.981  29.789  1.00  0.00     0.029 A 
ATOM     48  C   UNL A   1      39.912  28.914  29.719  1.00  0.00     0.049 A 
ATOM     49  H   UNL A   1      41.699  28.678  28.674  1.00  0.00     0.167 HD
ATOM     50  C   UNL A   1      45.521  27.885  26.644  1.00  0.00     0.034 A 
ATOM     51  C   UNL A   1      39.972  30.111  30.335  1.00  0.00     0.034 A 
ATOM     52  C   UNL A   1      45.616  29.234  27.126  1.00  0.00     0.049 A 
ATOM     53  C   UNL A   1      41.184  30.974  30.113  1.00  0.00     0.074 A 
ATOM     54  C   UNL A   1      46.648  30.138  26.959  1.00  0.00     0.029 A 
ATOM     55  N   UNL A   1      44.636  29.873  27.869  1.00  0.00    -0.354 N 
ATOM     56  N   UNL A   1      42.257  30.723  29.400  1.00  0.00    -0.248 NA
ATOM     57  C   UNL A   1      41.178  32.298  30.747  1.00  0.00     0.031 C 
ATOM     58  C   UNL A   1      46.296  31.321  27.619  1.00  0.00     0.029 A 
ATOM     59  C   UNL A   1      45.038  31.159  28.179  1.00  0.00     0.049 A 
ATOM     60  H   UNL A   1      43.778  29.470  28.138  1.00  0.00     0.167 HD
ATOM     61  C   UNL A   1      43.043  31.867  29.479  1.00  0.00     0.074 A 
ATOM     62  C   UNL A   1      42.306  32.821  30.284  1.00  0.00     0.031 C 
ATOM     63  C   UNL A   1      44.269  32.103  28.949  1.00  0.00     0.034 A 
BRANCH  50  64
ATOM     64  C   UNL A   1      46.691  27.283  25.907  1.00  0.00     0.023 A 
ATOM     65  C   UNL A   1      47.490  26.310  26.545  1.00  0.00     0.012 A 
ATOM     66  C   UNL A   1      46.996  27.669  24.589  1.00  0.00     0.148 A 
ATOM     67  C   UNL A   1      48.604  25.771  25.905  1.00  0.00     0.002 A 
ATOM     68  C   UNL A   1      48.080  27.088  23.938  1.00  0.00     0.091 A 
ATOM     69  F   UNL A   1      46.245  28.613  24.006  1.00  0.00    -0.205 F 
ATOM     70  C   UNL A   1      48.894  26.153  24.599  1.00  0.00     0.022 A 
BRANCH  68  71
ATOM     71  S   UNL A   1      48.484  27.453  22.226  1.00  0.00     0.127 S 
ATOM     72  O   UNL A   1      49.724  28.214  22.371  1.00  0.00    -0.237 OA
ATOM     73  O   UNL A   1      48.654  26.115  21.657  1.00  0.00    -0.237 OA
ATOM     74  O   UNL A   1      47.348  28.194  21.699  1.00  0.00    -0.744 OA
ENDBRANCH  68  71
ENDBRANCH  50  64
BRANCH  51  75
ATOM     75  C   UNL A   1      38.800  30.601  31.114  1.00  0.00     0.023 A 
ATOM     76  C   UNL A   1      38.817  30.491  32.519  1.00  0.00     0.012 A 
ATOM     77  C   UNL A   1      37.703  31.223  30.488  1.00  0.00     0.148 A 
ATOM     78  C   UNL A   1      37.753  30.967  33.285  1.00  0.00     0.002 A 
ATOM     79  C   UNL A   1      36.670  31.742  31.261  1.00  0.00     0.091 A 
ATOM     80  F   UNL A   1      37.704  31.315  29.151  1.00  0.00    -0.205 F 
ATOM     81  C   UNL A   1      36.685  31.602  32.657  1.00  0.00     0.022 A 
BRANCH  79  82
ATOM     82  S   UNL A   1      35.316  32.691  30.555  1.00  0.00     0.127 S 
ATOM     83  O   UNL A   1      34.365  32.724  31.664  1.00  0.00    -0.237 OA
ATOM     84  O   UNL A   1      35.964  33.969  30.261  1.00  0.00    -0.237 OA
ATOM     85  O   UNL A   1      34.885  31.949  29.378  1.00  0.00    -0.744 OA
ENDBRANCH  79  82
ENDBRANCH  51  75
BRANCH  63  86
ATOM     86  C   UNL A   1      44.888  33.449  29.213  1.00  0.00     0.023 A 
ATOM     87  C   UNL A   1      45.655  33.644  30.379  1.00  0.00     0.012 A 
ATOM     88  C   UNL A   1      44.769  34.494  28.278  1.00  0.00     0.148 A 
ATOM     89  C   UNL A   1      46.265  34.872  30.627  1.00  0.00     0.002 A 
ATOM     90  C   UNL A   1      45.423  35.699  28.506  1.00  0.00     0.091 A 
ATOM     91  F   UNL A   1      44.021  34.293  27.183  1.00  0.00    -0.205 F 
ATOM     92  C   UNL A   1      46.159  35.894  29.686  1.00  0.00     0.022 A 
BRANCH  90  93
ATOM     93  S   UNL A   1      45.422  37.031  27.304  1.00  0.00     0.127 S 
ATOM     94  O   UNL A   1      46.127  38.088  28.027  1.00  0.00    -0.237 OA
ATOM     95  O   UNL A   1      46.172  36.449  26.190  1.00  0.00    -0.237 OA
ATOM     96  O   UNL A   1      44.020  37.299  27.008  1.00  0.00    -0.744 OA
ENDBRANCH  90  93
ENDBRANCH  63  86
ENDBRANCH  37  38
ENDBRANCH  29  32
ENDBRANCH  27  28
ENDBRANCH   1  27
TORSDOF 16
ENDMDL
MODEL 2
REMARK VINA RESULT:     -12.7      5.222     10.453
REMARK SMILES CC(C)[NH2+][C@]1(C(=O)NCCCNC(=O)c2ccc(-c3c4nc(c(-c5cccc(S(=O)(=O)[O-])c5F)c5ccc([nH]5)c(-c5cccc(S(=O)(=O)[O-])c5F)c5nc(c(-c6cccc(S(=O)(=O)[O-])c6F)c6ccc3[nH]6)C=C5)C=C4)cc2)CC[C@H]([NH+]2CCC(C)(C)CC2)C1
REMARK SMILES IDX 10 1 9 2 8 3 6 4 7 5 5 7 78 8 89 9 79 10 80 11 4 12 2 15
REMARK SMILES IDX 1 16 3 17 81 18 82 19 88 20 83 22 87 23 84 24 85 25 86 26
REMARK SMILES IDX 11 27 12 28 13 29 14 31 15 32 16 33 77 34 17 35 76 36 18 37
REMARK SMILES IDX 19 38 20 39 70 40 21 41 75 42 69 43 71 44 22 45 74 46 68 47
REMARK SMILES IDX 67 48 23 50 55 51 35 52 54 53 36 54 39 55 53 56 72 57 37 58
REMARK SMILES IDX 38 59 52 61 73 62 40 63 24 64 25 65 33 66 26 67 28 68 34 69
REMARK SMILES IDX 27 70 29 71 30 72 31 73 32 74 56 75 57 76 65 77 58 78 60 79
REMARK SMILES IDX 66 80 59 81 61 82 62 83 63 84 64 85 41 86 42 87 50 88 43 89
REMARK SMILES IDX 45 90 51 91 44 92 46 93 47 94 48 95 49 96
REMARK H PARENT 8 6 4 13 4 14 81 21 12 30 71 49 39 60
REMARK Flexibility Score: inf
ROOT
ATOM      1  C   UNL A   1      32.383  28.136  25.635  1.00  0.00     0.042 C 
ENDROOT
BRANCH   1   2
ATOM      2  C   UNL A   1      33.131  26.830  25.495  1.00  0.00     0.118 C 
BRANCH   2   3
ATOM      3  N   UNL A   1      33.609  26.593  24.133  1.00  0.00    -0.351 N 
ATOM      4  C   UNL A   1      33.688  25.399  23.451  1.00  0.00     0.281 C 
ATOM      5  O   UNL A   1      34.007  25.410  22.261  1.00  0.00    -0.268 OA
ATOM      6  H   UNL A   1      33.914  27.391  23.642  1.00  0.00     0.163 HD
BRANCH   4   7
ATOM      7  C   UNL A   1      33.409  24.098  24.224  1.00  0.00     0.181 C 
ATOM      8  C   UNL A   1      32.128  24.018  25.068  1.00  0.00     0.085 C 
ATOM      9  C   UNL A   1      33.009  23.094  23.099  1.00  0.00     0.144 C 
ATOM     10  C   UNL A   1      31.784  22.511  25.103  1.00  0.00     0.072 C 
ATOM     11  C   UNL A   1      32.195  21.962  23.721  1.00  0.00     0.191 C 
BRANCH   7  12
ATOM     12  N   UNL A   1      34.576  23.670  25.033  1.00  0.00    -0.331 N 
ATOM     13  H   UNL A   1      34.549  24.234  25.883  1.00  0.00     0.347 HD
ATOM     14  H   UNL A   1      34.429  22.662  25.080  1.00  0.00     0.347 HD
BRANCH  12  15
ATOM     15  C   UNL A   1      35.960  23.737  24.551  1.00  0.00     0.176 C 
ATOM     16  C   UNL A   1      36.809  23.690  25.836  1.00  0.00     0.075 C 
ATOM     17  C   UNL A   1      36.493  22.643  23.622  1.00  0.00     0.075 C 
ENDBRANCH  12  15
ENDBRANCH   7  12
BRANCH  11  18
ATOM     18  N   UNL A   1      32.906  20.675  23.624  1.00  0.00    -0.332 N 
ATOM     19  C   UNL A   1      32.089  19.601  23.058  1.00  0.00     0.263 C 
ATOM     20  C   UNL A   1      33.690  20.292  24.797  1.00  0.00     0.263 C 
ATOM     21  H   UNL A   1      33.632  20.852  22.930  1.00  0.00     0.348 HD
ATOM     22  C   UNL A   1      32.864  18.282  22.896  1.00  0.00     0.068 C 
ATOM     23  C   UNL A   1      34.473  18.996  24.628  1.00  0.00     0.068 C 
ATOM     24  C   UNL A   1      33.567  17.839  24.195  1.00  0.00    -0.025 C 
ATOM     25  C   UNL A   1      34.437  16.597  23.947  1.00  0.00     0.011 C 
ATOM     26  C   UNL A   1      32.539  17.497  25.291  1.00  0.00     0.011 C 
ENDBRANCH  11  18
ENDBRANCH   4   7
ENDBRANCH   2   3
ENDBRANCH   1   2
BRANCH   1  27
ATOM     27  C   UNL A   1      33.269  29.309  25.293  1.00  0.00     0.118 C 
BRANCH  27  28
ATOM     28  N   UNL A   1      32.788  30.552  25.896  1.00  0.00    -0.352 N 
ATOM     29  C   UNL A   1      33.254  31.222  26.999  1.00  0.00     0.251 C 
ATOM     30  H   UNL A   1      32.017  30.967  25.446  1.00  0.00     0.163 HD
ATOM     31  O   UNL A   1      32.582  32.111  27.516  1.00  0.00    -0.269 OA
BRANCH  29  32
ATOM     32  C   UNL A   1      34.565  30.846  27.557  1.00  0.00     0.039 A 
ATOM     33  C   UNL A   1      35.555  31.813  27.734  1.00  0.00     0.014 A 
ATOM     34  C   UNL A   1      34.780  29.530  27.965  1.00  0.00     0.014 A 
ATOM     35  C   UNL A   1      36.733  31.463  28.393  1.00  0.00     0.010 A 
ATOM     36  C   UNL A   1      35.867  29.234  28.766  1.00  0.00     0.010 A 
ATOM     37  C   UNL A   1      36.879  30.181  28.952  1.00  0.00    -0.014 A 
BRANCH  37  38
ATOM     38  C   UNL A   1      38.093  29.787  29.706  1.00  0.00     0.031 A 
ATOM     39  C   UNL A   1      38.317  30.325  31.097  1.00  0.00     0.074 A 
ATOM     40  C   UNL A   1      39.033  29.030  29.108  1.00  0.00     0.049 A 
ATOM     41  N   UNL A   1      39.328  30.131  31.901  1.00  0.00    -0.248 NA
ATOM     42  C   UNL A   1      37.298  31.245  31.637  1.00  0.00     0.031 C 
ATOM     43  C   UNL A   1      38.987  28.555  27.722  1.00  0.00     0.029 A 
ATOM     44  N   UNL A   1      40.220  28.538  29.586  1.00  0.00    -0.354 N 
ATOM     45  C   UNL A   1      39.091  30.942  33.007  1.00  0.00     0.074 A 
ATOM     46  C   UNL A   1      37.880  31.681  32.741  1.00  0.00     0.031 C 
ATOM     47  C   UNL A   1      40.073  27.806  27.477  1.00  0.00     0.029 A 
ATOM     48  C   UNL A   1      40.904  27.769  28.676  1.00  0.00     0.049 A 
ATOM     49  H   UNL A   1      40.549  28.719  30.495  1.00  0.00     0.167 HD
ATOM     50  C   UNL A   1      39.786  31.026  34.164  1.00  0.00     0.034 A 
ATOM     51  C   UNL A   1      42.064  27.097  28.803  1.00  0.00     0.034 A 
ATOM     52  C   UNL A   1      40.941  30.222  34.450  1.00  0.00     0.049 A 
ATOM     53  C   UNL A   1      42.769  27.124  30.131  1.00  0.00     0.074 A 
ATOM     54  C   UNL A   1      41.653  30.126  35.631  1.00  0.00     0.029 A 
ATOM     55  N   UNL A   1      41.551  29.372  33.540  1.00  0.00    -0.354 N 
ATOM     56  N   UNL A   1      42.430  27.751  31.233  1.00  0.00    -0.248 NA
ATOM     57  C   UNL A   1      43.994  26.322  30.247  1.00  0.00     0.031 C 
ATOM     58  C   UNL A   1      42.707  29.228  35.427  1.00  0.00     0.029 A 
ATOM     59  C   UNL A   1      42.638  28.751  34.126  1.00  0.00     0.049 A 
ATOM     60  H   UNL A   1      41.254  29.232  32.612  1.00  0.00     0.167 HD
ATOM     61  C   UNL A   1      43.384  27.399  32.181  1.00  0.00     0.074 A 
ATOM     62  C   UNL A   1      44.296  26.481  31.528  1.00  0.00     0.031 C 
ATOM     63  C   UNL A   1      43.508  27.810  33.467  1.00  0.00     0.034 A 
BRANCH  50  64
ATOM     64  C   UNL A   1      39.263  31.964  35.222  1.00  0.00     0.023 A 
ATOM     65  C   UNL A   1      38.217  31.544  36.071  1.00  0.00     0.012 A 
ATOM     66  C   UNL A   1      39.807  33.252  35.385  1.00  0.00     0.148 A 
ATOM     67  C   UNL A   1      37.683  32.407  37.026  1.00  0.00     0.002 A 
ATOM     68  C   UNL A   1      39.304  34.089  36.375  1.00  0.00     0.091 A 
ATOM     69  F   UNL A   1      40.782  33.647  34.554  1.00  0.00    -0.205 F 
ATOM     70  C   UNL A   1      38.233  33.675  37.184  1.00  0.00     0.022 A 
BRANCH  68  71
ATOM     71  S   UNL A   1      40.000  35.710  36.712  1.00  0.00     0.127 S 
ATOM     72  O   UNL A   1      41.422  35.399  36.850  1.00  0.00    -0.237 OA
ATOM     73  O   UNL A   1      39.653  36.453  35.499  1.00  0.00    -0.237 OA
ATOM     74  O   UNL A   1      39.339  36.183  37.920  1.00  0.00    -0.744 OA
ENDBRANCH  68  71
ENDBRANCH  50  64
BRANCH  51  75
ATOM     75  C   UNL A   1      42.556  26.252  27.678  1.00  0.00     0.023 A 
ATOM     76  C   UNL A   1      43.553  26.763  26.823  1.00  0.00     0.012 A 
ATOM     77  C   UNL A   1      42.093  24.936  27.482  1.00  0.00     0.148 A 
ATOM     78  C   UNL A   1      44.062  25.990  25.780  1.00  0.00     0.002 A 
ATOM     79  C   UNL A   1      42.641  24.154  26.472  1.00  0.00     0.091 A 
ATOM     80  F   UNL A   1      41.141  24.471  28.304  1.00  0.00    -0.205 F 
ATOM     81  C   UNL A   1      43.614  24.684  25.610  1.00  0.00     0.022 A 
BRANCH  79  82
ATOM     82  S   UNL A   1      42.224  22.419  26.257  1.00  0.00     0.127 S 
ATOM     83  O   UNL A   1      42.969  22.081  25.047  1.00  0.00    -0.237 OA
ATOM     84  O   UNL A   1      42.748  21.828  27.488  1.00  0.00    -0.237 OA
ATOM     85  O   UNL A   1      40.773  22.374  26.138  1.00  0.00    -0.744 OA
ENDBRANCH  79  82
ENDBRANCH  51  75
BRANCH  63  86
ATOM     86  C   UNL A   1      44.664  27.262  34.260  1.00  0.00     0.023 A 
ATOM     87  C   UNL A   1      45.881  27.972  34.295  1.00  0.00     0.012 A 
ATOM     88  C   UNL A   1      44.523  26.088  35.023  1.00  0.00     0.148 A 
ATOM     89  C   UNL A   1      46.953  27.500  35.050  1.00  0.00     0.002 A 
ATOM     90  C   UNL A   1      45.579  25.652  35.814  1.00  0.00     0.091 A 
ATOM     91  F   UNL A   1      43.362  25.418  34.963  1.00  0.00    -0.205 F 
ATOM     92  C   UNL A   1      46.798  26.348  35.817  1.00  0.00     0.022 A 
BRANCH  90  93
ATOM     93  S   UNL A   1      45.434  24.236  36.908  1.00  0.00     0.127 S 
ATOM     94  O   UNL A   1      44.913  23.211  36.005  1.00  0.00    -0.237 OA
ATOM     95  O   UNL A   1      46.818  24.027  37.335  1.00  0.00    -0.237 OA
ATOM     96  O   UNL A   1      44.532  24.649  37.976  1.00  0.00    -0.744 OA
ENDBRANCH  90  93
ENDBRANCH  63  86
ENDBRANCH  37  38
ENDBRANCH  29  32
ENDBRANCH  27  28
ENDBRANCH   1  27
TORSDOF 16
ENDMDL
MODEL 3
REMARK VINA RESULT:     -12.6      5.134     10.417
REMARK SMILES CC(C)[NH2+][C@]1(C(=O)NCCCNC(=O)c2ccc(-c3c4nc(c(-c5cccc(S(=O)(=O)[O-])c5F)c5ccc([nH]5)c(-c5cccc(S(=O)(=O)[O-])c5F)c5nc(c(-c6cccc(S(=O)(=O)[O-])c6F)c6ccc3[nH]6)C=C5)C=C4)cc2)CC[C@H]([NH+]2CCC(C)(C)CC2)C1
REMARK SMILES IDX 10 1 9 2 8 3 6 4 7 5 5 7 78 8 89 9 79 10 80 11 4 12 2 15
REMARK SMILES IDX 1 16 3 17 81 18 82 19 88 20 83 22 87 23 84 24 85 25 86 26
REMARK SMILES IDX 11 27 12 28 13 29 14 31 15 32 16 33 77 34 17 35 76 36 18 37
REMARK SMILES IDX 19 38 20 39 70 40 21 41 75 42 69 43 71 44 22 45 74 46 68 47
REMARK SMILES IDX 67 48 23 50 55 51 35 52 54 53 36 54 39 55 53 56 72 57 37 58
REMARK SMILES IDX 38 59 52 61 73 62 40 63 24 64 25 65 33 66 26 67 28 68 34 69
REMARK SMILES IDX 27 70 29 71 30 72 31 73 32 74 56 75 57 76 65 77 58 78 60 79
REMARK SMILES IDX 66 80 59 81 61 82 62 83 63 84 64 85 41 86 42 87 50 88 43 89
REMARK SMILES IDX 45 90 51 91 44 92 46 93 47 94 48 95 49 96
REMARK H PARENT 8 6 4 13 4 14 81 21 12 30 71 49 39 60
REMARK Flexibility Score: inf
ROOT
ATOM      1  C   UNL A   1      31.830  28.822  26.676  1.00  0.00     0.042 C 
ENDROOT
BRANCH   1   2
ATOM      2  C   UNL A   1      32.205  27.376  26.442  1.00  0.00     0.118 C 
BRANCH   2   3
ATOM      3  N   UNL A   1      31.080  26.461  26.630  1.00  0.00    -0.351 N 
ATOM      4  C   UNL A   1      31.015  25.115  26.343  1.00  0.00     0.281 C 
ATOM      5  O   UNL A   1      30.017  24.478  26.682  1.00  0.00    -0.268 OA
ATOM      6  H   UNL A   1      30.263  26.859  27.011  1.00  0.00     0.163 HD
BRANCH   4   7
ATOM      7  C   UNL A   1      32.187  24.477  25.574  1.00  0.00     0.181 C 
ATOM      8  C   UNL A   1      33.606  24.988  25.864  1.00  0.00     0.085 C 
ATOM      9  C   UNL A   1      32.311  23.064  26.221  1.00  0.00     0.144 C 
ATOM     10  C   UNL A   1      34.520  23.782  25.545  1.00  0.00     0.072 C 
ATOM     11  C   UNL A   1      33.720  22.533  25.971  1.00  0.00     0.191 C 
BRANCH   7  12
ATOM     12  N   UNL A   1      31.945  24.456  24.110  1.00  0.00    -0.331 N 
ATOM     13  H   UNL A   1      32.451  23.644  23.756  1.00  0.00     0.347 HD
ATOM     14  H   UNL A   1      30.926  24.483  24.075  1.00  0.00     0.347 HD
BRANCH  12  15
ATOM     15  C   UNL A   1      32.294  25.568  23.219  1.00  0.00     0.176 C 
ATOM     16  C   UNL A   1      32.928  24.883  21.993  1.00  0.00     0.075 C 
ATOM     17  C   UNL A   1      31.192  26.493  22.695  1.00  0.00     0.075 C 
ENDBRANCH  12  15
ENDBRANCH   7  12
BRANCH  11  18
ATOM     18  N   UNL A   1      33.698  21.343  25.103  1.00  0.00    -0.332 N 
ATOM     19  C   UNL A   1      32.347  20.898  24.761  1.00  0.00     0.263 C 
ATOM     20  C   UNL A   1      34.619  20.270  25.472  1.00  0.00     0.263 C 
ATOM     21  H   UNL A   1      34.100  21.676  24.227  1.00  0.00     0.348 HD
ATOM     22  C   UNL A   1      32.337  19.699  23.798  1.00  0.00     0.068 C 
ATOM     23  C   UNL A   1      34.624  19.092  24.507  1.00  0.00     0.068 C 
ATOM     24  C   UNL A   1      33.215  18.531  24.290  1.00  0.00    -0.025 C 
ATOM     25  C   UNL A   1      33.283  17.418  23.233  1.00  0.00     0.011 C 
ATOM     26  C   UNL A   1      32.650  17.926  25.590  1.00  0.00     0.011 C 
ENDBRANCH  11  18
ENDBRANCH   4   7
ENDBRANCH   2   3
ENDBRANCH   1   2
BRANCH   1  27
ATOM     27  C   UNL A   1      32.824  29.753  26.025  1.00  0.00     0.118 C 
BRANCH  27  28
ATOM     28  N   UNL A   1      32.590  31.148  26.397  1.00  0.00    -0.352 N 
ATOM     29  C   UNL A   1      33.270  31.937  27.292  1.00  0.00     0.251 C 
ATOM     30  H   UNL A   1      31.836  31.585  25.940  1.00  0.00     0.163 HD
ATOM     31  O   UNL A   1      32.790  33.003  27.669  1.00  0.00    -0.269 OA
BRANCH  29  32
ATOM     32  C   UNL A   1      34.574  31.474  27.799  1.00  0.00     0.039 A 
ATOM     33  C   UNL A   1      35.627  32.376  27.949  1.00  0.00     0.014 A 
ATOM     34  C   UNL A   1      34.721  30.143  28.187  1.00  0.00     0.014 A 
ATOM     35  C   UNL A   1      36.804  31.946  28.562  1.00  0.00     0.010 A 
ATOM     36  C   UNL A   1      35.815  29.771  28.945  1.00  0.00     0.010 A 
ATOM     37  C   UNL A   1      36.890  30.651  29.104  1.00  0.00    -0.014 A 
BRANCH  37  38
ATOM     38  C   UNL A   1      38.102  30.174  29.810  1.00  0.00     0.031 A 
ATOM     39  C   UNL A   1      38.372  30.627  31.223  1.00  0.00     0.074 A 
ATOM     40  C   UNL A   1      39.003  29.418  29.153  1.00  0.00     0.049 A 
ATOM     41  N   UNL A   1      39.390  30.355  31.995  1.00  0.00    -0.248 NA
ATOM     42  C   UNL A   1      37.397  31.552  31.832  1.00  0.00     0.031 C 
ATOM     43  C   UNL A   1      38.913  29.021  27.744  1.00  0.00     0.029 A 
ATOM     44  N   UNL A   1      40.180  28.859  29.579  1.00  0.00    -0.354 N 
ATOM     45  C   UNL A   1      39.204  31.112  33.146  1.00  0.00     0.074 A 
ATOM     46  C   UNL A   1      38.016  31.907  32.946  1.00  0.00     0.031 C 
ATOM     47  C   UNL A   1      39.967  28.249  27.437  1.00  0.00     0.029 A 
ATOM     48  C   UNL A   1      40.819  28.118  28.614  1.00  0.00     0.049 A 
ATOM     49  H   UNL A   1      40.533  28.979  30.490  1.00  0.00     0.167 HD
ATOM     50  C   UNL A   1      39.923  31.108  34.292  1.00  0.00     0.034 A 
ATOM     51  C   UNL A   1      41.956  27.399  28.681  1.00  0.00     0.034 A 
ATOM     52  C   UNL A   1      41.054  30.250  34.510  1.00  0.00     0.049 A 
ATOM     53  C   UNL A   1      42.686  27.329  29.994  1.00  0.00     0.074 A 
ATOM     54  C   UNL A   1      41.784  30.064  35.669  1.00  0.00     0.029 A 
ATOM     55  N   UNL A   1      41.615  29.430  33.544  1.00  0.00    -0.354 N 
ATOM     56  N   UNL A   1      42.391  27.906  31.135  1.00  0.00    -0.248 NA
ATOM     57  C   UNL A   1      43.883  26.479  30.041  1.00  0.00     0.031 C 
ATOM     58  C   UNL A   1      42.800  29.142  35.396  1.00  0.00     0.029 A 
ATOM     59  C   UNL A   1      42.689  28.740  34.073  1.00  0.00     0.049 A 
ATOM     60  H   UNL A   1      41.295  29.351  32.615  1.00  0.00     0.167 HD
ATOM     61  C   UNL A   1      43.350  27.470  32.042  1.00  0.00     0.074 A 
ATOM     62  C   UNL A   1      44.215  26.557  31.322  1.00  0.00     0.031 C 
ATOM     63  C   UNL A   1      43.512  27.806  33.346  1.00  0.00     0.034 A 
BRANCH  50  64
ATOM     64  C   UNL A   1      39.455  32.005  35.409  1.00  0.00     0.023 A 
ATOM     65  C   UNL A   1      38.518  31.520  36.347  1.00  0.00     0.012 A 
ATOM     66  C   UNL A   1      39.942  33.319  35.540  1.00  0.00     0.148 A 
ATOM     67  C   UNL A   1      38.034  32.341  37.363  1.00  0.00     0.002 A 
ATOM     68  C   UNL A   1      39.492  34.117  36.587  1.00  0.00     0.091 A 
ATOM     69  F   UNL A   1      40.810  33.776  34.626  1.00  0.00    -0.205 F 
ATOM     70  C   UNL A   1      38.527  33.636  37.488  1.00  0.00     0.022 A 
BRANCH  68  71
ATOM     71  S   UNL A   1      40.129  35.770  36.881  1.00  0.00     0.127 S 
ATOM     72  O   UNL A   1      39.630  36.492  35.712  1.00  0.00    -0.237 OA
ATOM     73  O   UNL A   1      39.480  36.131  38.143  1.00  0.00    -0.237 OA
ATOM     74  O   UNL A   1      41.576  35.629  36.965  1.00  0.00    -0.744 OA
ENDBRANCH  68  71
ENDBRANCH  50  64
BRANCH  51  75
ATOM     75  C   UNL A   1      42.396  26.600  27.502  1.00  0.00     0.023 A 
ATOM     76  C   UNL A   1      43.217  27.206  26.532  1.00  0.00     0.012 A 
ATOM     77  C   UNL A   1      42.059  25.239  27.363  1.00  0.00     0.148 A 
ATOM     78  C   UNL A   1      43.676  26.482  25.432  1.00  0.00     0.002 A 
ATOM     79  C   UNL A   1      42.561  24.510  26.291  1.00  0.00     0.091 A 
ATOM     80  F   UNL A   1      41.273  24.682  28.295  1.00  0.00    -0.205 F 
ATOM     81  C   UNL A   1      43.357  25.132  25.317  1.00  0.00     0.022 A 
BRANCH  79  82
ATOM     82  S   UNL A   1      42.314  22.737  26.127  1.00  0.00     0.127 S 
ATOM     83  O   UNL A   1      40.857  22.634  26.167  1.00  0.00    -0.237 OA
ATOM     84  O   UNL A   1      42.915  22.469  24.820  1.00  0.00    -0.237 OA
ATOM     85  O   UNL A   1      43.020  22.134  27.249  1.00  0.00    -0.744 OA
ENDBRANCH  79  82
ENDBRANCH  51  75
BRANCH  63  86
ATOM     86  C   UNL A   1      44.662  27.175  34.084  1.00  0.00     0.023 A 
ATOM     87  C   UNL A   1      45.940  27.764  34.012  1.00  0.00     0.012 A 
ATOM     88  C   UNL A   1      44.463  26.046  34.901  1.00  0.00     0.148 A 
ATOM     89  C   UNL A   1      47.012  27.216  34.715  1.00  0.00     0.002 A 
ATOM     90  C   UNL A   1      45.524  25.537  35.639  1.00  0.00     0.091 A 
ATOM     91  F   UNL A   1      43.243  25.491  34.942  1.00  0.00    -0.205 F 
ATOM     92  C   UNL A   1      46.801  26.111  35.536  1.00  0.00     0.022 A 
BRANCH  90  93
ATOM     93  S   UNL A   1      45.320  24.179  36.796  1.00  0.00     0.127 S 
ATOM     94  O   UNL A   1      44.846  23.108  35.920  1.00  0.00    -0.237 OA
ATOM     95  O   UNL A   1      46.680  23.994  37.304  1.00  0.00    -0.237 OA
ATOM     96  O   UNL A   1      44.365  24.645  37.792  1.00  0.00    -0.744 OA
ENDBRANCH  90  93
ENDBRANCH  63  86
ENDBRANCH  37  38
ENDBRANCH  29  32
ENDBRANCH  27  28
ENDBRANCH   1  27
TORSDOF 16
ENDMDL
