MODEL 1
REMARK VINA RESULT:     -11.6      0.000      0.000
REMARK SMILES [NH3+][C@H]1C=C[C@@H](C(=O)N2CCC(CC(=O)NCCCNC(=O)c3ccc(-c4c5nc(c(-c6cccc(S(=O)(=O)[O-])c6F)c6ccc([nH]6)c(-c6cccc(S(=O)(=O)[O-])c6F)c6nc(c(-c7cccc(S(=O)(=O)[O-])c7F)c7ccc4[nH]7)C=C6)C=C5)cc3)CC2)C1
REMARK SMILES IDX 17 1 16 2 15 3 13 4 14 5 12 7 11 8 6 9 7 10 8 11 9 12 86 13
REMARK SMILES IDX 10 14 85 15 5 16 2 17 3 18 87 19 4 20 1 21 18 25 19 26 20 27
REMARK SMILES IDX 21 29 22 30 23 31 84 32 24 33 83 34 25 35 26 36 27 37 77 38
REMARK SMILES IDX 28 39 82 40 76 41 78 42 29 43 81 44 75 45 74 46 30 48 62 49
REMARK SMILES IDX 42 50 61 51 43 52 46 53 60 54 79 55 44 56 45 57 59 59 80 60
REMARK SMILES IDX 47 61 31 62 32 63 40 64 33 65 35 66 41 67 34 68 36 69 37 70
REMARK SMILES IDX 38 71 39 72 63 73 64 74 72 75 65 76 67 77 73 78 66 79 68 80
REMARK SMILES IDX 69 81 70 82 71 83 48 84 49 85 57 86 50 87 52 88 58 89 51 90
REMARK SMILES IDX 53 91 54 92 55 93 56 94
REMARK H PARENT 15 6 1 22 1 23 1 24 19 28 78 47 46 58
REMARK Flexibility Score: inf
ROOT
ATOM      1  C   UNL A   1      33.196  29.126  25.032  1.00  0.00     0.042 C 
ENDROOT
BRANCH   1   2
ATOM      2  C   UNL A   1      31.770  29.679  25.065  1.00  0.00     0.117 C 
BRANCH   2   3
ATOM      3  N   UNL A   1      31.105  29.621  23.769  1.00  0.00    -0.356 N 
ATOM      4  C   UNL A   1      30.375  28.631  23.181  1.00  0.00     0.220 C 
ATOM      5  O   UNL A   1      29.886  28.847  22.070  1.00  0.00    -0.275 OA
ATOM      6  H   UNL A   1      31.198  30.437  23.225  1.00  0.00     0.163 HD
BRANCH   4   7
ATOM      7  C   UNL A   1      30.171  27.296  23.869  1.00  0.00     0.103 C 
BRANCH   7   8
ATOM      8  C   UNL A   1      30.721  26.099  23.071  1.00  0.00     0.002 C 
ATOM      9  C   UNL A   1      33.704  23.757  23.889  1.00  0.00     0.229 C 
ATOM     10  O   UNL A   1      33.803  24.473  24.888  1.00  0.00    -0.274 OA
ATOM     11  N   UNL A   1      32.708  23.956  22.941  1.00  0.00    -0.342 N 
ATOM     12  C   UNL A   1      32.856  25.094  22.054  1.00  0.00     0.120 C 
ATOM     13  C   UNL A   1      31.334  23.639  23.283  1.00  0.00     0.120 C 
ATOM     14  C   UNL A   1      32.170  26.331  22.626  1.00  0.00     0.026 C 
ATOM     15  C   UNL A   1      30.618  24.824  23.926  1.00  0.00     0.026 C 
BRANCH   9  16
ATOM     16  C   UNL A   1      34.633  22.560  23.648  1.00  0.00     0.107 C 
ATOM     17  C   UNL A   1      36.994  22.252  24.331  1.00  0.00     0.205 C 
ATOM     18  C   UNL A   1      36.050  21.525  25.218  1.00  0.00     0.033 C 
ATOM     19  C   UNL A   1      36.079  22.976  23.329  1.00  0.00     0.087 C 
ATOM     20  C   UNL A   1      34.775  21.674  24.845  1.00  0.00    -0.012 C 
BRANCH  17  21
ATOM     21  N   UNL A   1      37.823  23.173  25.093  1.00  0.00    -0.352 N 
ATOM     22  H   UNL A   1      38.709  23.315  24.608  1.00  0.00     0.345 HD
ATOM     23  H   UNL A   1      38.002  22.784  26.019  1.00  0.00     0.345 HD
ATOM     24  H   UNL A   1      37.340  24.066  25.188  1.00  0.00     0.345 HD
ENDBRANCH  17  21
ENDBRANCH   9  16
ENDBRANCH   7   8
ENDBRANCH   4   7
ENDBRANCH   2   3
ENDBRANCH   1   2
BRANCH   1  25
ATOM     25  C   UNL A   1      33.966  29.283  26.337  1.00  0.00     0.118 C 
BRANCH  25  26
ATOM     26  N   UNL A   1      33.797  30.610  26.900  1.00  0.00    -0.352 N 
ATOM     27  C   UNL A   1      34.473  31.220  27.931  1.00  0.00     0.251 C 
ATOM     28  H   UNL A   1      33.094  31.156  26.482  1.00  0.00     0.163 HD
ATOM     29  O   UNL A   1      33.992  32.236  28.430  1.00  0.00    -0.269 OA
BRANCH  27  30
ATOM     30  C   UNL A   1      35.757  30.681  28.450  1.00  0.00     0.039 A 
ATOM     31  C   UNL A   1      36.948  31.096  27.842  1.00  0.00     0.014 A 
ATOM     32  C   UNL A   1      35.807  29.719  29.463  1.00  0.00     0.014 A 
ATOM     33  C   UNL A   1      38.174  30.571  28.264  1.00  0.00     0.010 A 
ATOM     34  C   UNL A   1      37.037  29.256  29.938  1.00  0.00     0.010 A 
ATOM     35  C   UNL A   1      38.235  29.656  29.328  1.00  0.00    -0.014 A 
BRANCH  35  36
ATOM     36  C   UNL A   1      39.540  29.110  29.794  1.00  0.00     0.031 A 
ATOM     37  C   UNL A   1      40.283  29.753  30.938  1.00  0.00     0.074 A 
ATOM     38  C   UNL A   1      40.087  28.056  29.155  1.00  0.00     0.049 A 
ATOM     39  N   UNL A   1      41.418  29.400  31.486  1.00  0.00    -0.248 NA
ATOM     40  C   UNL A   1      39.687  30.962  31.530  1.00  0.00     0.031 C 
ATOM     41  C   UNL A   1      39.519  27.393  27.980  1.00  0.00     0.029 A 
ATOM     42  N   UNL A   1      41.252  27.367  29.393  1.00  0.00    -0.354 N 
ATOM     43  C   UNL A   1      41.688  30.355  32.459  1.00  0.00     0.074 A 
ATOM     44  C   UNL A   1      40.616  31.324  32.405  1.00  0.00     0.031 C 
ATOM     45  C   UNL A   1      40.327  26.389  27.607  1.00  0.00     0.029 A 
ATOM     46  C   UNL A   1      41.480  26.344  28.502  1.00  0.00     0.049 A 
ATOM     47  H   UNL A   1      41.864  27.585  30.132  1.00  0.00     0.167 HD
ATOM     48  C   UNL A   1      42.715  30.407  33.343  1.00  0.00     0.034 A 
ATOM     49  C   UNL A   1      42.500  25.467  28.415  1.00  0.00     0.034 A 
ATOM     50  C   UNL A   1      43.754  29.415  33.434  1.00  0.00     0.049 A 
ATOM     51  C   UNL A   1      43.595  25.508  29.445  1.00  0.00     0.074 A 
ATOM     52  C   UNL A   1      44.779  29.326  34.359  1.00  0.00     0.029 A 
ATOM     53  N   UNL A   1      43.905  28.344  32.568  1.00  0.00    -0.354 N 
ATOM     54  N   UNL A   1      43.735  26.315  30.469  1.00  0.00    -0.248 NA
ATOM     55  C   UNL A   1      44.652  24.492  29.334  1.00  0.00     0.031 C 
ATOM     56  C   UNL A   1      45.562  28.210  34.041  1.00  0.00     0.029 A 
ATOM     57  C   UNL A   1      45.012  27.594  32.928  1.00  0.00     0.049 A 
ATOM     58  H   UNL A   1      43.313  28.146  31.807  1.00  0.00     0.167 HD
ATOM     59  C   UNL A   1      44.877  25.889  31.138  1.00  0.00     0.074 A 
ATOM     60  C   UNL A   1      45.374  24.734  30.419  1.00  0.00     0.031 C 
ATOM     61  C   UNL A   1      45.472  26.418  32.235  1.00  0.00     0.034 A 
BRANCH  48  62
ATOM     62  C   UNL A   1      42.732  31.543  34.334  1.00  0.00     0.023 A 
ATOM     63  C   UNL A   1      43.452  32.717  34.028  1.00  0.00     0.012 A 
ATOM     64  C   UNL A   1      41.988  31.482  35.528  1.00  0.00     0.148 A 
ATOM     65  C   UNL A   1      43.461  33.797  34.910  1.00  0.00     0.002 A 
ATOM     66  C   UNL A   1      41.968  32.580  36.383  1.00  0.00     0.091 A 
ATOM     67  F   UNL A   1      41.325  30.353  35.813  1.00  0.00    -0.205 F 
ATOM     68  C   UNL A   1      42.711  33.733  36.081  1.00  0.00     0.022 A 
BRANCH  66  69
ATOM     69  S   UNL A   1      40.970  32.626  37.877  1.00  0.00     0.127 S 
ATOM     70  O   UNL A   1      41.788  31.841  38.802  1.00  0.00    -0.237 OA
ATOM     71  O   UNL A   1      40.921  34.058  38.173  1.00  0.00    -0.237 OA
ATOM     72  O   UNL A   1      39.687  32.037  37.520  1.00  0.00    -0.744 OA
ENDBRANCH  66  69
ENDBRANCH  48  62
BRANCH  49  73
ATOM     73  C   UNL A   1      42.486  24.420  27.355  1.00  0.00     0.023 A 
ATOM     74  C   UNL A   1      43.331  24.557  26.237  1.00  0.00     0.012 A 
ATOM     75  C   UNL A   1      41.673  23.276  27.464  1.00  0.00     0.148 A 
ATOM     76  C   UNL A   1      43.347  23.587  25.234  1.00  0.00     0.002 A 
ATOM     77  C   UNL A   1      41.734  22.286  26.489  1.00  0.00     0.091 A 
ATOM     78  F   UNL A   1      40.861  23.171  28.527  1.00  0.00    -0.205 F 
ATOM     79  C   UNL A   1      42.558  22.447  25.365  1.00  0.00     0.022 A 
BRANCH  77  80
ATOM     80  S   UNL A   1      40.860  20.725  26.652  1.00  0.00     0.127 S 
ATOM     81  O   UNL A   1      39.488  21.117  26.348  1.00  0.00    -0.237 OA
ATOM     82  O   UNL A   1      41.510  19.903  25.632  1.00  0.00    -0.237 OA
ATOM     83  O   UNL A   1      41.109  20.282  28.020  1.00  0.00    -0.744 OA
ENDBRANCH  77  80
ENDBRANCH  49  73
BRANCH  61  84
ATOM     84  C   UNL A   1      46.720  25.747  32.745  1.00  0.00     0.023 A 
ATOM     85  C   UNL A   1      47.982  26.197  32.304  1.00  0.00     0.012 A 
ATOM     86  C   UNL A   1      46.650  24.716  33.703  1.00  0.00     0.148 A 
ATOM     87  C   UNL A   1      49.151  25.609  32.784  1.00  0.00     0.002 A 
ATOM     88  C   UNL A   1      47.821  24.168  34.212  1.00  0.00     0.091 A 
ATOM     89  F   UNL A   1      45.442  24.288  34.095  1.00  0.00    -0.205 F 
ATOM     90  C   UNL A   1      49.072  24.604  33.745  1.00  0.00     0.022 A 
BRANCH  88  91
ATOM     91  S   UNL A   1      47.815  22.934  35.518  1.00  0.00     0.127 S 
ATOM     92  O   UNL A   1      47.084  23.626  36.579  1.00  0.00    -0.237 OA
ATOM     93  O   UNL A   1      47.085  21.827  34.898  1.00  0.00    -0.237 OA
ATOM     94  O   UNL A   1      49.214  22.648  35.803  1.00  0.00    -0.744 OA
ENDBRANCH  88  91
ENDBRANCH  61  84
ENDBRANCH  35  36
ENDBRANCH  27  30
ENDBRANCH  25  26
ENDBRANCH   1  25
TORSDOF 16
ENDMDL
MODEL 2
REMARK VINA RESULT:     -11.4      5.060     10.018
REMARK SMILES [NH3+][C@H]1C=C[C@@H](C(=O)N2CCC(CC(=O)NCCCNC(=O)c3ccc(-c4c5nc(c(-c6cccc(S(=O)(=O)[O-])c6F)c6ccc([nH]6)c(-c6cccc(S(=O)(=O)[O-])c6F)c6nc(c(-c7cccc(S(=O)(=O)[O-])c7F)c7ccc4[nH]7)C=C6)C=C5)cc3)CC2)C1
REMARK SMILES IDX 17 1 16 2 15 3 13 4 14 5 12 7 11 8 6 9 7 10 8 11 9 12 86 13
REMARK SMILES IDX 10 14 85 15 5 16 2 17 3 18 87 19 4 20 1 21 18 25 19 26 20 27
REMARK SMILES IDX 21 29 22 30 23 31 84 32 24 33 83 34 25 35 26 36 27 37 77 38
REMARK SMILES IDX 28 39 82 40 76 41 78 42 29 43 81 44 75 45 74 46 30 48 62 49
REMARK SMILES IDX 42 50 61 51 43 52 46 53 60 54 79 55 44 56 45 57 59 59 80 60
REMARK SMILES IDX 47 61 31 62 32 63 40 64 33 65 35 66 41 67 34 68 36 69 37 70
REMARK SMILES IDX 38 71 39 72 63 73 64 74 72 75 65 76 67 77 73 78 66 79 68 80
REMARK SMILES IDX 69 81 70 82 71 83 48 84 49 85 57 86 50 87 52 88 58 89 51 90
REMARK SMILES IDX 53 91 54 92 55 93 56 94
REMARK H PARENT 15 6 1 22 1 23 1 24 19 28 78 47 46 58
REMARK Flexibility Score: inf
ROOT
ATOM      1  C   UNL A   1      35.729  21.750  25.768  1.00  0.00     0.042 C 
ENDROOT
BRANCH   1   2
ATOM      2  C   UNL A   1      35.505  20.481  24.943  1.00  0.00     0.117 C 
BRANCH   2   3
ATOM      3  N   UNL A   1      34.262  19.796  25.273  1.00  0.00    -0.356 N 
ATOM      4  C   UNL A   1      32.990  19.980  24.818  1.00  0.00     0.220 C 
ATOM      5  O   UNL A   1      32.104  19.235  25.242  1.00  0.00    -0.275 OA
ATOM      6  H   UNL A   1      34.356  19.076  25.939  1.00  0.00     0.163 HD
BRANCH   4   7
ATOM      7  C   UNL A   1      32.667  21.075  23.821  1.00  0.00     0.103 C 
BRANCH   7   8
ATOM      8  C   UNL A   1      31.836  22.227  24.414  1.00  0.00     0.002 C 
ATOM      9  C   UNL A   1      33.024  25.612  25.893  1.00  0.00     0.229 C 
ATOM     10  O   UNL A   1      34.142  25.174  25.615  1.00  0.00    -0.274 OA
ATOM     11  N   UNL A   1      31.867  24.893  25.618  1.00  0.00    -0.342 N 
ATOM     12  C   UNL A   1      31.580  23.752  26.467  1.00  0.00     0.120 C 
ATOM     13  C   UNL A   1      31.444  24.735  24.239  1.00  0.00     0.120 C 
ATOM     14  C   UNL A   1      32.177  22.472  25.889  1.00  0.00     0.026 C 
ATOM     15  C   UNL A   1      32.069  23.504  23.589  1.00  0.00     0.026 C 
BRANCH   9  16
ATOM     16  C   UNL A   1      32.821  27.004  26.505  1.00  0.00     0.107 C 
ATOM     17  C   UNL A   1      33.043  29.228  25.437  1.00  0.00     0.205 C 
ATOM     18  C   UNL A   1      31.626  28.804  25.571  1.00  0.00     0.033 C 
ATOM     19  C   UNL A   1      33.840  28.038  25.998  1.00  0.00     0.087 C 
ATOM     20  C   UNL A   1      31.499  27.612  26.161  1.00  0.00    -0.012 C 
BRANCH  17  21
ATOM     21  N   UNL A   1      33.375  29.516  24.051  1.00  0.00    -0.352 N 
ATOM     22  H   UNL A   1      34.268  30.008  24.009  1.00  0.00     0.345 HD
ATOM     23  H   UNL A   1      32.646  30.100  23.641  1.00  0.00     0.345 HD
ATOM     24  H   UNL A   1      33.443  28.642  23.529  1.00  0.00     0.345 HD
ENDBRANCH  17  21
ENDBRANCH   9  16
ENDBRANCH   7   8
ENDBRANCH   4   7
ENDBRANCH   2   3
ENDBRANCH   1   2
BRANCH   1  25
ATOM     25  C   UNL A   1      37.137  22.324  25.678  1.00  0.00     0.118 C 
BRANCH  25  26
ATOM     26  N   UNL A   1      38.142  21.324  25.987  1.00  0.00    -0.352 N 
ATOM     27  C   UNL A   1      39.457  21.484  26.355  1.00  0.00     0.251 C 
ATOM     28  H   UNL A   1      37.837  20.391  25.924  1.00  0.00     0.163 HD
ATOM     29  O   UNL A   1      40.206  20.511  26.301  1.00  0.00    -0.269 OA
BRANCH  27  30
ATOM     30  C   UNL A   1      39.987  22.797  26.809  1.00  0.00     0.039 A 
ATOM     31  C   UNL A   1      39.611  23.947  26.105  1.00  0.00     0.014 A 
ATOM     32  C   UNL A   1      40.906  22.907  27.857  1.00  0.00     0.014 A 
ATOM     33  C   UNL A   1      40.131  25.195  26.466  1.00  0.00     0.010 A 
ATOM     34  C   UNL A   1      41.361  24.163  28.267  1.00  0.00     0.010 A 
ATOM     35  C   UNL A   1      41.000  25.320  27.562  1.00  0.00    -0.014 A 
BRANCH  35  36
ATOM     36  C   UNL A   1      41.540  26.649  27.962  1.00  0.00     0.031 A 
ATOM     37  C   UNL A   1      42.972  27.022  27.668  1.00  0.00     0.074 A 
ATOM     38  C   UNL A   1      40.754  27.513  28.636  1.00  0.00     0.049 A 
ATOM     39  N   UNL A   1      43.602  28.140  27.927  1.00  0.00    -0.248 NA
ATOM     40  C   UNL A   1      43.812  26.001  27.022  1.00  0.00     0.031 C 
ATOM     41  C   UNL A   1      39.379  27.247  29.062  1.00  0.00     0.029 A 
ATOM     42  N   UNL A   1      41.003  28.783  29.097  1.00  0.00    -0.354 N 
ATOM     43  C   UNL A   1      44.914  27.946  27.507  1.00  0.00     0.074 A 
ATOM     44  C   UNL A   1      44.999  26.592  27.009  1.00  0.00     0.031 C 
ATOM     45  C   UNL A   1      38.902  28.321  29.709  1.00  0.00     0.029 A 
ATOM     46  C   UNL A   1      39.940  29.347  29.763  1.00  0.00     0.049 A 
ATOM     47  H   UNL A   1      41.862  29.245  28.963  1.00  0.00     0.167 HD
ATOM     48  C   UNL A   1      45.947  28.825  27.503  1.00  0.00     0.034 A 
ATOM     49  C   UNL A   1      39.811  30.555  30.348  1.00  0.00     0.034 A 
ATOM     50  C   UNL A   1      45.849  30.189  27.949  1.00  0.00     0.049 A 
ATOM     51  C   UNL A   1      40.952  31.532  30.275  1.00  0.00     0.074 A 
ATOM     52  C   UNL A   1      46.810  31.184  27.892  1.00  0.00     0.029 A 
ATOM     53  N   UNL A   1      44.729  30.752  28.540  1.00  0.00    -0.354 N 
ATOM     54  N   UNL A   1      42.127  31.388  29.713  1.00  0.00    -0.248 NA
ATOM     55  C   UNL A   1      40.736  32.853  30.882  1.00  0.00     0.031 C 
ATOM     56  C   UNL A   1      46.277  32.343  28.465  1.00  0.00     0.029 A 
ATOM     57  C   UNL A   1      44.977  32.075  28.863  1.00  0.00     0.049 A 
ATOM     58  H   UNL A   1      43.882  30.279  28.706  1.00  0.00     0.167 HD
ATOM     59  C   UNL A   1      42.779  32.606  29.873  1.00  0.00     0.074 A 
ATOM     60  C   UNL A   1      41.856  33.485  30.560  1.00  0.00     0.031 C 
ATOM     61  C   UNL A   1      44.035  32.958  29.503  1.00  0.00     0.034 A 
BRANCH  48  62
ATOM     62  C   UNL A   1      47.263  28.357  26.936  1.00  0.00     0.023 A 
ATOM     63  C   UNL A   1      48.334  28.078  27.811  1.00  0.00     0.012 A 
ATOM     64  C   UNL A   1      47.424  28.129  25.555  1.00  0.00     0.148 A 
ATOM     65  C   UNL A   1      49.553  27.613  27.319  1.00  0.00     0.002 A 
ATOM     66  C   UNL A   1      48.629  27.626  25.076  1.00  0.00     0.091 A 
ATOM     67  F   UNL A   1      46.404  28.418  24.735  1.00  0.00    -0.205 F 
ATOM     68  C   UNL A   1      49.697  27.377  25.954  1.00  0.00     0.022 A 
BRANCH  66  69
ATOM     69  S   UNL A   1      48.889  27.214  23.346  1.00  0.00     0.127 S 
ATOM     70  O   UNL A   1      48.180  25.939  23.238  1.00  0.00    -0.237 OA
ATOM     71  O   UNL A   1      48.239  28.331  22.661  1.00  0.00    -0.237 OA
ATOM     72  O   UNL A   1      50.332  27.146  23.163  1.00  0.00    -0.744 OA
ENDBRANCH  66  69
ENDBRANCH  48  62
BRANCH  49  73
ATOM     73  C   UNL A   1      38.517  30.934  30.983  1.00  0.00     0.023 A 
ATOM     74  C   UNL A   1      38.319  30.680  32.354  1.00  0.00     0.012 A 
ATOM     75  C   UNL A   1      37.501  31.577  30.251  1.00  0.00     0.148 A 
ATOM     76  C   UNL A   1      37.123  31.035  32.978  1.00  0.00     0.002 A 
ATOM     77  C   UNL A   1      36.334  31.978  30.891  1.00  0.00     0.091 A 
ATOM     78  F   UNL A   1      37.701  31.795  28.942  1.00  0.00    -0.205 F 
ATOM     79  C   UNL A   1      36.135  31.693  32.250  1.00  0.00     0.022 A 
BRANCH  77  80
ATOM     80  S   UNL A   1      35.075  32.956  30.062  1.00  0.00     0.127 S 
ATOM     81  O   UNL A   1      35.862  34.058  29.518  1.00  0.00    -0.237 OA
ATOM     82  O   UNL A   1      34.560  32.013  29.069  1.00  0.00    -0.237 OA
ATOM     83  O   UNL A   1      34.114  33.311  31.100  1.00  0.00    -0.744 OA
ENDBRANCH  77  80
ENDBRANCH  49  73
BRANCH  61  84
ATOM     84  C   UNL A   1      44.488  34.360  29.815  1.00  0.00     0.023 A 
ATOM     85  C   UNL A   1      45.178  34.617  31.016  1.00  0.00     0.012 A 
ATOM     86  C   UNL A   1      44.287  35.408  28.895  1.00  0.00     0.148 A 
ATOM     87  C   UNL A   1      45.632  35.902  31.313  1.00  0.00     0.002 A 
ATOM     88  C   UNL A   1      44.783  36.676  29.176  1.00  0.00     0.091 A 
ATOM     89  F   UNL A   1      43.610  35.149  27.767  1.00  0.00    -0.205 F 
ATOM     90  C   UNL A   1      45.445  36.928  30.389  1.00  0.00     0.022 A 
BRANCH  88  91
ATOM     91  S   UNL A   1      44.667  38.033  28.004  1.00  0.00     0.127 S 
ATOM     92  O   UNL A   1      45.262  37.444  26.805  1.00  0.00    -0.237 OA
ATOM     93  O   UNL A   1      43.223  38.253  27.922  1.00  0.00    -0.237 OA
ATOM     94  O   UNL A   1      45.411  39.136  28.597  1.00  0.00    -0.744 OA
ENDBRANCH  88  91
ENDBRANCH  61  84
ENDBRANCH  35  36
ENDBRANCH  27  30
ENDBRANCH  25  26
ENDBRANCH   1  25
TORSDOF 16
ENDMDL
MODEL 3
REMARK VINA RESULT:     -11.4      1.171      1.467
REMARK SMILES [NH3+][C@H]1C=C[C@@H](C(=O)N2CCC(CC(=O)NCCCNC(=O)c3ccc(-c4c5nc(c(-c6cccc(S(=O)(=O)[O-])c6F)c6ccc([nH]6)c(-c6cccc(S(=O)(=O)[O-])c6F)c6nc(c(-c7cccc(S(=O)(=O)[O-])c7F)c7ccc4[nH]7)C=C6)C=C5)cc3)CC2)C1
REMARK SMILES IDX 17 1 16 2 15 3 13 4 14 5 12 7 11 8 6 9 7 10 8 11 9 12 86 13
REMARK SMILES IDX 10 14 85 15 5 16 2 17 3 18 87 19 4 20 1 21 18 25 19 26 20 27
REMARK SMILES IDX 21 29 22 30 23 31 84 32 24 33 83 34 25 35 26 36 27 37 77 38
REMARK SMILES IDX 28 39 82 40 76 41 78 42 29 43 81 44 75 45 74 46 30 48 62 49
REMARK SMILES IDX 42 50 61 51 43 52 46 53 60 54 79 55 44 56 45 57 59 59 80 60
REMARK SMILES IDX 47 61 31 62 32 63 40 64 33 65 35 66 41 67 34 68 36 69 37 70
REMARK SMILES IDX 38 71 39 72 63 73 64 74 72 75 65 76 67 77 73 78 66 79 68 80
REMARK SMILES IDX 69 81 70 82 71 83 48 84 49 85 57 86 50 87 52 88 58 89 51 90
REMARK SMILES IDX 53 91 54 92 55 93 56 94
REMARK H PARENT 15 6 1 22 1 23 1 24 19 28 78 47 46 58
REMARK Flexibility Score: inf
ROOT
ATOM      1  C   UNL A   1      33.113  28.829  24.924  1.00  0.00     0.042 C 
ENDROOT
BRANCH   1   2
ATOM      2  C   UNL A   1      31.771  29.564  24.930  1.00  0.00     0.117 C 
BRANCH   2   3
ATOM      3  N   UNL A   1      31.075  29.494  23.651  1.00  0.00    -0.356 N 
ATOM      4  C   UNL A   1      30.338  28.496  23.087  1.00  0.00     0.220 C 
ATOM      5  O   UNL A   1      29.821  28.703  21.986  1.00  0.00    -0.275 OA
ATOM      6  H   UNL A   1      31.150  30.308  23.101  1.00  0.00     0.163 HD
BRANCH   4   7
ATOM      7  C   UNL A   1      30.160  27.164  23.786  1.00  0.00     0.103 C 
BRANCH   7   8
ATOM      8  C   UNL A   1      30.721  25.969  22.993  1.00  0.00     0.002 C 
ATOM      9  C   UNL A   1      33.819  23.756  23.738  1.00  0.00     0.229 C 
ATOM     10  O   UNL A   1      33.932  24.498  24.716  1.00  0.00    -0.274 OA
ATOM     11  N   UNL A   1      32.779  23.896  22.828  1.00  0.00    -0.342 N 
ATOM     12  C   UNL A   1      32.849  25.018  21.911  1.00  0.00     0.120 C 
ATOM     13  C   UNL A   1      31.432  23.538  23.233  1.00  0.00     0.120 C 
ATOM     14  C   UNL A   1      32.141  26.242  22.483  1.00  0.00     0.026 C 
ATOM     15  C   UNL A   1      30.700  24.711  23.878  1.00  0.00     0.026 C 
BRANCH   9  16
ATOM     16  C   UNL A   1      34.781  22.587  23.485  1.00  0.00     0.107 C 
ATOM     17  C   UNL A   1      37.094  22.261  24.309  1.00  0.00     0.205 C 
ATOM     18  C   UNL A   1      36.103  21.467  25.079  1.00  0.00     0.033 C 
ATOM     19  C   UNL A   1      36.238  23.039  23.295  1.00  0.00     0.087 C 
ATOM     20  C   UNL A   1      34.855  21.626  24.629  1.00  0.00    -0.012 C 
BRANCH  17  21
ATOM     21  N   UNL A   1      37.855  23.139  25.185  1.00  0.00    -0.352 N 
ATOM     22  H   UNL A   1      37.821  22.780  26.139  1.00  0.00     0.345 HD
ATOM     23  H   UNL A   1      37.453  24.076  25.160  1.00  0.00     0.345 HD
ATOM     24  H   UNL A   1      38.824  23.177  24.869  1.00  0.00     0.345 HD
ENDBRANCH  17  21
ENDBRANCH   9  16
ENDBRANCH   7   8
ENDBRANCH   4   7
ENDBRANCH   2   3
ENDBRANCH   1   2
BRANCH   1  25
ATOM     25  C   UNL A   1      33.946  29.020  26.186  1.00  0.00     0.118 C 
BRANCH  25  26
ATOM     26  N   UNL A   1      33.856  30.380  26.684  1.00  0.00    -0.352 N 
ATOM     27  C   UNL A   1      34.604  31.013  27.648  1.00  0.00     0.251 C 
ATOM     28  H   UNL A   1      33.155  30.932  26.270  1.00  0.00     0.163 HD
ATOM     29  O   UNL A   1      34.188  32.072  28.113  1.00  0.00    -0.269 OA
BRANCH  27  30
ATOM     30  C   UNL A   1      35.890  30.449  28.135  1.00  0.00     0.039 A 
ATOM     31  C   UNL A   1      35.859  29.547  29.204  1.00  0.00     0.014 A 
ATOM     32  C   UNL A   1      37.125  30.852  27.616  1.00  0.00     0.014 A 
ATOM     33  C   UNL A   1      37.052  29.036  29.729  1.00  0.00     0.010 A 
ATOM     34  C   UNL A   1      38.309  30.279  28.087  1.00  0.00     0.010 A 
ATOM     35  C   UNL A   1      38.291  29.383  29.165  1.00  0.00    -0.014 A 
BRANCH  35  36
ATOM     36  C   UNL A   1      39.561  28.826  29.708  1.00  0.00     0.031 A 
ATOM     37  C   UNL A   1      40.212  29.430  30.927  1.00  0.00     0.074 A 
ATOM     38  C   UNL A   1      40.161  27.798  29.075  1.00  0.00     0.049 A 
ATOM     39  N   UNL A   1      41.305  29.062  31.545  1.00  0.00    -0.248 NA
ATOM     40  C   UNL A   1      39.565  30.614  31.516  1.00  0.00     0.031 C 
ATOM     41  C   UNL A   1      39.688  27.176  27.837  1.00  0.00     0.029 A 
ATOM     42  N   UNL A   1      41.310  27.106  29.374  1.00  0.00    -0.354 N 
ATOM     43  C   UNL A   1      41.495  29.983  32.570  1.00  0.00     0.074 A 
ATOM     44  C   UNL A   1      40.424  30.948  32.470  1.00  0.00     0.031 C 
ATOM     45  C   UNL A   1      40.529  26.189  27.490  1.00  0.00     0.029 A 
ATOM     46  C   UNL A   1      41.611  26.117  28.467  1.00  0.00     0.049 A 
ATOM     47  H   UNL A   1      41.864  27.300  30.165  1.00  0.00     0.167 HD
ATOM     48  C   UNL A   1      42.453  30.006  33.530  1.00  0.00     0.034 A 
ATOM     49  C   UNL A   1      42.640  25.248  28.425  1.00  0.00     0.034 A 
ATOM     50  C   UNL A   1      43.488  29.016  33.662  1.00  0.00     0.049 A 
ATOM     51  C   UNL A   1      43.656  25.256  29.536  1.00  0.00     0.074 A 
ATOM     52  C   UNL A   1      44.442  28.898  34.658  1.00  0.00     0.029 A 
ATOM     53  N   UNL A   1      43.711  27.978  32.772  1.00  0.00    -0.354 N 
ATOM     54  N   UNL A   1      43.713  26.026  30.595  1.00  0.00    -0.248 NA
ATOM     55  C   UNL A   1      44.725  24.249  29.467  1.00  0.00     0.031 C 
ATOM     56  C   UNL A   1      45.254  27.798  34.360  1.00  0.00     0.029 A 
ATOM     57  C   UNL A   1      44.794  27.221  33.187  1.00  0.00     0.049 A 
ATOM     58  H   UNL A   1      43.179  27.806  31.962  1.00  0.00     0.167 HD
ATOM     59  C   UNL A   1      44.805  25.581  31.332  1.00  0.00     0.074 A 
ATOM     60  C   UNL A   1      45.362  24.454  30.612  1.00  0.00     0.031 C 
ATOM     61  C   UNL A   1      45.312  26.072  32.489  1.00  0.00     0.034 A 
BRANCH  48  62
ATOM     62  C   UNL A   1      42.388  31.106  34.558  1.00  0.00     0.023 A 
ATOM     63  C   UNL A   1      41.718  30.874  35.778  1.00  0.00     0.012 A 
ATOM     64  C   UNL A   1      43.039  32.338  34.354  1.00  0.00     0.148 A 
ATOM     65  C   UNL A   1      41.667  31.861  36.762  1.00  0.00     0.002 A 
ATOM     66  C   UNL A   1      43.020  33.302  35.357  1.00  0.00     0.091 A 
ATOM     67  F   UNL A   1      43.654  32.550  33.182  1.00  0.00    -0.205 F 
ATOM     68  C   UNL A   1      42.327  33.069  36.556  1.00  0.00     0.022 A 
BRANCH  66  69
ATOM     69  S   UNL A   1      43.905  34.860  35.220  1.00  0.00     0.127 S 
ATOM     70  O   UNL A   1      45.272  34.402  34.974  1.00  0.00    -0.237 OA
ATOM     71  O   UNL A   1      43.256  35.485  34.068  1.00  0.00    -0.237 OA
ATOM     72  O   UNL A   1      43.694  35.552  36.484  1.00  0.00    -0.744 OA
ENDBRANCH  66  69
ENDBRANCH  48  62
BRANCH  49  73
ATOM     73  C   UNL A   1      42.713  24.240  27.330  1.00  0.00     0.023 A 
ATOM     74  C   UNL A   1      43.585  24.459  26.245  1.00  0.00     0.012 A 
ATOM     75  C   UNL A   1      41.957  23.053  27.374  1.00  0.00     0.148 A 
ATOM     76  C   UNL A   1      43.681  23.527  25.211  1.00  0.00     0.002 A 
ATOM     77  C   UNL A   1      42.100  22.103  26.368  1.00  0.00     0.091 A 
ATOM     78  F   UNL A   1      41.120  22.870  28.405  1.00  0.00    -0.205 F 
ATOM     79  C   UNL A   1      42.948  22.345  25.278  1.00  0.00     0.022 A 
BRANCH  77  80
ATOM     80  S   UNL A   1      41.302  20.495  26.450  1.00  0.00     0.127 S 
ATOM     81  O   UNL A   1      39.911  20.836  26.172  1.00  0.00    -0.237 OA
ATOM     82  O   UNL A   1      41.984  19.762  25.384  1.00  0.00    -0.237 OA
ATOM     83  O   UNL A   1      41.580  19.992  27.791  1.00  0.00    -0.744 OA
ENDBRANCH  77  80
ENDBRANCH  49  73
BRANCH  61  84
ATOM     84  C   UNL A   1      46.523  25.388  33.067  1.00  0.00     0.023 A 
ATOM     85  C   UNL A   1      47.811  25.842  32.717  1.00  0.00     0.012 A 
ATOM     86  C   UNL A   1      46.389  24.341  34.000  1.00  0.00     0.148 A 
ATOM     87  C   UNL A   1      48.946  25.242  33.262  1.00  0.00     0.002 A 
ATOM     88  C   UNL A   1      47.523  23.779  34.574  1.00  0.00     0.091 A 
ATOM     89  F   UNL A   1      45.157  23.909  34.305  1.00  0.00    -0.205 F 
ATOM     90  C   UNL A   1      48.803  24.220  34.197  1.00  0.00     0.022 A 
BRANCH  88  91
ATOM     91  S   UNL A   1      47.430  22.522  35.854  1.00  0.00     0.127 S 
ATOM     92  O   UNL A   1      46.632  23.198  36.878  1.00  0.00    -0.237 OA
ATOM     93  O   UNL A   1      46.740  21.429  35.168  1.00  0.00    -0.237 OA
ATOM     94  O   UNL A   1      48.807  22.227  36.224  1.00  0.00    -0.744 OA
ENDBRANCH  88  91
ENDBRANCH  61  84
ENDBRANCH  35  36
ENDBRANCH  27  30
ENDBRANCH  25  26
ENDBRANCH   1  25
TORSDOF 16
ENDMDL
