MODEL 1
REMARK VINA RESULT:     -11.2      0.000      0.000
REMARK SMILES CC(C)c1c(C(=O)NCCCNC(=O)c2ccc(-c3c4nc(c(-c5cccc(S(=O)(=O)[O-])c5F)c5ccc([nH]5)c(-c5cccc(S(=O)(=O)[O-])c5F)c5nc(c(-c6cccc(S(=O)(=O)[O-])c6F)c6ccc3[nH]6)C=C5)C=C4)cc2)cnn1CCC#N
REMARK SMILES IDX 10 1 9 2 8 3 6 4 7 5 5 7 4 8 80 9 78 10 79 11 2 12 1 13 3 14
REMARK SMILES IDX 81 15 82 16 83 17 84 18 11 19 12 20 13 21 14 23 15 24 16 25
REMARK SMILES IDX 77 26 17 27 76 28 18 29 19 30 20 31 70 32 21 33 75 34 69 35
REMARK SMILES IDX 71 36 22 37 74 38 68 39 67 40 23 42 55 43 35 44 54 45 36 46
REMARK SMILES IDX 39 47 53 48 72 49 37 50 38 51 52 53 73 54 40 55 24 56 25 57
REMARK SMILES IDX 33 58 26 59 28 60 34 61 27 62 29 63 30 64 31 65 32 66 56 67
REMARK SMILES IDX 57 68 65 69 58 70 60 71 66 72 59 73 61 74 62 75 63 76 64 77
REMARK SMILES IDX 41 78 42 79 50 80 43 81 45 82 51 83 44 84 46 85 47 86 48 87
REMARK SMILES IDX 49 88
REMARK H PARENT 8 6 12 22 71 41 39 52
REMARK Flexibility Score: inf
ROOT
ATOM      1  C   UNL A   1      38.191  19.584  25.096  1.00  0.00     0.042 C 
ENDROOT
BRANCH   1   2
ATOM      2  C   UNL A   1      36.959  20.484  25.222  1.00  0.00     0.118 C 
BRANCH   2   3
ATOM      3  N   UNL A   1      35.726  19.791  24.898  1.00  0.00    -0.352 N 
ATOM      4  C   UNL A   1      34.394  20.088  25.033  1.00  0.00     0.254 C 
ATOM      5  O   UNL A   1      33.630  19.286  24.492  1.00  0.00    -0.269 OA
ATOM      6  H   UNL A   1      35.880  18.909  24.488  1.00  0.00     0.163 HD
BRANCH   4   7
ATOM      7  C   UNL A   1      33.909  21.284  25.717  1.00  0.00     0.081 A 
ATOM      8  C   UNL A   1      33.662  22.556  25.158  1.00  0.00     0.054 A 
ATOM      9  N   UNL A   1      33.298  23.357  26.219  1.00  0.00    -0.267 N 
ATOM     10  C   UNL A   1      33.557  21.454  27.068  1.00  0.00     0.149 A 
ATOM     11  N   UNL A   1      33.327  22.717  27.390  1.00  0.00    -0.180 NA
BRANCH   8  12
ATOM     12  C   UNL A   1      33.742  23.080  23.739  1.00  0.00     0.032 C 
ATOM     13  C   UNL A   1      35.174  23.059  23.207  1.00  0.00     0.014 C 
ATOM     14  C   UNL A   1      32.741  22.418  22.794  1.00  0.00     0.014 C 
ENDBRANCH   8  12
BRANCH   9  15
ATOM     15  C   UNL A   1      32.879  24.749  26.279  1.00  0.00     0.159 C 
BRANCH  15  16
ATOM     16  C   UNL A   1      31.443  24.948  25.792  1.00  0.00     0.144 C 
BRANCH  16  17
ATOM     17  C   UNL A   1      30.466  24.129  26.619  1.00  0.00     0.064 C 
ATOM     18  N   UNL A   1      29.656  23.450  27.305  1.00  0.00    -0.198 NA
ENDBRANCH  16  17
ENDBRANCH  15  16
ENDBRANCH   9  15
ENDBRANCH   4   7
ENDBRANCH   2   3
ENDBRANCH   1   2
BRANCH   1  19
ATOM     19  C   UNL A   1      39.384  20.152  25.860  1.00  0.00     0.118 C 
BRANCH  19  20
ATOM     20  N   UNL A   1      40.569  19.305  25.712  1.00  0.00    -0.352 N 
ATOM     21  C   UNL A   1      41.896  19.624  25.879  1.00  0.00     0.251 C 
ATOM     22  H   UNL A   1      40.390  18.371  25.457  1.00  0.00     0.163 HD
ATOM     23  O   UNL A   1      42.765  18.875  25.436  1.00  0.00    -0.269 OA
BRANCH  21  24
ATOM     24  C   UNL A   1      42.269  20.872  26.562  1.00  0.00     0.039 A 
ATOM     25  C   UNL A   1      42.516  22.020  25.806  1.00  0.00     0.014 A 
ATOM     26  C   UNL A   1      42.343  20.904  27.955  1.00  0.00     0.014 A 
ATOM     27  C   UNL A   1      42.740  23.222  26.465  1.00  0.00     0.010 A 
ATOM     28  C   UNL A   1      42.462  22.113  28.608  1.00  0.00     0.010 A 
ATOM     29  C   UNL A   1      42.670  23.275  27.867  1.00  0.00    -0.014 A 
BRANCH  29  30
ATOM     30  C   UNL A   1      42.596  24.580  28.525  1.00  0.00     0.031 A 
ATOM     31  C   UNL A   1      41.341  25.316  28.215  1.00  0.00     0.074 A 
ATOM     32  C   UNL A   1      43.456  25.022  29.467  1.00  0.00     0.049 A 
ATOM     33  N   UNL A   1      41.212  26.339  27.433  1.00  0.00    -0.248 NA
ATOM     34  C   UNL A   1      40.058  24.741  28.653  1.00  0.00     0.031 C 
ATOM     35  C   UNL A   1      44.552  24.267  30.083  1.00  0.00     0.029 A 
ATOM     36  N   UNL A   1      43.451  26.189  30.179  1.00  0.00    -0.354 N 
ATOM     37  C   UNL A   1      39.874  26.710  27.540  1.00  0.00     0.074 A 
ATOM     38  C   UNL A   1      39.186  25.567  28.070  1.00  0.00     0.031 C 
ATOM     39  C   UNL A   1      44.928  24.876  31.228  1.00  0.00     0.029 A 
ATOM     40  C   UNL A   1      44.225  26.141  31.337  1.00  0.00     0.049 A 
ATOM     41  H   UNL A   1      42.948  26.987  29.901  1.00  0.00     0.167 HD
ATOM     42  C   UNL A   1      39.530  28.029  27.524  1.00  0.00     0.034 A 
ATOM     43  C   UNL A   1      44.264  27.056  32.335  1.00  0.00     0.034 A 
ATOM     44  C   UNL A   1      40.639  28.835  27.070  1.00  0.00     0.049 A 
ATOM     45  C   UNL A   1      43.820  28.342  31.761  1.00  0.00     0.074 A 
ATOM     46  C   UNL A   1      41.383  28.973  25.918  1.00  0.00     0.029 A 
ATOM     47  N   UNL A   1      41.361  29.393  28.092  1.00  0.00    -0.354 N 
ATOM     48  N   UNL A   1      44.506  29.005  30.872  1.00  0.00    -0.248 NA
ATOM     49  C   UNL A   1      42.441  28.774  31.938  1.00  0.00     0.031 C 
ATOM     50  C   UNL A   1      42.678  29.399  26.344  1.00  0.00     0.029 A 
ATOM     51  C   UNL A   1      42.666  29.558  27.731  1.00  0.00     0.049 A 
ATOM     52  H   UNL A   1      40.988  29.640  28.968  1.00  0.00     0.167 HD
ATOM     53  C   UNL A   1      43.537  29.569  30.065  1.00  0.00     0.074 A 
ATOM     54  C   UNL A   1      42.326  29.574  30.875  1.00  0.00     0.031 C 
ATOM     55  C   UNL A   1      43.725  29.654  28.715  1.00  0.00     0.034 A 
BRANCH  42  56
ATOM     56  C   UNL A   1      38.455  28.671  28.398  1.00  0.00     0.023 A 
ATOM     57  C   UNL A   1      37.596  29.598  27.757  1.00  0.00     0.012 A 
ATOM     58  C   UNL A   1      38.454  28.686  29.811  1.00  0.00     0.148 A 
ATOM     59  C   UNL A   1      36.859  30.547  28.477  1.00  0.00     0.002 A 
ATOM     60  C   UNL A   1      37.666  29.584  30.525  1.00  0.00     0.091 A 
ATOM     61  F   UNL A   1      39.305  27.926  30.497  1.00  0.00    -0.205 F 
ATOM     62  C   UNL A   1      36.895  30.542  29.863  1.00  0.00     0.022 A 
BRANCH  60  63
ATOM     63  S   UNL A   1      37.651  29.604  32.324  1.00  0.00     0.127 S 
ATOM     64  O   UNL A   1      38.991  30.101  32.619  1.00  0.00    -0.237 OA
ATOM     65  O   UNL A   1      36.563  30.543  32.598  1.00  0.00    -0.237 OA
ATOM     66  O   UNL A   1      37.375  28.233  32.733  1.00  0.00    -0.744 OA
ENDBRANCH  60  63
ENDBRANCH  42  56
BRANCH  43  67
ATOM     67  C   UNL A   1      44.527  26.906  33.785  1.00  0.00     0.023 A 
ATOM     68  C   UNL A   1      45.703  27.456  34.338  1.00  0.00     0.012 A 
ATOM     69  C   UNL A   1      43.506  26.497  34.671  1.00  0.00     0.148 A 
ATOM     70  C   UNL A   1      45.832  27.653  35.718  1.00  0.00     0.002 A 
ATOM     71  C   UNL A   1      43.640  26.690  36.043  1.00  0.00     0.091 A 
ATOM     72  F   UNL A   1      42.369  26.007  34.162  1.00  0.00    -0.205 F 
ATOM     73  C   UNL A   1      44.795  27.284  36.568  1.00  0.00     0.022 A 
BRANCH  71  74
ATOM     74  S   UNL A   1      42.334  26.266  37.203  1.00  0.00     0.127 S 
ATOM     75  O   UNL A   1      43.025  26.365  38.489  1.00  0.00    -0.237 OA
ATOM     76  O   UNL A   1      41.353  27.320  36.954  1.00  0.00    -0.237 OA
ATOM     77  O   UNL A   1      41.914  24.915  36.852  1.00  0.00    -0.744 OA
ENDBRANCH  71  74
ENDBRANCH  43  67
BRANCH  55  78
ATOM     78  C   UNL A   1      45.136  29.642  28.202  1.00  0.00     0.023 A 
ATOM     79  C   UNL A   1      45.805  28.470  27.801  1.00  0.00     0.012 A 
ATOM     80  C   UNL A   1      45.762  30.887  28.011  1.00  0.00     0.148 A 
ATOM     81  C   UNL A   1      47.084  28.540  27.243  1.00  0.00     0.002 A 
ATOM     82  C   UNL A   1      47.007  30.956  27.407  1.00  0.00     0.091 A 
ATOM     83  F   UNL A   1      45.111  31.991  28.411  1.00  0.00    -0.205 F 
ATOM     84  C   UNL A   1      47.679  29.783  27.032  1.00  0.00     0.022 A 
BRANCH  82  85
ATOM     85  S   UNL A   1      47.756  32.533  26.999  1.00  0.00     0.127 S 
ATOM     86  O   UNL A   1      46.797  33.090  26.048  1.00  0.00    -0.237 OA
ATOM     87  O   UNL A   1      47.794  33.209  28.297  1.00  0.00    -0.237 OA
ATOM     88  O   UNL A   1      49.072  32.221  26.456  1.00  0.00    -0.744 OA
ENDBRANCH  82  85
ENDBRANCH  55  78
ENDBRANCH  29  30
ENDBRANCH  21  24
ENDBRANCH  19  20
ENDBRANCH   1  19
TORSDOF 17
ENDMDL
MODEL 2
REMARK VINA RESULT:     -10.9      1.922      2.337
REMARK SMILES CC(C)c1c(C(=O)NCCCNC(=O)c2ccc(-c3c4nc(c(-c5cccc(S(=O)(=O)[O-])c5F)c5ccc([nH]5)c(-c5cccc(S(=O)(=O)[O-])c5F)c5nc(c(-c6cccc(S(=O)(=O)[O-])c6F)c6ccc3[nH]6)C=C5)C=C4)cc2)cnn1CCC#N
REMARK SMILES IDX 10 1 9 2 8 3 6 4 7 5 5 7 4 8 80 9 78 10 79 11 2 12 1 13 3 14
REMARK SMILES IDX 81 15 82 16 83 17 84 18 11 19 12 20 13 21 14 23 15 24 16 25
REMARK SMILES IDX 77 26 17 27 76 28 18 29 19 30 20 31 70 32 21 33 75 34 69 35
REMARK SMILES IDX 71 36 22 37 74 38 68 39 67 40 23 42 55 43 35 44 54 45 36 46
REMARK SMILES IDX 39 47 53 48 72 49 37 50 38 51 52 53 73 54 40 55 24 56 25 57
REMARK SMILES IDX 33 58 26 59 28 60 34 61 27 62 29 63 30 64 31 65 32 66 56 67
REMARK SMILES IDX 57 68 65 69 58 70 60 71 66 72 59 73 61 74 62 75 63 76 64 77
REMARK SMILES IDX 41 78 42 79 50 80 43 81 45 82 51 83 44 84 46 85 47 86 48 87
REMARK SMILES IDX 49 88
REMARK H PARENT 8 6 12 22 71 41 39 52
REMARK Flexibility Score: inf
ROOT
ATOM      1  C   UNL A   1      37.796  20.056  24.814  1.00  0.00     0.042 C 
ENDROOT
BRANCH   1   2
ATOM      2  C   UNL A   1      36.735  21.159  24.781  1.00  0.00     0.118 C 
BRANCH   2   3
ATOM      3  N   UNL A   1      35.880  21.146  25.954  1.00  0.00    -0.352 N 
ATOM      4  C   UNL A   1      34.856  21.939  26.404  1.00  0.00     0.254 C 
ATOM      5  O   UNL A   1      34.268  21.506  27.397  1.00  0.00    -0.269 OA
ATOM      6  H   UNL A   1      36.079  20.399  26.564  1.00  0.00     0.163 HD
BRANCH   4   7
ATOM      7  C   UNL A   1      34.452  23.175  25.738  1.00  0.00     0.081 A 
ATOM      8  C   UNL A   1      33.201  23.469  25.153  1.00  0.00     0.054 A 
ATOM      9  N   UNL A   1      33.346  24.718  24.589  1.00  0.00    -0.267 N 
ATOM     10  C   UNL A   1      35.186  24.357  25.534  1.00  0.00     0.149 A 
ATOM     11  N   UNL A   1      34.576  25.217  24.735  1.00  0.00    -0.180 NA
BRANCH   8  12
ATOM     12  C   UNL A   1      31.904  22.691  25.072  1.00  0.00     0.032 C 
ATOM     13  C   UNL A   1      32.124  21.274  24.545  1.00  0.00     0.014 C 
ATOM     14  C   UNL A   1      31.096  22.731  26.369  1.00  0.00     0.014 C 
ENDBRANCH   8  12
BRANCH   9  15
ATOM     15  C   UNL A   1      32.404  25.578  23.890  1.00  0.00     0.159 C 
BRANCH  15  16
ATOM     16  C   UNL A   1      31.759  24.884  22.689  1.00  0.00     0.144 C 
BRANCH  16  17
ATOM     17  C   UNL A   1      32.458  25.269  21.395  1.00  0.00     0.064 C 
ATOM     18  N   UNL A   1      33.037  25.588  20.322  1.00  0.00    -0.198 NA
ENDBRANCH  16  17
ENDBRANCH  15  16
ENDBRANCH   9  15
ENDBRANCH   4   7
ENDBRANCH   2   3
ENDBRANCH   1   2
BRANCH   1  19
ATOM     19  C   UNL A   1      38.899  20.364  25.823  1.00  0.00     0.118 C 
BRANCH  19  20
ATOM     20  N   UNL A   1      39.999  19.403  25.726  1.00  0.00    -0.352 N 
ATOM     21  C   UNL A   1      41.346  19.597  25.919  1.00  0.00     0.251 C 
ATOM     22  H   UNL A   1      39.736  18.484  25.490  1.00  0.00     0.163 HD
ATOM     23  O   UNL A   1      42.149  18.755  25.517  1.00  0.00    -0.269 OA
BRANCH  21  24
ATOM     24  C   UNL A   1      41.823  20.822  26.579  1.00  0.00     0.039 A 
ATOM     25  C   UNL A   1      42.121  21.946  25.806  1.00  0.00     0.014 A 
ATOM     26  C   UNL A   1      41.945  20.857  27.969  1.00  0.00     0.014 A 
ATOM     27  C   UNL A   1      42.446  23.134  26.448  1.00  0.00     0.010 A 
ATOM     28  C   UNL A   1      42.165  22.060  28.607  1.00  0.00     0.010 A 
ATOM     29  C   UNL A   1      42.426  23.200  27.851  1.00  0.00    -0.014 A 
BRANCH  29  30
ATOM     30  C   UNL A   1      42.459  24.511  28.500  1.00  0.00     0.031 A 
ATOM     31  C   UNL A   1      41.237  25.319  28.242  1.00  0.00     0.074 A 
ATOM     32  C   UNL A   1      43.387  24.907  29.397  1.00  0.00     0.049 A 
ATOM     33  N   UNL A   1      41.132  26.343  27.458  1.00  0.00    -0.248 NA
ATOM     34  C   UNL A   1      39.945  24.824  28.745  1.00  0.00     0.031 C 
ATOM     35  C   UNL A   1      44.465  24.092  29.968  1.00  0.00     0.029 A 
ATOM     36  N   UNL A   1      43.484  26.077  30.099  1.00  0.00    -0.354 N 
ATOM     37  C   UNL A   1      39.825  26.793  27.623  1.00  0.00     0.074 A 
ATOM     38  C   UNL A   1      39.096  25.697  28.195  1.00  0.00     0.031 C 
ATOM     39  C   UNL A   1      44.929  24.685  31.089  1.00  0.00     0.029 A 
ATOM     40  C   UNL A   1      44.308  25.989  31.219  1.00  0.00     0.049 A 
ATOM     41  H   UNL A   1      43.017  26.902  29.837  1.00  0.00     0.167 HD
ATOM     42  C   UNL A   1      39.559  28.130  27.612  1.00  0.00     0.034 A 
ATOM     43  C   UNL A   1      44.448  26.907  32.206  1.00  0.00     0.034 A 
ATOM     44  C   UNL A   1      40.691  28.866  27.099  1.00  0.00     0.049 A 
ATOM     45  C   UNL A   1      44.054  28.214  31.643  1.00  0.00     0.074 A 
ATOM     46  C   UNL A   1      41.387  28.953  25.913  1.00  0.00     0.029 A 
ATOM     47  N   UNL A   1      41.492  29.386  28.082  1.00  0.00    -0.354 N 
ATOM     48  N   UNL A   1      44.735  28.829  30.717  1.00  0.00    -0.248 NA
ATOM     49  C   UNL A   1      42.713  28.728  31.880  1.00  0.00     0.031 C 
ATOM     50  C   UNL A   1      42.723  29.303  26.276  1.00  0.00     0.029 A 
ATOM     51  C   UNL A   1      42.786  29.471  27.659  1.00  0.00     0.049 A 
ATOM     52  H   UNL A   1      41.176  29.661  28.972  1.00  0.00     0.167 HD
ATOM     53  C   UNL A   1      43.764  29.445  29.950  1.00  0.00     0.074 A 
ATOM     54  C   UNL A   1      42.595  29.526  30.816  1.00  0.00     0.031 C 
ATOM     55  C   UNL A   1      43.894  29.510  28.593  1.00  0.00     0.034 A 
BRANCH  42  56
ATOM     56  C   UNL A   1      38.566  28.840  28.529  1.00  0.00     0.023 A 
ATOM     57  C   UNL A   1      37.820  29.897  27.949  1.00  0.00     0.012 A 
ATOM     58  C   UNL A   1      38.567  28.773  29.941  1.00  0.00     0.148 A 
ATOM     59  C   UNL A   1      37.199  30.881  28.728  1.00  0.00     0.002 A 
ATOM     60  C   UNL A   1      37.889  29.713  30.711  1.00  0.00     0.091 A 
ATOM     61  F   UNL A   1      39.324  27.879  30.575  1.00  0.00    -0.205 F 
ATOM     62  C   UNL A   1      37.235  30.790  30.112  1.00  0.00     0.022 A 
BRANCH  60  63
ATOM     63  S   UNL A   1      37.876  29.628  32.508  1.00  0.00     0.127 S 
ATOM     64  O   UNL A   1      39.267  29.942  32.822  1.00  0.00    -0.237 OA
ATOM     65  O   UNL A   1      36.910  30.674  32.845  1.00  0.00    -0.237 OA
ATOM     66  O   UNL A   1      37.436  28.279  32.839  1.00  0.00    -0.744 OA
ENDBRANCH  60  63
ENDBRANCH  42  56
BRANCH  43  67
ATOM     67  C   UNL A   1      44.769  26.750  33.644  1.00  0.00     0.023 A 
ATOM     68  C   UNL A   1      46.009  27.212  34.132  1.00  0.00     0.012 A 
ATOM     69  C   UNL A   1      43.764  26.431  34.583  1.00  0.00     0.148 A 
ATOM     70  C   UNL A   1      46.221  27.411  35.502  1.00  0.00     0.002 A 
ATOM     71  C   UNL A   1      43.980  26.625  35.944  1.00  0.00     0.091 A 
ATOM     72  F   UNL A   1      42.569  26.026  34.136  1.00  0.00    -0.205 F 
ATOM     73  C   UNL A   1      45.202  27.132  36.406  1.00  0.00     0.022 A 
BRANCH  71  74
ATOM     74  S   UNL A   1      42.703  26.315  37.171  1.00  0.00     0.127 S 
ATOM     75  O   UNL A   1      43.432  26.509  38.425  1.00  0.00    -0.237 OA
ATOM     76  O   UNL A   1      41.728  27.358  36.864  1.00  0.00    -0.237 OA
ATOM     77  O   UNL A   1      42.258  24.946  36.944  1.00  0.00    -0.744 OA
ENDBRANCH  71  74
ENDBRANCH  43  67
BRANCH  55  78
ATOM     78  C   UNL A   1      45.276  29.412  28.014  1.00  0.00     0.023 A 
ATOM     79  C   UNL A   1      46.174  30.494  27.965  1.00  0.00     0.012 A 
ATOM     80  C   UNL A   1      45.716  28.139  27.612  1.00  0.00     0.148 A 
ATOM     81  C   UNL A   1      47.480  30.312  27.502  1.00  0.00     0.002 A 
ATOM     82  C   UNL A   1      47.027  27.951  27.204  1.00  0.00     0.091 A 
ATOM     83  F   UNL A   1      44.840  27.122  27.654  1.00  0.00    -0.205 F 
ATOM     84  C   UNL A   1      47.911  29.038  27.135  1.00  0.00     0.022 A 
BRANCH  82  85
ATOM     85  S   UNL A   1      47.664  26.313  26.845  1.00  0.00     0.127 S 
ATOM     86  O   UNL A   1      47.720  25.709  28.174  1.00  0.00    -0.237 OA
ATOM     87  O   UNL A   1      46.633  25.761  25.965  1.00  0.00    -0.237 OA
ATOM     88  O   UNL A   1      48.951  26.519  26.192  1.00  0.00    -0.744 OA
ENDBRANCH  82  85
ENDBRANCH  55  78
ENDBRANCH  29  30
ENDBRANCH  21  24
ENDBRANCH  19  20
ENDBRANCH   1  19
TORSDOF 17
ENDMDL
MODEL 3
REMARK VINA RESULT:     -10.4      3.994      9.406
REMARK SMILES CC(C)c1c(C(=O)NCCCNC(=O)c2ccc(-c3c4nc(c(-c5cccc(S(=O)(=O)[O-])c5F)c5ccc([nH]5)c(-c5cccc(S(=O)(=O)[O-])c5F)c5nc(c(-c6cccc(S(=O)(=O)[O-])c6F)c6ccc3[nH]6)C=C5)C=C4)cc2)cnn1CCC#N
REMARK SMILES IDX 10 1 9 2 8 3 6 4 7 5 5 7 4 8 80 9 78 10 79 11 2 12 1 13 3 14
REMARK SMILES IDX 81 15 82 16 83 17 84 18 11 19 12 20 13 21 14 23 15 24 16 25
REMARK SMILES IDX 77 26 17 27 76 28 18 29 19 30 20 31 70 32 21 33 75 34 69 35
REMARK SMILES IDX 71 36 22 37 74 38 68 39 67 40 23 42 55 43 35 44 54 45 36 46
REMARK SMILES IDX 39 47 53 48 72 49 37 50 38 51 52 53 73 54 40 55 24 56 25 57
REMARK SMILES IDX 33 58 26 59 28 60 34 61 27 62 29 63 30 64 31 65 32 66 56 67
REMARK SMILES IDX 57 68 65 69 58 70 60 71 66 72 59 73 61 74 62 75 63 76 64 77
REMARK SMILES IDX 41 78 42 79 50 80 43 81 45 82 51 83 44 84 46 85 47 86 48 87
REMARK SMILES IDX 49 88
REMARK H PARENT 8 6 12 22 71 41 39 52
REMARK Flexibility Score: inf
ROOT
ATOM      1  C   UNL A   1      31.421  31.723  26.538  1.00  0.00     0.042 C 
ENDROOT
BRANCH   1   2
ATOM      2  C   UNL A   1      31.754  30.403  25.839  1.00  0.00     0.118 C 
BRANCH   2   3
ATOM      3  N   UNL A   1      31.004  30.217  24.610  1.00  0.00    -0.352 N 
ATOM      4  C   UNL A   1      31.001  29.267  23.622  1.00  0.00     0.254 C 
ATOM      5  O   UNL A   1      30.094  29.386  22.796  1.00  0.00    -0.269 OA
ATOM      6  H   UNL A   1      30.348  30.934  24.451  1.00  0.00     0.163 HD
BRANCH   4   7
ATOM      7  C   UNL A   1      31.962  28.168  23.569  1.00  0.00     0.081 A 
ATOM      8  C   UNL A   1      31.791  26.850  24.047  1.00  0.00     0.054 A 
ATOM      9  N   UNL A   1      33.001  26.225  23.838  1.00  0.00    -0.267 N 
ATOM     10  C   UNL A   1      33.258  28.145  23.026  1.00  0.00     0.149 A 
ATOM     11  N   UNL A   1      33.921  27.035  23.308  1.00  0.00    -0.180 NA
BRANCH   8  12
ATOM     12  C   UNL A   1      30.611  26.139  24.678  1.00  0.00     0.032 C 
ATOM     13  C   UNL A   1      29.992  25.115  23.728  1.00  0.00     0.014 C 
ATOM     14  C   UNL A   1      30.923  25.564  26.059  1.00  0.00     0.014 C 
ENDBRANCH   8  12
BRANCH   9  15
ATOM     15  C   UNL A   1      33.436  24.857  24.074  1.00  0.00     0.159 C 
BRANCH  15  16
ATOM     16  C   UNL A   1      34.657  24.783  24.992  1.00  0.00     0.144 C 
BRANCH  16  17
ATOM     17  C   UNL A   1      35.714  23.850  24.423  1.00  0.00     0.064 C 
ATOM     18  N   UNL A   1      36.589  23.076  23.951  1.00  0.00    -0.198 NA
ENDBRANCH  16  17
ENDBRANCH  15  16
ENDBRANCH   9  15
ENDBRANCH   4   7
ENDBRANCH   2   3
ENDBRANCH   1   2
BRANCH   1  19
ATOM     19  C   UNL A   1      32.651  32.333  27.206  1.00  0.00     0.118 C 
BRANCH  19  20
ATOM     20  N   UNL A   1      32.381  33.688  27.692  1.00  0.00    -0.352 N 
ATOM     21  C   UNL A   1      33.060  34.429  28.630  1.00  0.00     0.251 C 
ATOM     22  H   UNL A   1      31.602  34.133  27.287  1.00  0.00     0.163 HD
ATOM     23  O   UNL A   1      32.531  35.425  29.121  1.00  0.00    -0.269 OA
BRANCH  21  24
ATOM     24  C   UNL A   1      34.403  34.012  29.061  1.00  0.00     0.039 A 
ATOM     25  C   UNL A   1      34.533  33.034  30.049  1.00  0.00     0.014 A 
ATOM     26  C   UNL A   1      35.529  34.576  28.460  1.00  0.00     0.014 A 
ATOM     27  C   UNL A   1      35.801  32.556  30.357  1.00  0.00     0.010 A 
ATOM     28  C   UNL A   1      36.775  34.029  28.690  1.00  0.00     0.010 A 
ATOM     29  C   UNL A   1      36.918  33.025  29.645  1.00  0.00    -0.014 A 
BRANCH  29  30
ATOM     30  C   UNL A   1      38.184  32.300  29.755  1.00  0.00     0.031 A 
ATOM     31  C   UNL A   1      38.115  30.922  29.200  1.00  0.00     0.074 A 
ATOM     32  C   UNL A   1      39.358  32.848  30.133  1.00  0.00     0.049 A 
ATOM     33  N   UNL A   1      38.079  29.815  29.868  1.00  0.00    -0.248 NA
ATOM     34  C   UNL A   1      37.854  30.753  27.761  1.00  0.00     0.031 C 
ATOM     35  C   UNL A   1      39.623  34.264  30.407  1.00  0.00     0.029 A 
ATOM     36  N   UNL A   1      40.601  32.284  30.219  1.00  0.00    -0.354 N 
ATOM     37  C   UNL A   1      38.104  28.810  28.905  1.00  0.00     0.074 A 
ATOM     38  C   UNL A   1      37.703  29.429  27.673  1.00  0.00     0.031 C 
ATOM     39  C   UNL A   1      40.953  34.488  30.369  1.00  0.00     0.029 A 
ATOM     40  C   UNL A   1      41.637  33.215  30.240  1.00  0.00     0.049 A 
ATOM     41  H   UNL A   1      40.749  31.312  30.262  1.00  0.00     0.167 HD
ATOM     42  C   UNL A   1      38.796  27.659  29.140  1.00  0.00     0.034 A 
ATOM     43  C   UNL A   1      42.964  32.966  30.125  1.00  0.00     0.034 A 
ATOM     44  C   UNL A   1      39.145  27.556  30.538  1.00  0.00     0.049 A 
ATOM     45  C   UNL A   1      43.181  31.566  30.543  1.00  0.00     0.074 A 
ATOM     46  C   UNL A   1      38.480  27.449  31.740  1.00  0.00     0.029 A 
ATOM     47  N   UNL A   1      40.421  27.970  30.813  1.00  0.00    -0.354 N 
ATOM     48  N   UNL A   1      43.018  31.151  31.768  1.00  0.00    -0.248 NA
ATOM     49  C   UNL A   1      43.288  30.520  29.536  1.00  0.00     0.031 C 
ATOM     50  C   UNL A   1      39.332  28.064  32.707  1.00  0.00     0.029 A 
ATOM     51  C   UNL A   1      40.507  28.475  32.076  1.00  0.00     0.049 A 
ATOM     52  H   UNL A   1      41.175  27.912  30.182  1.00  0.00     0.167 HD
ATOM     53  C   UNL A   1      42.518  29.871  31.617  1.00  0.00     0.074 A 
ATOM     54  C   UNL A   1      42.903  29.473  30.269  1.00  0.00     0.031 C 
ATOM     55  C   UNL A   1      41.552  29.403  32.460  1.00  0.00     0.034 A 
BRANCH  42  56
ATOM     56  C   UNL A   1      39.634  26.908  28.108  1.00  0.00     0.023 A 
ATOM     57  C   UNL A   1      39.603  25.493  28.184  1.00  0.00     0.012 A 
ATOM     58  C   UNL A   1      40.671  27.473  27.331  1.00  0.00     0.148 A 
ATOM     59  C   UNL A   1      40.600  24.697  27.605  1.00  0.00     0.002 A 
ATOM     60  C   UNL A   1      41.619  26.674  26.699  1.00  0.00     0.091 A 
ATOM     61  F   UNL A   1      40.842  28.793  27.289  1.00  0.00    -0.205 F 
ATOM     62  C   UNL A   1      41.611  25.288  26.863  1.00  0.00     0.022 A 
BRANCH  60  63
ATOM     63  S   UNL A   1      42.936  27.385  25.700  1.00  0.00     0.127 S 
ATOM     64  O   UNL A   1      43.710  28.102  26.708  1.00  0.00    -0.237 OA
ATOM     65  O   UNL A   1      43.576  26.184  25.161  1.00  0.00    -0.237 OA
ATOM     66  O   UNL A   1      42.274  28.210  24.698  1.00  0.00    -0.744 OA
ENDBRANCH  60  63
ENDBRANCH  42  56
BRANCH  43  67
ATOM     67  C   UNL A   1      44.064  33.784  29.562  1.00  0.00     0.023 A 
ATOM     68  C   UNL A   1      44.968  34.425  30.434  1.00  0.00     0.012 A 
ATOM     69  C   UNL A   1      44.409  33.695  28.196  1.00  0.00     0.148 A 
ATOM     70  C   UNL A   1      46.201  34.905  29.976  1.00  0.00     0.002 A 
ATOM     71  C   UNL A   1      45.634  34.178  27.743  1.00  0.00     0.091 A 
ATOM     72  F   UNL A   1      43.580  33.057  27.360  1.00  0.00    -0.205 F 
ATOM     73  C   UNL A   1      46.540  34.768  28.634  1.00  0.00     0.022 A 
BRANCH  71  74
ATOM     74  S   UNL A   1      46.156  34.012  26.030  1.00  0.00     0.127 S 
ATOM     75  O   UNL A   1      46.528  35.386  25.691  1.00  0.00    -0.237 OA
ATOM     76  O   UNL A   1      47.280  33.086  26.144  1.00  0.00    -0.237 OA
ATOM     77  O   UNL A   1      44.994  33.511  25.307  1.00  0.00    -0.744 OA
ENDBRANCH  71  74
ENDBRANCH  43  67
BRANCH  55  78
ATOM     78  C   UNL A   1      41.436  30.038  33.816  1.00  0.00     0.023 A 
ATOM     79  C   UNL A   1      42.270  29.707  34.900  1.00  0.00     0.012 A 
ATOM     80  C   UNL A   1      40.519  31.094  33.956  1.00  0.00     0.148 A 
ATOM     81  C   UNL A   1      42.173  30.403  36.108  1.00  0.00     0.002 A 
ATOM     82  C   UNL A   1      40.462  31.817  35.136  1.00  0.00     0.091 A 
ATOM     83  F   UNL A   1      39.723  31.385  32.913  1.00  0.00    -0.205 F 
ATOM     84  C   UNL A   1      41.280  31.467  36.222  1.00  0.00     0.022 A 
BRANCH  82  85
ATOM     85  S   UNL A   1      39.424  33.271  35.288  1.00  0.00     0.127 S 
ATOM     86  O   UNL A   1      38.085  32.708  35.135  1.00  0.00    -0.237 OA
ATOM     87  O   UNL A   1      39.739  33.744  36.637  1.00  0.00    -0.237 OA
ATOM     88  O   UNL A   1      39.850  34.178  34.229  1.00  0.00    -0.744 OA
ENDBRANCH  82  85
ENDBRANCH  55  78
ENDBRANCH  29  30
ENDBRANCH  21  24
ENDBRANCH  19  20
ENDBRANCH   1  19
TORSDOF 17
ENDMDL
