MODEL 1
REMARK VINA RESULT:     -12.1      0.000      0.000
REMARK SMILES CCC1(C)CC[NH+]([C@@H]2CC[C@]([NH2+]C3CC3)(C(=O)NCCCNC(=O)c3ccc(-c4c5nc(c(-c6cccc(S(=O)(=O)[O-])c6F)c6ccc([nH]6)c(-c6cccc(S(=O)(=O)[O-])c6F)c6nc(c(-c7cccc(S(=O)(=O)[O-])c7F)c7ccc4[nH]7)C=C6)C=C5)cc3)C2)CC1
REMARK SMILES IDX 20 1 19 2 18 3 16 4 17 5 11 7 8 8 9 9 88 10 10 11 7 12 3 13
REMARK SMILES IDX 4 14 5 15 90 16 6 17 89 18 2 20 1 21 12 22 13 25 14 26 15 27
REMARK SMILES IDX 21 28 22 29 23 30 24 32 25 33 26 34 87 35 27 36 86 37 28 38
REMARK SMILES IDX 29 39 30 40 80 41 31 42 85 43 79 44 81 45 32 46 84 47 78 48
REMARK SMILES IDX 77 49 33 51 65 52 45 53 64 54 46 55 49 56 63 57 82 58 47 59
REMARK SMILES IDX 48 60 62 62 83 63 50 64 34 65 35 66 43 67 36 68 38 69 44 70
REMARK SMILES IDX 37 71 39 72 40 73 41 74 42 75 66 76 67 77 75 78 68 79 70 80
REMARK SMILES IDX 76 81 69 82 71 83 72 84 73 85 74 86 51 87 52 88 60 89 53 90
REMARK SMILES IDX 55 91 61 92 54 93 56 94 57 95 58 96 59 97
REMARK H PARENT 18 6 7 19 12 23 12 24 22 31 81 50 49 61
REMARK Flexibility Score: inf
ROOT
ATOM      1  C   UNL A   1      32.360  29.970  25.459  1.00  0.00     0.042 C 
ENDROOT
BRANCH   1   2
ATOM      2  C   UNL A   1      33.288  28.767  25.340  1.00  0.00     0.118 C 
BRANCH   2   3
ATOM      3  N   UNL A   1      33.845  28.525  24.016  1.00  0.00    -0.351 N 
ATOM      4  C   UNL A   1      33.324  28.048  22.844  1.00  0.00     0.281 C 
ATOM      5  O   UNL A   1      34.094  28.090  21.873  1.00  0.00    -0.268 OA
ATOM      6  H   UNL A   1      34.801  28.751  23.951  1.00  0.00     0.163 HD
BRANCH   4   7
ATOM      7  C   UNL A   1      31.913  27.360  22.718  1.00  0.00     0.181 C 
ATOM      8  C   UNL A   1      30.678  25.493  23.719  1.00  0.00     0.191 C 
ATOM      9  C   UNL A   1      31.379  24.979  22.454  1.00  0.00     0.072 C 
ATOM     10  C   UNL A   1      31.337  26.844  24.050  1.00  0.00     0.144 C 
ATOM     11  C   UNL A   1      32.086  26.149  21.792  1.00  0.00     0.085 C 
BRANCH   8  12
ATOM     12  N   UNL A   1      30.446  24.582  24.853  1.00  0.00    -0.332 N 
ATOM     13  C   UNL A   1      33.020  23.705  26.152  1.00  0.00    -0.022 C 
ATOM     14  C   UNL A   1      32.847  22.703  27.311  1.00  0.00     0.012 C 
ATOM     15  C   UNL A   1      32.460  23.060  24.852  1.00  0.00     0.068 C 
ATOM     16  C   UNL A   1      32.285  25.019  26.514  1.00  0.00     0.068 C 
ATOM     17  C   UNL A   1      30.952  23.220  24.646  1.00  0.00     0.263 C 
ATOM     18  C   UNL A   1      30.790  25.024  26.200  1.00  0.00     0.263 C 
ATOM     19  H   UNL A   1      29.426  24.592  24.835  1.00  0.00     0.348 HD
BRANCH  13  20
ATOM     20  C   UNL A   1      34.536  23.988  25.914  1.00  0.00     0.004 C 
ATOM     21  C   UNL A   1      34.871  25.215  25.076  1.00  0.00     0.004 C 
ENDBRANCH  13  20
ENDBRANCH   8  12
BRANCH   7  22
ATOM     22  N   UNL A   1      30.967  28.357  22.116  1.00  0.00    -0.331 N 
ATOM     23  H   UNL A   1      30.613  27.959  21.245  1.00  0.00     0.347 HD
ATOM     24  H   UNL A   1      31.514  29.211  22.004  1.00  0.00     0.347 HD
BRANCH  22  25
ATOM     25  C   UNL A   1      29.807  28.745  22.933  1.00  0.00     0.183 C 
ATOM     26  C   UNL A   1      29.538  30.207  23.162  1.00  0.00     0.071 C 
ATOM     27  C   UNL A   1      28.626  29.408  22.284  1.00  0.00     0.071 C 
ENDBRANCH  22  25
ENDBRANCH   7  22
ENDBRANCH   4   7
ENDBRANCH   2   3
ENDBRANCH   1   2
BRANCH   1  28
ATOM     28  C   UNL A   1      32.171  30.511  26.866  1.00  0.00     0.118 C 
BRANCH  28  29
ATOM     29  N   UNL A   1      32.408  31.946  26.949  1.00  0.00    -0.352 N 
ATOM     30  C   UNL A   1      33.412  32.669  27.553  1.00  0.00     0.251 C 
ATOM     31  H   UNL A   1      31.731  32.497  26.494  1.00  0.00     0.163 HD
ATOM     32  O   UNL A   1      33.279  33.887  27.654  1.00  0.00    -0.269 OA
BRANCH  30  33
ATOM     33  C   UNL A   1      34.629  32.018  28.100  1.00  0.00     0.039 A 
ATOM     34  C   UNL A   1      35.789  32.788  28.255  1.00  0.00     0.014 A 
ATOM     35  C   UNL A   1      34.667  30.659  28.413  1.00  0.00     0.014 A 
ATOM     36  C   UNL A   1      36.945  32.216  28.798  1.00  0.00     0.010 A 
ATOM     37  C   UNL A   1      35.789  30.112  29.039  1.00  0.00     0.010 A 
ATOM     38  C   UNL A   1      36.942  30.883  29.241  1.00  0.00    -0.014 A 
BRANCH  38  39
ATOM     39  C   UNL A   1      38.112  30.297  29.950  1.00  0.00     0.031 A 
ATOM     40  C   UNL A   1      38.466  30.730  31.349  1.00  0.00     0.074 A 
ATOM     41  C   UNL A   1      38.919  29.438  29.293  1.00  0.00     0.049 A 
ATOM     42  N   UNL A   1      39.488  30.376  32.087  1.00  0.00    -0.248 NA
ATOM     43  C   UNL A   1      37.574  31.705  31.996  1.00  0.00     0.031 C 
ATOM     44  C   UNL A   1      38.736  28.999  27.908  1.00  0.00     0.029 A 
ATOM     45  N   UNL A   1      40.072  28.805  29.690  1.00  0.00    -0.354 N 
ATOM     46  C   UNL A   1      39.382  31.107  33.265  1.00  0.00     0.074 A 
ATOM     47  C   UNL A   1      38.212  31.948  33.132  1.00  0.00     0.031 C 
ATOM     48  C   UNL A   1      39.734  28.168  27.572  1.00  0.00     0.029 A 
ATOM     49  C   UNL A   1      40.651  28.043  28.701  1.00  0.00     0.049 A 
ATOM     50  H   UNL A   1      40.448  28.888  30.595  1.00  0.00     0.167 HD
ATOM     51  C   UNL A   1      40.170  31.065  34.367  1.00  0.00     0.034 A 
ATOM     52  C   UNL A   1      41.797  27.333  28.695  1.00  0.00     0.034 A 
ATOM     53  C   UNL A   1      41.310  30.201  34.515  1.00  0.00     0.049 A 
ATOM     54  C   UNL A   1      42.635  27.281  29.942  1.00  0.00     0.074 A 
ATOM     55  C   UNL A   1      42.113  30.020  35.628  1.00  0.00     0.029 A 
ATOM     56  N   UNL A   1      41.820  29.381  33.521  1.00  0.00    -0.354 N 
ATOM     57  N   UNL A   1      42.425  27.854  31.102  1.00  0.00    -0.248 NA
ATOM     58  C   UNL A   1      43.852  26.458  29.891  1.00  0.00     0.031 C 
ATOM     59  C   UNL A   1      43.126  29.114  35.297  1.00  0.00     0.029 A 
ATOM     60  C   UNL A   1      42.934  28.706  33.987  1.00  0.00     0.049 A 
ATOM     61  H   UNL A   1      41.443  29.293  32.615  1.00  0.00     0.167 HD
ATOM     62  C   UNL A   1      43.464  27.438  31.927  1.00  0.00     0.074 A 
ATOM     63  C   UNL A   1      44.287  26.542  31.142  1.00  0.00     0.031 C 
ATOM     64  C   UNL A   1      43.722  27.780  33.213  1.00  0.00     0.034 A 
BRANCH  51  65
ATOM     65  C   UNL A   1      39.796  31.946  35.533  1.00  0.00     0.023 A 
ATOM     66  C   UNL A   1      40.338  33.244  35.627  1.00  0.00     0.012 A 
ATOM     67  C   UNL A   1      38.854  31.522  36.492  1.00  0.00     0.148 A 
ATOM     68  C   UNL A   1      39.975  34.095  36.670  1.00  0.00     0.002 A 
ATOM     69  C   UNL A   1      38.462  32.391  37.504  1.00  0.00     0.091 A 
ATOM     70  F   UNL A   1      38.361  30.279  36.398  1.00  0.00    -0.205 F 
ATOM     71  C   UNL A   1      39.030  33.672  37.602  1.00  0.00     0.022 A 
BRANCH  69  72
ATOM     72  S   UNL A   1      37.195  31.975  38.707  1.00  0.00     0.127 S 
ATOM     73  O   UNL A   1      36.096  32.846  38.291  1.00  0.00    -0.237 OA
ATOM     74  O   UNL A   1      36.977  30.552  38.446  1.00  0.00    -0.237 OA
ATOM     75  O   UNL A   1      37.767  32.274  40.014  1.00  0.00    -0.744 OA
ENDBRANCH  69  72
ENDBRANCH  51  65
BRANCH  52  76
ATOM     76  C   UNL A   1      42.192  26.571  27.476  1.00  0.00     0.023 A 
ATOM     77  C   UNL A   1      42.837  27.242  26.418  1.00  0.00     0.012 A 
ATOM     78  C   UNL A   1      41.959  25.186  27.369  1.00  0.00     0.148 A 
ATOM     79  C   UNL A   1      43.209  26.555  25.262  1.00  0.00     0.002 A 
ATOM     80  C   UNL A   1      42.388  24.496  26.241  1.00  0.00     0.091 A 
ATOM     81  F   UNL A   1      41.333  24.567  28.380  1.00  0.00    -0.205 F 
ATOM     82  C   UNL A   1      42.995  25.182  25.177  1.00  0.00     0.022 A 
BRANCH  80  83
ATOM     83  S   UNL A   1      42.282  22.708  26.111  1.00  0.00     0.127 S 
ATOM     84  O   UNL A   1      42.867  22.467  24.795  1.00  0.00    -0.237 OA
ATOM     85  O   UNL A   1      43.104  22.273  27.241  1.00  0.00    -0.237 OA
ATOM     86  O   UNL A   1      40.867  22.388  26.246  1.00  0.00    -0.744 OA
ENDBRANCH  80  83
ENDBRANCH  52  76
BRANCH  64  87
ATOM     87  C   UNL A   1      44.930  27.164  33.872  1.00  0.00     0.023 A 
ATOM     88  C   UNL A   1      46.174  27.823  33.809  1.00  0.00     0.012 A 
ATOM     89  C   UNL A   1      44.818  25.968  34.608  1.00  0.00     0.148 A 
ATOM     90  C   UNL A   1      47.295  27.283  34.438  1.00  0.00     0.002 A 
ATOM     91  C   UNL A   1      45.928  25.462  35.274  1.00  0.00     0.091 A 
ATOM     92  F   UNL A   1      43.630  25.346  34.640  1.00  0.00    -0.205 F 
ATOM     93  C   UNL A   1      47.170  26.110  35.179  1.00  0.00     0.022 A 
BRANCH  91  94
ATOM     94  S   UNL A   1      45.841  24.010  36.329  1.00  0.00     0.127 S 
ATOM     95  O   UNL A   1      45.165  23.050  35.458  1.00  0.00    -0.237 OA
ATOM     96  O   UNL A   1      47.254  23.721  36.575  1.00  0.00    -0.237 OA
ATOM     97  O   UNL A   1      45.092  24.416  37.510  1.00  0.00    -0.744 OA
ENDBRANCH  91  94
ENDBRANCH  64  87
ENDBRANCH  38  39
ENDBRANCH  30  33
ENDBRANCH  28  29
ENDBRANCH   1  28
TORSDOF 17
ENDMDL
MODEL 2
REMARK VINA RESULT:     -12.1      5.935      9.030
REMARK SMILES CCC1(C)CC[NH+]([C@@H]2CC[C@]([NH2+]C3CC3)(C(=O)NCCCNC(=O)c3ccc(-c4c5nc(c(-c6cccc(S(=O)(=O)[O-])c6F)c6ccc([nH]6)c(-c6cccc(S(=O)(=O)[O-])c6F)c6nc(c(-c7cccc(S(=O)(=O)[O-])c7F)c7ccc4[nH]7)C=C6)C=C5)cc3)C2)CC1
REMARK SMILES IDX 20 1 19 2 18 3 16 4 17 5 11 7 8 8 9 9 88 10 10 11 7 12 3 13
REMARK SMILES IDX 4 14 5 15 90 16 6 17 89 18 2 20 1 21 12 22 13 25 14 26 15 27
REMARK SMILES IDX 21 28 22 29 23 30 24 32 25 33 26 34 87 35 27 36 86 37 28 38
REMARK SMILES IDX 29 39 30 40 80 41 31 42 85 43 79 44 81 45 32 46 84 47 78 48
REMARK SMILES IDX 77 49 33 51 65 52 45 53 64 54 46 55 49 56 63 57 82 58 47 59
REMARK SMILES IDX 48 60 62 62 83 63 50 64 34 65 35 66 43 67 36 68 38 69 44 70
REMARK SMILES IDX 37 71 39 72 40 73 41 74 42 75 66 76 67 77 75 78 68 79 70 80
REMARK SMILES IDX 76 81 69 82 71 83 72 84 73 85 74 86 51 87 52 88 60 89 53 90
REMARK SMILES IDX 55 91 61 92 54 93 56 94 57 95 58 96 59 97
REMARK H PARENT 18 6 7 19 12 23 12 24 22 31 81 50 49 61
REMARK Flexibility Score: inf
ROOT
ATOM      1  C   UNL A   1      38.434  19.155  25.312  1.00  0.00     0.042 C 
ENDROOT
BRANCH   1   2
ATOM      2  C   UNL A   1      37.436  20.108  24.664  1.00  0.00     0.118 C 
BRANCH   2   3
ATOM      3  N   UNL A   1      36.057  19.983  25.113  1.00  0.00    -0.351 N 
ATOM      4  C   UNL A   1      35.050  20.883  25.339  1.00  0.00     0.281 C 
ATOM      5  O   UNL A   1      33.950  20.381  25.615  1.00  0.00    -0.268 OA
ATOM      6  H   UNL A   1      35.791  19.052  25.293  1.00  0.00     0.163 HD
BRANCH   4   7
ATOM      7  C   UNL A   1      35.257  22.443  25.397  1.00  0.00     0.181 C 
ATOM      8  C   UNL A   1      33.985  24.488  24.936  1.00  0.00     0.191 C 
ATOM      9  C   UNL A   1      34.779  24.124  23.673  1.00  0.00     0.072 C 
ATOM     10  C   UNL A   1      34.008  23.234  25.827  1.00  0.00     0.144 C 
ATOM     11  C   UNL A   1      35.624  22.899  23.979  1.00  0.00     0.085 C 
BRANCH   8  12
ATOM     12  N   UNL A   1      32.692  25.184  24.816  1.00  0.00    -0.332 N 
ATOM     13  C   UNL A   1      32.923  28.123  25.445  1.00  0.00    -0.022 C 
ATOM     14  C   UNL A   1      31.592  28.898  25.394  1.00  0.00     0.012 C 
ATOM     15  C   UNL A   1      32.814  27.024  26.541  1.00  0.00     0.068 C 
ATOM     16  C   UNL A   1      33.207  27.524  24.046  1.00  0.00     0.068 C 
ATOM     17  C   UNL A   1      32.172  25.713  26.083  1.00  0.00     0.263 C 
ATOM     18  C   UNL A   1      32.522  26.187  23.770  1.00  0.00     0.263 C 
ATOM     19  H   UNL A   1      32.134  24.391  24.502  1.00  0.00     0.348 HD
BRANCH  13  20
ATOM     20  C   UNL A   1      34.082  29.081  25.862  1.00  0.00     0.004 C 
ATOM     21  C   UNL A   1      34.383  29.170  27.353  1.00  0.00     0.004 C 
ENDBRANCH  13  20
ENDBRANCH   8  12
BRANCH   7  22
ATOM     22  N   UNL A   1      36.381  22.723  26.351  1.00  0.00    -0.331 N 
ATOM     23  H   UNL A   1      36.729  21.826  26.690  1.00  0.00     0.347 HD
ATOM     24  H   UNL A   1      35.978  23.325  27.069  1.00  0.00     0.347 HD
BRANCH  22  25
ATOM     25  C   UNL A   1      37.528  23.473  25.817  1.00  0.00     0.183 C 
ATOM     26  C   UNL A   1      38.309  24.361  26.747  1.00  0.00     0.071 C 
ATOM     27  C   UNL A   1      38.923  23.097  26.229  1.00  0.00     0.071 C 
ENDBRANCH  22  25
ENDBRANCH   7  22
ENDBRANCH   4   7
ENDBRANCH   2   3
ENDBRANCH   1   2
BRANCH   1  28
ATOM     28  C   UNL A   1      39.526  19.815  26.135  1.00  0.00     0.118 C 
BRANCH  28  29
ATOM     29  N   UNL A   1      40.812  19.141  26.001  1.00  0.00    -0.352 N 
ATOM     30  C   UNL A   1      42.097  19.631  25.975  1.00  0.00     0.251 C 
ATOM     31  H   UNL A   1      40.750  18.162  25.914  1.00  0.00     0.163 HD
ATOM     32  O   UNL A   1      43.009  18.873  25.649  1.00  0.00    -0.269 OA
BRANCH  30  33
ATOM     33  C   UNL A   1      42.406  21.045  26.307  1.00  0.00     0.039 A 
ATOM     34  C   UNL A   1      42.628  21.388  27.647  1.00  0.00     0.014 A 
ATOM     35  C   UNL A   1      42.430  22.047  25.336  1.00  0.00     0.014 A 
ATOM     36  C   UNL A   1      42.954  22.704  27.992  1.00  0.00     0.010 A 
ATOM     37  C   UNL A   1      42.844  23.339  25.667  1.00  0.00     0.010 A 
ATOM     38  C   UNL A   1      43.113  23.684  26.998  1.00  0.00    -0.014 A 
BRANCH  38  39
ATOM     39  C   UNL A   1      43.597  25.053  27.327  1.00  0.00     0.031 A 
ATOM     40  C   UNL A   1      42.652  26.103  27.852  1.00  0.00     0.074 A 
ATOM     41  C   UNL A   1      44.877  25.381  27.059  1.00  0.00     0.049 A 
ATOM     42  N   UNL A   1      42.888  27.362  28.123  1.00  0.00    -0.248 NA
ATOM     43  C   UNL A   1      41.256  25.695  28.078  1.00  0.00     0.031 C 
ATOM     44  C   UNL A   1      45.876  24.485  26.474  1.00  0.00     0.029 A 
ATOM     45  N   UNL A   1      45.552  26.568  27.215  1.00  0.00    -0.354 N 
ATOM     46  C   UNL A   1      41.669  27.903  28.517  1.00  0.00     0.074 A 
ATOM     47  C   UNL A   1      40.688  26.844  28.420  1.00  0.00     0.031 C 
ATOM     48  C   UNL A   1      47.032  25.147  26.323  1.00  0.00     0.029 A 
ATOM     49  C   UNL A   1      46.852  26.527  26.764  1.00  0.00     0.049 A 
ATOM     50  H   UNL A   1      45.145  27.372  27.611  1.00  0.00     0.167 HD
ATOM     51  C   UNL A   1      41.394  29.160  28.944  1.00  0.00     0.034 A 
ATOM     52  C   UNL A   1      47.791  27.492  26.697  1.00  0.00     0.034 A 
ATOM     53  C   UNL A   1      42.377  30.203  29.077  1.00  0.00     0.049 A 
ATOM     54  C   UNL A   1      47.467  28.869  27.206  1.00  0.00     0.074 A 
ATOM     55  C   UNL A   1      42.212  31.479  29.589  1.00  0.00     0.029 A 
ATOM     56  N   UNL A   1      43.702  30.100  28.687  1.00  0.00    -0.354 N 
ATOM     57  N   UNL A   1      46.350  29.314  27.728  1.00  0.00    -0.248 NA
ATOM     58  C   UNL A   1      48.543  29.870  27.148  1.00  0.00     0.031 C 
ATOM     59  C   UNL A   1      43.431  32.156  29.480  1.00  0.00     0.029 A 
ATOM     60  C   UNL A   1      44.363  31.292  28.931  1.00  0.00     0.049 A 
ATOM     61  H   UNL A   1      44.113  29.296  28.294  1.00  0.00     0.167 HD
ATOM     62  C   UNL A   1      46.597  30.634  28.088  1.00  0.00     0.074 A 
ATOM     63  C   UNL A   1      47.977  30.908  27.750  1.00  0.00     0.031 C 
ATOM     64  C   UNL A   1      45.750  31.542  28.633  1.00  0.00     0.034 A 
BRANCH  51  65
ATOM     65  C   UNL A   1      39.976  29.470  29.354  1.00  0.00     0.023 A 
ATOM     66  C   UNL A   1      39.012  29.752  28.365  1.00  0.00     0.012 A 
ATOM     67  C   UNL A   1      39.580  29.407  30.705  1.00  0.00     0.148 A 
ATOM     68  C   UNL A   1      37.684  29.998  28.714  1.00  0.00     0.002 A 
ATOM     69  C   UNL A   1      38.246  29.609  31.042  1.00  0.00     0.091 A 
ATOM     70  F   UNL A   1      40.513  29.154  31.634  1.00  0.00    -0.205 F 
ATOM     71  C   UNL A   1      37.300  29.916  30.050  1.00  0.00     0.022 A 
BRANCH  69  72
ATOM     72  S   UNL A   1      37.632  29.447  32.722  1.00  0.00     0.127 S 
ATOM     73  O   UNL A   1      36.266  29.951  32.586  1.00  0.00    -0.237 OA
ATOM     74  O   UNL A   1      37.730  28.005  32.948  1.00  0.00    -0.237 OA
ATOM     75  O   UNL A   1      38.515  30.255  33.553  1.00  0.00    -0.744 OA
ENDBRANCH  69  72
ENDBRANCH  51  65
BRANCH  52  76
ATOM     76  C   UNL A   1      49.149  27.172  26.171  1.00  0.00     0.023 A 
ATOM     77  C   UNL A   1      50.070  26.495  26.995  1.00  0.00     0.012 A 
ATOM     78  C   UNL A   1      49.524  27.509  24.855  1.00  0.00     0.148 A 
ATOM     79  C   UNL A   1      51.351  26.192  26.531  1.00  0.00     0.002 A 
ATOM     80  C   UNL A   1      50.779  27.148  24.379  1.00  0.00     0.091 A 
ATOM     81  F   UNL A   1      48.639  28.163  24.091  1.00  0.00    -0.205 F 
ATOM     82  C   UNL A   1      51.702  26.508  25.221  1.00  0.00     0.022 A 
BRANCH  80  83
ATOM     83  S   UNL A   1      51.260  27.389  22.666  1.00  0.00     0.127 S 
ATOM     84  O   UNL A   1      52.560  26.723  22.623  1.00  0.00    -0.237 OA
ATOM     85  O   UNL A   1      50.188  26.695  21.950  1.00  0.00    -0.237 OA
ATOM     86  O   UNL A   1      51.278  28.831  22.461  1.00  0.00    -0.744 OA
ENDBRANCH  80  83
ENDBRANCH  52  76
BRANCH  64  87
ATOM     87  C   UNL A   1      46.295  32.915  28.930  1.00  0.00     0.023 A 
ATOM     88  C   UNL A   1      46.966  33.155  30.146  1.00  0.00     0.012 A 
ATOM     89  C   UNL A   1      46.202  33.949  27.977  1.00  0.00     0.148 A 
ATOM     90  C   UNL A   1      47.502  34.412  30.425  1.00  0.00     0.002 A 
ATOM     91  C   UNL A   1      46.784  35.184  28.240  1.00  0.00     0.091 A 
ATOM     92  F   UNL A   1      45.546  33.707  26.833  1.00  0.00    -0.205 F 
ATOM     93  C   UNL A   1      47.422  35.421  29.468  1.00  0.00     0.022 A 
BRANCH  91  94
ATOM     94  S   UNL A   1      46.813  36.513  27.032  1.00  0.00     0.127 S 
ATOM     95  O   UNL A   1      47.782  37.433  27.624  1.00  0.00    -0.237 OA
ATOM     96  O   UNL A   1      47.281  35.827  25.827  1.00  0.00    -0.237 OA
ATOM     97  O   UNL A   1      45.447  37.012  26.951  1.00  0.00    -0.744 OA
ENDBRANCH  91  94
ENDBRANCH  64  87
ENDBRANCH  38  39
ENDBRANCH  30  33
ENDBRANCH  28  29
ENDBRANCH   1  28
TORSDOF 17
ENDMDL
MODEL 3
REMARK VINA RESULT:     -12.0      2.244      8.084
REMARK SMILES CCC1(C)CC[NH+]([C@@H]2CC[C@]([NH2+]C3CC3)(C(=O)NCCCNC(=O)c3ccc(-c4c5nc(c(-c6cccc(S(=O)(=O)[O-])c6F)c6ccc([nH]6)c(-c6cccc(S(=O)(=O)[O-])c6F)c6nc(c(-c7cccc(S(=O)(=O)[O-])c7F)c7ccc4[nH]7)C=C6)C=C5)cc3)C2)CC1
REMARK SMILES IDX 20 1 19 2 18 3 16 4 17 5 11 7 8 8 9 9 88 10 10 11 7 12 3 13
REMARK SMILES IDX 4 14 5 15 90 16 6 17 89 18 2 20 1 21 12 22 13 25 14 26 15 27
REMARK SMILES IDX 21 28 22 29 23 30 24 32 25 33 26 34 87 35 27 36 86 37 28 38
REMARK SMILES IDX 29 39 30 40 80 41 31 42 85 43 79 44 81 45 32 46 84 47 78 48
REMARK SMILES IDX 77 49 33 51 65 52 45 53 64 54 46 55 49 56 63 57 82 58 47 59
REMARK SMILES IDX 48 60 62 62 83 63 50 64 34 65 35 66 43 67 36 68 38 69 44 70
REMARK SMILES IDX 37 71 39 72 40 73 41 74 42 75 66 76 67 77 75 78 68 79 70 80
REMARK SMILES IDX 76 81 69 82 71 83 72 84 73 85 74 86 51 87 52 88 60 89 53 90
REMARK SMILES IDX 55 91 61 92 54 93 56 94 57 95 58 96 59 97
REMARK H PARENT 18 6 7 19 12 23 12 24 22 31 81 50 49 61
REMARK Flexibility Score: inf
ROOT
ATOM      1  C   UNL A   1      31.419  31.950  26.620  1.00  0.00     0.042 C 
ENDROOT
BRANCH   1   2
ATOM      2  C   UNL A   1      31.651  30.700  25.780  1.00  0.00     0.118 C 
BRANCH   2   3
ATOM      3  N   UNL A   1      32.594  29.734  26.327  1.00  0.00    -0.351 N 
ATOM      4  C   UNL A   1      33.083  28.535  25.882  1.00  0.00     0.281 C 
ATOM      5  O   UNL A   1      33.978  28.042  26.586  1.00  0.00    -0.268 OA
ATOM      6  H   UNL A   1      32.955  29.999  27.203  1.00  0.00     0.163 HD
BRANCH   4   7
ATOM      7  C   UNL A   1      32.493  27.737  24.660  1.00  0.00     0.181 C 
ATOM      8  C   UNL A   1      33.112  25.854  23.218  1.00  0.00     0.191 C 
ATOM      9  C   UNL A   1      33.575  27.150  22.537  1.00  0.00     0.072 C 
ATOM     10  C   UNL A   1      32.801  26.229  24.677  1.00  0.00     0.144 C 
ATOM     11  C   UNL A   1      33.130  28.323  23.393  1.00  0.00     0.085 C 
BRANCH   8  12
ATOM     12  N   UNL A   1      33.861  24.603  23.007  1.00  0.00    -0.332 N 
ATOM     13  C   UNL A   1      32.685  22.299  24.553  1.00  0.00    -0.022 C 
ATOM     14  C   UNL A   1      33.459  20.974  24.419  1.00  0.00     0.012 C 
ATOM     15  C   UNL A   1      33.626  23.360  25.192  1.00  0.00     0.068 C 
ATOM     16  C   UNL A   1      32.186  22.731  23.151  1.00  0.00     0.068 C 
ATOM     17  C   UNL A   1      34.537  24.096  24.207  1.00  0.00     0.263 C 
ATOM     18  C   UNL A   1      33.210  23.495  22.315  1.00  0.00     0.263 C 
ATOM     19  H   UNL A   1      34.541  24.959  22.335  1.00  0.00     0.348 HD
BRANCH  13  20
ATOM     20  C   UNL A   1      31.472  22.114  25.518  1.00  0.00     0.004 C 
ATOM     21  C   UNL A   1      31.367  23.106  26.670  1.00  0.00     0.004 C 
ENDBRANCH  13  20
ENDBRANCH   8  12
BRANCH   7  22
ATOM     22  N   UNL A   1      31.007  27.946  24.650  1.00  0.00    -0.331 N 
ATOM     23  H   UNL A   1      30.801  28.736  25.262  1.00  0.00     0.347 HD
ATOM     24  H   UNL A   1      30.610  27.056  24.952  1.00  0.00     0.347 HD
BRANCH  22  25
ATOM     25  C   UNL A   1      30.388  28.222  23.344  1.00  0.00     0.183 C 
ATOM     26  C   UNL A   1      28.900  28.051  23.197  1.00  0.00     0.071 C 
ATOM     27  C   UNL A   1      29.500  29.422  23.178  1.00  0.00     0.071 C 
ENDBRANCH  22  25
ENDBRANCH   7  22
ENDBRANCH   4   7
ENDBRANCH   2   3
ENDBRANCH   1   2
BRANCH   1  28
ATOM     28  C   UNL A   1      32.664  32.559  27.241  1.00  0.00     0.118 C 
BRANCH  28  29
ATOM     29  N   UNL A   1      32.479  33.957  27.609  1.00  0.00    -0.352 N 
ATOM     30  C   UNL A   1      33.085  34.731  28.571  1.00  0.00     0.251 C 
ATOM     31  H   UNL A   1      31.802  34.432  27.075  1.00  0.00     0.163 HD
ATOM     32  O   UNL A   1      32.609  35.838  28.820  1.00  0.00    -0.269 OA
BRANCH  30  33
ATOM     33  C   UNL A   1      34.273  34.260  29.326  1.00  0.00     0.039 A 
ATOM     34  C   UNL A   1      34.076  33.614  30.554  1.00  0.00     0.014 A 
ATOM     35  C   UNL A   1      35.575  34.486  28.878  1.00  0.00     0.014 A 
ATOM     36  C   UNL A   1      35.171  33.128  31.277  1.00  0.00     0.010 A 
ATOM     37  C   UNL A   1      36.660  33.921  29.552  1.00  0.00     0.010 A 
ATOM     38  C   UNL A   1      36.472  33.234  30.759  1.00  0.00    -0.014 A 
BRANCH  38  39
ATOM     39  C   UNL A   1      37.635  32.600  31.440  1.00  0.00     0.031 A 
ATOM     40  C   UNL A   1      38.362  31.439  30.812  1.00  0.00     0.074 A 
ATOM     41  C   UNL A   1      37.977  33.011  32.679  1.00  0.00     0.049 A 
ATOM     42  N   UNL A   1      39.346  30.725  31.296  1.00  0.00    -0.248 NA
ATOM     43  C   UNL A   1      37.910  31.007  29.480  1.00  0.00     0.031 C 
ATOM     44  C   UNL A   1      37.304  34.069  33.435  1.00  0.00     0.029 A 
ATOM     45  N   UNL A   1      38.956  32.567  33.534  1.00  0.00    -0.354 N 
ATOM     46  C   UNL A   1      39.608  29.742  30.348  1.00  0.00     0.074 A 
ATOM     47  C   UNL A   1      38.658  29.932  29.273  1.00  0.00     0.031 C 
ATOM     48  C   UNL A   1      37.889  34.196  34.635  1.00  0.00     0.029 A 
ATOM     49  C   UNL A   1      38.954  33.205  34.753  1.00  0.00     0.049 A 
ATOM     50  H   UNL A   1      39.599  31.860  33.298  1.00  0.00     0.167 HD
ATOM     51  C   UNL A   1      40.567  28.783  30.358  1.00  0.00     0.034 A 
ATOM     52  C   UNL A   1      39.712  33.009  35.851  1.00  0.00     0.034 A 
ATOM     53  C   UNL A   1      41.536  28.619  31.408  1.00  0.00     0.049 A 
ATOM     54  C   UNL A   1      40.788  31.958  35.822  1.00  0.00     0.074 A 
ATOM     55  C   UNL A   1      42.603  27.738  31.463  1.00  0.00     0.029 A 
ATOM     56  N   UNL A   1      41.554  29.338  32.593  1.00  0.00    -0.354 N 
ATOM     57  N   UNL A   1      41.124  31.148  34.848  1.00  0.00    -0.248 NA
ATOM     58  C   UNL A   1      41.612  31.817  37.031  1.00  0.00     0.031 C 
ATOM     59  C   UNL A   1      43.247  27.904  32.694  1.00  0.00     0.029 A 
ATOM     60  C   UNL A   1      42.601  28.911  33.391  1.00  0.00     0.049 A 
ATOM     61  H   UNL A   1      40.914  30.048  32.830  1.00  0.00     0.167 HD
ATOM     62  C   UNL A   1      42.215  30.424  35.314  1.00  0.00     0.074 A 
ATOM     63  C   UNL A   1      42.501  30.911  36.647  1.00  0.00     0.031 C 
ATOM     64  C   UNL A   1      42.907  29.433  34.699  1.00  0.00     0.034 A 
BRANCH  51  65
ATOM     65  C   UNL A   1      40.654  27.863  29.166  1.00  0.00     0.023 A 
ATOM     66  C   UNL A   1      39.780  26.760  29.073  1.00  0.00     0.012 A 
ATOM     67  C   UNL A   1      41.543  28.129  28.106  1.00  0.00     0.148 A 
ATOM     68  C   UNL A   1      39.810  25.920  27.961  1.00  0.00     0.002 A 
ATOM     69  C   UNL A   1      41.536  27.313  26.980  1.00  0.00     0.091 A 
ATOM     70  F   UNL A   1      42.379  29.172  28.218  1.00  0.00    -0.205 F 
ATOM     71  C   UNL A   1      40.680  26.202  26.911  1.00  0.00     0.022 A 
BRANCH  69  72
ATOM     72  S   UNL A   1      42.560  27.635  25.539  1.00  0.00     0.127 S 
ATOM     73  O   UNL A   1      42.306  26.447  24.725  1.00  0.00    -0.237 OA
ATOM     74  O   UNL A   1      41.974  28.869  25.015  1.00  0.00    -0.237 OA
ATOM     75  O   UNL A   1      43.923  27.771  26.036  1.00  0.00    -0.744 OA
ENDBRANCH  69  72
ENDBRANCH  51  65
BRANCH  52  76
ATOM     76  C   UNL A   1      39.511  33.864  37.055  1.00  0.00     0.023 A 
ATOM     77  C   UNL A   1      39.953  35.201  37.037  1.00  0.00     0.012 A 
ATOM     78  C   UNL A   1      38.865  33.371  38.206  1.00  0.00     0.148 A 
ATOM     79  C   UNL A   1      39.787  36.021  38.154  1.00  0.00     0.002 A 
ATOM     80  C   UNL A   1      38.647  34.211  39.292  1.00  0.00     0.091 A 
ATOM     81  F   UNL A   1      38.463  32.092  38.210  1.00  0.00    -0.205 F 
ATOM     82  C   UNL A   1      39.125  35.530  39.277  1.00  0.00     0.022 A 
BRANCH  80  83
ATOM     83  S   UNL A   1      37.679  33.704  40.717  1.00  0.00     0.127 S 
ATOM     84  O   UNL A   1      36.507  33.104  40.086  1.00  0.00    -0.237 OA
ATOM     85  O   UNL A   1      38.580  32.756  41.373  1.00  0.00    -0.237 OA
ATOM     86  O   UNL A   1      37.437  34.921  41.480  1.00  0.00    -0.744 OA
ENDBRANCH  80  83
ENDBRANCH  52  76
BRANCH  64  87
ATOM     87  C   UNL A   1      44.064  28.821  35.447  1.00  0.00     0.023 A 
ATOM     88  C   UNL A   1      45.359  29.352  35.289  1.00  0.00     0.012 A 
ATOM     89  C   UNL A   1      43.857  27.763  36.355  1.00  0.00     0.148 A 
ATOM     90  C   UNL A   1      46.437  28.817  35.995  1.00  0.00     0.002 A 
ATOM     91  C   UNL A   1      44.926  27.269  37.093  1.00  0.00     0.091 A 
ATOM     92  F   UNL A   1      42.620  27.260  36.478  1.00  0.00    -0.205 F 
ATOM     93  C   UNL A   1      46.218  27.785  36.904  1.00  0.00     0.022 A 
BRANCH  91  94
ATOM     94  S   UNL A   1      44.725  26.006  38.355  1.00  0.00     0.127 S 
ATOM     95  O   UNL A   1      43.787  26.649  39.273  1.00  0.00    -0.237 OA
ATOM     96  O   UNL A   1      44.164  24.892  37.591  1.00  0.00    -0.237 OA
ATOM     97  O   UNL A   1      46.056  25.761  38.892  1.00  0.00    -0.744 OA
ENDBRANCH  91  94
ENDBRANCH  64  87
ENDBRANCH  38  39
ENDBRANCH  30  33
ENDBRANCH  28  29
ENDBRANCH   1  28
TORSDOF 17
ENDMDL
