MODEL 1
REMARK VINA RESULT:     -12.7      0.000      0.000
REMARK SMILES O=C(NCCCNC(=O)[C@@H]1CC[C@@H](CNC(=O)N2CC[NH2+]CC2)O1)c1ccc(-c2c3nc(c(-c4cccc(S(=O)(=O)[O-])c4F)c4ccc([nH]4)c(-c4cccc(S(=O)(=O)[O-])c4F)c4nc(c(-c5cccc(S(=O)(=O)[O-])c5F)c5ccc2[nH]5)C=C4)C=C3)cc1
REMARK SMILES IDX 4 1 3 2 1 3 2 4 25 6 26 7 87 8 27 9 86 10 28 11 29 12 30 13
REMARK SMILES IDX 80 14 31 15 85 16 79 17 81 18 32 19 84 20 78 21 77 22 33 24
REMARK SMILES IDX 65 25 45 26 64 27 46 28 49 29 63 30 82 31 47 32 48 33 62 35
REMARK SMILES IDX 83 36 50 37 34 38 35 39 43 40 36 41 38 42 44 43 37 44 39 45
REMARK SMILES IDX 40 46 41 47 42 48 66 49 67 50 75 51 68 52 70 53 76 54 69 55
REMARK SMILES IDX 71 56 72 57 73 58 74 59 51 60 52 61 60 62 53 63 55 64 61 65
REMARK SMILES IDX 54 66 56 67 57 68 58 69 59 70 5 71 6 72 7 73 8 74 9 76 10 77
REMARK SMILES IDX 11 78 24 79 12 80 13 81 14 82 15 83 16 84 17 86 18 87 19 88
REMARK SMILES IDX 23 89 20 90 22 91 21 92
REMARK H PARENT 3 5 81 23 49 34 7 75 15 85 21 93 21 94
REMARK Flexibility Score: inf
ROOT
ATOM      1  C   UNL A   1      32.585  29.704  27.203  1.00  0.00     0.118 C 
ENDROOT
BRANCH   1   2
ATOM      2  N   UNL A   1      32.651  31.157  27.135  1.00  0.00    -0.352 N 
ATOM      3  O   UNL A   1      33.413  33.235  27.524  1.00  0.00    -0.269 OA
ATOM      4  C   UNL A   1      33.634  32.025  27.550  1.00  0.00     0.251 C 
ATOM      5  H   UNL A   1      31.865  31.587  26.727  1.00  0.00     0.163 HD
BRANCH   4   6
ATOM      6  C   UNL A   1      34.928  31.516  28.054  1.00  0.00     0.039 A 
ATOM      7  C   UNL A   1      35.078  30.187  28.451  1.00  0.00     0.014 A 
ATOM      8  C   UNL A   1      36.022  32.386  28.119  1.00  0.00     0.014 A 
ATOM      9  C   UNL A   1      36.253  29.777  29.074  1.00  0.00     0.010 A 
ATOM     10  C   UNL A   1      37.233  31.947  28.663  1.00  0.00     0.010 A 
ATOM     11  C   UNL A   1      37.344  30.654  29.194  1.00  0.00    -0.014 A 
BRANCH  11  12
ATOM     12  C   UNL A   1      38.589  30.180  29.856  1.00  0.00     0.031 A 
ATOM     13  C   UNL A   1      38.945  30.617  31.253  1.00  0.00     0.074 A 
ATOM     14  C   UNL A   1      39.395  29.323  29.198  1.00  0.00     0.049 A 
ATOM     15  N   UNL A   1      39.945  30.230  32.005  1.00  0.00    -0.248 NA
ATOM     16  C   UNL A   1      38.080  31.624  31.889  1.00  0.00     0.031 C 
ATOM     17  C   UNL A   1      39.189  28.867  27.820  1.00  0.00     0.029 A 
ATOM     18  N   UNL A   1      40.536  28.674  29.594  1.00  0.00    -0.354 N 
ATOM     19  C   UNL A   1      39.856  30.971  33.177  1.00  0.00     0.074 A 
ATOM     20  C   UNL A   1      38.709  31.841  33.036  1.00  0.00     0.031 C 
ATOM     21  C   UNL A   1      40.147  27.983  27.503  1.00  0.00     0.029 A 
ATOM     22  C   UNL A   1      41.055  27.837  28.634  1.00  0.00     0.049 A 
ATOM     23  H   UNL A   1      40.945  28.797  30.482  1.00  0.00     0.167 HD
ATOM     24  C   UNL A   1      40.643  30.919  34.279  1.00  0.00     0.034 A 
ATOM     25  C   UNL A   1      42.137  27.036  28.662  1.00  0.00     0.034 A 
ATOM     26  C   UNL A   1      41.751  30.014  34.441  1.00  0.00     0.049 A 
ATOM     27  C   UNL A   1      42.956  26.955  29.919  1.00  0.00     0.074 A 
ATOM     28  C   UNL A   1      42.558  29.832  35.551  1.00  0.00     0.029 A 
ATOM     29  N   UNL A   1      42.210  29.141  33.467  1.00  0.00    -0.354 N 
ATOM     30  N   UNL A   1      42.763  27.555  31.068  1.00  0.00    -0.248 NA
ATOM     31  C   UNL A   1      44.123  26.062  29.894  1.00  0.00     0.031 C 
ATOM     32  C   UNL A   1      43.513  28.857  35.244  1.00  0.00     0.029 A 
ATOM     33  C   UNL A   1      43.293  28.422  33.947  1.00  0.00     0.049 A 
ATOM     34  H   UNL A   1      41.824  29.048  32.566  1.00  0.00     0.167 HD
ATOM     35  C   UNL A   1      43.764  27.090  31.913  1.00  0.00     0.074 A 
ATOM     36  C   UNL A   1      44.546  26.139  31.149  1.00  0.00     0.031 C 
ATOM     37  C   UNL A   1      44.025  27.435  33.197  1.00  0.00     0.034 A 
BRANCH  24  38
ATOM     38  C   UNL A   1      40.308  31.834  35.428  1.00  0.00     0.023 A 
ATOM     39  C   UNL A   1      41.049  33.020  35.610  1.00  0.00     0.012 A 
ATOM     40  C   UNL A   1      39.220  31.563  36.281  1.00  0.00     0.148 A 
ATOM     41  C   UNL A   1      40.730  33.907  36.637  1.00  0.00     0.002 A 
ATOM     42  C   UNL A   1      38.885  32.471  37.280  1.00  0.00     0.091 A 
ATOM     43  F   UNL A   1      38.541  30.420  36.110  1.00  0.00    -0.205 F 
ATOM     44  C   UNL A   1      39.643  33.638  37.465  1.00  0.00     0.022 A 
BRANCH  42  45
ATOM     45  S   UNL A   1      37.456  32.246  38.346  1.00  0.00     0.127 S 
ATOM     46  O   UNL A   1      37.915  32.861  39.590  1.00  0.00    -0.237 OA
ATOM     47  O   UNL A   1      36.418  33.001  37.641  1.00  0.00    -0.237 OA
ATOM     48  O   UNL A   1      37.224  30.809  38.400  1.00  0.00    -0.744 OA
ENDBRANCH  42  45
ENDBRANCH  24  38
BRANCH  25  49
ATOM     49  C   UNL A   1      42.454  26.186  27.481  1.00  0.00     0.023 A 
ATOM     50  C   UNL A   1      43.227  26.723  26.432  1.00  0.00     0.012 A 
ATOM     51  C   UNL A   1      42.039  24.843  27.409  1.00  0.00     0.148 A 
ATOM     52  C   UNL A   1      43.563  25.943  25.326  1.00  0.00     0.002 A 
ATOM     53  C   UNL A   1      42.425  24.055  26.332  1.00  0.00     0.091 A 
ATOM     54  F   UNL A   1      41.288  24.355  28.408  1.00  0.00    -0.205 F 
ATOM     55  C   UNL A   1      43.174  24.607  25.282  1.00  0.00     0.022 A 
BRANCH  53  56
ATOM     56  S   UNL A   1      42.087  22.292  26.271  1.00  0.00     0.127 S 
ATOM     57  O   UNL A   1      42.654  21.835  27.537  1.00  0.00    -0.237 OA
ATOM     58  O   UNL A   1      40.625  22.262  26.203  1.00  0.00    -0.237 OA
ATOM     59  O   UNL A   1      42.749  21.813  25.065  1.00  0.00    -0.744 OA
ENDBRANCH  53  56
ENDBRANCH  25  49
BRANCH  37  60
ATOM     60  C   UNL A   1      45.188  26.761  33.874  1.00  0.00     0.023 A 
ATOM     61  C   UNL A   1      46.479  27.315  33.756  1.00  0.00     0.012 A 
ATOM     62  C   UNL A   1      44.996  25.619  34.674  1.00  0.00     0.148 A 
ATOM     63  C   UNL A   1      47.565  26.723  34.399  1.00  0.00     0.002 A 
ATOM     64  C   UNL A   1      46.076  25.059  35.347  1.00  0.00     0.091 A 
ATOM     65  F   UNL A   1      43.766  25.091  34.755  1.00  0.00    -0.205 F 
ATOM     66  C   UNL A   1      47.363  25.603  35.202  1.00  0.00     0.022 A 
BRANCH  64  67
ATOM     67  S   UNL A   1      45.878  23.672  36.472  1.00  0.00     0.127 S 
ATOM     68  O   UNL A   1      45.361  22.636  35.581  1.00  0.00    -0.237 OA
ATOM     69  O   UNL A   1      47.247  23.446  36.940  1.00  0.00    -0.237 OA
ATOM     70  O   UNL A   1      44.962  24.134  37.506  1.00  0.00    -0.744 OA
ENDBRANCH  64  67
ENDBRANCH  37  60
ENDBRANCH  11  12
ENDBRANCH   4   6
ENDBRANCH   1   2
BRANCH   1  71
ATOM     71  C   UNL A   1      31.817  29.083  26.040  1.00  0.00     0.042 C 
BRANCH  71  72
ATOM     72  C   UNL A   1      32.356  29.457  24.665  1.00  0.00     0.117 C 
BRANCH  72  73
ATOM     73  N   UNL A   1      31.371  29.253  23.618  1.00  0.00    -0.354 N 
ATOM     74  C   UNL A   1      31.085  28.109  22.925  1.00  0.00     0.249 C 
ATOM     75  H   UNL A   1      30.838  30.044  23.374  1.00  0.00     0.163 HD
ATOM     76  O   UNL A   1      30.251  28.167  22.020  1.00  0.00    -0.272 OA
BRANCH  74  77
ATOM     77  C   UNL A   1      31.847  26.823  23.277  1.00  0.00     0.207 C 
ATOM     78  C   UNL A   1      32.613  26.245  22.095  1.00  0.00     0.045 C 
ATOM     79  O   UNL A   1      30.960  25.785  23.735  1.00  0.00    -0.363 OA
ATOM     80  C   UNL A   1      32.622  24.772  22.406  1.00  0.00     0.037 C 
ATOM     81  C   UNL A   1      31.242  24.576  23.011  1.00  0.00     0.138 C 
BRANCH  81  82
ATOM     82  C   UNL A   1      31.195  23.374  23.959  1.00  0.00     0.149 C 
BRANCH  82  83
ATOM     83  N   UNL A   1      30.628  23.721  25.256  1.00  0.00    -0.335 N 
ATOM     84  C   UNL A   1      31.094  23.461  26.500  1.00  0.00     0.317 C 
ATOM     85  H   UNL A   1      29.780  24.218  25.221  1.00  0.00     0.165 HD
ATOM     86  O   UNL A   1      30.270  23.313  27.403  1.00  0.00    -0.249 OA
ATOM     87  N   UNL A   1      32.434  23.321  26.710  1.00  0.00    -0.314 N 
ATOM     88  C   UNL A   1      32.901  22.548  27.858  1.00  0.00     0.182 C 
ATOM     89  C   UNL A   1      33.503  24.054  26.032  1.00  0.00     0.182 C 
ATOM     90  C   UNL A   1      34.039  21.600  27.426  1.00  0.00     0.282 C 
ATOM     91  C   UNL A   1      34.614  23.080  25.597  1.00  0.00     0.282 C 
ATOM     92  N   UNL A   1      35.149  22.285  26.724  1.00  0.00    -0.343 N 
ATOM     93  H   UNL A   1      35.805  21.590  26.368  1.00  0.00     0.346 HD
ATOM     94  H   UNL A   1      35.628  22.906  27.377  1.00  0.00     0.346 HD
ENDBRANCH  82  83
ENDBRANCH  81  82
ENDBRANCH  74  77
ENDBRANCH  72  73
ENDBRANCH  71  72
ENDBRANCH   1  71
TORSDOF 15
ENDMDL
MODEL 2
REMARK VINA RESULT:     -12.5      1.146      1.728
REMARK SMILES O=C(NCCCNC(=O)[C@@H]1CC[C@@H](CNC(=O)N2CC[NH2+]CC2)O1)c1ccc(-c2c3nc(c(-c4cccc(S(=O)(=O)[O-])c4F)c4ccc([nH]4)c(-c4cccc(S(=O)(=O)[O-])c4F)c4nc(c(-c5cccc(S(=O)(=O)[O-])c5F)c5ccc2[nH]5)C=C4)C=C3)cc1
REMARK SMILES IDX 4 1 3 2 1 3 2 4 25 6 26 7 87 8 27 9 86 10 28 11 29 12 30 13
REMARK SMILES IDX 80 14 31 15 85 16 79 17 81 18 32 19 84 20 78 21 77 22 33 24
REMARK SMILES IDX 65 25 45 26 64 27 46 28 49 29 63 30 82 31 47 32 48 33 62 35
REMARK SMILES IDX 83 36 50 37 34 38 35 39 43 40 36 41 38 42 44 43 37 44 39 45
REMARK SMILES IDX 40 46 41 47 42 48 66 49 67 50 75 51 68 52 70 53 76 54 69 55
REMARK SMILES IDX 71 56 72 57 73 58 74 59 51 60 52 61 60 62 53 63 55 64 61 65
REMARK SMILES IDX 54 66 56 67 57 68 58 69 59 70 5 71 6 72 7 73 8 74 9 76 10 77
REMARK SMILES IDX 11 78 24 79 12 80 13 81 14 82 15 83 16 84 17 86 18 87 19 88
REMARK SMILES IDX 23 89 20 90 22 91 21 92
REMARK H PARENT 3 5 81 23 49 34 7 75 15 85 21 93 21 94
REMARK Flexibility Score: inf
ROOT
ATOM      1  C   UNL A   1      33.200  29.863  25.957  1.00  0.00     0.118 C 
ENDROOT
BRANCH   1   2
ATOM      2  N   UNL A   1      32.959  31.179  26.532  1.00  0.00    -0.352 N 
ATOM      3  O   UNL A   1      33.193  32.924  27.927  1.00  0.00    -0.269 OA
ATOM      4  C   UNL A   1      33.665  31.880  27.482  1.00  0.00     0.251 C 
ATOM      5  H   UNL A   1      32.162  31.641  26.185  1.00  0.00     0.163 HD
BRANCH   4   6
ATOM      6  C   UNL A   1      34.958  31.370  27.991  1.00  0.00     0.039 A 
ATOM      7  C   UNL A   1      35.094  30.053  28.430  1.00  0.00     0.014 A 
ATOM      8  C   UNL A   1      36.063  32.228  28.016  1.00  0.00     0.014 A 
ATOM      9  C   UNL A   1      36.270  29.649  29.056  1.00  0.00     0.010 A 
ATOM     10  C   UNL A   1      37.274  31.791  28.562  1.00  0.00     0.010 A 
ATOM     11  C   UNL A   1      37.374  30.515  29.136  1.00  0.00    -0.014 A 
BRANCH  11  12
ATOM     12  C   UNL A   1      38.619  30.047  29.802  1.00  0.00     0.031 A 
ATOM     13  C   UNL A   1      38.982  30.507  31.189  1.00  0.00     0.074 A 
ATOM     14  C   UNL A   1      39.417  29.174  29.156  1.00  0.00     0.049 A 
ATOM     15  N   UNL A   1      39.983  30.128  31.944  1.00  0.00    -0.248 NA
ATOM     16  C   UNL A   1      38.125  31.530  31.810  1.00  0.00     0.031 C 
ATOM     17  C   UNL A   1      39.204  28.694  27.788  1.00  0.00     0.029 A 
ATOM     18  N   UNL A   1      40.557  28.527  29.560  1.00  0.00    -0.354 N 
ATOM     19  C   UNL A   1      39.902  30.891  33.103  1.00  0.00     0.074 A 
ATOM     20  C   UNL A   1      38.759  31.764  32.951  1.00  0.00     0.031 C 
ATOM     21  C   UNL A   1      40.157  27.800  27.483  1.00  0.00     0.029 A 
ATOM     22  C   UNL A   1      41.068  27.670  28.613  1.00  0.00     0.049 A 
ATOM     23  H   UNL A   1      40.970  28.663  30.443  1.00  0.00     0.167 HD
ATOM     24  C   UNL A   1      40.693  30.855  34.203  1.00  0.00     0.034 A 
ATOM     25  C   UNL A   1      42.147  26.864  28.651  1.00  0.00     0.034 A 
ATOM     26  C   UNL A   1      41.797  29.948  34.377  1.00  0.00     0.049 A 
ATOM     27  C   UNL A   1      42.970  26.802  29.906  1.00  0.00     0.074 A 
ATOM     28  C   UNL A   1      42.608  29.782  35.487  1.00  0.00     0.029 A 
ATOM     29  N   UNL A   1      42.249  29.055  33.417  1.00  0.00    -0.354 N 
ATOM     30  N   UNL A   1      42.784  27.423  31.045  1.00  0.00    -0.248 NA
ATOM     31  C   UNL A   1      44.132  25.903  29.893  1.00  0.00     0.031 C 
ATOM     32  C   UNL A   1      43.557  28.796  35.193  1.00  0.00     0.029 A 
ATOM     33  C   UNL A   1      43.329  28.339  33.906  1.00  0.00     0.049 A 
ATOM     34  H   UNL A   1      41.859  28.947  32.519  1.00  0.00     0.167 HD
ATOM     35  C   UNL A   1      43.786  26.969  31.894  1.00  0.00     0.074 A 
ATOM     36  C   UNL A   1      44.561  26.000  31.144  1.00  0.00     0.031 C 
ATOM     37  C   UNL A   1      44.054  27.336  33.170  1.00  0.00     0.034 A 
BRANCH  24  38
ATOM     38  C   UNL A   1      40.367  31.793  35.336  1.00  0.00     0.023 A 
ATOM     39  C   UNL A   1      41.128  32.968  35.506  1.00  0.00     0.012 A 
ATOM     40  C   UNL A   1      39.270  31.553  36.186  1.00  0.00     0.148 A 
ATOM     41  C   UNL A   1      40.818  33.875  36.518  1.00  0.00     0.002 A 
ATOM     42  C   UNL A   1      38.944  32.481  37.169  1.00  0.00     0.091 A 
ATOM     43  F   UNL A   1      38.571  30.420  36.026  1.00  0.00    -0.205 F 
ATOM     44  C   UNL A   1      39.722  33.637  37.343  1.00  0.00     0.022 A 
BRANCH  42  45
ATOM     45  S   UNL A   1      37.504  32.296  38.229  1.00  0.00     0.127 S 
ATOM     46  O   UNL A   1      37.936  32.996  39.438  1.00  0.00    -0.237 OA
ATOM     47  O   UNL A   1      36.464  32.986  37.465  1.00  0.00    -0.237 OA
ATOM     48  O   UNL A   1      37.297  30.862  38.370  1.00  0.00    -0.744 OA
ENDBRANCH  42  45
ENDBRANCH  24  38
BRANCH  25  49
ATOM     49  C   UNL A   1      42.455  25.991  27.484  1.00  0.00     0.023 A 
ATOM     50  C   UNL A   1      43.255  26.494  26.439  1.00  0.00     0.012 A 
ATOM     51  C   UNL A   1      42.004  24.659  27.423  1.00  0.00     0.148 A 
ATOM     52  C   UNL A   1      43.584  25.692  25.347  1.00  0.00     0.002 A 
ATOM     53  C   UNL A   1      42.381  23.848  26.360  1.00  0.00     0.091 A 
ATOM     54  F   UNL A   1      41.226  24.205  28.417  1.00  0.00    -0.205 F 
ATOM     55  C   UNL A   1      43.158  24.366  25.313  1.00  0.00     0.022 A 
BRANCH  53  56
ATOM     56  S   UNL A   1      41.995  22.095  26.315  1.00  0.00     0.127 S 
ATOM     57  O   UNL A   1      40.548  22.112  26.115  1.00  0.00    -0.237 OA
ATOM     58  O   UNL A   1      42.772  21.638  25.162  1.00  0.00    -0.237 OA
ATOM     59  O   UNL A   1      42.457  21.565  27.591  1.00  0.00    -0.744 OA
ENDBRANCH  53  56
ENDBRANCH  25  49
BRANCH  37  60
ATOM     60  C   UNL A   1      45.217  26.668  33.855  1.00  0.00     0.023 A 
ATOM     61  C   UNL A   1      46.493  27.262  33.796  1.00  0.00     0.012 A 
ATOM     62  C   UNL A   1      45.035  25.491  34.605  1.00  0.00     0.148 A 
ATOM     63  C   UNL A   1      47.578  26.675  34.447  1.00  0.00     0.002 A 
ATOM     64  C   UNL A   1      46.111  24.935  35.288  1.00  0.00     0.091 A 
ATOM     65  F   UNL A   1      43.818  24.927  34.631  1.00  0.00    -0.205 F 
ATOM     66  C   UNL A   1      47.385  25.520  35.201  1.00  0.00     0.022 A 
BRANCH  64  67
ATOM     67  S   UNL A   1      45.921  23.501  36.353  1.00  0.00     0.127 S 
ATOM     68  O   UNL A   1      47.312  23.162  36.649  1.00  0.00    -0.237 OA
ATOM     69  O   UNL A   1      45.173  24.046  37.488  1.00  0.00    -0.237 OA
ATOM     70  O   UNL A   1      45.184  22.523  35.566  1.00  0.00    -0.744 OA
ENDBRANCH  64  67
ENDBRANCH  37  60
ENDBRANCH  11  12
ENDBRANCH   4   6
ENDBRANCH   1   2
BRANCH   1  71
ATOM     71  C   UNL A   1      31.992  28.935  26.055  1.00  0.00     0.042 C 
BRANCH  71  72
ATOM     72  C   UNL A   1      32.265  27.630  26.794  1.00  0.00     0.117 C 
BRANCH  72  73
ATOM     73  N   UNL A   1      31.058  26.845  26.981  1.00  0.00    -0.354 N 
ATOM     74  C   UNL A   1      30.608  25.782  26.248  1.00  0.00     0.249 C 
ATOM     75  H   UNL A   1      30.488  27.113  27.737  1.00  0.00     0.163 HD
ATOM     76  O   UNL A   1      29.514  25.295  26.536  1.00  0.00    -0.272 OA
BRANCH  74  77
ATOM     77  C   UNL A   1      31.464  25.278  25.076  1.00  0.00     0.207 C 
ATOM     78  C   UNL A   1      31.042  25.866  23.737  1.00  0.00     0.045 C 
ATOM     79  O   UNL A   1      31.388  23.846  24.936  1.00  0.00    -0.363 OA
ATOM     80  C   UNL A   1      31.428  24.778  22.771  1.00  0.00     0.037 C 
ATOM     81  C   UNL A   1      31.095  23.527  23.565  1.00  0.00     0.138 C 
BRANCH  81  82
ATOM     82  C   UNL A   1      31.927  22.322  23.119  1.00  0.00     0.149 C 
BRANCH  82  83
ATOM     83  N   UNL A   1      33.237  22.716  22.616  1.00  0.00    -0.335 N 
ATOM     84  C   UNL A   1      34.388  22.946  23.290  1.00  0.00     0.317 C 
ATOM     85  H   UNL A   1      33.292  22.833  21.640  1.00  0.00     0.165 HD
ATOM     86  O   UNL A   1      35.172  23.774  22.823  1.00  0.00    -0.249 OA
ATOM     87  N   UNL A   1      34.626  22.308  24.471  1.00  0.00    -0.314 N 
ATOM     88  C   UNL A   1      35.546  22.906  25.435  1.00  0.00     0.182 C 
ATOM     89  C   UNL A   1      34.230  20.943  24.818  1.00  0.00     0.182 C 
ATOM     90  C   UNL A   1      34.937  22.846  26.851  1.00  0.00     0.282 C 
ATOM     91  C   UNL A   1      33.609  20.918  26.228  1.00  0.00     0.282 C 
ATOM     92  N   UNL A   1      34.508  21.487  27.256  1.00  0.00    -0.343 N 
ATOM     93  H   UNL A   1      34.013  21.540  28.147  1.00  0.00     0.346 HD
ATOM     94  H   UNL A   1      35.329  20.890  27.355  1.00  0.00     0.346 HD
ENDBRANCH  82  83
ENDBRANCH  81  82
ENDBRANCH  74  77
ENDBRANCH  72  73
ENDBRANCH  71  72
ENDBRANCH   1  71
TORSDOF 15
ENDMDL
MODEL 3
REMARK VINA RESULT:     -12.5      1.259      1.604
REMARK SMILES O=C(NCCCNC(=O)[C@@H]1CC[C@@H](CNC(=O)N2CC[NH2+]CC2)O1)c1ccc(-c2c3nc(c(-c4cccc(S(=O)(=O)[O-])c4F)c4ccc([nH]4)c(-c4cccc(S(=O)(=O)[O-])c4F)c4nc(c(-c5cccc(S(=O)(=O)[O-])c5F)c5ccc2[nH]5)C=C4)C=C3)cc1
REMARK SMILES IDX 4 1 3 2 1 3 2 4 25 6 26 7 87 8 27 9 86 10 28 11 29 12 30 13
REMARK SMILES IDX 80 14 31 15 85 16 79 17 81 18 32 19 84 20 78 21 77 22 33 24
REMARK SMILES IDX 65 25 45 26 64 27 46 28 49 29 63 30 82 31 47 32 48 33 62 35
REMARK SMILES IDX 83 36 50 37 34 38 35 39 43 40 36 41 38 42 44 43 37 44 39 45
REMARK SMILES IDX 40 46 41 47 42 48 66 49 67 50 75 51 68 52 70 53 76 54 69 55
REMARK SMILES IDX 71 56 72 57 73 58 74 59 51 60 52 61 60 62 53 63 55 64 61 65
REMARK SMILES IDX 54 66 56 67 57 68 58 69 59 70 5 71 6 72 7 73 8 74 9 76 10 77
REMARK SMILES IDX 11 78 24 79 12 80 13 81 14 82 15 83 16 84 17 86 18 87 19 88
REMARK SMILES IDX 23 89 20 90 22 91 21 92
REMARK H PARENT 3 5 81 23 49 34 7 75 15 85 21 93 21 94
REMARK Flexibility Score: inf
ROOT
ATOM      1  C   UNL A   1      32.125  29.386  27.126  1.00  0.00     0.118 C 
ENDROOT
BRANCH   1   2
ATOM      2  N   UNL A   1      32.138  30.825  26.904  1.00  0.00    -0.352 N 
ATOM      3  O   UNL A   1      32.819  32.959  27.073  1.00  0.00    -0.269 OA
ATOM      4  C   UNL A   1      33.084  31.768  27.227  1.00  0.00     0.251 C 
ATOM      5  H   UNL A   1      31.339  31.179  26.450  1.00  0.00     0.163 HD
BRANCH   4   6
ATOM      6  C   UNL A   1      34.394  31.364  27.786  1.00  0.00     0.039 A 
ATOM      7  C   UNL A   1      34.665  30.033  28.103  1.00  0.00     0.014 A 
ATOM      8  C   UNL A   1      35.377  32.339  27.985  1.00  0.00     0.014 A 
ATOM      9  C   UNL A   1      35.838  29.707  28.779  1.00  0.00     0.010 A 
ATOM     10  C   UNL A   1      36.594  31.993  28.582  1.00  0.00     0.010 A 
ATOM     11  C   UNL A   1      36.815  30.684  29.033  1.00  0.00    -0.014 A 
BRANCH  11  12
ATOM     12  C   UNL A   1      38.061  30.298  29.748  1.00  0.00     0.031 A 
ATOM     13  C   UNL A   1      38.321  30.749  31.162  1.00  0.00     0.074 A 
ATOM     14  C   UNL A   1      38.956  29.509  29.122  1.00  0.00     0.049 A 
ATOM     15  N   UNL A   1      39.312  30.430  31.956  1.00  0.00    -0.248 NA
ATOM     16  C   UNL A   1      37.356  31.683  31.763  1.00  0.00     0.031 C 
ATOM     17  C   UNL A   1      38.847  29.050  27.735  1.00  0.00     0.029 A 
ATOM     18  N   UNL A   1      40.124  28.943  29.566  1.00  0.00    -0.354 N 
ATOM     19  C   UNL A   1      39.116  31.153  33.127  1.00  0.00     0.074 A 
ATOM     20  C   UNL A   1      37.915  31.936  32.939  1.00  0.00     0.031 C 
ATOM     21  C   UNL A   1      39.881  28.243  27.456  1.00  0.00     0.029 A 
ATOM     22  C   UNL A   1      40.746  28.155  28.626  1.00  0.00     0.049 A 
ATOM     23  H   UNL A   1      40.483  29.088  30.472  1.00  0.00     0.167 HD
ATOM     24  C   UNL A   1      39.855  31.150  34.262  1.00  0.00     0.034 A 
ATOM     25  C   UNL A   1      41.883  27.436  28.699  1.00  0.00     0.034 A 
ATOM     26  C   UNL A   1      41.019  30.328  34.469  1.00  0.00     0.049 A 
ATOM     27  C   UNL A   1      42.649  27.406  29.991  1.00  0.00     0.074 A 
ATOM     28  C   UNL A   1      41.787  30.198  35.614  1.00  0.00     0.029 A 
ATOM     29  N   UNL A   1      41.585  29.500  33.513  1.00  0.00    -0.354 N 
ATOM     30  N   UNL A   1      42.360  27.980  31.133  1.00  0.00    -0.248 NA
ATOM     31  C   UNL A   1      43.879  26.602  30.013  1.00  0.00     0.031 C 
ATOM     32  C   UNL A   1      42.825  29.298  35.345  1.00  0.00     0.029 A 
ATOM     33  C   UNL A   1      42.696  28.860  34.037  1.00  0.00     0.049 A 
ATOM     34  H   UNL A   1      41.247  29.386  32.595  1.00  0.00     0.167 HD
ATOM     35  C   UNL A   1      43.355  27.584  32.019  1.00  0.00     0.074 A 
ATOM     36  C   UNL A   1      44.239  26.699  31.286  1.00  0.00     0.031 C 
ATOM     37  C   UNL A   1      43.532  27.936  33.315  1.00  0.00     0.034 A 
BRANCH  24  38
ATOM     38  C   UNL A   1      39.402  32.028  35.400  1.00  0.00     0.023 A 
ATOM     39  C   UNL A   1      38.542  31.499  36.385  1.00  0.00     0.012 A 
ATOM     40  C   UNL A   1      39.880  33.346  35.537  1.00  0.00     0.148 A 
ATOM     41  C   UNL A   1      38.144  32.276  37.472  1.00  0.00     0.002 A 
ATOM     42  C   UNL A   1      39.509  34.102  36.644  1.00  0.00     0.091 A 
ATOM     43  F   UNL A   1      40.677  33.841  34.580  1.00  0.00    -0.205 F 
ATOM     44  C   UNL A   1      38.635  33.572  37.607  1.00  0.00     0.022 A 
BRANCH  42  45
ATOM     45  S   UNL A   1      40.150  35.754  36.941  1.00  0.00     0.127 S 
ATOM     46  O   UNL A   1      39.641  36.482  35.780  1.00  0.00    -0.237 OA
ATOM     47  O   UNL A   1      39.514  36.112  38.210  1.00  0.00    -0.237 OA
ATOM     48  O   UNL A   1      41.598  35.611  37.012  1.00  0.00    -0.744 OA
ENDBRANCH  42  45
ENDBRANCH  24  38
BRANCH  25  49
ATOM     49  C   UNL A   1      42.314  26.622  27.528  1.00  0.00     0.023 A 
ATOM     50  C   UNL A   1      43.139  27.208  26.548  1.00  0.00     0.012 A 
ATOM     51  C   UNL A   1      41.956  25.267  27.403  1.00  0.00     0.148 A 
ATOM     52  C   UNL A   1      43.583  26.462  25.455  1.00  0.00     0.002 A 
ATOM     53  C   UNL A   1      42.446  24.515  26.343  1.00  0.00     0.091 A 
ATOM     54  F   UNL A   1      41.154  24.733  28.336  1.00  0.00    -0.205 F 
ATOM     55  C   UNL A   1      43.247  25.114  25.359  1.00  0.00     0.022 A 
BRANCH  53  56
ATOM     56  S   UNL A   1      42.179  22.743  26.227  1.00  0.00     0.127 S 
ATOM     57  O   UNL A   1      42.793  22.432  24.939  1.00  0.00    -0.237 OA
ATOM     58  O   UNL A   1      42.908  22.245  27.394  1.00  0.00    -0.237 OA
ATOM     59  O   UNL A   1      40.735  22.564  26.306  1.00  0.00    -0.744 OA
ENDBRANCH  53  56
ENDBRANCH  25  49
BRANCH  37  60
ATOM     60  C   UNL A   1      44.711  27.345  34.040  1.00  0.00     0.023 A 
ATOM     61  C   UNL A   1      45.952  28.012  34.011  1.00  0.00     0.012 A 
ATOM     62  C   UNL A   1      44.576  26.166  34.798  1.00  0.00     0.148 A 
ATOM     63  C   UNL A   1      47.050  27.496  34.700  1.00  0.00     0.002 A 
ATOM     64  C   UNL A   1      45.663  25.681  35.518  1.00  0.00     0.091 A 
ATOM     65  F   UNL A   1      43.395  25.532  34.796  1.00  0.00    -0.205 F 
ATOM     66  C   UNL A   1      46.903  26.338  35.462  1.00  0.00     0.022 A 
BRANCH  64  67
ATOM     67  S   UNL A   1      45.526  24.249  36.593  1.00  0.00     0.127 S 
ATOM     68  O   UNL A   1      44.525  24.695  37.560  1.00  0.00    -0.237 OA
ATOM     69  O   UNL A   1      45.064  23.206  35.675  1.00  0.00    -0.237 OA
ATOM     70  O   UNL A   1      46.865  24.027  37.123  1.00  0.00    -0.744 OA
ENDBRANCH  64  67
ENDBRANCH  37  60
ENDBRANCH  11  12
ENDBRANCH   4   6
ENDBRANCH   1   2
BRANCH   1  71
ATOM     71  C   UNL A   1      32.066  28.579  25.831  1.00  0.00     0.042 C 
BRANCH  71  72
ATOM     72  C   UNL A   1      32.371  29.389  24.577  1.00  0.00     0.117 C 
BRANCH  72  73
ATOM     73  N   UNL A   1      31.390  29.166  23.530  1.00  0.00    -0.354 N 
ATOM     74  C   UNL A   1      31.107  28.010  22.857  1.00  0.00     0.249 C 
ATOM     75  H   UNL A   1      30.857  29.951  23.271  1.00  0.00     0.163 HD
ATOM     76  O   UNL A   1      30.276  28.050  21.949  1.00  0.00    -0.272 OA
BRANCH  74  77
ATOM     77  C   UNL A   1      31.870  26.731  23.234  1.00  0.00     0.207 C 
ATOM     78  C   UNL A   1      32.665  26.150  22.073  1.00  0.00     0.045 C 
ATOM     79  O   UNL A   1      30.979  25.689  23.680  1.00  0.00    -0.363 OA
ATOM     80  C   UNL A   1      32.677  24.680  22.394  1.00  0.00     0.037 C 
ATOM     81  C   UNL A   1      31.286  24.478  22.970  1.00  0.00     0.138 C 
BRANCH  81  82
ATOM     82  C   UNL A   1      31.225  23.282  23.924  1.00  0.00     0.149 C 
BRANCH  82  83
ATOM     83  N   UNL A   1      30.660  23.641  25.219  1.00  0.00    -0.335 N 
ATOM     84  C   UNL A   1      31.126  23.393  26.465  1.00  0.00     0.317 C 
ATOM     85  H   UNL A   1      29.812  24.139  25.180  1.00  0.00     0.165 HD
ATOM     86  O   UNL A   1      30.303  23.254  27.370  1.00  0.00    -0.249 OA
ATOM     87  N   UNL A   1      32.467  23.253  26.675  1.00  0.00    -0.314 N 
ATOM     88  C   UNL A   1      32.933  22.490  27.829  1.00  0.00     0.182 C 
ATOM     89  C   UNL A   1      33.535  23.979  25.990  1.00  0.00     0.182 C 
ATOM     90  C   UNL A   1      34.070  21.537  27.406  1.00  0.00     0.282 C 
ATOM     91  C   UNL A   1      34.645  23.000  25.562  1.00  0.00     0.282 C 
ATOM     92  N   UNL A   1      35.180  22.215  26.697  1.00  0.00    -0.343 N 
ATOM     93  H   UNL A   1      35.835  21.515  26.346  1.00  0.00     0.346 HD
ATOM     94  H   UNL A   1      35.661  22.841  27.343  1.00  0.00     0.346 HD
ENDBRANCH  82  83
ENDBRANCH  81  82
ENDBRANCH  74  77
ENDBRANCH  72  73
ENDBRANCH  71  72
ENDBRANCH   1  71
TORSDOF 15
ENDMDL
