MODEL 1
REMARK VINA RESULT:     -11.8      0.000      0.000
REMARK SMILES O=C(NCCCNC(=O)c1cn(-c2cc(Cl)ncn2)cn1)c1ccc(-c2c3nc(c(-c4cccc(S(=O)(=O)[O-])c4F)c4ccc([nH]4)c(-c4cccc(S(=O)(=O)[O-])c4F)c4nc(c(-c5cccc(S(=O)(=O)[O-])c5F)c5ccc2[nH]5)C=C4)C=C3)cc1
REMARK SMILES IDX 4 1 3 2 1 3 2 4 22 6 23 7 84 8 24 9 83 10 25 11 26 12 27 13
REMARK SMILES IDX 77 14 28 15 82 16 76 17 78 18 29 19 81 20 75 21 74 22 30 24
REMARK SMILES IDX 62 25 42 26 61 27 43 28 46 29 60 30 79 31 44 32 45 33 59 35
REMARK SMILES IDX 80 36 47 37 31 38 32 39 40 40 33 41 35 42 41 43 34 44 36 45
REMARK SMILES IDX 37 46 38 47 39 48 63 49 64 50 72 51 65 52 67 53 73 54 66 55
REMARK SMILES IDX 68 56 69 57 70 58 71 59 48 60 49 61 57 62 50 63 52 64 58 65
REMARK SMILES IDX 51 66 53 67 54 68 55 69 56 70 5 71 6 72 7 73 8 74 9 76 10 77
REMARK SMILES IDX 11 78 21 79 12 80 20 81 13 82 14 83 19 84 15 85 18 86 16 87
REMARK SMILES IDX 17 88
REMARK H PARENT 3 5 78 23 46 34 7 75
REMARK Flexibility Score: inf
ROOT
ATOM      1  C   UNL A   1      41.609  20.577  26.198  1.00  0.00     0.118 C 
ENDROOT
BRANCH   1   2
ATOM      2  N   UNL A   1      40.173  20.750  26.116  1.00  0.00    -0.352 N 
ATOM      3  O   UNL A   1      38.178  21.627  25.815  1.00  0.00    -0.269 OA
ATOM      4  C   UNL A   1      39.326  21.819  26.226  1.00  0.00     0.251 C 
ATOM      5  H   UNL A   1      39.699  19.906  25.939  1.00  0.00     0.163 HD
BRANCH   4   6
ATOM      6  C   UNL A   1      39.654  23.116  26.878  1.00  0.00     0.039 A 
ATOM      7  C   UNL A   1      39.025  24.337  26.631  1.00  0.00     0.014 A 
ATOM      8  C   UNL A   1      40.753  23.088  27.759  1.00  0.00     0.014 A 
ATOM      9  C   UNL A   1      39.552  25.516  27.155  1.00  0.00     0.010 A 
ATOM     10  C   UNL A   1      41.276  24.258  28.292  1.00  0.00     0.010 A 
ATOM     11  C   UNL A   1      40.701  25.476  27.949  1.00  0.00    -0.014 A 
BRANCH  11  12
ATOM     12  C   UNL A   1      41.184  26.718  28.545  1.00  0.00     0.031 A 
ATOM     13  C   UNL A   1      42.510  27.158  28.028  1.00  0.00     0.074 A 
ATOM     14  C   UNL A   1      40.436  27.483  29.367  1.00  0.00     0.049 A 
ATOM     15  N   UNL A   1      43.619  27.292  28.681  1.00  0.00    -0.248 NA
ATOM     16  C   UNL A   1      42.653  27.327  26.574  1.00  0.00     0.031 C 
ATOM     17  C   UNL A   1      39.019  27.305  29.697  1.00  0.00     0.029 A 
ATOM     18  N   UNL A   1      40.742  28.672  29.966  1.00  0.00    -0.354 N 
ATOM     19  C   UNL A   1      44.541  27.790  27.758  1.00  0.00     0.074 A 
ATOM     20  C   UNL A   1      43.954  27.589  26.462  1.00  0.00     0.031 C 
ATOM     21  C   UNL A   1      38.535  28.459  30.210  1.00  0.00     0.029 A 
ATOM     22  C   UNL A   1      39.625  29.407  30.359  1.00  0.00     0.049 A 
ATOM     23  H   UNL A   1      41.667  28.980  30.107  1.00  0.00     0.167 HD
ATOM     24  C   UNL A   1      45.591  28.565  28.152  1.00  0.00     0.034 A 
ATOM     25  C   UNL A   1      39.588  30.722  30.693  1.00  0.00     0.034 A 
ATOM     26  C   UNL A   1      45.832  28.425  29.567  1.00  0.00     0.049 A 
ATOM     27  C   UNL A   1      40.967  31.137  31.029  1.00  0.00     0.074 A 
ATOM     28  C   UNL A   1      46.142  27.386  30.420  1.00  0.00     0.029 A 
ATOM     29  N   UNL A   1      45.408  29.457  30.369  1.00  0.00    -0.354 N 
ATOM     30  N   UNL A   1      41.614  30.708  32.076  1.00  0.00    -0.248 NA
ATOM     31  C   UNL A   1      41.784  31.706  29.973  1.00  0.00     0.031 C 
ATOM     32  C   UNL A   1      45.446  27.685  31.630  1.00  0.00     0.029 A 
ATOM     33  C   UNL A   1      44.805  28.913  31.465  1.00  0.00     0.049 A 
ATOM     34  H   UNL A   1      45.519  30.417  30.184  1.00  0.00     0.167 HD
ATOM     35  C   UNL A   1      42.908  30.516  31.618  1.00  0.00     0.074 A 
ATOM     36  C   UNL A   1      42.980  31.254  30.358  1.00  0.00     0.031 C 
ATOM     37  C   UNL A   1      43.698  29.539  32.151  1.00  0.00     0.034 A 
BRANCH  24  38
ATOM     38  C   UNL A   1      46.121  29.778  27.393  1.00  0.00     0.023 A 
ATOM     39  C   UNL A   1      47.518  30.002  27.462  1.00  0.00     0.012 A 
ATOM     40  C   UNL A   1      45.335  30.850  26.914  1.00  0.00     0.148 A 
ATOM     41  C   UNL A   1      48.081  31.258  27.208  1.00  0.00     0.002 A 
ATOM     42  C   UNL A   1      45.905  32.081  26.606  1.00  0.00     0.091 A 
ATOM     43  F   UNL A   1      44.009  30.742  26.846  1.00  0.00    -0.205 F 
ATOM     44  C   UNL A   1      47.270  32.304  26.793  1.00  0.00     0.022 A 
BRANCH  42  45
ATOM     45  S   UNL A   1      44.911  33.464  26.025  1.00  0.00     0.127 S 
ATOM     46  O   UNL A   1      45.930  34.495  25.847  1.00  0.00    -0.237 OA
ATOM     47  O   UNL A   1      44.348  32.926  24.788  1.00  0.00    -0.237 OA
ATOM     48  O   UNL A   1      43.928  33.714  27.071  1.00  0.00    -0.744 OA
ENDBRANCH  42  45
ENDBRANCH  24  38
BRANCH  25  49
ATOM     49  C   UNL A   1      38.516  31.726  30.487  1.00  0.00     0.023 A 
ATOM     50  C   UNL A   1      37.890  31.840  29.228  1.00  0.00     0.012 A 
ATOM     51  C   UNL A   1      37.906  32.364  31.590  1.00  0.00     0.148 A 
ATOM     52  C   UNL A   1      36.684  32.538  29.079  1.00  0.00     0.002 A 
ATOM     53  C   UNL A   1      36.713  33.064  31.436  1.00  0.00     0.091 A 
ATOM     54  F   UNL A   1      38.444  32.205  32.806  1.00  0.00    -0.205 F 
ATOM     55  C   UNL A   1      36.091  33.143  30.184  1.00  0.00     0.022 A 
BRANCH  53  56
ATOM     56  S   UNL A   1      35.877  33.847  32.822  1.00  0.00     0.127 S 
ATOM     57  O   UNL A   1      35.670  32.717  33.727  1.00  0.00    -0.237 OA
ATOM     58  O   UNL A   1      36.875  34.816  33.269  1.00  0.00    -0.237 OA
ATOM     59  O   UNL A   1      34.648  34.412  32.278  1.00  0.00    -0.744 OA
ENDBRANCH  53  56
ENDBRANCH  25  49
BRANCH  37  60
ATOM     60  C   UNL A   1      43.254  28.880  33.427  1.00  0.00     0.023 A 
ATOM     61  C   UNL A   1      42.348  27.798  33.450  1.00  0.00     0.012 A 
ATOM     62  C   UNL A   1      43.908  29.247  34.614  1.00  0.00     0.148 A 
ATOM     63  C   UNL A   1      42.087  27.113  34.639  1.00  0.00     0.002 A 
ATOM     64  C   UNL A   1      43.686  28.530  35.781  1.00  0.00     0.091 A 
ATOM     65  F   UNL A   1      44.766  30.277  34.570  1.00  0.00    -0.205 F 
ATOM     66  C   UNL A   1      42.769  27.468  35.801  1.00  0.00     0.022 A 
BRANCH  64  67
ATOM     67  S   UNL A   1      44.633  28.855  37.269  1.00  0.00     0.127 S 
ATOM     68  O   UNL A   1      44.037  30.102  37.744  1.00  0.00    -0.237 OA
ATOM     69  O   UNL A   1      44.337  27.681  38.090  1.00  0.00    -0.237 OA
ATOM     70  O   UNL A   1      46.025  28.946  36.846  1.00  0.00    -0.744 OA
ENDBRANCH  64  67
ENDBRANCH  37  60
ENDBRANCH  11  12
ENDBRANCH   4   6
ENDBRANCH   1   2
BRANCH   1  71
ATOM     71  C   UNL A   1      42.130  19.215  25.738  1.00  0.00     0.042 C 
BRANCH  71  72
ATOM     72  C   UNL A   1      43.589  18.921  26.089  1.00  0.00     0.118 C 
BRANCH  72  73
ATOM     73  N   UNL A   1      44.372  18.491  24.942  1.00  0.00    -0.351 N 
ATOM     74  C   UNL A   1      45.048  19.232  23.999  1.00  0.00     0.271 C 
ATOM     75  H   UNL A   1      44.429  17.516  24.822  1.00  0.00     0.163 HD
ATOM     76  O   UNL A   1      45.531  18.649  23.032  1.00  0.00    -0.267 OA
BRANCH  74  77
ATOM     77  C   UNL A   1      45.182  20.675  24.192  1.00  0.00     0.146 A 
ATOM     78  C   UNL A   1      46.061  21.325  25.042  1.00  0.00     0.128 A 
ATOM     79  N   UNL A   1      44.445  21.603  23.486  1.00  0.00    -0.231 NA
ATOM     80  N   UNL A   1      45.790  22.668  24.915  1.00  0.00    -0.290 N 
ATOM     81  C   UNL A   1      44.800  22.773  23.969  1.00  0.00     0.206 A 
BRANCH  80  82
ATOM     82  C   UNL A   1      46.375  23.752  25.615  1.00  0.00     0.142 A 
ATOM     83  C   UNL A   1      46.740  24.892  24.934  1.00  0.00     0.088 A 
ATOM     84  N   UNL A   1      46.546  23.609  26.949  1.00  0.00    -0.219 NA
ATOM     85  C   UNL A   1      47.284  25.879  25.718  1.00  0.00     0.134 A 
ATOM     86  C   UNL A   1      47.157  24.618  27.586  1.00  0.00     0.226 A 
ATOM     87  Cl  UNL A   1      47.676  27.409  25.045  1.00  0.00    -0.062 Cl
ATOM     88  N   UNL A   1      47.522  25.777  27.034  1.00  0.00    -0.224 NA
ENDBRANCH  80  82
ENDBRANCH  74  77
ENDBRANCH  72  73
ENDBRANCH  71  72
ENDBRANCH   1  71
TORSDOF 14
ENDMDL
MODEL 2
REMARK VINA RESULT:     -11.7      3.914     11.727
REMARK SMILES O=C(NCCCNC(=O)c1cn(-c2cc(Cl)ncn2)cn1)c1ccc(-c2c3nc(c(-c4cccc(S(=O)(=O)[O-])c4F)c4ccc([nH]4)c(-c4cccc(S(=O)(=O)[O-])c4F)c4nc(c(-c5cccc(S(=O)(=O)[O-])c5F)c5ccc2[nH]5)C=C4)C=C3)cc1
REMARK SMILES IDX 4 1 3 2 1 3 2 4 22 6 23 7 84 8 24 9 83 10 25 11 26 12 27 13
REMARK SMILES IDX 77 14 28 15 82 16 76 17 78 18 29 19 81 20 75 21 74 22 30 24
REMARK SMILES IDX 62 25 42 26 61 27 43 28 46 29 60 30 79 31 44 32 45 33 59 35
REMARK SMILES IDX 80 36 47 37 31 38 32 39 40 40 33 41 35 42 41 43 34 44 36 45
REMARK SMILES IDX 37 46 38 47 39 48 63 49 64 50 72 51 65 52 67 53 73 54 66 55
REMARK SMILES IDX 68 56 69 57 70 58 71 59 48 60 49 61 57 62 50 63 52 64 58 65
REMARK SMILES IDX 51 66 53 67 54 68 55 69 56 70 5 71 6 72 7 73 8 74 9 76 10 77
REMARK SMILES IDX 11 78 21 79 12 80 20 81 13 82 14 83 19 84 15 85 18 86 16 87
REMARK SMILES IDX 17 88
REMARK H PARENT 3 5 78 23 46 34 7 75
REMARK Flexibility Score: inf
ROOT
ATOM      1  C   UNL A   1      35.444  34.210  28.687  1.00  0.00     0.118 C 
ENDROOT
BRANCH   1   2
ATOM      2  N   UNL A   1      34.926  33.075  27.950  1.00  0.00    -0.352 N 
ATOM      3  O   UNL A   1      34.366  31.029  27.367  1.00  0.00    -0.269 OA
ATOM      4  C   UNL A   1      35.213  31.738  27.918  1.00  0.00     0.251 C 
ATOM      5  H   UNL A   1      34.201  33.323  27.332  1.00  0.00     0.163 HD
BRANCH   4   6
ATOM      6  C   UNL A   1      36.478  31.116  28.395  1.00  0.00     0.039 A 
ATOM      7  C   UNL A   1      37.511  31.774  29.066  1.00  0.00     0.014 A 
ATOM      8  C   UNL A   1      36.651  29.760  28.055  1.00  0.00     0.014 A 
ATOM      9  C   UNL A   1      38.727  31.130  29.285  1.00  0.00     0.010 A 
ATOM     10  C   UNL A   1      37.857  29.111  28.279  1.00  0.00     0.010 A 
ATOM     11  C   UNL A   1      38.910  29.815  28.852  1.00  0.00    -0.014 A 
BRANCH  11  12
ATOM     12  C   UNL A   1      40.168  29.143  29.163  1.00  0.00     0.031 A 
ATOM     13  C   UNL A   1      40.348  28.840  30.611  1.00  0.00     0.074 A 
ATOM     14  C   UNL A   1      41.020  28.695  28.217  1.00  0.00     0.049 A 
ATOM     15  N   UNL A   1      41.255  29.290  31.416  1.00  0.00    -0.248 NA
ATOM     16  C   UNL A   1      39.298  28.056  31.278  1.00  0.00     0.031 C 
ATOM     17  C   UNL A   1      40.800  28.667  26.768  1.00  0.00     0.029 A 
ATOM     18  N   UNL A   1      42.204  28.030  28.359  1.00  0.00    -0.354 N 
ATOM     19  C   UNL A   1      41.023  28.654  32.637  1.00  0.00     0.074 A 
ATOM     20  C   UNL A   1      39.706  28.086  32.545  1.00  0.00     0.031 C 
ATOM     21  C   UNL A   1      41.675  27.805  26.203  1.00  0.00     0.029 A 
ATOM     22  C   UNL A   1      42.590  27.322  27.223  1.00  0.00     0.049 A 
ATOM     23  H   UNL A   1      42.736  28.050  29.189  1.00  0.00     0.167 HD
ATOM     24  C   UNL A   1      42.036  28.422  33.520  1.00  0.00     0.034 A 
ATOM     25  C   UNL A   1      43.530  26.344  27.148  1.00  0.00     0.034 A 
ATOM     26  C   UNL A   1      43.176  29.254  33.226  1.00  0.00     0.049 A 
ATOM     27  C   UNL A   1      44.401  26.471  28.336  1.00  0.00     0.074 A 
ATOM     28  C   UNL A   1      43.417  30.610  33.143  1.00  0.00     0.029 A 
ATOM     29  N   UNL A   1      44.240  28.645  32.606  1.00  0.00    -0.354 N 
ATOM     30  N   UNL A   1      45.208  27.475  28.534  1.00  0.00    -0.248 NA
ATOM     31  C   UNL A   1      44.068  25.687  29.512  1.00  0.00     0.031 C 
ATOM     32  C   UNL A   1      44.356  30.753  32.078  1.00  0.00     0.029 A 
ATOM     33  C   UNL A   1      44.678  29.476  31.616  1.00  0.00     0.049 A 
ATOM     34  H   UNL A   1      44.617  27.765  32.833  1.00  0.00     0.167 HD
ATOM     35  C   UNL A   1      45.099  27.731  29.893  1.00  0.00     0.074 A 
ATOM     36  C   UNL A   1      44.481  26.534  30.459  1.00  0.00     0.031 C 
ATOM     37  C   UNL A   1      45.246  28.999  30.377  1.00  0.00     0.034 A 
BRANCH  24  38
ATOM     38  C   UNL A   1      42.196  27.159  34.360  1.00  0.00     0.023 A 
ATOM     39  C   UNL A   1      41.790  27.249  35.715  1.00  0.00     0.012 A 
ATOM     40  C   UNL A   1      42.989  26.041  34.015  1.00  0.00     0.148 A 
ATOM     41  C   UNL A   1      42.262  26.365  36.691  1.00  0.00     0.002 A 
ATOM     42  C   UNL A   1      43.408  25.129  34.978  1.00  0.00     0.091 A 
ATOM     43  F   UNL A   1      43.443  25.890  32.773  1.00  0.00    -0.205 F 
ATOM     44  C   UNL A   1      43.085  25.310  36.323  1.00  0.00     0.022 A 
BRANCH  42  45
ATOM     45  S   UNL A   1      44.444  23.719  34.557  1.00  0.00     0.127 S 
ATOM     46  O   UNL A   1      45.661  24.383  34.101  1.00  0.00    -0.237 OA
ATOM     47  O   UNL A   1      44.554  23.037  35.847  1.00  0.00    -0.237 OA
ATOM     48  O   UNL A   1      43.707  22.972  33.546  1.00  0.00    -0.744 OA
ENDBRANCH  42  45
ENDBRANCH  24  38
BRANCH  25  49
ATOM     49  C   UNL A   1      43.582  25.139  26.285  1.00  0.00     0.023 A 
ATOM     50  C   UNL A   1      44.637  24.979  25.362  1.00  0.00     0.012 A 
ATOM     51  C   UNL A   1      42.773  24.016  26.568  1.00  0.00     0.148 A 
ATOM     52  C   UNL A   1      44.895  23.738  24.765  1.00  0.00     0.002 A 
ATOM     53  C   UNL A   1      43.028  22.788  25.965  1.00  0.00     0.091 A 
ATOM     54  F   UNL A   1      41.816  24.129  27.497  1.00  0.00    -0.205 F 
ATOM     55  C   UNL A   1      44.096  22.641  25.072  1.00  0.00     0.022 A 
BRANCH  53  56
ATOM     56  S   UNL A   1      42.054  21.322  26.335  1.00  0.00     0.127 S 
ATOM     57  O   UNL A   1      40.709  21.749  25.953  1.00  0.00    -0.237 OA
ATOM     58  O   UNL A   1      42.657  20.327  25.451  1.00  0.00    -0.237 OA
ATOM     59  O   UNL A   1      42.223  21.082  27.763  1.00  0.00    -0.744 OA
ENDBRANCH  53  56
ENDBRANCH  25  49
BRANCH  37  60
ATOM     60  C   UNL A   1      45.815  30.049  29.463  1.00  0.00     0.023 A 
ATOM     61  C   UNL A   1      47.203  30.266  29.324  1.00  0.00     0.012 A 
ATOM     62  C   UNL A   1      44.931  30.708  28.594  1.00  0.00     0.148 A 
ATOM     63  C   UNL A   1      47.693  31.138  28.348  1.00  0.00     0.002 A 
ATOM     64  C   UNL A   1      45.425  31.531  27.593  1.00  0.00     0.091 A 
ATOM     65  F   UNL A   1      43.616  30.487  28.743  1.00  0.00    -0.205 F 
ATOM     66  C   UNL A   1      46.804  31.759  27.472  1.00  0.00     0.022 A 
BRANCH  64  67
ATOM     67  S   UNL A   1      44.341  32.247  26.356  1.00  0.00     0.127 S 
ATOM     68  O   UNL A   1      43.463  31.124  26.032  1.00  0.00    -0.237 OA
ATOM     69  O   UNL A   1      43.698  33.334  27.094  1.00  0.00    -0.237 OA
ATOM     70  O   UNL A   1      45.210  32.697  25.275  1.00  0.00    -0.744 OA
ENDBRANCH  64  67
ENDBRANCH  37  60
ENDBRANCH  11  12
ENDBRANCH   4   6
ENDBRANCH   1   2
BRANCH   1  71
ATOM     71  C   UNL A   1      34.536  35.440  28.716  1.00  0.00     0.042 C 
BRANCH  71  72
ATOM     72  C   UNL A   1      33.164  35.224  29.357  1.00  0.00     0.118 C 
BRANCH  72  73
ATOM     73  N   UNL A   1      32.789  36.295  30.266  1.00  0.00    -0.351 N 
ATOM     74  C   UNL A   1      32.932  36.392  31.632  1.00  0.00     0.271 C 
ATOM     75  H   UNL A   1      32.368  37.074  29.837  1.00  0.00     0.163 HD
ATOM     76  O   UNL A   1      32.411  37.343  32.209  1.00  0.00    -0.267 OA
BRANCH  74  77
ATOM     77  C   UNL A   1      33.711  35.377  32.339  1.00  0.00     0.146 A 
ATOM     78  C   UNL A   1      35.010  35.496  32.803  1.00  0.00     0.128 A 
ATOM     79  N   UNL A   1      33.206  34.140  32.681  1.00  0.00    -0.231 NA
ATOM     80  N   UNL A   1      35.329  34.276  33.357  1.00  0.00    -0.290 N 
ATOM     81  C   UNL A   1      34.204  33.497  33.245  1.00  0.00     0.206 A 
BRANCH  80  82
ATOM     82  C   UNL A   1      36.562  33.863  33.918  1.00  0.00     0.142 A 
ATOM     83  C   UNL A   1      37.714  34.563  33.634  1.00  0.00     0.088 A 
ATOM     84  N   UNL A   1      36.544  32.780  34.727  1.00  0.00    -0.219 NA
ATOM     85  C   UNL A   1      38.845  34.079  34.244  1.00  0.00     0.134 A 
ATOM     86  C   UNL A   1      37.728  32.366  35.200  1.00  0.00     0.226 A 
ATOM     87  Cl  UNL A   1      40.339  34.910  34.094  1.00  0.00    -0.062 Cl
ATOM     88  N   UNL A   1      38.897  32.984  35.016  1.00  0.00    -0.224 NA
ENDBRANCH  80  82
ENDBRANCH  74  77
ENDBRANCH  72  73
ENDBRANCH  71  72
ENDBRANCH   1  71
TORSDOF 14
ENDMDL
MODEL 3
REMARK VINA RESULT:     -11.7      2.269      2.766
REMARK SMILES O=C(NCCCNC(=O)c1cn(-c2cc(Cl)ncn2)cn1)c1ccc(-c2c3nc(c(-c4cccc(S(=O)(=O)[O-])c4F)c4ccc([nH]4)c(-c4cccc(S(=O)(=O)[O-])c4F)c4nc(c(-c5cccc(S(=O)(=O)[O-])c5F)c5ccc2[nH]5)C=C4)C=C3)cc1
REMARK SMILES IDX 4 1 3 2 1 3 2 4 22 6 23 7 84 8 24 9 83 10 25 11 26 12 27 13
REMARK SMILES IDX 77 14 28 15 82 16 76 17 78 18 29 19 81 20 75 21 74 22 30 24
REMARK SMILES IDX 62 25 42 26 61 27 43 28 46 29 60 30 79 31 44 32 45 33 59 35
REMARK SMILES IDX 80 36 47 37 31 38 32 39 40 40 33 41 35 42 41 43 34 44 36 45
REMARK SMILES IDX 37 46 38 47 39 48 63 49 64 50 72 51 65 52 67 53 73 54 66 55
REMARK SMILES IDX 68 56 69 57 70 58 71 59 48 60 49 61 57 62 50 63 52 64 58 65
REMARK SMILES IDX 51 66 53 67 54 68 55 69 56 70 5 71 6 72 7 73 8 74 9 76 10 77
REMARK SMILES IDX 11 78 21 79 12 80 20 81 13 82 14 83 19 84 15 85 18 86 16 87
REMARK SMILES IDX 17 88
REMARK H PARENT 3 5 78 23 46 34 7 75
REMARK Flexibility Score: inf
ROOT
ATOM      1  C   UNL A   1      41.934  21.099  27.507  1.00  0.00     0.118 C 
ENDROOT
BRANCH   1   2
ATOM      2  N   UNL A   1      40.583  21.418  27.091  1.00  0.00    -0.352 N 
ATOM      3  O   UNL A   1      38.835  22.458  26.253  1.00  0.00    -0.269 OA
ATOM      4  C   UNL A   1      39.892  22.579  26.879  1.00  0.00     0.251 C 
ATOM      5  H   UNL A   1      40.039  20.616  26.921  1.00  0.00     0.163 HD
BRANCH   4   6
ATOM      6  C   UNL A   1      40.264  23.915  27.419  1.00  0.00     0.039 A 
ATOM      7  C   UNL A   1      41.454  24.228  28.078  1.00  0.00     0.014 A 
ATOM      8  C   UNL A   1      39.272  24.910  27.309  1.00  0.00     0.014 A 
ATOM      9  C   UNL A   1      41.602  25.460  28.711  1.00  0.00     0.010 A 
ATOM     10  C   UNL A   1      39.418  26.142  27.931  1.00  0.00     0.010 A 
ATOM     11  C   UNL A   1      40.566  26.396  28.671  1.00  0.00    -0.014 A 
BRANCH  11  12
ATOM     12  C   UNL A   1      40.781  27.706  29.280  1.00  0.00     0.031 A 
ATOM     13  C   UNL A   1      41.786  28.544  28.568  1.00  0.00     0.074 A 
ATOM     14  C   UNL A   1      40.030  28.180  30.296  1.00  0.00     0.049 A 
ATOM     15  N   UNL A   1      42.919  28.984  29.012  1.00  0.00    -0.248 NA
ATOM     16  C   UNL A   1      41.570  28.797  27.136  1.00  0.00     0.031 C 
ATOM     17  C   UNL A   1      38.826  27.570  30.868  1.00  0.00     0.029 A 
ATOM     18  N   UNL A   1      40.097  29.384  30.937  1.00  0.00    -0.354 N 
ATOM     19  C   UNL A   1      43.446  29.769  27.983  1.00  0.00     0.074 A 
ATOM     20  C   UNL A   1      42.687  29.444  26.807  1.00  0.00     0.031 C 
ATOM     21  C   UNL A   1      38.146  28.505  31.569  1.00  0.00     0.029 A 
ATOM     22  C   UNL A   1      38.921  29.733  31.600  1.00  0.00     0.049 A 
ATOM     23  H   UNL A   1      40.901  29.953  30.931  1.00  0.00     0.167 HD
ATOM     24  C   UNL A   1      44.284  30.812  28.246  1.00  0.00     0.034 A 
ATOM     25  C   UNL A   1      38.575  30.963  32.057  1.00  0.00     0.034 A 
ATOM     26  C   UNL A   1      44.842  30.704  29.571  1.00  0.00     0.049 A 
ATOM     27  C   UNL A   1      39.813  31.764  32.167  1.00  0.00     0.074 A 
ATOM     28  C   UNL A   1      45.609  29.779  30.249  1.00  0.00     0.029 A 
ATOM     29  N   UNL A   1      44.313  31.531  30.531  1.00  0.00    -0.354 N 
ATOM     30  N   UNL A   1      40.758  31.516  33.029  1.00  0.00    -0.248 NA
ATOM     31  C   UNL A   1      40.193  32.590  31.035  1.00  0.00     0.031 C 
ATOM     32  C   UNL A   1      45.122  29.811  31.590  1.00  0.00     0.029 A 
ATOM     33  C   UNL A   1      44.134  30.793  31.665  1.00  0.00     0.049 A 
ATOM     34  H   UNL A   1      44.100  32.485  30.420  1.00  0.00     0.167 HD
ATOM     35  C   UNL A   1      41.929  31.740  32.320  1.00  0.00     0.074 A 
ATOM     36  C   UNL A   1      41.521  32.507  31.145  1.00  0.00     0.031 C 
ATOM     37  C   UNL A   1      43.060  31.031  32.601  1.00  0.00     0.034 A 
BRANCH  24  38
ATOM     38  C   UNL A   1      44.271  32.153  27.518  1.00  0.00     0.023 A 
ATOM     39  C   UNL A   1      45.266  32.341  26.527  1.00  0.00     0.012 A 
ATOM     40  C   UNL A   1      43.590  33.313  27.953  1.00  0.00     0.148 A 
ATOM     41  C   UNL A   1      45.657  33.615  26.101  1.00  0.00     0.002 A 
ATOM     42  C   UNL A   1      43.941  34.574  27.483  1.00  0.00     0.091 A 
ATOM     43  F   UNL A   1      42.661  33.237  28.905  1.00  0.00    -0.205 F 
ATOM     44  C   UNL A   1      45.002  34.735  26.592  1.00  0.00     0.022 A 
BRANCH  42  45
ATOM     45  S   UNL A   1      43.103  36.061  28.052  1.00  0.00     0.127 S 
ATOM     46  O   UNL A   1      41.757  35.851  27.527  1.00  0.00    -0.237 OA
ATOM     47  O   UNL A   1      43.230  35.937  29.503  1.00  0.00    -0.237 OA
ATOM     48  O   UNL A   1      43.844  37.178  27.480  1.00  0.00    -0.744 OA
ENDBRANCH  42  45
ENDBRANCH  24  38
BRANCH  25  49
ATOM     49  C   UNL A   1      37.239  31.602  32.152  1.00  0.00     0.023 A 
ATOM     50  C   UNL A   1      36.765  32.061  33.398  1.00  0.00     0.012 A 
ATOM     51  C   UNL A   1      36.560  32.025  30.987  1.00  0.00     0.148 A 
ATOM     52  C   UNL A   1      35.672  32.934  33.480  1.00  0.00     0.002 A 
ATOM     53  C   UNL A   1      35.470  32.886  31.074  1.00  0.00     0.091 A 
ATOM     54  F   UNL A   1      37.041  31.660  29.792  1.00  0.00    -0.205 F 
ATOM     55  C   UNL A   1      35.030  33.353  32.318  1.00  0.00     0.022 A 
BRANCH  53  56
ATOM     56  S   UNL A   1      34.609  33.488  29.615  1.00  0.00     0.127 S 
ATOM     57  O   UNL A   1      33.508  34.248  30.207  1.00  0.00    -0.237 OA
ATOM     58  O   UNL A   1      35.638  34.300  28.971  1.00  0.00    -0.237 OA
ATOM     59  O   UNL A   1      34.189  32.300  28.882  1.00  0.00    -0.744 OA
ENDBRANCH  53  56
ENDBRANCH  25  49
BRANCH  37  60
ATOM     60  C   UNL A   1      43.100  30.225  33.871  1.00  0.00     0.023 A 
ATOM     61  C   UNL A   1      43.453  30.786  35.117  1.00  0.00     0.012 A 
ATOM     62  C   UNL A   1      42.595  28.916  33.830  1.00  0.00     0.148 A 
ATOM     63  C   UNL A   1      43.322  30.044  36.294  1.00  0.00     0.002 A 
ATOM     64  C   UNL A   1      42.417  28.203  35.006  1.00  0.00     0.091 A 
ATOM     65  F   UNL A   1      42.265  28.403  32.635  1.00  0.00    -0.205 F 
ATOM     66  C   UNL A   1      42.789  28.758  36.240  1.00  0.00     0.022 A 
BRANCH  64  67
ATOM     67  S   UNL A   1      41.611  26.600  35.012  1.00  0.00     0.127 S 
ATOM     68  O   UNL A   1      41.265  26.437  36.422  1.00  0.00    -0.237 OA
ATOM     69  O   UNL A   1      40.470  26.821  34.122  1.00  0.00    -0.237 OA
ATOM     70  O   UNL A   1      42.593  25.656  34.492  1.00  0.00    -0.744 OA
ENDBRANCH  64  67
ENDBRANCH  37  60
ENDBRANCH  11  12
ENDBRANCH   4   6
ENDBRANCH   1   2
BRANCH   1  71
ATOM     71  C   UNL A   1      42.336  19.632  27.351  1.00  0.00     0.042 C 
BRANCH  71  72
ATOM     72  C   UNL A   1      42.566  19.166  25.913  1.00  0.00     0.118 C 
BRANCH  72  73
ATOM     73  N   UNL A   1      43.916  18.676  25.685  1.00  0.00    -0.351 N 
ATOM     74  C   UNL A   1      45.018  19.317  25.167  1.00  0.00     0.271 C 
ATOM     75  H   UNL A   1      44.065  17.738  25.942  1.00  0.00     0.163 HD
ATOM     76  O   UNL A   1      46.027  18.655  24.939  1.00  0.00    -0.267 OA
BRANCH  74  77
ATOM     77  C   UNL A   1      44.956  20.758  24.929  1.00  0.00     0.146 A 
ATOM     78  C   UNL A   1      45.322  21.765  25.806  1.00  0.00     0.128 A 
ATOM     79  N   UNL A   1      44.546  21.309  23.732  1.00  0.00    -0.231 NA
ATOM     80  N   UNL A   1      45.044  22.950  25.162  1.00  0.00    -0.290 N 
ATOM     81  C   UNL A   1      44.571  22.610  23.918  1.00  0.00     0.206 A 
BRANCH  80  82
ATOM     82  C   UNL A   1      45.185  24.271  25.655  1.00  0.00     0.142 A 
ATOM     83  C   UNL A   1      44.996  24.526  26.994  1.00  0.00     0.088 A 
ATOM     84  N   UNL A   1      45.509  25.234  24.763  1.00  0.00    -0.219 NA
ATOM     85  C   UNL A   1      45.172  25.839  27.358  1.00  0.00     0.134 A 
ATOM     86  C   UNL A   1      45.577  26.487  25.235  1.00  0.00     0.226 A 
ATOM     87  Cl  UNL A   1      45.096  26.302  29.009  1.00  0.00    -0.062 Cl
ATOM     88  N   UNL A   1      45.446  26.844  26.514  1.00  0.00    -0.224 NA
ENDBRANCH  80  82
ENDBRANCH  74  77
ENDBRANCH  72  73
ENDBRANCH  71  72
ENDBRANCH   1  71
TORSDOF 14
ENDMDL
