MODEL 1
REMARK VINA RESULT:     -12.6      0.000      0.000
REMARK SMILES Cc1nc(C(=O)N2C[C@@H]3CC[N@@H+](C)C[C@]3(C(=O)NCCCNC(=O)c3ccc(-c4c5nc(c(-c6cccc(S(=O)(=O)[O-])c6F)c6ccc([nH]6)c(-c6cccc(S(=O)(=O)[O-])c6F)c6nc(c(-c7cccc(S(=O)(=O)[O-])c7F)c7ccc4[nH]7)C=C6)C=C5)cc3)C2)cs1
REMARK SMILES IDX 20 1 19 2 18 3 16 4 17 5 15 7 7 8 8 9 88 10 9 11 10 12 14 13
REMARK SMILES IDX 11 14 12 15 13 16 5 18 6 19 4 20 1 21 2 22 3 23 90 24 89 25
REMARK SMILES IDX 21 26 22 27 23 28 24 30 25 31 26 32 87 33 27 34 86 35 28 36
REMARK SMILES IDX 29 37 30 38 80 39 31 40 85 41 79 42 81 43 32 44 84 45 78 46
REMARK SMILES IDX 77 47 33 49 65 50 45 51 64 52 46 53 49 54 63 55 82 56 47 57
REMARK SMILES IDX 48 58 62 60 83 61 50 62 34 63 35 64 43 65 36 66 38 67 44 68
REMARK SMILES IDX 37 69 39 70 40 71 41 72 42 73 66 74 67 75 75 76 68 77 70 78
REMARK SMILES IDX 76 79 69 80 71 81 72 82 73 83 74 84 51 85 52 86 60 87 53 88
REMARK SMILES IDX 55 89 61 90 54 91 56 92 57 93 58 94 59 95
REMARK H PARENT 18 6 12 17 22 29 81 48 49 59
REMARK Flexibility Score: inf
ROOT
ATOM      1  C   UNL A   1      32.348  28.732  26.870  1.00  0.00     0.042 C 
ENDROOT
BRANCH   1   2
ATOM      2  C   UNL A   1      32.146  27.266  26.479  1.00  0.00     0.117 C 
BRANCH   2   3
ATOM      3  N   UNL A   1      30.805  26.652  26.631  1.00  0.00    -0.355 N 
ATOM      4  C   UNL A   1      29.998  25.849  25.826  1.00  0.00     0.234 C 
ATOM      5  O   UNL A   1      29.176  25.131  26.402  1.00  0.00    -0.274 OA
ATOM      6  H   UNL A   1      30.389  26.857  27.500  1.00  0.00     0.163 HD
BRANCH   4   7
ATOM      7  C   UNL A   1      30.020  25.985  24.287  1.00  0.00     0.120 C 
ATOM      8  N   UNL A   1      28.649  27.730  23.314  1.00  0.00    -0.336 N 
ATOM      9  C   UNL A   1      29.891  27.898  22.667  1.00  0.00     0.125 C 
ATOM     10  C   UNL A   1      28.575  26.438  23.961  1.00  0.00     0.143 C 
ATOM     11  C   UNL A   1      30.859  27.108  23.551  1.00  0.00     0.037 C 
ATOM     12  C   UNL A   1      31.920  26.592  22.571  1.00  0.00     0.068 C 
ATOM     13  C   UNL A   1      30.607  24.611  23.839  1.00  0.00     0.281 C 
ATOM     14  C   UNL A   1      32.834  25.621  23.257  1.00  0.00     0.262 C 
ATOM     15  N   UNL A   1      32.099  24.482  23.807  1.00  0.00    -0.336 N 
ATOM     16  C   UNL A   1      32.743  24.074  25.055  1.00  0.00     0.332 C 
ATOM     17  H   UNL A   1      32.170  23.707  23.148  1.00  0.00     0.347 HD
BRANCH   8  18
ATOM     18  C   UNL A   1      27.714  28.745  23.301  1.00  0.00     0.273 C 
ATOM     19  O   UNL A   1      26.531  28.526  23.550  1.00  0.00    -0.267 OA
BRANCH  18  20
ATOM     20  C   UNL A   1      28.146  30.045  22.756  1.00  0.00     0.139 A 
ATOM     21  C   UNL A   1      27.966  32.457  20.000  1.00  0.00     0.079 C 
ATOM     22  C   UNL A   1      28.194  31.696  21.260  1.00  0.00     0.090 A 
ATOM     23  N   UNL A   1      27.973  30.408  21.415  1.00  0.00    -0.236 NA
ATOM     24  S   UNL A   1      28.734  32.529  22.665  1.00  0.00    -0.127 S 
ATOM     25  C   UNL A   1      28.579  31.083  23.565  1.00  0.00     0.101 A 
ENDBRANCH  18  20
ENDBRANCH   8  18
ENDBRANCH   4   7
ENDBRANCH   2   3
ENDBRANCH   1   2
BRANCH   1  26
ATOM     26  C   UNL A   1      33.733  29.311  26.573  1.00  0.00     0.118 C 
BRANCH  26  27
ATOM     27  N   UNL A   1      33.893  30.681  27.052  1.00  0.00    -0.352 N 
ATOM     28  C   UNL A   1      34.769  31.256  27.937  1.00  0.00     0.251 C 
ATOM     29  H   UNL A   1      33.247  31.315  26.663  1.00  0.00     0.163 HD
ATOM     30  O   UNL A   1      34.520  32.384  28.361  1.00  0.00    -0.269 OA
BRANCH  28  31
ATOM     31  C   UNL A   1      35.997  30.563  28.385  1.00  0.00     0.039 A 
ATOM     32  C   UNL A   1      37.148  30.643  27.592  1.00  0.00     0.014 A 
ATOM     33  C   UNL A   1      36.007  29.773  29.535  1.00  0.00     0.014 A 
ATOM     34  C   UNL A   1      38.324  30.000  27.994  1.00  0.00     0.010 A 
ATOM     35  C   UNL A   1      37.196  29.192  29.973  1.00  0.00     0.010 A 
ATOM     36  C   UNL A   1      38.370  29.307  29.213  1.00  0.00    -0.014 A 
BRANCH  36  37
ATOM     37  C   UNL A   1      39.646  28.750  29.741  1.00  0.00     0.031 A 
ATOM     38  C   UNL A   1      40.397  29.448  30.843  1.00  0.00     0.074 A 
ATOM     39  C   UNL A   1      40.188  27.672  29.138  1.00  0.00     0.049 A 
ATOM     40  N   UNL A   1      41.565  29.156  31.356  1.00  0.00    -0.248 NA
ATOM     41  C   UNL A   1      39.769  30.643  31.429  1.00  0.00     0.031 C 
ATOM     42  C   UNL A   1      39.599  26.955  28.004  1.00  0.00     0.029 A 
ATOM     43  N   UNL A   1      41.370  27.013  29.366  1.00  0.00    -0.354 N 
ATOM     44  C   UNL A   1      41.831  30.150  32.291  1.00  0.00     0.074 A 
ATOM     45  C   UNL A   1      40.711  31.065  32.262  1.00  0.00     0.031 C 
ATOM     46  C   UNL A   1      40.424  25.965  27.631  1.00  0.00     0.029 A 
ATOM     47  C   UNL A   1      41.616  25.998  28.470  1.00  0.00     0.049 A 
ATOM     48  H   UNL A   1      41.984  27.244  30.101  1.00  0.00     0.167 HD
ATOM     49  C   UNL A   1      42.901  30.277  33.112  1.00  0.00     0.034 A 
ATOM     50  C   UNL A   1      42.691  25.198  28.318  1.00  0.00     0.034 A 
ATOM     51  C   UNL A   1      43.995  29.343  33.164  1.00  0.00     0.049 A 
ATOM     52  C   UNL A   1      43.850  25.343  29.266  1.00  0.00     0.074 A 
ATOM     53  C   UNL A   1      45.069  29.327  34.037  1.00  0.00     0.029 A 
ATOM     54  N   UNL A   1      44.169  28.275  32.299  1.00  0.00    -0.354 N 
ATOM     55  N   UNL A   1      44.000  26.182  30.262  1.00  0.00    -0.248 NA
ATOM     56  C   UNL A   1      44.975  24.413  29.089  1.00  0.00     0.031 C 
ATOM     57  C   UNL A   1      45.913  28.272  33.674  1.00  0.00     0.029 A 
ATOM     58  C   UNL A   1      45.344  27.608  32.600  1.00  0.00     0.049 A 
ATOM     59  H   UNL A   1      43.547  28.027  31.577  1.00  0.00     0.167 HD
ATOM     60  C   UNL A   1      45.219  25.863  30.847  1.00  0.00     0.074 A 
ATOM     61  C   UNL A   1      45.754  24.736  30.112  1.00  0.00     0.031 C 
ATOM     62  C   UNL A   1      45.847  26.461  31.888  1.00  0.00     0.034 A 
BRANCH  49  63
ATOM     63  C   UNL A   1      42.934  31.450  34.058  1.00  0.00     0.023 A 
ATOM     64  C   UNL A   1      43.510  32.668  33.644  1.00  0.00     0.012 A 
ATOM     65  C   UNL A   1      42.319  31.372  35.324  1.00  0.00     0.148 A 
ATOM     66  C   UNL A   1      43.500  33.781  34.484  1.00  0.00     0.002 A 
ATOM     67  C   UNL A   1      42.272  32.499  36.137  1.00  0.00     0.091 A 
ATOM     68  F   UNL A   1      41.791  30.201  35.707  1.00  0.00    -0.205 F 
ATOM     69  C   UNL A   1      42.871  33.699  35.723  1.00  0.00     0.022 A 
BRANCH  67  70
ATOM     70  S   UNL A   1      41.416  32.522  37.717  1.00  0.00     0.127 S 
ATOM     71  O   UNL A   1      40.077  32.079  37.332  1.00  0.00    -0.237 OA
ATOM     72  O   UNL A   1      42.182  31.547  38.494  1.00  0.00    -0.237 OA
ATOM     73  O   UNL A   1      41.502  33.891  38.202  1.00  0.00    -0.744 OA
ENDBRANCH  67  70
ENDBRANCH  49  63
BRANCH  50  74
ATOM     74  C   UNL A   1      42.706  24.166  27.243  1.00  0.00     0.023 A 
ATOM     75  C   UNL A   1      43.372  24.432  26.031  1.00  0.00     0.012 A 
ATOM     76  C   UNL A   1      42.083  22.916  27.424  1.00  0.00     0.148 A 
ATOM     77  C   UNL A   1      43.385  23.486  25.005  1.00  0.00     0.002 A 
ATOM     78  C   UNL A   1      42.152  21.956  26.421  1.00  0.00     0.091 A 
ATOM     79  F   UNL A   1      41.445  22.685  28.580  1.00  0.00    -0.205 F 
ATOM     80  C   UNL A   1      42.785  22.246  25.203  1.00  0.00     0.022 A 
BRANCH  78  81
ATOM     81  S   UNL A   1      41.529  20.287  26.646  1.00  0.00     0.127 S 
ATOM     82  O   UNL A   1      41.947  19.642  25.404  1.00  0.00    -0.237 OA
ATOM     83  O   UNL A   1      42.254  19.852  27.840  1.00  0.00    -0.237 OA
ATOM     84  O   UNL A   1      40.092  20.426  26.837  1.00  0.00    -0.744 OA
ENDBRANCH  78  81
ENDBRANCH  50  74
BRANCH  62  85
ATOM     85  C   UNL A   1      47.176  25.897  32.321  1.00  0.00     0.023 A 
ATOM     86  C   UNL A   1      48.364  26.361  31.721  1.00  0.00     0.012 A 
ATOM     87  C   UNL A   1      47.252  24.963  33.373  1.00  0.00     0.148 A 
ATOM     88  C   UNL A   1      49.604  25.879  32.139  1.00  0.00     0.002 A 
ATOM     89  C   UNL A   1      48.493  24.528  33.820  1.00  0.00     0.091 A 
ATOM     90  F   UNL A   1      46.109  24.523  33.920  1.00  0.00    -0.205 F 
ATOM     91  C   UNL A   1      49.670  24.974  33.195  1.00  0.00     0.022 A 
BRANCH  89  92
ATOM     92  S   UNL A   1      48.683  23.438  35.236  1.00  0.00     0.127 S 
ATOM     93  O   UNL A   1      48.173  24.273  36.323  1.00  0.00    -0.237 OA
ATOM     94  O   UNL A   1      47.822  22.312  34.876  1.00  0.00    -0.237 OA
ATOM     95  O   UNL A   1      50.102  23.118  35.311  1.00  0.00    -0.744 OA
ENDBRANCH  89  92
ENDBRANCH  62  85
ENDBRANCH  36  37
ENDBRANCH  28  31
ENDBRANCH  26  27
ENDBRANCH   1  26
TORSDOF 15
ENDMDL
MODEL 2
REMARK VINA RESULT:     -12.3      5.264      7.910
REMARK SMILES Cc1nc(C(=O)N2C[C@@H]3CC[N@@H+](C)C[C@]3(C(=O)NCCCNC(=O)c3ccc(-c4c5nc(c(-c6cccc(S(=O)(=O)[O-])c6F)c6ccc([nH]6)c(-c6cccc(S(=O)(=O)[O-])c6F)c6nc(c(-c7cccc(S(=O)(=O)[O-])c7F)c7ccc4[nH]7)C=C6)C=C5)cc3)C2)cs1
REMARK SMILES IDX 20 1 19 2 18 3 16 4 17 5 15 7 7 8 8 9 88 10 9 11 10 12 14 13
REMARK SMILES IDX 11 14 12 15 13 16 5 18 6 19 4 20 1 21 2 22 3 23 90 24 89 25
REMARK SMILES IDX 21 26 22 27 23 28 24 30 25 31 26 32 87 33 27 34 86 35 28 36
REMARK SMILES IDX 29 37 30 38 80 39 31 40 85 41 79 42 81 43 32 44 84 45 78 46
REMARK SMILES IDX 77 47 33 49 65 50 45 51 64 52 46 53 49 54 63 55 82 56 47 57
REMARK SMILES IDX 48 58 62 60 83 61 50 62 34 63 35 64 43 65 36 66 38 67 44 68
REMARK SMILES IDX 37 69 39 70 40 71 41 72 42 73 66 74 67 75 75 76 68 77 70 78
REMARK SMILES IDX 76 79 69 80 71 81 72 82 73 83 74 84 51 85 52 86 60 87 53 88
REMARK SMILES IDX 55 89 61 90 54 91 56 92 57 93 58 94 59 95
REMARK H PARENT 18 6 12 17 22 29 81 48 49 59
REMARK Flexibility Score: inf
ROOT
ATOM      1  C   UNL A   1      37.046  21.794  24.084  1.00  0.00     0.042 C 
ENDROOT
BRANCH   1   2
ATOM      2  C   UNL A   1      36.009  22.885  23.798  1.00  0.00     0.117 C 
BRANCH   2   3
ATOM      3  N   UNL A   1      35.334  23.560  24.932  1.00  0.00    -0.355 N 
ATOM      4  C   UNL A   1      34.032  23.575  25.429  1.00  0.00     0.234 C 
ATOM      5  O   UNL A   1      33.896  23.843  26.626  1.00  0.00    -0.274 OA
ATOM      6  H   UNL A   1      35.946  24.127  25.455  1.00  0.00     0.163 HD
BRANCH   4   7
ATOM      7  C   UNL A   1      32.817  23.433  24.486  1.00  0.00     0.120 C 
ATOM      8  N   UNL A   1      32.480  25.186  22.848  1.00  0.00    -0.336 N 
ATOM      9  C   UNL A   1      32.348  24.005  22.088  1.00  0.00     0.125 C 
ATOM     10  C   UNL A   1      32.379  24.901  24.263  1.00  0.00     0.143 C 
ATOM     11  C   UNL A   1      32.963  22.934  22.991  1.00  0.00     0.037 C 
ATOM     12  C   UNL A   1      32.177  21.662  22.648  1.00  0.00     0.068 C 
ATOM     13  C   UNL A   1      31.936  22.382  25.232  1.00  0.00     0.281 C 
ATOM     14  C   UNL A   1      32.525  20.561  23.604  1.00  0.00     0.262 C 
ATOM     15  N   UNL A   1      32.243  20.937  24.989  1.00  0.00    -0.336 N 
ATOM     16  C   UNL A   1      33.260  20.333  25.849  1.00  0.00     0.332 C 
ATOM     17  H   UNL A   1      31.337  20.545  25.249  1.00  0.00     0.347 HD
BRANCH   8  18
ATOM     18  C   UNL A   1      32.709  26.395  22.223  1.00  0.00     0.273 C 
ATOM     19  O   UNL A   1      33.702  26.573  21.522  1.00  0.00    -0.267 OA
BRANCH  18  20
ATOM     20  C   UNL A   1      31.845  27.524  22.613  1.00  0.00     0.139 A 
ATOM     21  C   UNL A   1      28.473  28.964  22.661  1.00  0.00     0.079 C 
ATOM     22  C   UNL A   1      29.913  28.616  22.816  1.00  0.00     0.090 A 
ATOM     23  N   UNL A   1      30.549  27.703  22.112  1.00  0.00    -0.236 NA
ATOM     24  S   UNL A   1      30.845  29.397  24.032  1.00  0.00    -0.127 S 
ATOM     25  C   UNL A   1      32.169  28.384  23.649  1.00  0.00     0.101 A 
ENDBRANCH  18  20
ENDBRANCH   8  18
ENDBRANCH   4   7
ENDBRANCH   2   3
ENDBRANCH   1   2
BRANCH   1  26
ATOM     26  C   UNL A   1      37.068  21.263  25.518  1.00  0.00     0.118 C 
BRANCH  26  27
ATOM     27  N   UNL A   1      38.169  20.335  25.765  1.00  0.00    -0.352 N 
ATOM     28  C   UNL A   1      39.487  20.529  26.093  1.00  0.00     0.251 C 
ATOM     29  H   UNL A   1      37.916  19.387  25.680  1.00  0.00     0.163 HD
ATOM     30  O   UNL A   1      40.264  19.580  25.988  1.00  0.00    -0.269 OA
BRANCH  28  31
ATOM     31  C   UNL A   1      39.991  21.835  26.571  1.00  0.00     0.039 A 
ATOM     32  C   UNL A   1      40.965  21.858  27.577  1.00  0.00     0.014 A 
ATOM     33  C   UNL A   1      39.461  23.036  26.098  1.00  0.00     0.014 A 
ATOM     34  C   UNL A   1      41.462  23.079  28.045  1.00  0.00     0.010 A 
ATOM     35  C   UNL A   1      40.006  24.250  26.513  1.00  0.00     0.010 A 
ATOM     36  C   UNL A   1      41.019  24.286  27.483  1.00  0.00    -0.014 A 
BRANCH  36  37
ATOM     37  C   UNL A   1      41.643  25.587  27.848  1.00  0.00     0.031 A 
ATOM     38  C   UNL A   1      40.851  26.654  28.554  1.00  0.00     0.074 A 
ATOM     39  C   UNL A   1      42.900  25.849  27.433  1.00  0.00     0.049 A 
ATOM     40  N   UNL A   1      41.206  27.875  28.862  1.00  0.00    -0.248 NA
ATOM     41  C   UNL A   1      39.472  26.317  28.942  1.00  0.00     0.031 C 
ATOM     42  C   UNL A   1      43.744  24.928  26.666  1.00  0.00     0.029 A 
ATOM     43  N   UNL A   1      43.674  26.976  27.560  1.00  0.00    -0.354 N 
ATOM     44  C   UNL A   1      40.088  28.465  29.440  1.00  0.00     0.074 A 
ATOM     45  C   UNL A   1      39.034  27.473  29.423  1.00  0.00     0.031 C 
ATOM     46  C   UNL A   1      44.910  25.529  26.385  1.00  0.00     0.029 A 
ATOM     47  C   UNL A   1      44.886  26.887  26.914  1.00  0.00     0.049 A 
ATOM     48  H   UNL A   1      43.388  27.772  28.065  1.00  0.00     0.167 HD
ATOM     49  C   UNL A   1      39.956  29.711  29.955  1.00  0.00     0.034 A 
ATOM     50  C   UNL A   1      45.860  27.802  26.742  1.00  0.00     0.034 A 
ATOM     51  C   UNL A   1      41.019  30.680  30.004  1.00  0.00     0.049 A 
ATOM     52  C   UNL A   1      45.699  29.167  27.353  1.00  0.00     0.074 A 
ATOM     53  C   UNL A   1      41.016  31.928  30.604  1.00  0.00     0.029 A 
ATOM     54  N   UNL A   1      42.264  30.524  29.417  1.00  0.00    -0.354 N 
ATOM     55  N   UNL A   1      44.698  29.643  28.052  1.00  0.00    -0.248 NA
ATOM     56  C   UNL A   1      46.813  30.111  27.179  1.00  0.00     0.031 C 
ATOM     57  C   UNL A   1      42.245  32.543  30.344  1.00  0.00     0.029 A 
ATOM     58  C   UNL A   1      43.028  31.661  29.617  1.00  0.00     0.049 A 
ATOM     59  H   UNL A   1      42.562  29.722  28.930  1.00  0.00     0.167 HD
ATOM     60  C   UNL A   1      45.071  30.929  28.425  1.00  0.00     0.074 A 
ATOM     61  C   UNL A   1      46.403  31.147  27.898  1.00  0.00     0.031 C 
ATOM     62  C   UNL A   1      44.369  31.852  29.124  1.00  0.00     0.034 A 
BRANCH  49  63
ATOM     63  C   UNL A   1      38.625  30.097  30.549  1.00  0.00     0.023 A 
ATOM     64  C   UNL A   1      38.345  29.791  31.896  1.00  0.00     0.012 A 
ATOM     65  C   UNL A   1      37.689  30.836  29.799  1.00  0.00     0.148 A 
ATOM     66  C   UNL A   1      37.143  30.188  32.479  1.00  0.00     0.002 A 
ATOM     67  C   UNL A   1      36.512  31.268  30.401  1.00  0.00     0.091 A 
ATOM     68  F   UNL A   1      37.965  31.102  28.515  1.00  0.00    -0.205 F 
ATOM     69  C   UNL A   1      36.233  30.935  31.736  1.00  0.00     0.022 A 
BRANCH  67  70
ATOM     70  S   UNL A   1      35.313  32.304  29.556  1.00  0.00     0.127 S 
ATOM     71  O   UNL A   1      34.824  31.400  28.515  1.00  0.00    -0.237 OA
ATOM     72  O   UNL A   1      34.348  32.586  30.620  1.00  0.00    -0.237 OA
ATOM     73  O   UNL A   1      36.048  33.465  29.077  1.00  0.00    -0.744 OA
ENDBRANCH  67  70
ENDBRANCH  49  63
BRANCH  50  74
ATOM     74  C   UNL A   1      47.092  27.446  25.982  1.00  0.00     0.023 A 
ATOM     75  C   UNL A   1      48.151  26.791  26.639  1.00  0.00     0.012 A 
ATOM     76  C   UNL A   1      47.210  27.734  24.609  1.00  0.00     0.148 A 
ATOM     77  C   UNL A   1      49.321  26.463  25.952  1.00  0.00     0.002 A 
ATOM     78  C   UNL A   1      48.352  27.350  23.916  1.00  0.00     0.091 A 
ATOM     79  F   UNL A   1      46.196  28.367  24.002  1.00  0.00    -0.205 F 
ATOM     80  C   UNL A   1      49.417  26.733  24.590  1.00  0.00     0.022 A 
BRANCH  78  81
ATOM     81  S   UNL A   1      48.502  27.532  22.135  1.00  0.00     0.127 S 
ATOM     82  O   UNL A   1      47.230  28.161  21.791  1.00  0.00    -0.237 OA
ATOM     83  O   UNL A   1      49.673  28.402  22.018  1.00  0.00    -0.237 OA
ATOM     84  O   UNL A   1      48.705  26.185  21.619  1.00  0.00    -0.744 OA
ENDBRANCH  78  81
ENDBRANCH  50  74
BRANCH  62  85
ATOM     85  C   UNL A   1      45.029  33.181  29.390  1.00  0.00     0.023 A 
ATOM     86  C   UNL A   1      45.828  33.350  30.539  1.00  0.00     0.012 A 
ATOM     87  C   UNL A   1      44.916  34.237  28.464  1.00  0.00     0.148 A 
ATOM     88  C   UNL A   1      46.478  34.560  30.777  1.00  0.00     0.002 A 
ATOM     89  C   UNL A   1      45.609  35.421  28.681  1.00  0.00     0.091 A 
ATOM     90  F   UNL A   1      44.138  34.061  27.386  1.00  0.00    -0.205 F 
ATOM     91  C   UNL A   1      46.380  35.590  29.844  1.00  0.00     0.022 A 
BRANCH  89  92
ATOM     92  S   UNL A   1      45.622  36.766  27.491  1.00  0.00     0.127 S 
ATOM     93  O   UNL A   1      46.501  37.734  28.146  1.00  0.00    -0.237 OA
ATOM     94  O   UNL A   1      46.195  36.125  26.308  1.00  0.00    -0.237 OA
ATOM     95  O   UNL A   1      44.236  37.186  27.342  1.00  0.00    -0.744 OA
ENDBRANCH  89  92
ENDBRANCH  62  85
ENDBRANCH  36  37
ENDBRANCH  28  31
ENDBRANCH  26  27
ENDBRANCH   1  26
TORSDOF 15
ENDMDL
MODEL 3
REMARK VINA RESULT:     -12.2      2.390      7.868
REMARK SMILES Cc1nc(C(=O)N2C[C@@H]3CC[N@@H+](C)C[C@]3(C(=O)NCCCNC(=O)c3ccc(-c4c5nc(c(-c6cccc(S(=O)(=O)[O-])c6F)c6ccc([nH]6)c(-c6cccc(S(=O)(=O)[O-])c6F)c6nc(c(-c7cccc(S(=O)(=O)[O-])c7F)c7ccc4[nH]7)C=C6)C=C5)cc3)C2)cs1
REMARK SMILES IDX 20 1 19 2 18 3 16 4 17 5 15 7 7 8 8 9 88 10 9 11 10 12 14 13
REMARK SMILES IDX 11 14 12 15 13 16 5 18 6 19 4 20 1 21 2 22 3 23 90 24 89 25
REMARK SMILES IDX 21 26 22 27 23 28 24 30 25 31 26 32 87 33 27 34 86 35 28 36
REMARK SMILES IDX 29 37 30 38 80 39 31 40 85 41 79 42 81 43 32 44 84 45 78 46
REMARK SMILES IDX 77 47 33 49 65 50 45 51 64 52 46 53 49 54 63 55 82 56 47 57
REMARK SMILES IDX 48 58 62 60 83 61 50 62 34 63 35 64 43 65 36 66 38 67 44 68
REMARK SMILES IDX 37 69 39 70 40 71 41 72 42 73 66 74 67 75 75 76 68 77 70 78
REMARK SMILES IDX 76 79 69 80 71 81 72 82 73 83 74 84 51 85 52 86 60 87 53 88
REMARK SMILES IDX 55 89 61 90 54 91 56 92 57 93 58 94 59 95
REMARK H PARENT 18 6 12 17 22 29 81 48 49 59
REMARK Flexibility Score: inf
ROOT
ATOM      1  C   UNL A   1      31.570  29.240  26.956  1.00  0.00     0.042 C 
ENDROOT
BRANCH   1   2
ATOM      2  C   UNL A   1      32.030  27.789  27.124  1.00  0.00     0.117 C 
BRANCH   2   3
ATOM      3  N   UNL A   1      31.054  26.690  26.930  1.00  0.00    -0.355 N 
ATOM      4  C   UNL A   1      31.072  25.472  26.254  1.00  0.00     0.234 C 
ATOM      5  O   UNL A   1      30.307  24.595  26.665  1.00  0.00    -0.274 OA
ATOM      6  H   UNL A   1      30.196  26.859  27.384  1.00  0.00     0.163 HD
BRANCH   4   7
ATOM      7  C   UNL A   1      31.886  25.294  24.952  1.00  0.00     0.120 C 
ATOM      8  N   UNL A   1      31.967  27.183  23.435  1.00  0.00    -0.336 N 
ATOM      9  C   UNL A   1      33.317  26.787  23.530  1.00  0.00     0.125 C 
ATOM     10  C   UNL A   1      31.090  26.144  23.930  1.00  0.00     0.143 C 
ATOM     11  C   UNL A   1      33.338  25.897  24.775  1.00  0.00     0.037 C 
ATOM     12  C   UNL A   1      34.440  24.871  24.481  1.00  0.00     0.068 C 
ATOM     13  C   UNL A   1      32.022  23.743  24.852  1.00  0.00     0.281 C 
ATOM     14  C   UNL A   1      34.442  23.796  25.526  1.00  0.00     0.262 C 
ATOM     15  N   UNL A   1      33.154  23.106  25.597  1.00  0.00    -0.336 N 
ATOM     16  C   UNL A   1      32.896  22.749  26.992  1.00  0.00     0.332 C 
ATOM     17  H   UNL A   1      33.223  22.243  25.058  1.00  0.00     0.347 HD
BRANCH   8  18
ATOM     18  C   UNL A   1      31.640  28.434  22.955  1.00  0.00     0.273 C 
ATOM     19  O   UNL A   1      32.506  29.216  22.569  1.00  0.00    -0.267 OA
BRANCH  18  20
ATOM     20  C   UNL A   1      30.245  28.876  23.137  1.00  0.00     0.139 A 
ATOM     21  C   UNL A   1      27.915  31.684  23.507  1.00  0.00     0.079 C 
ATOM     22  C   UNL A   1      28.609  30.376  23.344  1.00  0.00     0.090 A 
ATOM     23  N   UNL A   1      29.900  30.180  23.516  1.00  0.00    -0.236 NA
ATOM     24  S   UNL A   1      27.712  28.999  22.838  1.00  0.00    -0.127 S 
ATOM     25  C   UNL A   1      29.164  28.098  22.761  1.00  0.00     0.101 A 
ENDBRANCH  18  20
ENDBRANCH   8  18
ENDBRANCH   4   7
ENDBRANCH   2   3
ENDBRANCH   1   2
BRANCH   1  26
ATOM     26  C   UNL A   1      32.498  30.137  26.136  1.00  0.00     0.118 C 
BRANCH  26  27
ATOM     27  N   UNL A   1      32.398  31.547  26.502  1.00  0.00    -0.352 N 
ATOM     28  C   UNL A   1      33.118  32.334  27.365  1.00  0.00     0.251 C 
ATOM     29  H   UNL A   1      31.673  32.027  26.039  1.00  0.00     0.163 HD
ATOM     30  O   UNL A   1      32.659  33.430  27.683  1.00  0.00    -0.269 OA
BRANCH  28  31
ATOM     31  C   UNL A   1      34.424  31.902  27.913  1.00  0.00     0.039 A 
ATOM     32  C   UNL A   1      35.466  32.834  27.992  1.00  0.00     0.014 A 
ATOM     33  C   UNL A   1      34.657  30.575  28.275  1.00  0.00     0.014 A 
ATOM     34  C   UNL A   1      36.709  32.454  28.509  1.00  0.00     0.010 A 
ATOM     35  C   UNL A   1      35.872  30.214  28.856  1.00  0.00     0.010 A 
ATOM     36  C   UNL A   1      36.908  31.150  28.989  1.00  0.00    -0.014 A 
BRANCH  36  37
ATOM     37  C   UNL A   1      38.164  30.764  29.687  1.00  0.00     0.031 A 
ATOM     38  C   UNL A   1      39.113  29.767  29.078  1.00  0.00     0.074 A 
ATOM     39  C   UNL A   1      38.389  31.229  30.934  1.00  0.00     0.049 A 
ATOM     40  N   UNL A   1      40.200  29.247  29.588  1.00  0.00    -0.248 NA
ATOM     41  C   UNL A   1      38.786  29.268  27.732  1.00  0.00     0.031 C 
ATOM     42  C   UNL A   1      37.503  32.136  31.668  1.00  0.00     0.029 A 
ATOM     43  N   UNL A   1      39.408  30.976  31.819  1.00  0.00    -0.354 N 
ATOM     44  C   UNL A   1      40.664  28.333  28.649  1.00  0.00     0.074 A 
ATOM     45  C   UNL A   1      39.729  28.354  27.545  1.00  0.00     0.031 C 
ATOM     46  C   UNL A   1      38.010  32.355  32.890  1.00  0.00     0.029 A 
ATOM     47  C   UNL A   1      39.234  31.577  33.044  1.00  0.00     0.049 A 
ATOM     48  H   UNL A   1      40.188  30.417  31.598  1.00  0.00     0.167 HD
ATOM     49  C   UNL A   1      41.777  27.561  28.694  1.00  0.00     0.034 A 
ATOM     50  C   UNL A   1      39.960  31.494  34.177  1.00  0.00     0.034 A 
ATOM     51  C   UNL A   1      42.723  27.572  29.778  1.00  0.00     0.049 A 
ATOM     52  C   UNL A   1      41.208  30.654  34.185  1.00  0.00     0.074 A 
ATOM     53  C   UNL A   1      43.935  26.909  29.866  1.00  0.00     0.029 A 
ATOM     54  N   UNL A   1      42.560  28.261  30.969  1.00  0.00    -0.354 N 
ATOM     55  N   UNL A   1      41.723  29.934  33.219  1.00  0.00    -0.248 NA
ATOM     56  C   UNL A   1      41.991  30.638  35.430  1.00  0.00     0.031 C 
ATOM     57  C   UNL A   1      44.485  27.165  31.126  1.00  0.00     0.029 A 
ATOM     58  C   UNL A   1      43.634  28.020  31.807  1.00  0.00     0.049 A 
ATOM     59  H   UNL A   1      41.792  28.838  31.186  1.00  0.00     0.167 HD
ATOM     60  C   UNL A   1      42.903  29.403  33.727  1.00  0.00     0.074 A 
ATOM     61  C   UNL A   1      43.041  29.908  35.077  1.00  0.00     0.031 C 
ATOM     62  C   UNL A   1      43.783  28.561  33.135  1.00  0.00     0.034 A 
BRANCH  49  63
ATOM     63  C   UNL A   1      42.063  26.660  27.520  1.00  0.00     0.023 A 
ATOM     64  C   UNL A   1      42.742  27.171  26.395  1.00  0.00     0.012 A 
ATOM     65  C   UNL A   1      41.736  25.290  27.566  1.00  0.00     0.148 A 
ATOM     66  C   UNL A   1      43.066  26.341  25.323  1.00  0.00     0.002 A 
ATOM     67  C   UNL A   1      42.103  24.459  26.513  1.00  0.00     0.091 A 
ATOM     68  F   UNL A   1      41.076  24.826  28.636  1.00  0.00    -0.205 F 
ATOM     69  C   UNL A   1      42.757  24.985  25.387  1.00  0.00     0.022 A 
BRANCH  67  70
ATOM     70  S   UNL A   1      41.825  22.685  26.534  1.00  0.00     0.127 S 
ATOM     71  O   UNL A   1      40.364  22.617  26.578  1.00  0.00    -0.237 OA
ATOM     72  O   UNL A   1      42.416  22.267  25.262  1.00  0.00    -0.237 OA
ATOM     73  O   UNL A   1      42.506  22.182  27.717  1.00  0.00    -0.744 OA
ENDBRANCH  67  70
ENDBRANCH  49  63
BRANCH  50  74
ATOM     74  C   UNL A   1      39.542  32.254  35.388  1.00  0.00     0.023 A 
ATOM     75  C   UNL A   1      39.930  33.601  35.534  1.00  0.00     0.012 A 
ATOM     76  C   UNL A   1      38.747  31.658  36.386  1.00  0.00     0.148 A 
ATOM     77  C   UNL A   1      39.564  34.327  36.668  1.00  0.00     0.002 A 
ATOM     78  C   UNL A   1      38.336  32.404  37.483  1.00  0.00     0.091 A 
ATOM     79  F   UNL A   1      38.398  30.372  36.234  1.00  0.00    -0.205 F 
ATOM     80  C   UNL A   1      38.760  33.733  37.636  1.00  0.00     0.022 A 
BRANCH  78  81
ATOM     81  S   UNL A   1      37.186  31.763  38.705  1.00  0.00     0.127 S 
ATOM     82  O   UNL A   1      36.025  32.626  38.505  1.00  0.00    -0.237 OA
ATOM     83  O   UNL A   1      37.012  30.380  38.259  1.00  0.00    -0.237 OA
ATOM     84  O   UNL A   1      37.862  31.896  39.988  1.00  0.00    -0.744 OA
ENDBRANCH  78  81
ENDBRANCH  50  74
BRANCH  62  85
ATOM     85  C   UNL A   1      44.995  28.144  33.928  1.00  0.00     0.023 A 
ATOM     86  C   UNL A   1      46.156  28.943  33.909  1.00  0.00     0.012 A 
ATOM     87  C   UNL A   1      44.957  26.999  34.749  1.00  0.00     0.148 A 
ATOM     88  C   UNL A   1      47.270  28.592  34.670  1.00  0.00     0.002 A 
ATOM     89  C   UNL A   1      46.051  26.685  35.545  1.00  0.00     0.091 A 
ATOM     90  F   UNL A   1      43.848  26.244  34.740  1.00  0.00    -0.205 F 
ATOM     91  C   UNL A   1      47.213  27.472  35.496  1.00  0.00     0.022 A 
BRANCH  89  92
ATOM     92  S   UNL A   1      46.037  25.320  36.712  1.00  0.00     0.127 S 
ATOM     93  O   UNL A   1      45.816  24.176  35.828  1.00  0.00    -0.237 OA
ATOM     94  O   UNL A   1      47.379  25.394  37.289  1.00  0.00    -0.237 OA
ATOM     95  O   UNL A   1      44.958  25.600  37.648  1.00  0.00    -0.744 OA
ENDBRANCH  89  92
ENDBRANCH  62  85
ENDBRANCH  36  37
ENDBRANCH  28  31
ENDBRANCH  26  27
ENDBRANCH   1  26
TORSDOF 15
ENDMDL
