MODEL 1
REMARK VINA RESULT:     -12.8      0.000      0.000
REMARK SMILES NS(=O)(=O)c1ccc(N2N=C(C(=O)NCCCNC(=O)c3ccc(-c4c5nc(c(-c6cccc(S(=O)(=O)[O-])c6F)c6ccc([nH]6)c(-c6cccc(S(=O)(=O)[O-])c6F)c6nc(c(-c7cccc(S(=O)(=O)[O-])c7F)c7ccc4[nH]7)C=C6)C=C5)cc3)C[C@H]2c2cccs2)cc1
REMARK SMILES IDX 16 1 15 2 14 3 12 4 13 5 11 7 9 8 10 9 85 10 84 11 8 12 5 13
REMARK SMILES IDX 6 14 92 15 7 16 91 17 2 18 3 19 4 20 1 21 86 24 87 25 90 26
REMARK SMILES IDX 88 27 89 28 17 29 18 30 19 31 20 33 21 34 22 35 83 36 23 37
REMARK SMILES IDX 82 38 24 39 25 40 26 41 76 42 27 43 81 44 75 45 77 46 28 47
REMARK SMILES IDX 80 48 74 49 73 50 29 52 61 53 41 54 60 55 42 56 45 57 59 58
REMARK SMILES IDX 78 59 43 60 44 61 58 63 79 64 46 65 30 66 31 67 39 68 32 69
REMARK SMILES IDX 34 70 40 71 33 72 35 73 36 74 37 75 38 76 62 77 63 78 71 79
REMARK SMILES IDX 64 80 66 81 72 82 65 83 67 84 68 85 69 86 70 87 47 88 48 89
REMARK SMILES IDX 56 90 49 91 51 92 57 93 50 94 52 95 53 96 54 97 55 98
REMARK H PARENT 14 6 1 22 1 23 18 32 77 51 45 62
REMARK Flexibility Score: inf
ROOT
ATOM      1  C   UNL A   1      34.616  21.699  26.899  1.00  0.00     0.042 C 
ENDROOT
BRANCH   1   2
ATOM      2  C   UNL A   1      33.356  21.539  26.054  1.00  0.00     0.118 C 
BRANCH   2   3
ATOM      3  N   UNL A   1      32.193  22.059  26.743  1.00  0.00    -0.351 N 
ATOM      4  C   UNL A   1      31.475  23.222  26.676  1.00  0.00     0.267 C 
ATOM      5  O   UNL A   1      30.564  23.365  27.491  1.00  0.00    -0.268 OA
ATOM      6  H   UNL A   1      31.839  21.432  27.415  1.00  0.00     0.163 HD
BRANCH   4   7
ATOM      7  C   UNL A   1      31.687  24.315  25.640  1.00  0.00     0.128 C 
ATOM      8  N   UNL A   1      31.152  25.932  24.350  1.00  0.00    -0.256 N 
ATOM      9  N   UNL A   1      30.703  25.109  25.331  1.00  0.00    -0.171 NA
ATOM     10  C   UNL A   1      32.540  25.685  23.965  1.00  0.00     0.154 C 
ATOM     11  C   UNL A   1      33.001  24.660  25.011  1.00  0.00     0.097 C 
BRANCH   8  12
ATOM     12  C   UNL A   1      30.566  27.174  24.121  1.00  0.00     0.060 A 
ATOM     13  C   UNL A   1      29.437  29.669  23.505  1.00  0.00     0.082 A 
ATOM     14  C   UNL A   1      30.611  29.608  24.259  1.00  0.00     0.024 A 
ATOM     15  C   UNL A   1      28.802  28.500  23.087  1.00  0.00     0.024 A 
ATOM     16  C   UNL A   1      31.160  28.360  24.575  1.00  0.00     0.029 A 
ATOM     17  C   UNL A   1      29.373  27.266  23.390  1.00  0.00     0.029 A 
BRANCH  13  18
ATOM     18  S   UNL A   1      28.703  31.218  23.084  1.00  0.00     0.238 S 
ATOM     19  O   UNL A   1      29.213  32.234  23.981  1.00  0.00    -0.207 OA
ATOM     20  O   UNL A   1      27.296  31.016  22.865  1.00  0.00    -0.207 OA
BRANCH  18  21
ATOM     21  N   UNL A   1      29.363  31.597  21.586  1.00  0.00    -0.225 NA
ATOM     22  H   UNL A   1      29.712  30.746  21.145  1.00  0.00     0.137 HD
ATOM     23  H   UNL A   1      30.130  32.257  21.710  1.00  0.00     0.137 HD
ENDBRANCH  18  21
ENDBRANCH  13  18
ENDBRANCH   8  12
BRANCH  10  24
ATOM     24  C   UNL A   1      32.725  25.229  22.526  1.00  0.00     0.030 A 
ATOM     25  C   UNL A   1      32.505  25.979  21.383  1.00  0.00     0.017 A 
ATOM     26  S   UNL A   1      33.163  23.617  22.124  1.00  0.00    -0.147 S 
ATOM     27  C   UNL A   1      32.719  25.236  20.188  1.00  0.00     0.012 A 
ATOM     28  C   UNL A   1      33.111  23.945  20.449  1.00  0.00     0.065 A 
ENDBRANCH  10  24
ENDBRANCH   4   7
ENDBRANCH   2   3
ENDBRANCH   1   2
BRANCH   1  29
ATOM     29  C   UNL A   1      35.818  22.174  26.084  1.00  0.00     0.118 C 
BRANCH  29  30
ATOM     30  N   UNL A   1      36.817  21.124  25.931  1.00  0.00    -0.352 N 
ATOM     31  C   UNL A   1      38.183  21.200  25.831  1.00  0.00     0.251 C 
ATOM     32  H   UNL A   1      36.452  20.211  25.891  1.00  0.00     0.163 HD
ATOM     33  O   UNL A   1      38.807  20.212  25.452  1.00  0.00    -0.269 OA
BRANCH  31  34
ATOM     34  C   UNL A   1      38.904  22.442  26.185  1.00  0.00     0.039 A 
ATOM     35  C   UNL A   1      40.031  22.356  27.009  1.00  0.00     0.014 A 
ATOM     36  C   UNL A   1      38.438  23.694  25.774  1.00  0.00     0.014 A 
ATOM     37  C   UNL A   1      40.699  23.519  27.400  1.00  0.00     0.010 A 
ATOM     38  C   UNL A   1      39.155  24.843  26.089  1.00  0.00     0.010 A 
ATOM     39  C   UNL A   1      40.271  24.772  26.934  1.00  0.00    -0.014 A 
BRANCH  39  40
ATOM     40  C   UNL A   1      40.943  26.024  27.363  1.00  0.00     0.031 A 
ATOM     41  C   UNL A   1      42.373  26.284  26.965  1.00  0.00     0.074 A 
ATOM     42  C   UNL A   1      40.294  26.889  28.166  1.00  0.00     0.049 A 
ATOM     43  N   UNL A   1      43.143  27.297  27.273  1.00  0.00    -0.248 NA
ATOM     44  C   UNL A   1      43.038  25.258  26.145  1.00  0.00     0.031 C 
ATOM     45  C   UNL A   1      38.940  26.703  28.694  1.00  0.00     0.029 A 
ATOM     46  N   UNL A   1      40.695  28.088  28.696  1.00  0.00    -0.354 N 
ATOM     47  C   UNL A   1      44.388  27.006  26.724  1.00  0.00     0.074 A 
ATOM     48  C   UNL A   1      44.283  25.706  26.103  1.00  0.00     0.031 C 
ATOM     49  C   UNL A   1      38.620  27.756  29.463  1.00  0.00     0.029 A 
ATOM     50  C   UNL A   1      39.747  28.683  29.496  1.00  0.00     0.049 A 
ATOM     51  H   UNL A   1      41.578  28.487  28.521  1.00  0.00     0.167 HD
ATOM     52  C   UNL A   1      45.507  27.768  26.705  1.00  0.00     0.034 A 
ATOM     53  C   UNL A   1      39.782  29.850  30.169  1.00  0.00     0.034 A 
ATOM     54  C   UNL A   1      45.583  29.092  27.261  1.00  0.00     0.049 A 
ATOM     55  C   UNL A   1      41.000  30.724  30.045  1.00  0.00     0.074 A 
ATOM     56  C   UNL A   1      46.637  29.986  27.218  1.00  0.00     0.029 A 
ATOM     57  N   UNL A   1      44.557  29.715  27.953  1.00  0.00    -0.354 N 
ATOM     58  N   UNL A   1      42.112  30.501  29.387  1.00  0.00    -0.248 NA
ATOM     59  C   UNL A   1      40.950  32.032  30.713  1.00  0.00     0.031 C 
ATOM     60  C   UNL A   1      46.246  31.152  27.887  1.00  0.00     0.029 A 
ATOM     61  C   UNL A   1      44.946  30.986  28.334  1.00  0.00     0.049 A 
ATOM     62  H   UNL A   1      43.679  29.310  28.146  1.00  0.00     0.167 HD
ATOM     63  C   UNL A   1      42.876  31.653  29.527  1.00  0.00     0.074 A 
ATOM     64  C   UNL A   1      42.089  32.581  30.315  1.00  0.00     0.031 C 
ATOM     65  C   UNL A   1      44.123  31.918  29.061  1.00  0.00     0.034 A 
BRANCH  52  66
ATOM     66  C   UNL A   1      46.716  27.215  25.994  1.00  0.00     0.023 A 
ATOM     67  C   UNL A   1      47.498  26.226  26.626  1.00  0.00     0.012 A 
ATOM     68  C   UNL A   1      47.056  27.637  24.694  1.00  0.00     0.148 A 
ATOM     69  C   UNL A   1      48.622  25.695  25.995  1.00  0.00     0.002 A 
ATOM     70  C   UNL A   1      48.153  27.070  24.053  1.00  0.00     0.091 A 
ATOM     71  F   UNL A   1      46.317  28.594  24.117  1.00  0.00    -0.205 F 
ATOM     72  C   UNL A   1      48.943  26.110  24.706  1.00  0.00     0.022 A 
BRANCH  70  73
ATOM     73  S   UNL A   1      48.602  27.480  22.362  1.00  0.00     0.127 S 
ATOM     74  O   UNL A   1      48.701  26.155  21.753  1.00  0.00    -0.237 OA
ATOM     75  O   UNL A   1      47.452  28.269  21.920  1.00  0.00    -0.237 OA
ATOM     76  O   UNL A   1      49.849  28.226  22.450  1.00  0.00    -0.744 OA
ENDBRANCH  70  73
ENDBRANCH  52  66
BRANCH  53  77
ATOM     77  C   UNL A   1      38.582  30.304  30.927  1.00  0.00     0.023 A 
ATOM     78  C   UNL A   1      38.493  30.023  32.305  1.00  0.00     0.012 A 
ATOM     79  C   UNL A   1      37.554  31.040  30.309  1.00  0.00     0.148 A 
ATOM     80  C   UNL A   1      37.387  30.437  33.046  1.00  0.00     0.002 A 
ATOM     81  C   UNL A   1      36.479  31.496  31.065  1.00  0.00     0.091 A 
ATOM     82  F   UNL A   1      37.651  31.289  28.995  1.00  0.00    -0.205 F 
ATOM     83  C   UNL A   1      36.384  31.181  32.429  1.00  0.00     0.022 A 
BRANCH  81  84
ATOM     84  S   UNL A   1      35.215  32.574  30.381  1.00  0.00     0.127 S 
ATOM     85  O   UNL A   1      34.293  32.705  31.506  1.00  0.00    -0.237 OA
ATOM     86  O   UNL A   1      35.979  33.780  30.066  1.00  0.00    -0.237 OA
ATOM     87  O   UNL A   1      34.697  31.874  29.212  1.00  0.00    -0.744 OA
ENDBRANCH  81  84
ENDBRANCH  53  77
BRANCH  65  88
ATOM     88  C   UNL A   1      44.700  33.276  29.354  1.00  0.00     0.023 A 
ATOM     89  C   UNL A   1      45.416  33.489  30.548  1.00  0.00     0.012 A 
ATOM     90  C   UNL A   1      44.589  34.321  28.417  1.00  0.00     0.148 A 
ATOM     91  C   UNL A   1      45.983  34.733  30.821  1.00  0.00     0.002 A 
ATOM     92  C   UNL A   1      45.196  35.545  28.676  1.00  0.00     0.091 A 
ATOM     93  F   UNL A   1      43.884  34.108  27.296  1.00  0.00    -0.205 F 
ATOM     94  C   UNL A   1      45.883  35.757  29.881  1.00  0.00     0.022 A 
BRANCH  92  95
ATOM     95  S   UNL A   1      45.192  36.877  27.471  1.00  0.00     0.127 S 
ATOM     96  O   UNL A   1      45.891  37.938  28.194  1.00  0.00    -0.237 OA
ATOM     97  O   UNL A   1      45.946  36.300  26.357  1.00  0.00    -0.237 OA
ATOM     98  O   UNL A   1      43.789  37.133  27.174  1.00  0.00    -0.744 OA
ENDBRANCH  92  95
ENDBRANCH  65  88
ENDBRANCH  39  40
ENDBRANCH  31  34
ENDBRANCH  29  30
ENDBRANCH   1  29
TORSDOF 17
ENDMDL
MODEL 2
REMARK VINA RESULT:     -12.8      5.269     10.578
REMARK SMILES NS(=O)(=O)c1ccc(N2N=C(C(=O)NCCCNC(=O)c3ccc(-c4c5nc(c(-c6cccc(S(=O)(=O)[O-])c6F)c6ccc([nH]6)c(-c6cccc(S(=O)(=O)[O-])c6F)c6nc(c(-c7cccc(S(=O)(=O)[O-])c7F)c7ccc4[nH]7)C=C6)C=C5)cc3)C[C@H]2c2cccs2)cc1
REMARK SMILES IDX 16 1 15 2 14 3 12 4 13 5 11 7 9 8 10 9 85 10 84 11 8 12 5 13
REMARK SMILES IDX 6 14 92 15 7 16 91 17 2 18 3 19 4 20 1 21 86 24 87 25 90 26
REMARK SMILES IDX 88 27 89 28 17 29 18 30 19 31 20 33 21 34 22 35 83 36 23 37
REMARK SMILES IDX 82 38 24 39 25 40 26 41 76 42 27 43 81 44 75 45 77 46 28 47
REMARK SMILES IDX 80 48 74 49 73 50 29 52 61 53 41 54 60 55 42 56 45 57 59 58
REMARK SMILES IDX 78 59 43 60 44 61 58 63 79 64 46 65 30 66 31 67 39 68 32 69
REMARK SMILES IDX 34 70 40 71 33 72 35 73 36 74 37 75 38 76 62 77 63 78 71 79
REMARK SMILES IDX 64 80 66 81 72 82 65 83 67 84 68 85 69 86 70 87 47 88 48 89
REMARK SMILES IDX 56 90 49 91 51 92 57 93 50 94 52 95 53 96 54 97 55 98
REMARK H PARENT 14 6 1 22 1 23 18 32 77 51 45 62
REMARK Flexibility Score: inf
ROOT
ATOM      1  C   UNL A   1      32.828  29.072  24.213  1.00  0.00     0.042 C 
ENDROOT
BRANCH   1   2
ATOM      2  C   UNL A   1      34.015  28.189  23.838  1.00  0.00     0.118 C 
BRANCH   2   3
ATOM      3  N   UNL A   1      33.771  27.483  22.598  1.00  0.00    -0.351 N 
ATOM      4  C   UNL A   1      33.526  26.177  22.265  1.00  0.00     0.267 C 
ATOM      5  O   UNL A   1      33.442  25.911  21.067  1.00  0.00    -0.268 OA
ATOM      6  H   UNL A   1      33.786  28.078  21.813  1.00  0.00     0.163 HD
BRANCH   4   7
ATOM      7  C   UNL A   1      33.298  25.055  23.266  1.00  0.00     0.128 C 
ATOM      8  N   UNL A   1      32.888  23.066  23.929  1.00  0.00    -0.256 N 
ATOM      9  N   UNL A   1      33.129  23.836  22.839  1.00  0.00    -0.171 NA
ATOM     10  C   UNL A   1      32.895  23.809  25.188  1.00  0.00     0.154 C 
ATOM     11  C   UNL A   1      33.378  25.200  24.753  1.00  0.00     0.097 C 
BRANCH   8  12
ATOM     12  C   UNL A   1      33.133  21.695  23.917  1.00  0.00     0.060 A 
ATOM     13  C   UNL A   1      33.498  18.913  23.992  1.00  0.00     0.082 A 
ATOM     14  C   UNL A   1      34.364  19.745  24.706  1.00  0.00     0.024 A 
ATOM     15  C   UNL A   1      32.477  19.456  23.213  1.00  0.00     0.024 A 
ATOM     16  C   UNL A   1      34.185  21.132  24.652  1.00  0.00     0.029 A 
ATOM     17  C   UNL A   1      32.298  20.838  23.188  1.00  0.00     0.029 A 
BRANCH  13  18
ATOM     18  S   UNL A   1      33.686  17.158  24.024  1.00  0.00     0.238 S 
ATOM     19  O   UNL A   1      34.750  16.821  24.946  1.00  0.00    -0.207 OA
ATOM     20  O   UNL A   1      33.649  16.667  22.673  1.00  0.00    -0.207 OA
BRANCH  18  21
ATOM     21  N   UNL A   1      32.284  16.605  24.765  1.00  0.00    -0.225 NA
ATOM     22  H   UNL A   1      32.217  17.000  25.704  1.00  0.00     0.137 HD
ATOM     23  H   UNL A   1      32.309  15.587  24.825  1.00  0.00     0.137 HD
ENDBRANCH  18  21
ENDBRANCH  13  18
ENDBRANCH   8  12
BRANCH  10  24
ATOM     24  C   UNL A   1      31.566  23.817  25.925  1.00  0.00     0.030 A 
ATOM     25  C   UNL A   1      30.984  22.756  26.599  1.00  0.00     0.017 A 
ATOM     26  S   UNL A   1      30.529  25.187  25.933  1.00  0.00    -0.147 S 
ATOM     27  C   UNL A   1      29.706  23.079  27.136  1.00  0.00     0.012 A 
ATOM     28  C   UNL A   1      29.352  24.381  26.872  1.00  0.00     0.065 A 
ENDBRANCH  10  24
ENDBRANCH   4   7
ENDBRANCH   2   3
ENDBRANCH   1   2
BRANCH   1  29
ATOM     29  C   UNL A   1      32.693  29.272  25.722  1.00  0.00     0.118 C 
BRANCH  29  30
ATOM     30  N   UNL A   1      32.451  30.668  26.063  1.00  0.00    -0.352 N 
ATOM     31  C   UNL A   1      33.056  31.477  26.990  1.00  0.00     0.251 C 
ATOM     32  H   UNL A   1      31.735  31.100  25.545  1.00  0.00     0.163 HD
ATOM     33  O   UNL A   1      32.521  32.543  27.287  1.00  0.00    -0.269 OA
BRANCH  31  34
ATOM     34  C   UNL A   1      34.337  31.090  27.620  1.00  0.00     0.039 A 
ATOM     35  C   UNL A   1      34.510  29.767  28.038  1.00  0.00     0.014 A 
ATOM     36  C   UNL A   1      35.337  32.034  27.869  1.00  0.00     0.014 A 
ATOM     37  C   UNL A   1      35.690  29.389  28.683  1.00  0.00     0.010 A 
ATOM     38  C   UNL A   1      36.546  31.638  28.429  1.00  0.00     0.010 A 
ATOM     39  C   UNL A   1      36.722  30.321  28.874  1.00  0.00    -0.014 A 
BRANCH  39  40
ATOM     40  C   UNL A   1      37.971  29.951  29.587  1.00  0.00     0.031 A 
ATOM     41  C   UNL A   1      38.232  30.484  30.972  1.00  0.00     0.074 A 
ATOM     42  C   UNL A   1      38.899  29.200  28.964  1.00  0.00     0.049 A 
ATOM     43  N   UNL A   1      39.277  30.309  31.741  1.00  0.00    -0.248 NA
ATOM     44  C   UNL A   1      37.202  31.358  31.560  1.00  0.00     0.031 C 
ATOM     45  C   UNL A   1      38.802  28.702  27.590  1.00  0.00     0.029 A 
ATOM     46  N   UNL A   1      40.116  28.742  29.398  1.00  0.00    -0.354 N 
ATOM     47  C   UNL A   1      39.048  31.082  32.873  1.00  0.00     0.074 A 
ATOM     48  C   UNL A   1      37.788  31.761  32.676  1.00  0.00     0.031 C 
ATOM     49  C   UNL A   1      39.908  27.998  27.298  1.00  0.00     0.029 A 
ATOM     50  C   UNL A   1      40.798  28.007  28.456  1.00  0.00     0.049 A 
ATOM     51  H   UNL A   1      40.468  28.920  30.300  1.00  0.00     0.167 HD
ATOM     52  C   UNL A   1      39.800  31.190  33.995  1.00  0.00     0.034 A 
ATOM     53  C   UNL A   1      41.999  27.401  28.525  1.00  0.00     0.034 A 
ATOM     54  C   UNL A   1      41.016  30.454  34.217  1.00  0.00     0.049 A 
ATOM     55  C   UNL A   1      42.764  27.450  29.819  1.00  0.00     0.074 A 
ATOM     56  C   UNL A   1      41.807  30.417  35.350  1.00  0.00     0.029 A 
ATOM     57  N   UNL A   1      41.609  29.616  33.286  1.00  0.00    -0.354 N 
ATOM     58  N   UNL A   1      42.454  28.058  30.939  1.00  0.00    -0.248 NA
ATOM     59  C   UNL A   1      44.019  26.688  29.878  1.00  0.00     0.031 C 
ATOM     60  C   UNL A   1      42.882  29.555  35.103  1.00  0.00     0.029 A 
ATOM     61  C   UNL A   1      42.751  29.048  33.820  1.00  0.00     0.049 A 
ATOM     62  H   UNL A   1      41.268  29.451  32.377  1.00  0.00     0.167 HD
ATOM     63  C   UNL A   1      43.451  27.721  31.846  1.00  0.00     0.074 A 
ATOM     64  C   UNL A   1      44.365  26.836  31.150  1.00  0.00     0.031 C 
ATOM     65  C   UNL A   1      43.610  28.119  33.133  1.00  0.00     0.034 A 
BRANCH  52  66
ATOM     66  C   UNL A   1      39.285  32.078  35.098  1.00  0.00     0.023 A 
ATOM     67  C   UNL A   1      39.412  33.478  34.975  1.00  0.00     0.012 A 
ATOM     68  C   UNL A   1      38.644  31.542  36.231  1.00  0.00     0.148 A 
ATOM     69  C   UNL A   1      38.946  34.327  35.977  1.00  0.00     0.002 A 
ATOM     70  C   UNL A   1      38.141  32.397  37.206  1.00  0.00     0.091 A 
ATOM     71  F   UNL A   1      38.552  30.209  36.344  1.00  0.00    -0.205 F 
ATOM     72  C   UNL A   1      38.302  33.788  37.087  1.00  0.00     0.022 A 
BRANCH  70  73
ATOM     73  S   UNL A   1      37.227  31.804  38.634  1.00  0.00     0.127 S 
ATOM     74  O   UNL A   1      38.188  32.026  39.713  1.00  0.00    -0.237 OA
ATOM     75  O   UNL A   1      36.070  32.699  38.655  1.00  0.00    -0.237 OA
ATOM     76  O   UNL A   1      36.909  30.411  38.354  1.00  0.00    -0.744 OA
ENDBRANCH  70  73
ENDBRANCH  52  66
BRANCH  53  77
ATOM     77  C   UNL A   1      42.494  26.604  27.368  1.00  0.00     0.023 A 
ATOM     78  C   UNL A   1      43.298  27.232  26.395  1.00  0.00     0.012 A 
ATOM     79  C   UNL A   1      42.211  25.232  27.241  1.00  0.00     0.148 A 
ATOM     80  C   UNL A   1      43.783  26.516  25.301  1.00  0.00     0.002 A 
ATOM     81  C   UNL A   1      42.741  24.511  26.176  1.00  0.00     0.091 A 
ATOM     82  F   UNL A   1      41.436  24.654  28.169  1.00  0.00    -0.205 F 
ATOM     83  C   UNL A   1      43.513  25.154  25.196  1.00  0.00     0.022 A 
BRANCH  81  84
ATOM     84  S   UNL A   1      42.556  22.729  26.036  1.00  0.00     0.127 S 
ATOM     85  O   UNL A   1      43.186  22.463  24.746  1.00  0.00    -0.237 OA
ATOM     86  O   UNL A   1      43.304  22.252  27.199  1.00  0.00    -0.237 OA
ATOM     87  O   UNL A   1      41.122  22.481  26.108  1.00  0.00    -0.744 OA
ENDBRANCH  81  84
ENDBRANCH  53  77
BRANCH  65  88
ATOM     88  C   UNL A   1      44.789  27.571  33.889  1.00  0.00     0.023 A 
ATOM     89  C   UNL A   1      46.051  28.184  33.758  1.00  0.00     0.012 A 
ATOM     90  C   UNL A   1      44.635  26.490  34.778  1.00  0.00     0.148 A 
ATOM     91  C   UNL A   1      47.148  27.707  34.473  1.00  0.00     0.002 A 
ATOM     92  C   UNL A   1      45.723  26.050  35.523  1.00  0.00     0.091 A 
ATOM     93  F   UNL A   1      43.432  25.902  34.874  1.00  0.00    -0.205 F 
ATOM     94  C   UNL A   1      46.982  26.648  35.364  1.00  0.00     0.022 A 
BRANCH  92  95
ATOM     95  S   UNL A   1      45.563  24.756  36.759  1.00  0.00     0.127 S 
ATOM     96  O   UNL A   1      45.786  23.551  35.963  1.00  0.00    -0.237 OA
ATOM     97  O   UNL A   1      46.641  25.076  37.695  1.00  0.00    -0.237 OA
ATOM     98  O   UNL A   1      44.224  24.908  37.316  1.00  0.00    -0.744 OA
ENDBRANCH  92  95
ENDBRANCH  65  88
ENDBRANCH  39  40
ENDBRANCH  31  34
ENDBRANCH  29  30
ENDBRANCH   1  29
TORSDOF 17
ENDMDL
MODEL 3
REMARK VINA RESULT:     -12.5      2.075      2.974
REMARK SMILES NS(=O)(=O)c1ccc(N2N=C(C(=O)NCCCNC(=O)c3ccc(-c4c5nc(c(-c6cccc(S(=O)(=O)[O-])c6F)c6ccc([nH]6)c(-c6cccc(S(=O)(=O)[O-])c6F)c6nc(c(-c7cccc(S(=O)(=O)[O-])c7F)c7ccc4[nH]7)C=C6)C=C5)cc3)C[C@H]2c2cccs2)cc1
REMARK SMILES IDX 16 1 15 2 14 3 12 4 13 5 11 7 9 8 10 9 85 10 84 11 8 12 5 13
REMARK SMILES IDX 6 14 92 15 7 16 91 17 2 18 3 19 4 20 1 21 86 24 87 25 90 26
REMARK SMILES IDX 88 27 89 28 17 29 18 30 19 31 20 33 21 34 22 35 83 36 23 37
REMARK SMILES IDX 82 38 24 39 25 40 26 41 76 42 27 43 81 44 75 45 77 46 28 47
REMARK SMILES IDX 80 48 74 49 73 50 29 52 61 53 41 54 60 55 42 56 45 57 59 58
REMARK SMILES IDX 78 59 43 60 44 61 58 63 79 64 46 65 30 66 31 67 39 68 32 69
REMARK SMILES IDX 34 70 40 71 33 72 35 73 36 74 37 75 38 76 62 77 63 78 71 79
REMARK SMILES IDX 64 80 66 81 72 82 65 83 67 84 68 85 69 86 70 87 47 88 48 89
REMARK SMILES IDX 56 90 49 91 51 92 57 93 50 94 52 95 53 96 54 97 55 98
REMARK H PARENT 14 6 1 22 1 23 18 32 77 51 45 62
REMARK Flexibility Score: inf
ROOT
ATOM      1  C   UNL A   1      34.678  22.649  26.770  1.00  0.00     0.042 C 
ENDROOT
BRANCH   1   2
ATOM      2  C   UNL A   1      33.550  22.482  25.757  1.00  0.00     0.118 C 
BRANCH   2   3
ATOM      3  N   UNL A   1      32.256  22.680  26.375  1.00  0.00    -0.351 N 
ATOM      4  C   UNL A   1      31.436  23.759  26.567  1.00  0.00     0.267 C 
ATOM      5  O   UNL A   1      30.412  23.573  27.223  1.00  0.00    -0.268 OA
ATOM      6  H   UNL A   1      31.880  21.847  26.742  1.00  0.00     0.163 HD
BRANCH   4   7
ATOM      7  C   UNL A   1      31.673  25.144  25.986  1.00  0.00     0.128 C 
ATOM      8  N   UNL A   1      32.009  27.254  26.008  1.00  0.00    -0.256 N 
ATOM      9  N   UNL A   1      31.897  26.148  26.785  1.00  0.00    -0.171 NA
ATOM     10  C   UNL A   1      31.854  26.987  24.579  1.00  0.00     0.154 C 
ATOM     11  C   UNL A   1      31.805  25.454  24.528  1.00  0.00     0.097 C 
BRANCH   8  12
ATOM     12  C   UNL A   1      32.702  28.380  26.445  1.00  0.00     0.060 A 
ATOM     13  C   UNL A   1      34.113  30.578  27.472  1.00  0.00     0.082 A 
ATOM     14  C   UNL A   1      32.735  30.676  27.264  1.00  0.00     0.024 A 
ATOM     15  C   UNL A   1      34.799  29.411  27.139  1.00  0.00     0.024 A 
ATOM     16  C   UNL A   1      32.041  29.580  26.738  1.00  0.00     0.029 A 
ATOM     17  C   UNL A   1      34.089  28.321  26.637  1.00  0.00     0.029 A 
BRANCH  13  18
ATOM     18  S   UNL A   1      35.034  31.933  28.129  1.00  0.00     0.238 S 
ATOM     19  O   UNL A   1      34.536  33.161  27.547  1.00  0.00    -0.207 OA
ATOM     20  O   UNL A   1      36.429  31.585  28.124  1.00  0.00    -0.207 OA
BRANCH  18  21
ATOM     21  N   UNL A   1      34.573  32.004  29.743  1.00  0.00    -0.225 NA
ATOM     22  H   UNL A   1      34.013  31.182  29.973  1.00  0.00     0.137 HD
ATOM     23  H   UNL A   1      34.022  32.847  29.902  1.00  0.00     0.137 HD
ENDBRANCH  18  21
ENDBRANCH  13  18
ENDBRANCH   8  12
BRANCH  10  24
ATOM     24  C   UNL A   1      30.656  27.668  23.936  1.00  0.00     0.030 A 
ATOM     25  C   UNL A   1      30.585  28.977  23.491  1.00  0.00     0.017 A 
ATOM     26  S   UNL A   1      29.139  26.880  23.758  1.00  0.00    -0.147 S 
ATOM     27  C   UNL A   1      29.298  29.319  22.987  1.00  0.00     0.012 A 
ATOM     28  C   UNL A   1      28.425  28.258  23.046  1.00  0.00     0.065 A 
ENDBRANCH  10  24
ENDBRANCH   4   7
ENDBRANCH   2   3
ENDBRANCH   1   2
BRANCH   1  29
ATOM     29  C   UNL A   1      35.987  23.108  26.129  1.00  0.00     0.118 C 
BRANCH  29  30
ATOM     30  N   UNL A   1      36.923  22.003  25.961  1.00  0.00    -0.352 N 
ATOM     31  C   UNL A   1      38.293  21.981  26.010  1.00  0.00     0.251 C 
ATOM     32  H   UNL A   1      36.503  21.132  25.780  1.00  0.00     0.163 HD
ATOM     33  O   UNL A   1      38.886  20.991  25.586  1.00  0.00    -0.269 OA
BRANCH  31  34
ATOM     34  C   UNL A   1      39.055  23.116  26.575  1.00  0.00     0.039 A 
ATOM     35  C   UNL A   1      38.749  24.412  26.146  1.00  0.00     0.014 A 
ATOM     36  C   UNL A   1      40.114  22.909  27.462  1.00  0.00     0.014 A 
ATOM     37  C   UNL A   1      39.489  25.496  26.624  1.00  0.00     0.010 A 
ATOM     38  C   UNL A   1      40.790  23.996  28.006  1.00  0.00     0.010 A 
ATOM     39  C   UNL A   1      40.510  25.297  27.567  1.00  0.00    -0.014 A 
BRANCH  39  40
ATOM     40  C   UNL A   1      41.332  26.429  28.063  1.00  0.00     0.031 A 
ATOM     41  C   UNL A   1      42.750  26.596  27.581  1.00  0.00     0.074 A 
ATOM     42  C   UNL A   1      40.831  27.259  28.997  1.00  0.00     0.049 A 
ATOM     43  N   UNL A   1      43.638  27.494  27.925  1.00  0.00    -0.248 NA
ATOM     44  C   UNL A   1      43.251  25.606  26.613  1.00  0.00     0.031 C 
ATOM     45  C   UNL A   1      39.505  27.144  29.610  1.00  0.00     0.029 A 
ATOM     46  N   UNL A   1      41.386  28.353  29.610  1.00  0.00    -0.354 N 
ATOM     47  C   UNL A   1      44.806  27.149  27.254  1.00  0.00     0.074 A 
ATOM     48  C   UNL A   1      44.528  25.938  26.516  1.00  0.00     0.031 C 
ATOM     49  C   UNL A   1      39.346  28.134  30.503  1.00  0.00     0.029 A 
ATOM     50  C   UNL A   1      40.560  28.944  30.538  1.00  0.00     0.049 A 
ATOM     51  H   UNL A   1      42.290  28.684  29.406  1.00  0.00     0.167 HD
ATOM     52  C   UNL A   1      45.992  27.802  27.222  1.00  0.00     0.034 A 
ATOM     53  C   UNL A   1      40.758  30.024  31.319  1.00  0.00     0.034 A 
ATOM     54  C   UNL A   1      46.239  29.047  27.899  1.00  0.00     0.049 A 
ATOM     55  C   UNL A   1      42.046  30.790  31.186  1.00  0.00     0.074 A 
ATOM     56  C   UNL A   1      47.371  29.839  27.862  1.00  0.00     0.029 A 
ATOM     57  N   UNL A   1      45.330  29.684  28.729  1.00  0.00    -0.354 N 
ATOM     58  N   UNL A   1      43.082  30.536  30.423  1.00  0.00    -0.248 NA
ATOM     59  C   UNL A   1      42.174  32.018  31.983  1.00  0.00     0.031 C 
ATOM     60  C   UNL A   1      47.146  30.958  28.672  1.00  0.00     0.029 A 
ATOM     61  C   UNL A   1      45.870  30.866  29.203  1.00  0.00     0.049 A 
ATOM     62  H   UNL A   1      44.432  29.345  28.949  1.00  0.00     0.167 HD
ATOM     63  C   UNL A   1      43.965  31.592  30.616  1.00  0.00     0.074 A 
ATOM     64  C   UNL A   1      43.332  32.499  31.552  1.00  0.00     0.031 C 
ATOM     65  C   UNL A   1      45.197  31.787  30.081  1.00  0.00     0.034 A 
BRANCH  52  66
ATOM     66  C   UNL A   1      47.087  27.219  26.366  1.00  0.00     0.023 A 
ATOM     67  C   UNL A   1      47.898  26.189  26.887  1.00  0.00     0.012 A 
ATOM     68  C   UNL A   1      47.290  27.654  25.042  1.00  0.00     0.148 A 
ATOM     69  C   UNL A   1      48.918  25.629  26.120  1.00  0.00     0.002 A 
ATOM     70  C   UNL A   1      48.282  27.059  24.268  1.00  0.00     0.091 A 
ATOM     71  F   UNL A   1      46.527  28.650  24.571  1.00  0.00    -0.205 F 
ATOM     72  C   UNL A   1      49.103  26.057  24.809  1.00  0.00     0.022 A 
BRANCH  70  73
ATOM     73  S   UNL A   1      48.547  27.486  22.543  1.00  0.00     0.127 S 
ATOM     74  O   UNL A   1      47.336  28.247  22.238  1.00  0.00    -0.237 OA
ATOM     75  O   UNL A   1      49.770  28.287  22.607  1.00  0.00    -0.237 OA
ATOM     76  O   UNL A   1      48.688  26.221  21.836  1.00  0.00    -0.744 OA
ENDBRANCH  70  73
ENDBRANCH  52  66
BRANCH  53  77
ATOM     77  C   UNL A   1      39.665  30.504  32.211  1.00  0.00     0.023 A 
ATOM     78  C   UNL A   1      39.561  29.979  33.514  1.00  0.00     0.012 A 
ATOM     79  C   UNL A   1      38.758  31.497  31.797  1.00  0.00     0.148 A 
ATOM     80  C   UNL A   1      38.554  30.408  34.377  1.00  0.00     0.002 A 
ATOM     81  C   UNL A   1      37.789  31.959  32.681  1.00  0.00     0.091 A 
ATOM     82  F   UNL A   1      38.866  31.978  30.551  1.00  0.00    -0.205 F 
ATOM     83  C   UNL A   1      37.673  31.405  33.965  1.00  0.00     0.022 A 
BRANCH  81  84
ATOM     84  S   UNL A   1      36.702  33.333  32.280  1.00  0.00     0.127 S 
ATOM     85  O   UNL A   1      35.393  32.792  32.633  1.00  0.00    -0.237 OA
ATOM     86  O   UNL A   1      37.197  34.383  33.170  1.00  0.00    -0.237 OA
ATOM     87  O   UNL A   1      36.920  33.601  30.864  1.00  0.00    -0.744 OA
ENDBRANCH  81  84
ENDBRANCH  53  77
BRANCH  65  88
ATOM     88  C   UNL A   1      45.927  33.047  30.461  1.00  0.00     0.023 A 
ATOM     89  C   UNL A   1      46.770  33.054  31.589  1.00  0.00     0.012 A 
ATOM     90  C   UNL A   1      45.828  34.203  29.663  1.00  0.00     0.148 A 
ATOM     91  C   UNL A   1      47.476  34.205  31.938  1.00  0.00     0.002 A 
ATOM     92  C   UNL A   1      46.571  35.332  29.991  1.00  0.00     0.091 A 
ATOM     93  F   UNL A   1      45.002  34.187  28.606  1.00  0.00    -0.205 F 
ATOM     94  C   UNL A   1      47.386  35.339  31.133  1.00  0.00     0.022 A 
BRANCH  92  95
ATOM     95  S   UNL A   1      46.580  36.795  28.949  1.00  0.00     0.127 S 
ATOM     96  O   UNL A   1      47.502  37.670  29.669  1.00  0.00    -0.237 OA
ATOM     97  O   UNL A   1      47.095  36.278  27.680  1.00  0.00    -0.237 OA
ATOM     98  O   UNL A   1      45.195  37.244  28.892  1.00  0.00    -0.744 OA
ENDBRANCH  92  95
ENDBRANCH  65  88
ENDBRANCH  39  40
ENDBRANCH  31  34
ENDBRANCH  29  30
ENDBRANCH   1  29
TORSDOF 17
ENDMDL
