MODEL 1
REMARK VINA RESULT:     -12.8      0.000      0.000
REMARK SMILES C[C@@]12CCC[C@](C)(C(=O)NCCCNC(=O)c3ccc(-c4c5nc(c(-c6cccc(S(=O)(=O)[O-])c6F)c6ccc([nH]6)c(-c6cccc(S(=O)(=O)[O-])c6F)c6nc(c(-c7cccc(S(=O)(=O)[O-])c7F)c7ccc4[nH]7)C=C6)C=C5)cc3)[C@H]1CC[C@@]13C=C(CO)[C@@H](CC[C@@H]12)C3
REMARK SMILES IDX 12 1 11 2 10 3 8 4 9 5 6 7 1 8 2 9 3 10 80 11 91 12 4 13
REMARK SMILES IDX 81 14 83 15 90 16 5 17 7 18 82 19 84 20 92 21 89 22 85 23
REMARK SMILES IDX 88 24 86 25 87 26 13 28 14 29 15 30 16 32 17 33 18 34 79 35
REMARK SMILES IDX 19 36 78 37 20 38 21 39 22 40 72 41 23 42 77 43 71 44 73 45
REMARK SMILES IDX 24 46 76 47 70 48 69 49 25 51 57 52 37 53 56 54 38 55 41 56
REMARK SMILES IDX 55 57 74 58 39 59 40 60 54 62 75 63 42 64 26 65 27 66 35 67
REMARK SMILES IDX 28 68 30 69 36 70 29 71 31 72 32 73 33 74 34 75 58 76 59 77
REMARK SMILES IDX 67 78 60 79 62 80 68 81 61 82 63 83 64 84 65 85 66 86 43 87
REMARK SMILES IDX 44 88 52 89 45 90 47 91 53 92 46 93 48 94 49 95 50 96 51 97
REMARK H PARENT 10 6 87 27 14 31 73 50 41 61
REMARK Flexibility Score: inf
ROOT
ATOM      1  C   UNL A   1      35.348  23.328  26.254  1.00  0.00     0.042 C 
ENDROOT
BRANCH   1   2
ATOM      2  C   UNL A   1      34.613  22.094  25.748  1.00  0.00     0.117 C 
BRANCH   2   3
ATOM      3  N   UNL A   1      34.324  22.181  24.318  1.00  0.00    -0.356 N 
ATOM      4  C   UNL A   1      33.290  22.707  23.594  1.00  0.00     0.226 C 
ATOM      5  O   UNL A   1      33.358  22.562  22.371  1.00  0.00    -0.274 OA
ATOM      6  H   UNL A   1      35.022  21.774  23.757  1.00  0.00     0.163 HD
BRANCH   4   7
ATOM      7  C   UNL A   1      32.139  23.505  24.256  1.00  0.00     0.050 C 
ATOM      8  C   UNL A   1      30.242  25.922  24.422  1.00  0.00     0.012 C 
ATOM      9  C   UNL A   1      31.449  25.765  25.414  1.00  0.00    -0.025 C 
ATOM     10  C   UNL A   1      30.974  24.983  26.660  1.00  0.00     0.007 C 
ATOM     11  C   UNL A   1      32.603  24.951  24.758  1.00  0.00     0.010 C 
ATOM     12  C   UNL A   1      31.845  27.232  25.790  1.00  0.00     0.005 C 
ATOM     13  C   UNL A   1      30.647  23.512  26.395  1.00  0.00     0.002 C 
ATOM     14  C   UNL A   1      33.464  25.782  23.800  1.00  0.00     0.006 C 
ATOM     15  C   UNL A   1      32.786  28.001  24.778  1.00  0.00    -0.008 C 
ATOM     16  C   UNL A   1      32.108  27.787  27.182  1.00  0.00     0.006 C 
ATOM     17  C   UNL A   1      31.724  22.773  25.582  1.00  0.00     0.017 C 
ATOM     18  C   UNL A   1      30.930  23.326  23.293  1.00  0.00     0.022 C 
ATOM     19  C   UNL A   1      33.937  27.134  24.325  1.00  0.00     0.012 C 
ATOM     20  C   UNL A   1      31.833  28.568  23.773  1.00  0.00    -0.018 C 
ATOM     21  C   UNL A   1      33.276  29.376  25.310  1.00  0.00     0.019 C 
ATOM     22  C   UNL A   1      31.614  29.288  27.091  1.00  0.00     0.008 C 
ATOM     23  C   UNL A   1      31.177  29.575  24.390  1.00  0.00    -0.045 C 
ATOM     24  C   UNL A   1      31.924  29.976  25.698  1.00  0.00     0.018 C 
BRANCH  23  25
ATOM     25  C   UNL A   1      29.929  30.203  23.876  1.00  0.00     0.187 C 
BRANCH  25  26
ATOM     26  O   UNL A   1      29.857  31.572  24.285  1.00  0.00    -0.392 OA
ATOM     27  H   UNL A   1      29.956  32.147  23.510  1.00  0.00     0.211 HD
ENDBRANCH  25  26
ENDBRANCH  23  25
ENDBRANCH   4   7
ENDBRANCH   2   3
ENDBRANCH   1   2
BRANCH   1  28
ATOM     28  C   UNL A   1      36.660  23.550  25.536  1.00  0.00     0.118 C 
BRANCH  28  29
ATOM     29  N   UNL A   1      37.636  22.543  25.906  1.00  0.00    -0.352 N 
ATOM     30  C   UNL A   1      38.908  22.718  26.393  1.00  0.00     0.251 C 
ATOM     31  H   UNL A   1      37.347  21.608  25.793  1.00  0.00     0.163 HD
ATOM     32  O   UNL A   1      39.691  21.771  26.379  1.00  0.00    -0.269 OA
BRANCH  30  33
ATOM     33  C   UNL A   1      39.338  24.037  26.918  1.00  0.00     0.039 A 
ATOM     34  C   UNL A   1      40.012  24.917  26.069  1.00  0.00     0.014 A 
ATOM     35  C   UNL A   1      39.109  24.399  28.248  1.00  0.00     0.014 A 
ATOM     36  C   UNL A   1      40.428  26.162  26.549  1.00  0.00     0.010 A 
ATOM     37  C   UNL A   1      39.407  25.683  28.684  1.00  0.00     0.010 A 
ATOM     38  C   UNL A   1      40.114  26.564  27.857  1.00  0.00    -0.014 A 
BRANCH  38  39
ATOM     39  C   UNL A   1      40.558  27.874  28.397  1.00  0.00     0.031 A 
ATOM     40  C   UNL A   1      42.028  28.163  28.564  1.00  0.00     0.074 A 
ATOM     41  C   UNL A   1      39.647  28.775  28.812  1.00  0.00     0.049 A 
ATOM     42  N   UNL A   1      42.611  29.224  29.057  1.00  0.00    -0.248 NA
ATOM     43  C   UNL A   1      42.968  27.104  28.157  1.00  0.00     0.031 C 
ATOM     44  C   UNL A   1      38.196  28.577  28.797  1.00  0.00     0.029 A 
ATOM     45  N   UNL A   1      39.807  30.025  29.353  1.00  0.00    -0.354 N 
ATOM     46  C   UNL A   1      43.973  28.942  29.064  1.00  0.00     0.074 A 
ATOM     47  C   UNL A   1      44.126  27.592  28.573  1.00  0.00     0.031 C 
ATOM     48  C   UNL A   1      37.599  29.669  29.300  1.00  0.00     0.029 A 
ATOM     49  C   UNL A   1      38.623  30.630  29.702  1.00  0.00     0.049 A 
ATOM     50  H   UNL A   1      40.686  30.448  29.481  1.00  0.00     0.167 HD
ATOM     51  C   UNL A   1      45.009  29.743  29.411  1.00  0.00     0.034 A 
ATOM     52  C   UNL A   1      38.386  31.820  30.287  1.00  0.00     0.034 A 
ATOM     53  C   UNL A   1      44.854  31.103  29.851  1.00  0.00     0.049 A 
ATOM     54  C   UNL A   1      39.546  32.722  30.607  1.00  0.00     0.074 A 
ATOM     55  C   UNL A   1      45.837  32.037  30.123  1.00  0.00     0.029 A 
ATOM     56  N   UNL A   1      43.637  31.719  30.097  1.00  0.00    -0.354 N 
ATOM     57  N   UNL A   1      40.827  32.504  30.442  1.00  0.00    -0.248 NA
ATOM     58  C   UNL A   1      39.226  34.048  31.152  1.00  0.00     0.031 C 
ATOM     59  C   UNL A   1      45.214  33.208  30.565  1.00  0.00     0.029 A 
ATOM     60  C   UNL A   1      43.841  33.017  30.534  1.00  0.00     0.049 A 
ATOM     61  H   UNL A   1      42.756  31.295  29.979  1.00  0.00     0.167 HD
ATOM     62  C   UNL A   1      41.468  33.673  30.839  1.00  0.00     0.074 A 
ATOM     63  C   UNL A   1      40.429  34.603  31.230  1.00  0.00     0.031 C 
ATOM     64  C   UNL A   1      42.796  33.945  30.885  1.00  0.00     0.034 A 
BRANCH  51  65
ATOM     65  C   UNL A   1      46.400  29.174  29.279  1.00  0.00     0.023 A 
ATOM     66  C   UNL A   1      46.968  28.453  30.351  1.00  0.00     0.012 A 
ATOM     67  C   UNL A   1      47.143  29.342  28.094  1.00  0.00     0.148 A 
ATOM     68  C   UNL A   1      48.269  27.958  30.270  1.00  0.00     0.002 A 
ATOM     69  C   UNL A   1      48.421  28.800  28.001  1.00  0.00     0.091 A 
ATOM     70  F   UNL A   1      46.602  30.048  27.092  1.00  0.00    -0.205 F 
ATOM     71  C   UNL A   1      48.991  28.124  29.092  1.00  0.00     0.022 A 
BRANCH  69  72
ATOM     72  S   UNL A   1      49.396  28.887  26.495  1.00  0.00     0.127 S 
ATOM     73  O   UNL A   1      50.512  27.998  26.812  1.00  0.00    -0.237 OA
ATOM     74  O   UNL A   1      48.465  28.363  25.494  1.00  0.00    -0.237 OA
ATOM     75  O   UNL A   1      49.738  30.293  26.323  1.00  0.00    -0.744 OA
ENDBRANCH  69  72
ENDBRANCH  51  65
BRANCH  52  76
ATOM     76  C   UNL A   1      36.979  32.237  30.543  1.00  0.00     0.023 A 
ATOM     77  C   UNL A   1      36.451  32.144  31.844  1.00  0.00     0.012 A 
ATOM     78  C   UNL A   1      36.193  32.799  29.518  1.00  0.00     0.148 A 
ATOM     79  C   UNL A   1      35.157  32.589  32.118  1.00  0.00     0.002 A 
ATOM     80  C   UNL A   1      34.928  33.293  29.810  1.00  0.00     0.091 A 
ATOM     81  F   UNL A   1      36.716  32.873  28.286  1.00  0.00    -0.205 F 
ATOM     82  C   UNL A   1      34.401  33.174  31.106  1.00  0.00     0.022 A 
BRANCH  80  83
ATOM     83  S   UNL A   1      33.943  34.192  28.606  1.00  0.00     0.127 S 
ATOM     84  O   UNL A   1      33.644  33.148  27.626  1.00  0.00    -0.237 OA
ATOM     85  O   UNL A   1      32.799  34.618  29.416  1.00  0.00    -0.237 OA
ATOM     86  O   UNL A   1      34.782  35.277  28.133  1.00  0.00    -0.744 OA
ENDBRANCH  80  83
ENDBRANCH  52  76
BRANCH  64  87
ATOM     87  C   UNL A   1      43.213  35.315  31.353  1.00  0.00     0.023 A 
ATOM     88  C   UNL A   1      43.475  35.542  32.718  1.00  0.00     0.012 A 
ATOM     89  C   UNL A   1      43.419  36.357  30.426  1.00  0.00     0.148 A 
ATOM     90  C   UNL A   1      43.906  36.793  33.158  1.00  0.00     0.002 A 
ATOM     91  C   UNL A   1      43.897  37.585  30.865  1.00  0.00     0.091 A 
ATOM     92  F   UNL A   1      43.147  36.126  29.134  1.00  0.00    -0.205 F 
ATOM     93  C   UNL A   1      44.129  37.810  32.232  1.00  0.00     0.022 A 
BRANCH  91  94
ATOM     94  S   UNL A   1      44.308  38.919  29.733  1.00  0.00     0.127 S 
ATOM     95  O   UNL A   1      45.303  38.282  28.872  1.00  0.00    -0.237 OA
ATOM     96  O   UNL A   1      43.022  39.184  29.088  1.00  0.00    -0.237 OA
ATOM     97  O   UNL A   1      44.805  40.010  30.560  1.00  0.00    -0.744 OA
ENDBRANCH  91  94
ENDBRANCH  64  87
ENDBRANCH  38  39
ENDBRANCH  30  33
ENDBRANCH  28  29
ENDBRANCH   1  28
TORSDOF 15
ENDMDL
MODEL 2
REMARK VINA RESULT:     -12.7      4.708      9.661
REMARK SMILES C[C@@]12CCC[C@](C)(C(=O)NCCCNC(=O)c3ccc(-c4c5nc(c(-c6cccc(S(=O)(=O)[O-])c6F)c6ccc([nH]6)c(-c6cccc(S(=O)(=O)[O-])c6F)c6nc(c(-c7cccc(S(=O)(=O)[O-])c7F)c7ccc4[nH]7)C=C6)C=C5)cc3)[C@H]1CC[C@@]13C=C(CO)[C@@H](CC[C@@H]12)C3
REMARK SMILES IDX 12 1 11 2 10 3 8 4 9 5 6 7 1 8 2 9 3 10 80 11 91 12 4 13
REMARK SMILES IDX 81 14 83 15 90 16 5 17 7 18 82 19 84 20 92 21 89 22 85 23
REMARK SMILES IDX 88 24 86 25 87 26 13 28 14 29 15 30 16 32 17 33 18 34 79 35
REMARK SMILES IDX 19 36 78 37 20 38 21 39 22 40 72 41 23 42 77 43 71 44 73 45
REMARK SMILES IDX 24 46 76 47 70 48 69 49 25 51 57 52 37 53 56 54 38 55 41 56
REMARK SMILES IDX 55 57 74 58 39 59 40 60 54 62 75 63 42 64 26 65 27 66 35 67
REMARK SMILES IDX 28 68 30 69 36 70 29 71 31 72 32 73 33 74 34 75 58 76 59 77
REMARK SMILES IDX 67 78 60 79 62 80 68 81 61 82 63 83 64 84 65 85 66 86 43 87
REMARK SMILES IDX 44 88 52 89 45 90 47 91 53 92 46 93 48 94 49 95 50 96 51 97
REMARK H PARENT 10 6 87 27 14 31 73 50 41 61
REMARK Flexibility Score: inf
ROOT
ATOM      1  C   UNL A   1      32.957  28.034  26.321  1.00  0.00     0.042 C 
ENDROOT
BRANCH   1   2
ATOM      2  C   UNL A   1      32.111  28.087  25.057  1.00  0.00     0.117 C 
BRANCH   2   3
ATOM      3  N   UNL A   1      30.835  27.395  25.225  1.00  0.00    -0.356 N 
ATOM      4  C   UNL A   1      30.297  26.261  24.684  1.00  0.00     0.226 C 
ATOM      5  O   UNL A   1      29.147  25.986  25.035  1.00  0.00    -0.274 OA
ATOM      6  H   UNL A   1      30.235  27.840  25.866  1.00  0.00     0.163 HD
BRANCH   4   7
ATOM      7  C   UNL A   1      31.105  25.328  23.746  1.00  0.00     0.050 C 
ATOM      8  C   UNL A   1      32.332  22.606  23.005  1.00  0.00     0.012 C 
ATOM      9  C   UNL A   1      33.228  23.791  23.513  1.00  0.00    -0.025 C 
ATOM     10  C   UNL A   1      33.698  24.622  22.298  1.00  0.00     0.007 C 
ATOM     11  C   UNL A   1      32.416  24.738  24.446  1.00  0.00     0.010 C 
ATOM     12  C   UNL A   1      34.440  23.095  24.220  1.00  0.00     0.005 C 
ATOM     13  C   UNL A   1      32.584  25.404  21.599  1.00  0.00     0.002 C 
ATOM     14  C   UNL A   1      32.267  24.202  25.874  1.00  0.00     0.006 C 
ATOM     15  C   UNL A   1      34.223  22.626  25.715  1.00  0.00    -0.008 C 
ATOM     16  C   UNL A   1      35.916  23.416  24.043  1.00  0.00     0.006 C 
ATOM     17  C   UNL A   1      31.678  26.189  22.563  1.00  0.00     0.017 C 
ATOM     18  C   UNL A   1      30.038  24.400  23.099  1.00  0.00     0.022 C 
ATOM     19  C   UNL A   1      33.543  23.695  26.537  1.00  0.00     0.012 C 
ATOM     20  C   UNL A   1      33.595  21.276  25.571  1.00  0.00    -0.018 C 
ATOM     21  C   UNL A   1      35.522  22.114  26.397  1.00  0.00     0.019 C 
ATOM     22  C   UNL A   1      36.632  22.017  24.229  1.00  0.00     0.008 C 
ATOM     23  C   UNL A   1      34.566  20.443  25.138  1.00  0.00    -0.045 C 
ATOM     24  C   UNL A   1      35.964  21.103  25.337  1.00  0.00     0.018 C 
BRANCH  23  25
ATOM     25  C   UNL A   1      34.319  19.092  24.562  1.00  0.00     0.187 C 
BRANCH  25  26
ATOM     26  O   UNL A   1      35.488  18.277  24.688  1.00  0.00    -0.392 OA
ATOM     27  H   UNL A   1      35.455  17.791  25.526  1.00  0.00     0.211 HD
ENDBRANCH  25  26
ENDBRANCH  23  25
ENDBRANCH   4   7
ENDBRANCH   2   3
ENDBRANCH   1   2
BRANCH   1  28
ATOM     28  C   UNL A   1      34.193  28.897  26.222  1.00  0.00     0.118 C 
BRANCH  28  29
ATOM     29  N   UNL A   1      33.966  30.205  26.808  1.00  0.00    -0.352 N 
ATOM     30  C   UNL A   1      34.631  30.809  27.846  1.00  0.00     0.251 C 
ATOM     31  H   UNL A   1      33.235  30.730  26.406  1.00  0.00     0.163 HD
ATOM     32  O   UNL A   1      34.125  31.785  28.396  1.00  0.00    -0.269 OA
BRANCH  30  33
ATOM     33  C   UNL A   1      35.938  30.283  28.309  1.00  0.00     0.039 A 
ATOM     34  C   UNL A   1      37.079  30.535  27.544  1.00  0.00     0.014 A 
ATOM     35  C   UNL A   1      36.041  29.517  29.473  1.00  0.00     0.014 A 
ATOM     36  C   UNL A   1      38.318  30.042  27.964  1.00  0.00     0.010 A 
ATOM     37  C   UNL A   1      37.288  29.141  29.955  1.00  0.00     0.010 A 
ATOM     38  C   UNL A   1      38.437  29.355  29.184  1.00  0.00    -0.014 A 
BRANCH  38  39
ATOM     39  C   UNL A   1      39.737  28.807  29.644  1.00  0.00     0.031 A 
ATOM     40  C   UNL A   1      40.487  29.479  30.766  1.00  0.00     0.074 A 
ATOM     41  C   UNL A   1      40.286  27.753  29.009  1.00  0.00     0.049 A 
ATOM     42  N   UNL A   1      41.652  29.180  31.278  1.00  0.00    -0.248 NA
ATOM     43  C   UNL A   1      39.862  30.671  31.367  1.00  0.00     0.031 C 
ATOM     44  C   UNL A   1      39.710  27.073  27.848  1.00  0.00     0.029 A 
ATOM     45  N   UNL A   1      41.465  27.088  29.234  1.00  0.00    -0.354 N 
ATOM     46  C   UNL A   1      41.918  30.166  32.221  1.00  0.00     0.074 A 
ATOM     47  C   UNL A   1      40.817  31.102  32.175  1.00  0.00     0.031 C 
ATOM     48  C   UNL A   1      40.533  26.085  27.465  1.00  0.00     0.029 A 
ATOM     49  C   UNL A   1      41.708  26.080  28.332  1.00  0.00     0.049 A 
ATOM     50  H   UNL A   1      42.078  27.312  29.970  1.00  0.00     0.167 HD
ATOM     51  C   UNL A   1      42.964  30.270  33.076  1.00  0.00     0.034 A 
ATOM     52  C   UNL A   1      42.762  25.249  28.209  1.00  0.00     0.034 A 
ATOM     53  C   UNL A   1      44.031  29.311  33.153  1.00  0.00     0.049 A 
ATOM     54  C   UNL A   1      43.884  25.338  29.206  1.00  0.00     0.074 A 
ATOM     55  C   UNL A   1      45.080  29.259  34.052  1.00  0.00     0.029 A 
ATOM     56  N   UNL A   1      44.193  28.240  32.287  1.00  0.00    -0.354 N 
ATOM     57  N   UNL A   1      44.033  26.173  30.205  1.00  0.00    -0.248 NA
ATOM     58  C   UNL A   1      44.960  24.345  29.087  1.00  0.00     0.031 C 
ATOM     59  C   UNL A   1      45.894  28.175  33.710  1.00  0.00     0.029 A 
ATOM     60  C   UNL A   1      45.334  27.529  32.619  1.00  0.00     0.049 A 
ATOM     61  H   UNL A   1      43.586  28.019  31.543  1.00  0.00     0.167 HD
ATOM     62  C   UNL A   1      45.204  25.793  30.851  1.00  0.00     0.074 A 
ATOM     63  C   UNL A   1      45.712  24.637  30.141  1.00  0.00     0.031 C 
ATOM     64  C   UNL A   1      45.809  26.358  31.926  1.00  0.00     0.034 A 
BRANCH  51  65
ATOM     65  C   UNL A   1      42.970  31.442  34.027  1.00  0.00     0.023 A 
ATOM     66  C   UNL A   1      43.570  32.659  33.638  1.00  0.00     0.012 A 
ATOM     67  C   UNL A   1      42.374  31.347  35.300  1.00  0.00     0.148 A 
ATOM     68  C   UNL A   1      43.627  33.740  34.516  1.00  0.00     0.002 A 
ATOM     69  C   UNL A   1      42.389  32.448  36.151  1.00  0.00     0.091 A 
ATOM     70  F   UNL A   1      41.827  30.180  35.667  1.00  0.00    -0.205 F 
ATOM     71  C   UNL A   1      43.030  33.637  35.768  1.00  0.00     0.022 A 
BRANCH  69  72
ATOM     72  S   UNL A   1      41.571  32.439  37.750  1.00  0.00     0.127 S 
ATOM     73  O   UNL A   1      42.346  31.432  38.473  1.00  0.00    -0.237 OA
ATOM     74  O   UNL A   1      41.779  33.813  38.210  1.00  0.00    -0.237 OA
ATOM     75  O   UNL A   1      40.181  32.096  37.484  1.00  0.00    -0.744 OA
ENDBRANCH  69  72
ENDBRANCH  51  65
BRANCH  52  76
ATOM     76  C   UNL A   1      42.758  24.225  27.128  1.00  0.00     0.023 A 
ATOM     77  C   UNL A   1      43.478  24.461  25.942  1.00  0.00     0.012 A 
ATOM     78  C   UNL A   1      42.111  22.986  27.307  1.00  0.00     0.148 A 
ATOM     79  C   UNL A   1      43.540  23.488  24.944  1.00  0.00     0.002 A 
ATOM     80  C   UNL A   1      42.225  22.000  26.335  1.00  0.00     0.091 A 
ATOM     81  F   UNL A   1      41.429  22.786  28.443  1.00  0.00    -0.205 F 
ATOM     82  C   UNL A   1      42.925  22.255  25.145  1.00  0.00     0.022 A 
BRANCH  80  83
ATOM     83  S   UNL A   1      41.592  20.336  26.572  1.00  0.00     0.127 S 
ATOM     84  O   UNL A   1      40.146  20.562  26.555  1.00  0.00    -0.237 OA
ATOM     85  O   UNL A   1      42.118  19.646  25.390  1.00  0.00    -0.237 OA
ATOM     86  O   UNL A   1      42.141  19.875  27.832  1.00  0.00    -0.744 OA
ENDBRANCH  80  83
ENDBRANCH  52  76
BRANCH  64  87
ATOM     87  C   UNL A   1      47.080  25.723  32.426  1.00  0.00     0.023 A 
ATOM     88  C   UNL A   1      48.320  26.106  31.876  1.00  0.00     0.012 A 
ATOM     89  C   UNL A   1      47.051  24.805  33.494  1.00  0.00     0.148 A 
ATOM     90  C   UNL A   1      49.508  25.561  32.361  1.00  0.00     0.002 A 
ATOM     91  C   UNL A   1      48.242  24.305  34.005  1.00  0.00     0.091 A 
ATOM     92  F   UNL A   1      45.861  24.440  33.991  1.00  0.00    -0.205 F 
ATOM     93  C   UNL A   1      49.471  24.672  33.432  1.00  0.00     0.022 A 
BRANCH  91  94
ATOM     94  S   UNL A   1      48.296  23.233  35.446  1.00  0.00     0.127 S 
ATOM     95  O   UNL A   1      47.637  24.059  36.457  1.00  0.00    -0.237 OA
ATOM     96  O   UNL A   1      47.519  22.076  35.001  1.00  0.00    -0.237 OA
ATOM     97  O   UNL A   1      49.705  22.956  35.689  1.00  0.00    -0.744 OA
ENDBRANCH  91  94
ENDBRANCH  64  87
ENDBRANCH  38  39
ENDBRANCH  30  33
ENDBRANCH  28  29
ENDBRANCH   1  28
TORSDOF 15
ENDMDL
MODEL 3
REMARK VINA RESULT:     -12.6      4.226      9.440
REMARK SMILES C[C@@]12CCC[C@](C)(C(=O)NCCCNC(=O)c3ccc(-c4c5nc(c(-c6cccc(S(=O)(=O)[O-])c6F)c6ccc([nH]6)c(-c6cccc(S(=O)(=O)[O-])c6F)c6nc(c(-c7cccc(S(=O)(=O)[O-])c7F)c7ccc4[nH]7)C=C6)C=C5)cc3)[C@H]1CC[C@@]13C=C(CO)[C@@H](CC[C@@H]12)C3
REMARK SMILES IDX 12 1 11 2 10 3 8 4 9 5 6 7 1 8 2 9 3 10 80 11 91 12 4 13
REMARK SMILES IDX 81 14 83 15 90 16 5 17 7 18 82 19 84 20 92 21 89 22 85 23
REMARK SMILES IDX 88 24 86 25 87 26 13 28 14 29 15 30 16 32 17 33 18 34 79 35
REMARK SMILES IDX 19 36 78 37 20 38 21 39 22 40 72 41 23 42 77 43 71 44 73 45
REMARK SMILES IDX 24 46 76 47 70 48 69 49 25 51 57 52 37 53 56 54 38 55 41 56
REMARK SMILES IDX 55 57 74 58 39 59 40 60 54 62 75 63 42 64 26 65 27 66 35 67
REMARK SMILES IDX 28 68 30 69 36 70 29 71 31 72 32 73 33 74 34 75 58 76 59 77
REMARK SMILES IDX 67 78 60 79 62 80 68 81 61 82 63 83 64 84 65 85 66 86 43 87
REMARK SMILES IDX 44 88 52 89 45 90 47 91 53 92 46 93 48 94 49 95 50 96 51 97
REMARK H PARENT 10 6 87 27 14 31 73 50 41 61
REMARK Flexibility Score: inf
ROOT
ATOM      1  C   UNL A   1      33.786  28.325  24.913  1.00  0.00     0.042 C 
ENDROOT
BRANCH   1   2
ATOM      2  C   UNL A   1      32.399  28.594  24.346  1.00  0.00     0.117 C 
BRANCH   2   3
ATOM      3  N   UNL A   1      31.366  27.841  25.053  1.00  0.00    -0.356 N 
ATOM      4  C   UNL A   1      30.866  26.575  24.926  1.00  0.00     0.226 C 
ATOM      5  O   UNL A   1      29.944  26.278  25.689  1.00  0.00    -0.274 OA
ATOM      6  H   UNL A   1      30.938  28.355  25.776  1.00  0.00     0.163 HD
BRANCH   4   7
ATOM      7  C   UNL A   1      31.469  25.543  23.939  1.00  0.00     0.050 C 
ATOM      8  C   UNL A   1      32.433  22.715  23.204  1.00  0.00     0.012 C 
ATOM      9  C   UNL A   1      33.453  23.875  23.484  1.00  0.00    -0.025 C 
ATOM     10  C   UNL A   1      33.762  24.603  22.156  1.00  0.00     0.007 C 
ATOM     11  C   UNL A   1      32.846  24.922  24.465  1.00  0.00     0.010 C 
ATOM     12  C   UNL A   1      34.728  23.155  24.039  1.00  0.00     0.005 C 
ATOM     13  C   UNL A   1      32.588  25.404  21.588  1.00  0.00     0.002 C 
ATOM     14  C   UNL A   1      32.902  24.482  25.932  1.00  0.00     0.006 C 
ATOM     15  C   UNL A   1      34.731  22.790  25.577  1.00  0.00    -0.008 C 
ATOM     16  C   UNL A   1      36.171  23.379  23.611  1.00  0.00     0.006 C 
ATOM     17  C   UNL A   1      31.886  26.296  22.625  1.00  0.00     0.017 C 
ATOM     18  C   UNL A   1      30.270  24.639  23.532  1.00  0.00     0.022 C 
ATOM     19  C   UNL A   1      34.242  23.943  26.421  1.00  0.00     0.012 C 
ATOM     20  C   UNL A   1      34.024  21.471  25.627  1.00  0.00    -0.018 C 
ATOM     21  C   UNL A   1      36.096  22.246  26.082  1.00  0.00     0.019 C 
ATOM     22  C   UNL A   1      36.841  21.955  23.779  1.00  0.00     0.008 C 
ATOM     23  C   UNL A   1      34.874  20.560  25.105  1.00  0.00    -0.045 C 
ATOM     24  C   UNL A   1      36.316  21.149  25.038  1.00  0.00     0.018 C 
BRANCH  23  25
ATOM     25  C   UNL A   1      34.475  19.193  24.669  1.00  0.00     0.187 C 
BRANCH  25  26
ATOM     26  O   UNL A   1      33.489  18.657  25.555  1.00  0.00    -0.392 OA
ATOM     27  H   UNL A   1      33.089  19.376  26.069  1.00  0.00     0.211 HD
ENDBRANCH  25  26
ENDBRANCH  23  25
ENDBRANCH   4   7
ENDBRANCH   2   3
ENDBRANCH   1   2
BRANCH   1  28
ATOM     28  C   UNL A   1      33.853  28.559  26.405  1.00  0.00     0.118 C 
BRANCH  28  29
ATOM     29  N   UNL A   1      33.737  29.971  26.718  1.00  0.00    -0.352 N 
ATOM     30  C   UNL A   1      34.498  30.725  27.577  1.00  0.00     0.251 C 
ATOM     31  H   UNL A   1      33.016  30.453  26.251  1.00  0.00     0.163 HD
ATOM     32  O   UNL A   1      34.084  31.825  27.937  1.00  0.00    -0.269 OA
BRANCH  30  33
ATOM     33  C   UNL A   1      35.797  30.215  28.077  1.00  0.00     0.039 A 
ATOM     34  C   UNL A   1      36.923  30.307  27.256  1.00  0.00     0.014 A 
ATOM     35  C   UNL A   1      35.907  29.616  29.336  1.00  0.00     0.014 A 
ATOM     36  C   UNL A   1      38.154  29.826  27.710  1.00  0.00     0.010 A 
ATOM     37  C   UNL A   1      37.153  29.260  29.834  1.00  0.00     0.010 A 
ATOM     38  C   UNL A   1      38.285  29.313  29.011  1.00  0.00    -0.014 A 
BRANCH  38  39
ATOM     39  C   UNL A   1      39.577  28.781  29.512  1.00  0.00     0.031 A 
ATOM     40  C   UNL A   1      40.290  29.470  30.648  1.00  0.00     0.074 A 
ATOM     41  C   UNL A   1      40.151  27.726  28.902  1.00  0.00     0.049 A 
ATOM     42  N   UNL A   1      41.443  29.185  31.194  1.00  0.00    -0.248 NA
ATOM     43  C   UNL A   1      39.639  30.662  31.220  1.00  0.00     0.031 C 
ATOM     44  C   UNL A   1      39.613  27.030  27.732  1.00  0.00     0.029 A 
ATOM     45  N   UNL A   1      41.329  27.073  29.165  1.00  0.00    -0.354 N 
ATOM     46  C   UNL A   1      41.675  30.183  32.134  1.00  0.00     0.074 A 
ATOM     47  C   UNL A   1      40.568  31.108  32.049  1.00  0.00     0.031 C 
ATOM     48  C   UNL A   1      40.454  26.046  27.381  1.00  0.00     0.029 A 
ATOM     49  C   UNL A   1      41.605  26.059  28.279  1.00  0.00     0.049 A 
ATOM     50  H   UNL A   1      41.920  27.309  29.915  1.00  0.00     0.167 HD
ATOM     51  C   UNL A   1      42.696  30.303  33.016  1.00  0.00     0.034 A 
ATOM     52  C   UNL A   1      42.669  25.236  28.193  1.00  0.00     0.034 A 
ATOM     53  C   UNL A   1      43.769  29.354  33.131  1.00  0.00     0.049 A 
ATOM     54  C   UNL A   1      43.762  25.344  29.220  1.00  0.00     0.074 A 
ATOM     55  C   UNL A   1      44.793  29.319  34.059  1.00  0.00     0.029 A 
ATOM     56  N   UNL A   1      43.964  28.277  32.280  1.00  0.00    -0.354 N 
ATOM     57  N   UNL A   1      43.877  26.189  30.214  1.00  0.00    -0.248 NA
ATOM     58  C   UNL A   1      44.850  24.360  29.139  1.00  0.00     0.031 C 
ATOM     59  C   UNL A   1      45.626  28.239  33.749  1.00  0.00     0.029 A 
ATOM     60  C   UNL A   1      45.101  27.579  32.649  1.00  0.00     0.049 A 
ATOM     61  H   UNL A   1      43.379  28.043  31.522  1.00  0.00     0.167 HD
ATOM     62  C   UNL A   1      45.034  25.826  30.895  1.00  0.00     0.074 A 
ATOM     63  C   UNL A   1      45.570  24.667  30.210  1.00  0.00     0.031 C 
ATOM     64  C   UNL A   1      45.604  26.406  31.980  1.00  0.00     0.034 A 
BRANCH  51  65
ATOM     65  C   UNL A   1      42.666  31.484  33.955  1.00  0.00     0.023 A 
ATOM     66  C   UNL A   1      43.258  32.705  33.567  1.00  0.00     0.012 A 
ATOM     67  C   UNL A   1      42.045  31.393  35.216  1.00  0.00     0.148 A 
ATOM     68  C   UNL A   1      43.283  33.795  34.436  1.00  0.00     0.002 A 
ATOM     69  C   UNL A   1      42.028  32.501  36.057  1.00  0.00     0.091 A 
ATOM     70  F   UNL A   1      41.506  30.222  35.583  1.00  0.00    -0.205 F 
ATOM     71  C   UNL A   1      42.661  33.695  35.677  1.00  0.00     0.022 A 
BRANCH  69  72
ATOM     72  S   UNL A   1      41.176  32.497  37.639  1.00  0.00     0.127 S 
ATOM     73  O   UNL A   1      39.868  31.960  37.269  1.00  0.00    -0.237 OA
ATOM     74  O   UNL A   1      42.005  31.588  38.432  1.00  0.00    -0.237 OA
ATOM     75  O   UNL A   1      41.185  33.878  38.100  1.00  0.00    -0.744 OA
ENDBRANCH  69  72
ENDBRANCH  51  65
BRANCH  52  76
ATOM     76  C   UNL A   1      42.703  24.202  27.122  1.00  0.00     0.023 A 
ATOM     77  C   UNL A   1      43.471  24.423  25.964  1.00  0.00     0.012 A 
ATOM     78  C   UNL A   1      42.043  22.968  27.286  1.00  0.00     0.148 A 
ATOM     79  C   UNL A   1      43.568  23.441  24.978  1.00  0.00     0.002 A 
ATOM     80  C   UNL A   1      42.191  21.973  26.328  1.00  0.00     0.091 A 
ATOM     81  F   UNL A   1      41.314  22.782  28.395  1.00  0.00    -0.205 F 
ATOM     82  C   UNL A   1      42.939  22.213  25.165  1.00  0.00     0.022 A 
BRANCH  80  83
ATOM     83  S   UNL A   1      41.539  20.314  26.554  1.00  0.00     0.127 S 
ATOM     84  O   UNL A   1      42.158  19.921  27.822  1.00  0.00    -0.237 OA
ATOM     85  O   UNL A   1      40.098  20.568  26.629  1.00  0.00    -0.237 OA
ATOM     86  O   UNL A   1      41.958  19.557  25.389  1.00  0.00    -0.744 OA
ENDBRANCH  80  83
ENDBRANCH  52  76
BRANCH  64  87
ATOM     87  C   UNL A   1      46.867  25.786  32.520  1.00  0.00     0.023 A 
ATOM     88  C   UNL A   1      46.802  24.897  33.611  1.00  0.00     0.012 A 
ATOM     89  C   UNL A   1      48.107  26.026  31.896  1.00  0.00     0.148 A 
ATOM     90  C   UNL A   1      47.957  24.281  34.091  1.00  0.00     0.002 A 
ATOM     91  C   UNL A   1      49.245  25.370  32.348  1.00  0.00     0.091 A 
ATOM     92  F   UNL A   1      48.150  26.890  30.872  1.00  0.00    -0.205 F 
ATOM     93  C   UNL A   1      49.175  24.507  33.454  1.00  0.00     0.022 A 
BRANCH  91  94
ATOM     94  S   UNL A   1      50.835  25.523  31.526  1.00  0.00     0.127 S 
ATOM     95  O   UNL A   1      51.681  24.665  32.354  1.00  0.00    -0.237 OA
ATOM     96  O   UNL A   1      50.547  24.993  30.193  1.00  0.00    -0.237 OA
ATOM     97  O   UNL A   1      51.168  26.940  31.553  1.00  0.00    -0.744 OA
ENDBRANCH  91  94
ENDBRANCH  64  87
ENDBRANCH  38  39
ENDBRANCH  30  33
ENDBRANCH  28  29
ENDBRANCH   1  28
TORSDOF 15
ENDMDL
