MODEL 1
REMARK VINA RESULT:     -11.5      0.000      0.000
REMARK SMILES NC(=O)c1cccc(NC2(CC(=O)NCCCNC(=O)c3ccc(-c4c5nc(c(-c6cccc(S(=O)(=O)[O-])c6F)c6ccc([nH]6)c(-c6cccc(S(=O)(=O)[O-])c6F)c6nc(c(-c7cccc(S(=O)(=O)[O-])c7F)c7ccc4[nH]7)C=C6)C=C5)cc3)CCC2)n1
REMARK SMILES IDX 15 1 14 2 12 3 13 4 11 6 10 7 84 8 86 9 85 10 9 11 8 13 4 14
REMARK SMILES IDX 5 15 87 16 6 17 7 18 2 19 1 20 3 23 16 24 17 25 18 26 19 27
REMARK SMILES IDX 20 29 21 30 22 31 83 32 23 33 82 34 24 35 25 36 26 37 76 38
REMARK SMILES IDX 27 39 81 40 75 41 77 42 28 43 80 44 74 45 73 46 29 48 61 49
REMARK SMILES IDX 41 50 60 51 42 52 45 53 59 54 78 55 43 56 44 57 58 59 79 60
REMARK SMILES IDX 46 61 30 62 31 63 39 64 32 65 34 66 40 67 33 68 35 69 36 70
REMARK SMILES IDX 37 71 38 72 62 73 63 74 71 75 64 76 66 77 72 78 65 79 67 80
REMARK SMILES IDX 68 81 69 82 70 83 47 84 48 85 56 86 49 87 51 88 57 89 50 90
REMARK SMILES IDX 52 91 53 92 54 93 55 94
REMARK H PARENT 14 5 9 12 1 21 1 22 18 28 77 47 45 58
REMARK Flexibility Score: inf
ROOT
ATOM      1  C   UNL A   1      31.683  27.677  26.264  1.00  0.00     0.117 C 
ENDROOT
BRANCH   1   2
ATOM      2  N   UNL A   1      31.021  26.499  26.789  1.00  0.00    -0.356 N 
ATOM      3  C   UNL A   1      30.856  25.280  26.210  1.00  0.00     0.222 C 
ATOM      4  O   UNL A   1      30.097  24.469  26.748  1.00  0.00    -0.275 OA
ATOM      5  H   UNL A   1      30.637  26.595  27.691  1.00  0.00     0.163 HD
BRANCH   3   6
ATOM      6  C   UNL A   1      31.589  24.910  24.938  1.00  0.00     0.128 C 
BRANCH   6   7
ATOM      7  C   UNL A   1      32.669  23.825  25.079  1.00  0.00     0.048 C 
ATOM      8  C   UNL A   1      33.751  24.184  26.145  1.00  0.00     0.029 C 
ATOM      9  C   UNL A   1      33.814  23.873  24.022  1.00  0.00     0.029 C 
ATOM     10  C   UNL A   1      34.632  24.724  25.006  1.00  0.00     0.005 C 
BRANCH   7  11
ATOM     11  N   UNL A   1      32.075  22.531  25.316  1.00  0.00    -0.364 N 
ATOM     12  H   UNL A   1      31.539  22.465  26.139  1.00  0.00     0.162 HD
BRANCH  11  13
ATOM     13  C   UNL A   1      32.145  21.351  24.556  1.00  0.00     0.127 A 
ATOM     14  C   UNL A   1      32.568  19.077  24.388  1.00  0.00     0.130 A 
ATOM     15  C   UNL A   1      32.393  19.067  23.012  1.00  0.00     0.034 A 
ATOM     16  N   UNL A   1      32.430  20.186  25.154  1.00  0.00    -0.226 NA
ATOM     17  C   UNL A   1      32.072  20.270  22.398  1.00  0.00     0.006 A 
ATOM     18  C   UNL A   1      31.962  21.424  23.175  1.00  0.00     0.047 A 
BRANCH  14  19
ATOM     19  C   UNL A   1      32.924  17.826  25.124  1.00  0.00     0.267 C 
ATOM     20  N   UNL A   1      32.700  17.824  26.477  1.00  0.00    -0.364 N 
ATOM     21  H   UNL A   1      32.918  17.025  27.011  1.00  0.00     0.160 HD
ATOM     22  H   UNL A   1      32.322  18.620  26.916  1.00  0.00     0.160 HD
ATOM     23  O   UNL A   1      33.381  16.846  24.549  1.00  0.00    -0.268 OA
ENDBRANCH  14  19
ENDBRANCH  11  13
ENDBRANCH   7  11
ENDBRANCH   6   7
ENDBRANCH   3   6
ENDBRANCH   1   2
BRANCH   1  24
ATOM     24  C   UNL A   1      33.084  27.838  26.851  1.00  0.00     0.042 C 
BRANCH  24  25
ATOM     25  C   UNL A   1      33.949  28.862  26.127  1.00  0.00     0.118 C 
BRANCH  25  26
ATOM     26  N   UNL A   1      33.808  30.194  26.693  1.00  0.00    -0.352 N 
ATOM     27  C   UNL A   1      34.535  30.837  27.663  1.00  0.00     0.251 C 
ATOM     28  H   UNL A   1      33.068  30.724  26.316  1.00  0.00     0.163 HD
ATOM     29  O   UNL A   1      34.080  31.870  28.151  1.00  0.00    -0.269 OA
BRANCH  27  30
ATOM     30  C   UNL A   1      35.842  30.317  28.129  1.00  0.00     0.039 A 
ATOM     31  C   UNL A   1      35.905  29.689  29.378  1.00  0.00     0.014 A 
ATOM     32  C   UNL A   1      37.016  30.503  27.395  1.00  0.00     0.014 A 
ATOM     33  C   UNL A   1      37.129  29.222  29.867  1.00  0.00     0.010 A 
ATOM     34  C   UNL A   1      38.219  29.959  27.842  1.00  0.00     0.010 A 
ATOM     35  C   UNL A   1      38.295  29.333  29.094  1.00  0.00    -0.014 A 
BRANCH  35  36
ATOM     36  C   UNL A   1      39.597  28.813  29.587  1.00  0.00     0.031 A 
ATOM     37  C   UNL A   1      40.324  29.507  30.710  1.00  0.00     0.074 A 
ATOM     38  C   UNL A   1      40.162  27.751  28.977  1.00  0.00     0.049 A 
ATOM     39  N   UNL A   1      41.480  29.216  31.247  1.00  0.00    -0.248 NA
ATOM     40  C   UNL A   1      39.682  30.701  31.287  1.00  0.00     0.031 C 
ATOM     41  C   UNL A   1      39.603  27.042  27.824  1.00  0.00     0.029 A 
ATOM     42  N   UNL A   1      41.345  27.100  29.226  1.00  0.00    -0.354 N 
ATOM     43  C   UNL A   1      41.722  30.206  32.194  1.00  0.00     0.074 A 
ATOM     44  C   UNL A   1      40.608  31.126  32.134  1.00  0.00     0.031 C 
ATOM     45  C   UNL A   1      40.438  26.052  27.470  1.00  0.00     0.029 A 
ATOM     46  C   UNL A   1      41.602  26.072  28.349  1.00  0.00     0.049 A 
ATOM     47  H   UNL A   1      41.951  27.345  29.961  1.00  0.00     0.167 HD
ATOM     48  C   UNL A   1      42.760  30.324  33.056  1.00  0.00     0.034 A 
ATOM     49  C   UNL A   1      42.661  25.242  28.258  1.00  0.00     0.034 A 
ATOM     50  C   UNL A   1      43.842  29.380  33.148  1.00  0.00     0.049 A 
ATOM     51  C   UNL A   1      43.772  25.359  29.265  1.00  0.00     0.074 A 
ATOM     52  C   UNL A   1      44.889  29.358  34.052  1.00  0.00     0.029 A 
ATOM     53  N   UNL A   1      44.020  28.295  32.304  1.00  0.00    -0.354 N 
ATOM     54  N   UNL A   1      43.900  26.204  30.258  1.00  0.00    -0.248 NA
ATOM     55  C   UNL A   1      44.867  24.382  29.161  1.00  0.00     0.031 C 
ATOM     56  C   UNL A   1      45.716  28.273  33.739  1.00  0.00     0.029 A 
ATOM     57  C   UNL A   1      45.166  27.603  32.659  1.00  0.00     0.049 A 
ATOM     58  H   UNL A   1      43.420  28.052  31.562  1.00  0.00     0.167 HD
ATOM     59  C   UNL A   1      45.067  25.842  30.919  1.00  0.00     0.074 A 
ATOM     60  C   UNL A   1      45.597  24.685  30.226  1.00  0.00     0.031 C 
ATOM     61  C   UNL A   1      45.656  26.423  31.993  1.00  0.00     0.034 A 
BRANCH  48  62
ATOM     62  C   UNL A   1      42.754  31.490  34.011  1.00  0.00     0.023 A 
ATOM     63  C   UNL A   1      43.332  32.715  33.619  1.00  0.00     0.012 A 
ATOM     64  C   UNL A   1      42.117  31.398  35.265  1.00  0.00     0.148 A 
ATOM     65  C   UNL A   1      43.309  33.818  34.471  1.00  0.00     0.002 A 
ATOM     66  C   UNL A   1      42.058  32.516  36.090  1.00  0.00     0.091 A 
ATOM     67  F   UNL A   1      41.590  30.220  35.630  1.00  0.00    -0.205 F 
ATOM     68  C   UNL A   1      42.662  33.721  35.700  1.00  0.00     0.022 A 
BRANCH  66  69
ATOM     69  S   UNL A   1      41.180  32.517  37.658  1.00  0.00     0.127 S 
ATOM     70  O   UNL A   1      42.017  31.630  38.465  1.00  0.00    -0.237 OA
ATOM     71  O   UNL A   1      41.241  33.928  38.042  1.00  0.00    -0.237 OA
ATOM     72  O   UNL A   1      39.842  32.022  37.370  1.00  0.00    -0.744 OA
ENDBRANCH  66  69
ENDBRANCH  48  62
BRANCH  49  73
ATOM     73  C   UNL A   1      42.685  24.185  27.208  1.00  0.00     0.023 A 
ATOM     74  C   UNL A   1      43.375  24.421  26.002  1.00  0.00     0.012 A 
ATOM     75  C   UNL A   1      42.054  22.943  27.406  1.00  0.00     0.148 A 
ATOM     76  C   UNL A   1      43.407  23.451  25.000  1.00  0.00     0.002 A 
ATOM     77  C   UNL A   1      42.136  21.960  26.428  1.00  0.00     0.091 A 
ATOM     78  F   UNL A   1      41.393  22.744  28.556  1.00  0.00    -0.205 F 
ATOM     79  C   UNL A   1      42.797  22.218  25.216  1.00  0.00     0.022 A 
BRANCH  77  80
ATOM     80  S   UNL A   1      41.490  20.302  26.677  1.00  0.00     0.127 S 
ATOM     81  O   UNL A   1      42.212  19.877  27.872  1.00  0.00    -0.237 OA
ATOM     82  O   UNL A   1      40.063  20.562  26.875  1.00  0.00    -0.237 OA
ATOM     83  O   UNL A   1      41.801  19.570  25.455  1.00  0.00    -0.744 OA
ENDBRANCH  77  80
ENDBRANCH  49  73
BRANCH  61  84
ATOM     84  C   UNL A   1      46.926  25.803  32.514  1.00  0.00     0.023 A 
ATOM     85  C   UNL A   1      48.172  26.222  32.007  1.00  0.00     0.012 A 
ATOM     86  C   UNL A   1      46.886  24.852  33.553  1.00  0.00     0.148 A 
ATOM     87  C   UNL A   1      49.357  25.678  32.501  1.00  0.00     0.002 A 
ATOM     88  C   UNL A   1      48.073  24.352  34.075  1.00  0.00     0.091 A 
ATOM     89  F   UNL A   1      45.690  24.451  34.009  1.00  0.00    -0.205 F 
ATOM     90  C   UNL A   1      49.309  24.753  33.541  1.00  0.00     0.022 A 
BRANCH  88  91
ATOM     91  S   UNL A   1      48.109  23.232  35.479  1.00  0.00     0.127 S 
ATOM     92  O   UNL A   1      47.390  24.002  36.493  1.00  0.00    -0.237 OA
ATOM     93  O   UNL A   1      47.384  22.069  34.968  1.00  0.00    -0.237 OA
ATOM     94  O   UNL A   1      49.517  22.988  35.761  1.00  0.00    -0.744 OA
ENDBRANCH  88  91
ENDBRANCH  61  84
ENDBRANCH  35  36
ENDBRANCH  27  30
ENDBRANCH  25  26
ENDBRANCH  24  25
ENDBRANCH   1  24
TORSDOF 17
ENDMDL
MODEL 2
REMARK VINA RESULT:     -11.5      2.446      3.170
REMARK SMILES NC(=O)c1cccc(NC2(CC(=O)NCCCNC(=O)c3ccc(-c4c5nc(c(-c6cccc(S(=O)(=O)[O-])c6F)c6ccc([nH]6)c(-c6cccc(S(=O)(=O)[O-])c6F)c6nc(c(-c7cccc(S(=O)(=O)[O-])c7F)c7ccc4[nH]7)C=C6)C=C5)cc3)CCC2)n1
REMARK SMILES IDX 15 1 14 2 12 3 13 4 11 6 10 7 84 8 86 9 85 10 9 11 8 13 4 14
REMARK SMILES IDX 5 15 87 16 6 17 7 18 2 19 1 20 3 23 16 24 17 25 18 26 19 27
REMARK SMILES IDX 20 29 21 30 22 31 83 32 23 33 82 34 24 35 25 36 26 37 76 38
REMARK SMILES IDX 27 39 81 40 75 41 77 42 28 43 80 44 74 45 73 46 29 48 61 49
REMARK SMILES IDX 41 50 60 51 42 52 45 53 59 54 78 55 43 56 44 57 58 59 79 60
REMARK SMILES IDX 46 61 30 62 31 63 39 64 32 65 34 66 40 67 33 68 35 69 36 70
REMARK SMILES IDX 37 71 38 72 62 73 63 74 71 75 64 76 66 77 72 78 65 79 67 80
REMARK SMILES IDX 68 81 69 82 70 83 47 84 48 85 56 86 49 87 51 88 57 89 50 90
REMARK SMILES IDX 52 91 53 92 54 93 55 94
REMARK H PARENT 14 5 9 12 1 21 1 22 18 28 77 47 45 58
REMARK Flexibility Score: inf
ROOT
ATOM      1  C   UNL A   1      32.041  28.587  23.071  1.00  0.00     0.117 C 
ENDROOT
BRANCH   1   2
ATOM      2  N   UNL A   1      32.598  27.736  22.040  1.00  0.00    -0.356 N 
ATOM      3  C   UNL A   1      32.761  26.386  22.039  1.00  0.00     0.222 C 
ATOM      4  O   UNL A   1      33.430  25.873  21.137  1.00  0.00    -0.275 OA
ATOM      5  H   UNL A   1      32.900  28.199  21.225  1.00  0.00     0.163 HD
BRANCH   3   6
ATOM      6  C   UNL A   1      32.133  25.520  23.110  1.00  0.00     0.128 C 
BRANCH   6   7
ATOM      7  C   UNL A   1      33.115  24.796  24.046  1.00  0.00     0.048 C 
ATOM      8  C   UNL A   1      32.449  24.332  25.380  1.00  0.00     0.029 C 
ATOM      9  C   UNL A   1      34.020  25.719  24.917  1.00  0.00     0.029 C 
ATOM     10  C   UNL A   1      32.976  25.618  26.040  1.00  0.00     0.005 C 
BRANCH   7  11
ATOM     11  N   UNL A   1      33.781  23.713  23.361  1.00  0.00    -0.364 N 
ATOM     12  H   UNL A   1      33.808  23.797  22.380  1.00  0.00     0.162 HD
BRANCH  11  13
ATOM     13  C   UNL A   1      34.394  22.559  23.877  1.00  0.00     0.127 A 
ATOM     14  C   UNL A   1      34.261  20.394  24.697  1.00  0.00     0.130 A 
ATOM     15  C   UNL A   1      35.613  20.343  25.003  1.00  0.00     0.034 A 
ATOM     16  N   UNL A   1      33.660  21.467  24.128  1.00  0.00    -0.226 NA
ATOM     17  C   UNL A   1      36.377  21.467  24.717  1.00  0.00     0.006 A 
ATOM     18  C   UNL A   1      35.759  22.589  24.163  1.00  0.00     0.047 A 
BRANCH  14  19
ATOM     19  C   UNL A   1      33.368  19.231  24.981  1.00  0.00     0.267 C 
ATOM     20  N   UNL A   1      33.974  18.009  25.126  1.00  0.00    -0.364 N 
ATOM     21  H   UNL A   1      33.432  17.209  25.314  1.00  0.00     0.160 HD
ATOM     22  H   UNL A   1      34.952  17.932  25.042  1.00  0.00     0.160 HD
ATOM     23  O   UNL A   1      32.154  19.360  25.093  1.00  0.00    -0.268 OA
ENDBRANCH  14  19
ENDBRANCH  11  13
ENDBRANCH   7  11
ENDBRANCH   6   7
ENDBRANCH   3   6
ENDBRANCH   1   2
BRANCH   1  24
ATOM     24  C   UNL A   1      33.138  29.212  23.932  1.00  0.00     0.042 C 
BRANCH  24  25
ATOM     25  C   UNL A   1      32.800  29.287  25.415  1.00  0.00     0.118 C 
BRANCH  25  26
ATOM     26  N   UNL A   1      32.495  30.644  25.839  1.00  0.00    -0.352 N 
ATOM     27  C   UNL A   1      32.992  31.391  26.878  1.00  0.00     0.251 C 
ATOM     28  H   UNL A   1      31.820  31.105  25.289  1.00  0.00     0.163 HD
ATOM     29  O   UNL A   1      32.407  32.427  27.189  1.00  0.00    -0.269 OA
BRANCH  27  30
ATOM     30  C   UNL A   1      34.205  30.978  27.623  1.00  0.00     0.039 A 
ATOM     31  C   UNL A   1      35.204  31.931  27.854  1.00  0.00     0.014 A 
ATOM     32  C   UNL A   1      34.410  29.657  28.027  1.00  0.00     0.014 A 
ATOM     33  C   UNL A   1      36.379  31.568  28.517  1.00  0.00     0.010 A 
ATOM     34  C   UNL A   1      35.542  29.316  28.766  1.00  0.00     0.010 A 
ATOM     35  C   UNL A   1      36.551  30.261  28.999  1.00  0.00    -0.014 A 
BRANCH  35  36
ATOM     36  C   UNL A   1      37.782  29.868  29.734  1.00  0.00     0.031 A 
ATOM     37  C   UNL A   1      38.049  30.398  31.119  1.00  0.00     0.074 A 
ATOM     38  C   UNL A   1      38.698  29.086  29.127  1.00  0.00     0.049 A 
ATOM     39  N   UNL A   1      39.082  30.190  31.896  1.00  0.00    -0.248 NA
ATOM     40  C   UNL A   1      37.040  31.301  31.698  1.00  0.00     0.031 C 
ATOM     41  C   UNL A   1      38.600  28.577  27.757  1.00  0.00     0.029 A 
ATOM     42  N   UNL A   1      39.903  28.604  29.574  1.00  0.00    -0.354 N 
ATOM     43  C   UNL A   1      38.866  30.963  33.032  1.00  0.00     0.074 A 
ATOM     44  C   UNL A   1      37.621  31.671  32.830  1.00  0.00     0.031 C 
ATOM     45  C   UNL A   1      39.693  27.850  27.479  1.00  0.00     0.029 A 
ATOM     46  C   UNL A   1      40.583  27.863  28.636  1.00  0.00     0.049 A 
ATOM     47  H   UNL A   1      40.248  28.772  30.480  1.00  0.00     0.167 HD
ATOM     48  C   UNL A   1      39.618  31.053  34.156  1.00  0.00     0.034 A 
ATOM     49  C   UNL A   1      41.790  27.267  28.696  1.00  0.00     0.034 A 
ATOM     50  C   UNL A   1      40.830  30.310  34.375  1.00  0.00     0.049 A 
ATOM     51  C   UNL A   1      42.577  27.336  29.976  1.00  0.00     0.074 A 
ATOM     52  C   UNL A   1      41.612  30.257  35.516  1.00  0.00     0.029 A 
ATOM     53  N   UNL A   1      41.440  29.493  33.436  1.00  0.00    -0.354 N 
ATOM     54  N   UNL A   1      42.275  27.939  31.099  1.00  0.00    -0.248 NA
ATOM     55  C   UNL A   1      43.855  26.608  30.009  1.00  0.00     0.031 C 
ATOM     56  C   UNL A   1      42.709  29.429  35.257  1.00  0.00     0.029 A 
ATOM     57  C   UNL A   1      42.594  28.941  33.965  1.00  0.00     0.049 A 
ATOM     58  H   UNL A   1      41.101  29.330  32.525  1.00  0.00     0.167 HD
ATOM     59  C   UNL A   1      43.303  27.637  31.983  1.00  0.00     0.074 A 
ATOM     60  C   UNL A   1      44.226  26.776  31.271  1.00  0.00     0.031 C 
ATOM     61  C   UNL A   1      43.478  28.047  33.264  1.00  0.00     0.034 A 
BRANCH  48  62
ATOM     62  C   UNL A   1      39.126  31.950  35.262  1.00  0.00     0.023 A 
ATOM     63  C   UNL A   1      39.258  33.349  35.137  1.00  0.00     0.012 A 
ATOM     64  C   UNL A   1      38.472  31.419  36.392  1.00  0.00     0.148 A 
ATOM     65  C   UNL A   1      38.781  34.201  36.131  1.00  0.00     0.002 A 
ATOM     66  C   UNL A   1      37.958  32.277  37.358  1.00  0.00     0.091 A 
ATOM     67  F   UNL A   1      38.373  30.086  36.505  1.00  0.00    -0.205 F 
ATOM     68  C   UNL A   1      38.122  33.666  37.234  1.00  0.00     0.022 A 
BRANCH  66  69
ATOM     69  S   UNL A   1      37.023  31.692  38.776  1.00  0.00     0.127 S 
ATOM     70  O   UNL A   1      37.974  31.910  39.865  1.00  0.00    -0.237 OA
ATOM     71  O   UNL A   1      35.874  32.598  38.780  1.00  0.00    -0.237 OA
ATOM     72  O   UNL A   1      36.700  30.301  38.498  1.00  0.00    -0.744 OA
ENDBRANCH  66  69
ENDBRANCH  48  62
BRANCH  49  73
ATOM     73  C   UNL A   1      42.297  26.500  27.524  1.00  0.00     0.023 A 
ATOM     74  C   UNL A   1      43.100  27.148  26.564  1.00  0.00     0.012 A 
ATOM     75  C   UNL A   1      42.011  25.131  27.368  1.00  0.00     0.148 A 
ATOM     76  C   UNL A   1      43.581  26.454  25.454  1.00  0.00     0.002 A 
ATOM     77  C   UNL A   1      42.539  24.431  26.290  1.00  0.00     0.091 A 
ATOM     78  F   UNL A   1      41.236  24.536  28.286  1.00  0.00    -0.205 F 
ATOM     79  C   UNL A   1      43.310  25.094  25.322  1.00  0.00     0.022 A 
BRANCH  77  80
ATOM     80  S   UNL A   1      42.346  22.654  26.112  1.00  0.00     0.127 S 
ATOM     81  O   UNL A   1      43.016  22.406  24.840  1.00  0.00    -0.237 OA
ATOM     82  O   UNL A   1      43.053  22.154  27.292  1.00  0.00    -0.237 OA
ATOM     83  O   UNL A   1      40.909  22.410  26.128  1.00  0.00    -0.744 OA
ENDBRANCH  77  80
ENDBRANCH  49  73
BRANCH  61  84
ATOM     84  C   UNL A   1      44.694  27.546  33.998  1.00  0.00     0.023 A 
ATOM     85  C   UNL A   1      45.862  28.332  34.040  1.00  0.00     0.012 A 
ATOM     86  C   UNL A   1      44.655  26.327  34.703  1.00  0.00     0.148 A 
ATOM     87  C   UNL A   1      46.986  27.896  34.740  1.00  0.00     0.002 A 
ATOM     88  C   UNL A   1      45.761  25.922  35.441  1.00  0.00     0.091 A 
ATOM     89  F   UNL A   1      43.541  25.583  34.635  1.00  0.00    -0.205 F 
ATOM     90  C   UNL A   1      46.932  26.698  35.450  1.00  0.00     0.022 A 
BRANCH  88  91
ATOM     91  S   UNL A   1      45.747  24.445  36.462  1.00  0.00     0.127 S 
ATOM     92  O   UNL A   1      46.668  24.816  37.536  1.00  0.00    -0.237 OA
ATOM     93  O   UNL A   1      44.343  24.360  36.866  1.00  0.00    -0.237 OA
ATOM     94  O   UNL A   1      46.194  23.358  35.602  1.00  0.00    -0.744 OA
ENDBRANCH  88  91
ENDBRANCH  61  84
ENDBRANCH  35  36
ENDBRANCH  27  30
ENDBRANCH  25  26
ENDBRANCH  24  25
ENDBRANCH   1  24
TORSDOF 17
ENDMDL
MODEL 3
REMARK VINA RESULT:     -11.3      1.443      1.887
REMARK SMILES NC(=O)c1cccc(NC2(CC(=O)NCCCNC(=O)c3ccc(-c4c5nc(c(-c6cccc(S(=O)(=O)[O-])c6F)c6ccc([nH]6)c(-c6cccc(S(=O)(=O)[O-])c6F)c6nc(c(-c7cccc(S(=O)(=O)[O-])c7F)c7ccc4[nH]7)C=C6)C=C5)cc3)CCC2)n1
REMARK SMILES IDX 15 1 14 2 12 3 13 4 11 6 10 7 84 8 86 9 85 10 9 11 8 13 4 14
REMARK SMILES IDX 5 15 87 16 6 17 7 18 2 19 1 20 3 23 16 24 17 25 18 26 19 27
REMARK SMILES IDX 20 29 21 30 22 31 83 32 23 33 82 34 24 35 25 36 26 37 76 38
REMARK SMILES IDX 27 39 81 40 75 41 77 42 28 43 80 44 74 45 73 46 29 48 61 49
REMARK SMILES IDX 41 50 60 51 42 52 45 53 59 54 78 55 43 56 44 57 58 59 79 60
REMARK SMILES IDX 46 61 30 62 31 63 39 64 32 65 34 66 40 67 33 68 35 69 36 70
REMARK SMILES IDX 37 71 38 72 62 73 63 74 71 75 64 76 66 77 72 78 65 79 67 80
REMARK SMILES IDX 68 81 69 82 70 83 47 84 48 85 56 86 49 87 51 88 57 89 50 90
REMARK SMILES IDX 52 91 53 92 54 93 55 94
REMARK H PARENT 14 5 9 12 1 21 1 22 18 28 77 47 45 58
REMARK Flexibility Score: inf
ROOT
ATOM      1  C   UNL A   1      31.338  27.177  26.378  1.00  0.00     0.117 C 
ENDROOT
BRANCH   1   2
ATOM      2  N   UNL A   1      31.494  25.853  26.946  1.00  0.00    -0.356 N 
ATOM      3  C   UNL A   1      31.508  24.647  26.317  1.00  0.00     0.222 C 
ATOM      4  O   UNL A   1      31.463  23.623  27.005  1.00  0.00    -0.275 OA
ATOM      5  H   UNL A   1      31.607  25.821  27.924  1.00  0.00     0.163 HD
BRANCH   3   6
ATOM      6  C   UNL A   1      31.584  24.550  24.809  1.00  0.00     0.128 C 
BRANCH   6   7
ATOM      7  C   UNL A   1      32.998  24.426  24.217  1.00  0.00     0.048 C 
ATOM      8  C   UNL A   1      33.605  25.804  23.807  1.00  0.00     0.029 C 
ATOM      9  C   UNL A   1      33.064  24.043  22.707  1.00  0.00     0.029 C 
ATOM     10  C   UNL A   1      33.125  25.541  22.370  1.00  0.00     0.005 C 
BRANCH   7  11
ATOM     11  N   UNL A   1      33.867  23.686  25.100  1.00  0.00    -0.364 N 
ATOM     12  H   UNL A   1      34.203  24.194  25.874  1.00  0.00     0.162 HD
BRANCH  11  13
ATOM     13  C   UNL A   1      34.308  22.354  25.027  1.00  0.00     0.127 A 
ATOM     14  C   UNL A   1      33.886  20.075  25.119  1.00  0.00     0.130 A 
ATOM     15  C   UNL A   1      35.227  19.743  24.998  1.00  0.00     0.034 A 
ATOM     16  N   UNL A   1      33.426  21.350  25.115  1.00  0.00    -0.226 NA
ATOM     17  C   UNL A   1      36.137  20.784  24.880  1.00  0.00     0.006 A 
ATOM     18  C   UNL A   1      35.676  22.101  24.910  1.00  0.00     0.047 A 
BRANCH  14  19
ATOM     19  C   UNL A   1      32.843  19.015  25.260  1.00  0.00     0.267 C 
ATOM     20  N   UNL A   1      32.827  18.321  26.443  1.00  0.00    -0.364 N 
ATOM     21  H   UNL A   1      32.161  17.610  26.588  1.00  0.00     0.160 HD
ATOM     22  H   UNL A   1      33.481  18.533  27.147  1.00  0.00     0.160 HD
ATOM     23  O   UNL A   1      32.033  18.782  24.370  1.00  0.00    -0.268 OA
ENDBRANCH  14  19
ENDBRANCH  11  13
ENDBRANCH   7  11
ENDBRANCH   6   7
ENDBRANCH   3   6
ENDBRANCH   1   2
BRANCH   1  24
ATOM     24  C   UNL A   1      31.810  28.259  27.346  1.00  0.00     0.042 C 
BRANCH  24  25
ATOM     25  C   UNL A   1      33.274  28.647  27.184  1.00  0.00     0.118 C 
BRANCH  25  26
ATOM     26  N   UNL A   1      33.453  30.089  27.111  1.00  0.00    -0.352 N 
ATOM     27  C   UNL A   1      34.420  30.899  27.652  1.00  0.00     0.251 C 
ATOM     28  H   UNL A   1      32.768  30.562  26.586  1.00  0.00     0.163 HD
ATOM     29  O   UNL A   1      34.230  32.114  27.662  1.00  0.00    -0.269 OA
BRANCH  27  30
ATOM     30  C   UNL A   1      35.673  30.345  28.218  1.00  0.00     0.039 A 
ATOM     31  C   UNL A   1      36.822  30.340  27.418  1.00  0.00     0.014 A 
ATOM     32  C   UNL A   1      35.718  29.764  29.486  1.00  0.00     0.014 A 
ATOM     33  C   UNL A   1      38.011  29.789  27.903  1.00  0.00     0.010 A 
ATOM     34  C   UNL A   1      36.925  29.295  30.003  1.00  0.00     0.010 A 
ATOM     35  C   UNL A   1      38.081  29.280  29.209  1.00  0.00    -0.014 A 
BRANCH  35  36
ATOM     36  C   UNL A   1      39.347  28.720  29.750  1.00  0.00     0.031 A 
ATOM     37  C   UNL A   1      40.000  29.334  30.962  1.00  0.00     0.074 A 
ATOM     38  C   UNL A   1      39.949  27.698  29.108  1.00  0.00     0.049 A 
ATOM     39  N   UNL A   1      41.119  29.000  31.553  1.00  0.00    -0.248 NA
ATOM     40  C   UNL A   1      39.324  30.489  31.575  1.00  0.00     0.031 C 
ATOM     41  C   UNL A   1      39.465  27.071  27.876  1.00  0.00     0.029 A 
ATOM     42  N   UNL A   1      41.112  27.025  29.389  1.00  0.00    -0.354 N 
ATOM     43  C   UNL A   1      41.300  29.922  32.577  1.00  0.00     0.074 A 
ATOM     44  C   UNL A   1      40.193  30.852  32.507  1.00  0.00     0.031 C 
ATOM     45  C   UNL A   1      40.319  26.102  27.512  1.00  0.00     0.029 A 
ATOM     46  C   UNL A   1      41.424  26.056  28.464  1.00  0.00     0.049 A 
ATOM     47  H   UNL A   1      41.669  27.216  30.177  1.00  0.00     0.167 HD
ATOM     48  C   UNL A   1      42.280  29.976  33.511  1.00  0.00     0.034 A 
ATOM     49  C   UNL A   1      42.485  25.227  28.386  1.00  0.00     0.034 A 
ATOM     50  C   UNL A   1      43.352  29.023  33.609  1.00  0.00     0.049 A 
ATOM     51  C   UNL A   1      43.528  25.271  29.469  1.00  0.00     0.074 A 
ATOM     52  C   UNL A   1      44.337  28.933  34.576  1.00  0.00     0.029 A 
ATOM     53  N   UNL A   1      43.583  27.995  32.708  1.00  0.00    -0.354 N 
ATOM     54  N   UNL A   1      43.592  26.046  30.523  1.00  0.00    -0.248 NA
ATOM     55  C   UNL A   1      44.626  24.296  29.371  1.00  0.00     0.031 C 
ATOM     56  C   UNL A   1      45.181  27.867  34.245  1.00  0.00     0.029 A 
ATOM     57  C   UNL A   1      44.701  27.274  33.089  1.00  0.00     0.049 A 
ATOM     58  H   UNL A   1      43.032  27.806  31.914  1.00  0.00     0.167 HD
ATOM     59  C   UNL A   1      44.713  25.634  31.232  1.00  0.00     0.074 A 
ATOM     60  C   UNL A   1      45.285  24.523  30.499  1.00  0.00     0.031 C 
ATOM     61  C   UNL A   1      45.232  26.139  32.379  1.00  0.00     0.034 A 
BRANCH  48  62
ATOM     62  C   UNL A   1      42.212  31.076  34.539  1.00  0.00     0.023 A 
ATOM     63  C   UNL A   1      41.574  30.839  35.774  1.00  0.00     0.012 A 
ATOM     64  C   UNL A   1      42.838  32.319  34.315  1.00  0.00     0.148 A 
ATOM     65  C   UNL A   1      41.528  31.828  36.755  1.00  0.00     0.002 A 
ATOM     66  C   UNL A   1      42.828  33.285  35.315  1.00  0.00     0.091 A 
ATOM     67  F   UNL A   1      43.423  32.536  33.128  1.00  0.00    -0.205 F 
ATOM     68  C   UNL A   1      42.164  33.046  36.529  1.00  0.00     0.022 A 
BRANCH  66  69
ATOM     69  S   UNL A   1      43.686  34.856  35.155  1.00  0.00     0.127 S 
ATOM     70  O   UNL A   1      42.866  35.538  34.154  1.00  0.00    -0.237 OA
ATOM     71  O   UNL A   1      43.578  35.404  36.507  1.00  0.00    -0.237 OA
ATOM     72  O   UNL A   1      45.042  34.532  34.736  1.00  0.00    -0.744 OA
ENDBRANCH  66  69
ENDBRANCH  48  62
BRANCH  49  73
ATOM     73  C   UNL A   1      42.577  24.244  27.271  1.00  0.00     0.023 A 
ATOM     74  C   UNL A   1      43.276  24.587  26.098  1.00  0.00     0.012 A 
ATOM     75  C   UNL A   1      41.998  22.965  27.377  1.00  0.00     0.148 A 
ATOM     76  C   UNL A   1      43.370  23.686  25.037  1.00  0.00     0.002 A 
ATOM     77  C   UNL A   1      42.142  22.052  26.339  1.00  0.00     0.091 A 
ATOM     78  F   UNL A   1      41.326  22.662  28.496  1.00  0.00    -0.205 F 
ATOM     79  C   UNL A   1      42.813  22.416  25.161  1.00  0.00     0.022 A 
BRANCH  77  80
ATOM     80  S   UNL A   1      41.567  20.355  26.468  1.00  0.00     0.127 S 
ATOM     81  O   UNL A   1      42.157  19.749  25.278  1.00  0.00    -0.237 OA
ATOM     82  O   UNL A   1      42.159  19.931  27.737  1.00  0.00    -0.237 OA
ATOM     83  O   UNL A   1      40.111  20.432  26.482  1.00  0.00    -0.744 OA
ENDBRANCH  77  80
ENDBRANCH  49  73
BRANCH  61  84
ATOM     84  C   UNL A   1      46.464  25.477  32.938  1.00  0.00     0.023 A 
ATOM     85  C   UNL A   1      47.741  25.962  32.593  1.00  0.00     0.012 A 
ATOM     86  C   UNL A   1      46.354  24.416  33.859  1.00  0.00     0.148 A 
ATOM     87  C   UNL A   1      48.889  25.379  33.126  1.00  0.00     0.002 A 
ATOM     88  C   UNL A   1      47.501  23.873  34.426  1.00  0.00     0.091 A 
ATOM     89  F   UNL A   1      45.131  23.955  34.161  1.00  0.00    -0.205 F 
ATOM     90  C   UNL A   1      48.770  24.344  34.050  1.00  0.00     0.022 A 
BRANCH  88  91
ATOM     91  S   UNL A   1      47.438  22.605  35.696  1.00  0.00     0.127 S 
ATOM     92  O   UNL A   1      46.530  23.206  36.673  1.00  0.00    -0.237 OA
ATOM     93  O   UNL A   1      46.882  21.464  34.969  1.00  0.00    -0.237 OA
ATOM     94  O   UNL A   1      48.810  22.422  36.148  1.00  0.00    -0.744 OA
ENDBRANCH  88  91
ENDBRANCH  61  84
ENDBRANCH  35  36
ENDBRANCH  27  30
ENDBRANCH  25  26
ENDBRANCH  24  25
ENDBRANCH   1  24
TORSDOF 17
ENDMDL
