MODEL 1
REMARK VINA RESULT:     -11.7      0.000      0.000
REMARK SMILES Nc1ccc(N2CC3(CCC3)C2)c(C(=O)NCCCNC(=O)c2ccc(-c3c4nc(c(-c5cccc(S(=O)(=O)[O-])c5F)c5ccc([nH]5)c(-c5cccc(S(=O)(=O)[O-])c5F)c5nc(c(-c6cccc(S(=O)(=O)[O-])c6F)c6ccc3[nH]6)C=C5)C=C4)cc2)c1
REMARK SMILES IDX 19 1 18 2 17 3 16 4 14 5 15 6 13 8 2 9 3 10 86 11 4 12 5 13
REMARK SMILES IDX 1 14 6 17 7 18 12 19 8 20 9 21 11 22 10 23 20 24 21 25 22 27
REMARK SMILES IDX 23 28 24 29 85 30 25 31 84 32 26 33 27 34 28 35 78 36 29 37
REMARK SMILES IDX 83 38 77 39 79 40 30 41 82 42 76 43 75 44 31 46 63 47 43 48
REMARK SMILES IDX 62 49 44 50 47 51 61 52 80 53 45 54 46 55 60 57 81 58 48 59
REMARK SMILES IDX 32 60 33 61 41 62 34 63 36 64 42 65 35 66 37 67 38 68 39 69
REMARK SMILES IDX 40 70 64 71 65 72 73 73 66 74 68 75 74 76 67 77 69 78 70 79
REMARK SMILES IDX 71 80 72 81 49 82 50 83 58 84 51 85 53 86 59 87 52 88 54 89
REMARK SMILES IDX 55 90 56 91 57 92
REMARK H PARENT 16 7 1 15 1 16 20 26 79 45 47 56
REMARK Flexibility Score: inf
ROOT
ATOM      1  C   UNL A   1      33.858  29.127  26.227  1.00  0.00     0.118 C 
ENDROOT
BRANCH   1   2
ATOM      2  C   UNL A   1      33.268  28.136  27.233  1.00  0.00     0.042 C 
BRANCH   2   3
ATOM      3  C   UNL A   1      31.765  28.321  27.433  1.00  0.00     0.118 C 
BRANCH   3   4
ATOM      4  N   UNL A   1      31.051  27.159  26.947  1.00  0.00    -0.352 N 
ATOM      5  C   UNL A   1      30.854  26.548  25.736  1.00  0.00     0.253 C 
ATOM      6  O   UNL A   1      30.085  25.595  25.824  1.00  0.00    -0.269 OA
ATOM      7  H   UNL A   1      30.587  26.684  27.675  1.00  0.00     0.163 HD
BRANCH   5   8
ATOM      8  C   UNL A   1      31.543  26.917  24.449  1.00  0.00     0.065 A 
ATOM      9  C   UNL A   1      31.797  28.567  22.640  1.00  0.00     0.032 A 
ATOM     10  C   UNL A   1      33.045  28.040  22.343  1.00  0.00     0.027 A 
ATOM     11  C   UNL A   1      31.059  27.988  23.675  1.00  0.00     0.041 A 
ATOM     12  C   UNL A   1      33.496  26.901  23.010  1.00  0.00     0.029 A 
ATOM     13  C   UNL A   1      32.752  26.297  24.046  1.00  0.00     0.050 A 
BRANCH   9  14
ATOM     14  N   UNL A   1      31.367  29.745  22.047  1.00  0.00    -0.399 N 
ATOM     15  H   UNL A   1      30.799  29.714  21.243  1.00  0.00     0.156 HD
ATOM     16  H   UNL A   1      31.627  30.613  22.432  1.00  0.00     0.156 HD
ENDBRANCH   9  14
BRANCH  13  17
ATOM     17  N   UNL A   1      33.301  25.117  24.576  1.00  0.00    -0.370 N 
ATOM     18  C   UNL A   1      33.681  23.905  23.911  1.00  0.00     0.125 C 
ATOM     19  C   UNL A   1      33.949  24.789  25.812  1.00  0.00     0.125 C 
ATOM     20  C   UNL A   1      34.654  23.709  25.036  1.00  0.00     0.005 C 
ATOM     21  C   UNL A   1      34.873  22.364  25.679  1.00  0.00     0.011 C 
ATOM     22  C   UNL A   1      36.134  23.832  24.736  1.00  0.00     0.011 C 
ATOM     23  C   UNL A   1      36.352  22.800  25.866  1.00  0.00     0.001 C 
ENDBRANCH  13  17
ENDBRANCH   5   8
ENDBRANCH   3   4
ENDBRANCH   2   3
ENDBRANCH   1   2
BRANCH   1  24
ATOM     24  N   UNL A   1      33.842  30.494  26.737  1.00  0.00    -0.352 N 
ATOM     25  C   UNL A   1      34.635  31.080  27.693  1.00  0.00     0.251 C 
ATOM     26  H   UNL A   1      33.162  31.084  26.337  1.00  0.00     0.163 HD
ATOM     27  O   UNL A   1      34.313  32.158  28.180  1.00  0.00    -0.269 OA
BRANCH  25  28
ATOM     28  C   UNL A   1      35.872  30.402  28.130  1.00  0.00     0.039 A 
ATOM     29  C   UNL A   1      37.000  30.438  27.307  1.00  0.00     0.014 A 
ATOM     30  C   UNL A   1      35.908  29.725  29.352  1.00  0.00     0.014 A 
ATOM     31  C   UNL A   1      38.189  29.848  27.742  1.00  0.00     0.010 A 
ATOM     32  C   UNL A   1      37.111  29.206  29.815  1.00  0.00     0.010 A 
ATOM     33  C   UNL A   1      38.263  29.260  29.015  1.00  0.00    -0.014 A 
BRANCH  33  34
ATOM     34  C   UNL A   1      39.534  28.709  29.549  1.00  0.00     0.031 A 
ATOM     35  C   UNL A   1      40.252  29.420  30.663  1.00  0.00     0.074 A 
ATOM     36  C   UNL A   1      40.097  27.640  28.952  1.00  0.00     0.049 A 
ATOM     37  N   UNL A   1      41.428  29.173  31.177  1.00  0.00    -0.248 NA
ATOM     38  C   UNL A   1      39.570  30.582  31.259  1.00  0.00     0.031 C 
ATOM     39  C   UNL A   1      39.529  26.907  27.818  1.00  0.00     0.029 A 
ATOM     40  N   UNL A   1      41.293  27.008  29.188  1.00  0.00    -0.354 N 
ATOM     41  C   UNL A   1      41.648  30.169  32.120  1.00  0.00     0.074 A 
ATOM     42  C   UNL A   1      40.495  31.042  32.089  1.00  0.00     0.031 C 
ATOM     43  C   UNL A   1      40.376  25.932  27.454  1.00  0.00     0.029 A 
ATOM     44  C   UNL A   1      41.565  25.996  28.297  1.00  0.00     0.049 A 
ATOM     45  H   UNL A   1      41.897  27.257  29.925  1.00  0.00     0.167 HD
ATOM     46  C   UNL A   1      42.705  30.331  32.951  1.00  0.00     0.034 A 
ATOM     47  C   UNL A   1      42.660  25.222  28.158  1.00  0.00     0.034 A 
ATOM     48  C   UNL A   1      43.830  29.439  33.000  1.00  0.00     0.049 A 
ATOM     49  C   UNL A   1      43.811  25.409  29.109  1.00  0.00     0.074 A 
ATOM     50  C   UNL A   1      44.908  29.463  33.866  1.00  0.00     0.029 A 
ATOM     51  N   UNL A   1      44.031  28.371  32.139  1.00  0.00    -0.354 N 
ATOM     52  N   UNL A   1      43.936  26.265  30.095  1.00  0.00    -0.248 NA
ATOM     53  C   UNL A   1      44.960  24.505  28.952  1.00  0.00     0.031 C 
ATOM     54  C   UNL A   1      45.779  28.430  33.506  1.00  0.00     0.029 A 
ATOM     55  C   UNL A   1      45.222  27.737  32.443  1.00  0.00     0.049 A 
ATOM     56  H   UNL A   1      43.416  28.103  31.418  1.00  0.00     0.167 HD
ATOM     57  C   UNL A   1      45.154  25.977  30.699  1.00  0.00     0.074 A 
ATOM     58  C   UNL A   1      45.723  24.858  29.977  1.00  0.00     0.031 C 
ATOM     59  C   UNL A   1      45.750  26.589  31.751  1.00  0.00     0.034 A 
BRANCH  46  60
ATOM     60  C   UNL A   1      42.677  31.498  33.904  1.00  0.00     0.023 A 
ATOM     61  C   UNL A   1      43.222  32.737  33.511  1.00  0.00     0.012 A 
ATOM     62  C   UNL A   1      42.058  31.385  35.165  1.00  0.00     0.148 A 
ATOM     63  C   UNL A   1      43.187  33.835  34.371  1.00  0.00     0.002 A 
ATOM     64  C   UNL A   1      41.983  32.496  35.996  1.00  0.00     0.091 A 
ATOM     65  F   UNL A   1      41.563  30.194  35.530  1.00  0.00    -0.205 F 
ATOM     66  C   UNL A   1      42.558  33.717  35.608  1.00  0.00     0.022 A 
BRANCH  64  67
ATOM     67  S   UNL A   1      41.122  32.472  37.573  1.00  0.00     0.127 S 
ATOM     68  O   UNL A   1      41.985  31.598  38.366  1.00  0.00    -0.237 OA
ATOM     69  O   UNL A   1      41.157  33.881  37.962  1.00  0.00    -0.237 OA
ATOM     70  O   UNL A   1      39.791  31.949  37.297  1.00  0.00    -0.744 OA
ENDBRANCH  64  67
ENDBRANCH  46  60
BRANCH  47  71
ATOM     71  C   UNL A   1      42.700  24.167  27.105  1.00  0.00     0.023 A 
ATOM     72  C   UNL A   1      43.389  24.416  25.903  1.00  0.00     0.012 A 
ATOM     73  C   UNL A   1      42.083  22.915  27.297  1.00  0.00     0.148 A 
ATOM     74  C   UNL A   1      43.434  23.451  24.896  1.00  0.00     0.002 A 
ATOM     75  C   UNL A   1      42.179  21.938  26.313  1.00  0.00     0.091 A 
ATOM     76  F   UNL A   1      41.426  22.701  28.446  1.00  0.00    -0.205 F 
ATOM     77  C   UNL A   1      42.837  22.210  25.104  1.00  0.00     0.022 A 
BRANCH  75  78
ATOM     78  S   UNL A   1      41.558  20.270  26.546  1.00  0.00     0.127 S 
ATOM     79  O   UNL A   1      40.114  20.481  26.518  1.00  0.00    -0.237 OA
ATOM     80  O   UNL A   1      42.104  19.579  25.376  1.00  0.00    -0.237 OA
ATOM     81  O   UNL A   1      42.106  19.817  27.818  1.00  0.00    -0.744 OA
ENDBRANCH  75  78
ENDBRANCH  47  71
BRANCH  59  82
ATOM     82  C   UNL A   1      47.065  26.037  32.234  1.00  0.00     0.023 A 
ATOM     83  C   UNL A   1      48.275  26.539  31.716  1.00  0.00     0.012 A 
ATOM     84  C   UNL A   1      47.097  25.090  33.277  1.00  0.00     0.148 A 
ATOM     85  C   UNL A   1      49.498  26.087  32.213  1.00  0.00     0.002 A 
ATOM     86  C   UNL A   1      48.317  24.685  33.804  1.00  0.00     0.091 A 
ATOM     87  F   UNL A   1      45.933  24.615  33.743  1.00  0.00    -0.205 F 
ATOM     88  C   UNL A   1      49.519  25.174  33.265  1.00  0.00     0.022 A 
BRANCH  86  89
ATOM     89  S   UNL A   1      48.442  23.592  35.223  1.00  0.00     0.127 S 
ATOM     90  O   UNL A   1      47.676  24.324  36.230  1.00  0.00    -0.237 OA
ATOM     91  O   UNL A   1      47.798  22.374  34.732  1.00  0.00    -0.237 OA
ATOM     92  O   UNL A   1      49.865  23.455  35.505  1.00  0.00    -0.744 OA
ENDBRANCH  86  89
ENDBRANCH  59  82
ENDBRANCH  33  34
ENDBRANCH  25  28
ENDBRANCH   1  24
TORSDOF 15
ENDMDL
MODEL 2
REMARK VINA RESULT:     -11.7      3.643      9.240
REMARK SMILES Nc1ccc(N2CC3(CCC3)C2)c(C(=O)NCCCNC(=O)c2ccc(-c3c4nc(c(-c5cccc(S(=O)(=O)[O-])c5F)c5ccc([nH]5)c(-c5cccc(S(=O)(=O)[O-])c5F)c5nc(c(-c6cccc(S(=O)(=O)[O-])c6F)c6ccc3[nH]6)C=C5)C=C4)cc2)c1
REMARK SMILES IDX 19 1 18 2 17 3 16 4 14 5 15 6 13 8 2 9 3 10 86 11 4 12 5 13
REMARK SMILES IDX 1 14 6 17 7 18 12 19 8 20 9 21 11 22 10 23 20 24 21 25 22 27
REMARK SMILES IDX 23 28 24 29 85 30 25 31 84 32 26 33 27 34 28 35 78 36 29 37
REMARK SMILES IDX 83 38 77 39 79 40 30 41 82 42 76 43 75 44 31 46 63 47 43 48
REMARK SMILES IDX 62 49 44 50 47 51 61 52 80 53 45 54 46 55 60 57 81 58 48 59
REMARK SMILES IDX 32 60 33 61 41 62 34 63 36 64 42 65 35 66 37 67 38 68 39 69
REMARK SMILES IDX 40 70 64 71 65 72 73 73 66 74 68 75 74 76 67 77 69 78 70 79
REMARK SMILES IDX 71 80 72 81 49 82 50 83 58 84 51 85 53 86 59 87 52 88 54 89
REMARK SMILES IDX 55 90 56 91 57 92
REMARK H PARENT 16 7 1 15 1 16 20 26 79 45 47 56
REMARK Flexibility Score: inf
ROOT
ATOM      1  C   UNL A   1      32.798  32.359  27.378  1.00  0.00     0.118 C 
ENDROOT
BRANCH   1   2
ATOM      2  C   UNL A   1      31.685  31.742  26.529  1.00  0.00     0.042 C 
BRANCH   2   3
ATOM      3  C   UNL A   1      31.848  30.235  26.344  1.00  0.00     0.118 C 
BRANCH   3   4
ATOM      4  N   UNL A   1      32.492  29.954  25.078  1.00  0.00    -0.352 N 
ATOM      5  C   UNL A   1      32.559  28.894  24.211  1.00  0.00     0.253 C 
ATOM      6  O   UNL A   1      33.317  29.119  23.272  1.00  0.00    -0.269 OA
ATOM      7  H   UNL A   1      33.016  30.722  24.756  1.00  0.00     0.163 HD
BRANCH   5   8
ATOM      8  C   UNL A   1      31.755  27.626  24.318  1.00  0.00     0.065 A 
ATOM      9  C   UNL A   1      31.502  25.421  25.384  1.00  0.00     0.032 A 
ATOM     10  C   UNL A   1      30.156  25.422  25.052  1.00  0.00     0.027 A 
ATOM     11  C   UNL A   1      32.283  26.512  24.997  1.00  0.00     0.041 A 
ATOM     12  C   UNL A   1      29.632  26.452  24.271  1.00  0.00     0.029 A 
ATOM     13  C   UNL A   1      30.415  27.552  23.861  1.00  0.00     0.050 A 
BRANCH   9  14
ATOM     14  N   UNL A   1      32.023  24.451  26.227  1.00  0.00    -0.399 N 
ATOM     15  H   UNL A   1      31.437  23.753  26.598  1.00  0.00     0.156 HD
ATOM     16  H   UNL A   1      32.982  24.459  26.453  1.00  0.00     0.156 HD
ENDBRANCH   9  14
BRANCH  13  17
ATOM     17  N   UNL A   1      29.769  28.475  23.021  1.00  0.00    -0.370 N 
ATOM     18  C   UNL A   1      28.391  28.870  22.985  1.00  0.00     0.125 C 
ATOM     19  C   UNL A   1      30.224  29.534  22.170  1.00  0.00     0.125 C 
ATOM     20  C   UNL A   1      28.881  30.168  22.412  1.00  0.00     0.005 C 
ATOM     21  C   UNL A   1      28.175  30.856  21.273  1.00  0.00     0.011 C 
ATOM     22  C   UNL A   1      28.773  31.416  23.264  1.00  0.00     0.011 C 
ATOM     23  C   UNL A   1      28.607  32.192  21.937  1.00  0.00     0.001 C 
ENDBRANCH  13  17
ENDBRANCH   5   8
ENDBRANCH   3   4
ENDBRANCH   2   3
ENDBRANCH   1   2
BRANCH   1  24
ATOM     24  N   UNL A   1      32.575  33.782  27.614  1.00  0.00    -0.352 N 
ATOM     25  C   UNL A   1      33.113  34.604  28.574  1.00  0.00     0.251 C 
ATOM     26  H   UNL A   1      31.947  34.218  26.993  1.00  0.00     0.163 HD
ATOM     27  O   UNL A   1      32.619  35.706  28.785  1.00  0.00    -0.269 OA
BRANCH  25  28
ATOM     28  C   UNL A   1      34.285  34.151  29.350  1.00  0.00     0.039 A 
ATOM     29  C   UNL A   1      34.088  33.392  30.506  1.00  0.00     0.014 A 
ATOM     30  C   UNL A   1      35.576  34.488  28.935  1.00  0.00     0.014 A 
ATOM     31  C   UNL A   1      35.194  32.912  31.211  1.00  0.00     0.010 A 
ATOM     32  C   UNL A   1      36.673  33.947  29.594  1.00  0.00     0.010 A 
ATOM     33  C   UNL A   1      36.495  33.155  30.740  1.00  0.00    -0.014 A 
BRANCH  33  34
ATOM     34  C   UNL A   1      37.690  32.582  31.409  1.00  0.00     0.031 A 
ATOM     35  C   UNL A   1      38.440  31.449  30.763  1.00  0.00     0.074 A 
ATOM     36  C   UNL A   1      38.023  33.000  32.646  1.00  0.00     0.049 A 
ATOM     37  N   UNL A   1      39.423  30.733  31.242  1.00  0.00    -0.248 NA
ATOM     38  C   UNL A   1      38.010  31.050  29.412  1.00  0.00     0.031 C 
ATOM     39  C   UNL A   1      37.327  34.044  33.402  1.00  0.00     0.029 A 
ATOM     40  N   UNL A   1      39.005  32.570  33.503  1.00  0.00    -0.354 N 
ATOM     41  C   UNL A   1      39.699  29.773  30.277  1.00  0.00     0.074 A 
ATOM     42  C   UNL A   1      38.761  29.980  29.195  1.00  0.00     0.031 C 
ATOM     43  C   UNL A   1      37.899  34.169  34.609  1.00  0.00     0.029 A 
ATOM     44  C   UNL A   1      38.972  33.187  34.731  1.00  0.00     0.049 A 
ATOM     45  H   UNL A   1      39.669  31.885  33.260  1.00  0.00     0.167 HD
ATOM     46  C   UNL A   1      40.658  28.817  30.281  1.00  0.00     0.034 A 
ATOM     47  C   UNL A   1      39.707  32.972  35.841  1.00  0.00     0.034 A 
ATOM     48  C   UNL A   1      41.609  28.641  31.344  1.00  0.00     0.049 A 
ATOM     49  C   UNL A   1      40.782  31.919  35.811  1.00  0.00     0.074 A 
ATOM     50  C   UNL A   1      42.676  27.763  31.406  1.00  0.00     0.029 A 
ATOM     51  N   UNL A   1      41.600  29.345  32.539  1.00  0.00    -0.354 N 
ATOM     52  N   UNL A   1      41.125  31.119  34.830  1.00  0.00    -0.248 NA
ATOM     53  C   UNL A   1      41.592  31.757  37.027  1.00  0.00     0.031 C 
ATOM     54  C   UNL A   1      43.291  27.911  32.652  1.00  0.00     0.029 A 
ATOM     55  C   UNL A   1      42.633  28.912  33.350  1.00  0.00     0.049 A 
ATOM     56  H   UNL A   1      40.953  30.049  32.774  1.00  0.00     0.167 HD
ATOM     57  C   UNL A   1      42.214  30.391  35.294  1.00  0.00     0.074 A 
ATOM     58  C   UNL A   1      42.482  30.854  36.641  1.00  0.00     0.031 C 
ATOM     59  C   UNL A   1      42.922  29.421  34.667  1.00  0.00     0.034 A 
BRANCH  46  60
ATOM     60  C   UNL A   1      40.755  27.912  29.081  1.00  0.00     0.023 A 
ATOM     61  C   UNL A   1      39.918  26.781  28.987  1.00  0.00     0.012 A 
ATOM     62  C   UNL A   1      41.629  28.213  28.017  1.00  0.00     0.148 A 
ATOM     63  C   UNL A   1      39.977  25.942  27.874  1.00  0.00     0.002 A 
ATOM     64  C   UNL A   1      41.646  27.401  26.889  1.00  0.00     0.091 A 
ATOM     65  F   UNL A   1      42.431  29.281  28.132  1.00  0.00    -0.205 F 
ATOM     66  C   UNL A   1      40.832  26.259  26.822  1.00  0.00     0.022 A 
BRANCH  64  67
ATOM     67  S   UNL A   1      42.650  27.767  25.445  1.00  0.00     0.127 S 
ATOM     68  O   UNL A   1      42.465  26.559  24.644  1.00  0.00    -0.237 OA
ATOM     69  O   UNL A   1      41.994  28.960  24.911  1.00  0.00    -0.237 OA
ATOM     70  O   UNL A   1      44.002  27.986  25.940  1.00  0.00    -0.744 OA
ENDBRANCH  64  67
ENDBRANCH  46  60
BRANCH  47  71
ATOM     71  C   UNL A   1      39.482  33.802  37.058  1.00  0.00     0.023 A 
ATOM     72  C   UNL A   1      39.941  35.133  37.083  1.00  0.00     0.012 A 
ATOM     73  C   UNL A   1      38.796  33.291  38.178  1.00  0.00     0.148 A 
ATOM     74  C   UNL A   1      39.754  35.930  38.213  1.00  0.00     0.002 A 
ATOM     75  C   UNL A   1      38.563  34.108  39.279  1.00  0.00     0.091 A 
ATOM     76  F   UNL A   1      38.373  32.020  38.138  1.00  0.00    -0.205 F 
ATOM     77  C   UNL A   1      39.058  35.421  39.307  1.00  0.00     0.022 A 
BRANCH  75  78
ATOM     78  S   UNL A   1      37.564  33.584  40.675  1.00  0.00     0.127 S 
ATOM     79  O   UNL A   1      38.416  32.570  41.290  1.00  0.00    -0.237 OA
ATOM     80  O   UNL A   1      37.435  34.827  41.437  1.00  0.00    -0.237 OA
ATOM     81  O   UNL A   1      36.314  33.097  40.107  1.00  0.00    -0.744 OA
ENDBRANCH  75  78
ENDBRANCH  47  71
BRANCH  59  82
ATOM     82  C   UNL A   1      44.096  28.822  35.395  1.00  0.00     0.023 A 
ATOM     83  C   UNL A   1      45.376  29.394  35.262  1.00  0.00     0.012 A 
ATOM     84  C   UNL A   1      43.905  27.751  36.291  1.00  0.00     0.148 A 
ATOM     85  C   UNL A   1      46.453  28.892  35.991  1.00  0.00     0.002 A 
ATOM     86  C   UNL A   1      44.970  27.292  37.054  1.00  0.00     0.091 A 
ATOM     87  F   UNL A   1      42.680  27.213  36.390  1.00  0.00    -0.205 F 
ATOM     88  C   UNL A   1      46.248  27.853  36.897  1.00  0.00     0.022 A 
BRANCH  86  89
ATOM     89  S   UNL A   1      44.781  26.030  38.318  1.00  0.00     0.127 S 
ATOM     90  O   UNL A   1      43.828  26.661  39.228  1.00  0.00    -0.237 OA
ATOM     91  O   UNL A   1      44.242  24.906  37.552  1.00  0.00    -0.237 OA
ATOM     92  O   UNL A   1      46.110  25.806  38.869  1.00  0.00    -0.744 OA
ENDBRANCH  86  89
ENDBRANCH  59  82
ENDBRANCH  33  34
ENDBRANCH  25  28
ENDBRANCH   1  24
TORSDOF 15
ENDMDL
MODEL 3
REMARK VINA RESULT:     -11.6      2.435      8.400
REMARK SMILES Nc1ccc(N2CC3(CCC3)C2)c(C(=O)NCCCNC(=O)c2ccc(-c3c4nc(c(-c5cccc(S(=O)(=O)[O-])c5F)c5ccc([nH]5)c(-c5cccc(S(=O)(=O)[O-])c5F)c5nc(c(-c6cccc(S(=O)(=O)[O-])c6F)c6ccc3[nH]6)C=C5)C=C4)cc2)c1
REMARK SMILES IDX 19 1 18 2 17 3 16 4 14 5 15 6 13 8 2 9 3 10 86 11 4 12 5 13
REMARK SMILES IDX 1 14 6 17 7 18 12 19 8 20 9 21 11 22 10 23 20 24 21 25 22 27
REMARK SMILES IDX 23 28 24 29 85 30 25 31 84 32 26 33 27 34 28 35 78 36 29 37
REMARK SMILES IDX 83 38 77 39 79 40 30 41 82 42 76 43 75 44 31 46 63 47 43 48
REMARK SMILES IDX 62 49 44 50 47 51 61 52 80 53 45 54 46 55 60 57 81 58 48 59
REMARK SMILES IDX 32 60 33 61 41 62 34 63 36 64 42 65 35 66 37 67 38 68 39 69
REMARK SMILES IDX 40 70 64 71 65 72 73 73 66 74 68 75 74 76 67 77 69 78 70 79
REMARK SMILES IDX 71 80 72 81 49 82 50 83 58 84 51 85 53 86 59 87 52 88 54 89
REMARK SMILES IDX 55 90 56 91 57 92
REMARK H PARENT 16 7 1 15 1 16 20 26 79 45 47 56
REMARK Flexibility Score: inf
ROOT
ATOM      1  C   UNL A   1      32.721  30.071  26.232  1.00  0.00     0.118 C 
ENDROOT
BRANCH   1   2
ATOM      2  C   UNL A   1      31.720  29.219  27.015  1.00  0.00     0.042 C 
BRANCH   2   3
ATOM      3  C   UNL A   1      32.187  27.777  27.199  1.00  0.00     0.118 C 
BRANCH   3   4
ATOM      4  N   UNL A   1      31.113  26.859  26.883  1.00  0.00    -0.352 N 
ATOM      5  C   UNL A   1      30.644  26.227  25.760  1.00  0.00     0.253 C 
ATOM      6  O   UNL A   1      29.627  25.580  25.991  1.00  0.00    -0.269 OA
ATOM      7  H   UNL A   1      30.583  26.628  27.679  1.00  0.00     0.163 HD
BRANCH   5   8
ATOM      8  C   UNL A   1      31.313  26.233  24.411  1.00  0.00     0.065 A 
ATOM      9  C   UNL A   1      32.793  25.061  22.832  1.00  0.00     0.032 A 
ATOM     10  C   UNL A   1      32.243  25.787  21.787  1.00  0.00     0.027 A 
ATOM     11  C   UNL A   1      32.333  25.306  24.127  1.00  0.00     0.041 A 
ATOM     12  C   UNL A   1      31.321  26.799  22.052  1.00  0.00     0.029 A 
ATOM     13  C   UNL A   1      30.861  27.068  23.358  1.00  0.00     0.050 A 
BRANCH   9  14
ATOM     14  N   UNL A   1      33.648  23.997  22.583  1.00  0.00    -0.399 N 
ATOM     15  H   UNL A   1      34.127  23.565  23.326  1.00  0.00     0.156 HD
ATOM     16  H   UNL A   1      33.773  23.672  21.662  1.00  0.00     0.156 HD
ENDBRANCH   9  14
BRANCH  13  17
ATOM     17  N   UNL A   1      29.987  28.162  23.479  1.00  0.00    -0.370 N 
ATOM     18  C   UNL A   1      30.282  29.550  23.687  1.00  0.00     0.125 C 
ATOM     19  C   UNL A   1      28.609  28.376  23.147  1.00  0.00     0.125 C 
ATOM     20  C   UNL A   1      28.976  29.828  23.001  1.00  0.00     0.005 C 
ATOM     21  C   UNL A   1      28.021  30.883  23.496  1.00  0.00     0.011 C 
ATOM     22  C   UNL A   1      29.008  30.468  21.628  1.00  0.00     0.011 C 
ATOM     23  C   UNL A   1      27.657  31.118  22.005  1.00  0.00     0.001 C 
ENDBRANCH  13  17
ENDBRANCH   5   8
ENDBRANCH   3   4
ENDBRANCH   2   3
ENDBRANCH   1   2
BRANCH   1  24
ATOM     24  N   UNL A   1      32.538  31.496  26.488  1.00  0.00    -0.352 N 
ATOM     25  C   UNL A   1      33.219  32.326  27.343  1.00  0.00     0.251 C 
ATOM     26  H   UNL A   1      31.818  31.927  25.970  1.00  0.00     0.163 HD
ATOM     27  O   UNL A   1      32.764  33.430  27.620  1.00  0.00    -0.269 OA
BRANCH  25  28
ATOM     28  C   UNL A   1      34.500  31.878  27.928  1.00  0.00     0.039 A 
ATOM     29  C   UNL A   1      35.569  32.774  28.001  1.00  0.00     0.014 A 
ATOM     30  C   UNL A   1      34.640  30.568  28.394  1.00  0.00     0.014 A 
ATOM     31  C   UNL A   1      36.763  32.372  28.606  1.00  0.00     0.010 A 
ATOM     32  C   UNL A   1      35.800  30.196  29.061  1.00  0.00     0.010 A 
ATOM     33  C   UNL A   1      36.874  31.092  29.174  1.00  0.00    -0.014 A 
BRANCH  33  34
ATOM     34  C   UNL A   1      38.092  30.665  29.907  1.00  0.00     0.031 A 
ATOM     35  C   UNL A   1      39.028  29.663  29.288  1.00  0.00     0.074 A 
ATOM     36  C   UNL A   1      38.289  31.087  31.171  1.00  0.00     0.049 A 
ATOM     37  N   UNL A   1      40.067  29.071  29.814  1.00  0.00    -0.248 NA
ATOM     38  C   UNL A   1      38.739  29.249  27.904  1.00  0.00     0.031 C 
ATOM     39  C   UNL A   1      37.413  32.006  31.902  1.00  0.00     0.029 A 
ATOM     40  N   UNL A   1      39.266  30.768  32.081  1.00  0.00    -0.354 N 
ATOM     41  C   UNL A   1      40.529  28.185  28.849  1.00  0.00     0.074 A 
ATOM     42  C   UNL A   1      39.641  28.296  27.714  1.00  0.00     0.031 C 
ATOM     43  C   UNL A   1      37.888  32.171  33.146  1.00  0.00     0.029 A 
ATOM     44  C   UNL A   1      39.074  31.340  33.317  1.00  0.00     0.049 A 
ATOM     45  H   UNL A   1      40.031  30.186  31.867  1.00  0.00     0.167 HD
ATOM     46  C   UNL A   1      41.608  27.367  28.896  1.00  0.00     0.034 A 
ATOM     47  C   UNL A   1      39.762  31.192  34.467  1.00  0.00     0.034 A 
ATOM     48  C   UNL A   1      42.507  27.289  30.015  1.00  0.00     0.049 A 
ATOM     49  C   UNL A   1      40.970  30.294  34.485  1.00  0.00     0.074 A 
ATOM     50  C   UNL A   1      43.677  26.561  30.127  1.00  0.00     0.029 A 
ATOM     51  N   UNL A   1      42.329  27.950  31.220  1.00  0.00    -0.354 N 
ATOM     52  N   UNL A   1      41.478  29.577  33.512  1.00  0.00    -0.248 NA
ATOM     53  C   UNL A   1      41.718  30.207  35.748  1.00  0.00     0.031 C 
ATOM     54  C   UNL A   1      44.189  26.754  31.413  1.00  0.00     0.029 A 
ATOM     55  C   UNL A   1      43.359  27.636  32.088  1.00  0.00     0.049 A 
ATOM     56  H   UNL A   1      41.579  28.554  31.428  1.00  0.00     0.167 HD
ATOM     57  C   UNL A   1      42.625  28.988  34.031  1.00  0.00     0.074 A 
ATOM     58  C   UNL A   1      42.745  29.443  35.401  1.00  0.00     0.031 C 
ATOM     59  C   UNL A   1      43.495  28.140  33.430  1.00  0.00     0.034 A 
BRANCH  46  60
ATOM     60  C   UNL A   1      41.900  26.518  27.686  1.00  0.00     0.023 A 
ATOM     61  C   UNL A   1      42.549  27.088  26.571  1.00  0.00     0.012 A 
ATOM     62  C   UNL A   1      41.588  25.144  27.675  1.00  0.00     0.148 A 
ATOM     63  C   UNL A   1      42.848  26.313  25.450  1.00  0.00     0.002 A 
ATOM     64  C   UNL A   1      41.934  24.369  26.575  1.00  0.00     0.091 A 
ATOM     65  F   UNL A   1      40.954  24.625  28.735  1.00  0.00    -0.205 F 
ATOM     66  C   UNL A   1      42.551  24.953  25.456  1.00  0.00     0.022 A 
BRANCH  64  67
ATOM     67  S   UNL A   1      41.671  22.592  26.518  1.00  0.00     0.127 S 
ATOM     68  O   UNL A   1      40.211  22.512  26.505  1.00  0.00    -0.237 OA
ATOM     69  O   UNL A   1      42.314  22.228  25.256  1.00  0.00    -0.237 OA
ATOM     70  O   UNL A   1      42.314  22.052  27.708  1.00  0.00    -0.744 OA
ENDBRANCH  64  67
ENDBRANCH  46  60
BRANCH  47  71
ATOM     71  C   UNL A   1      39.352  31.949  35.684  1.00  0.00     0.023 A 
ATOM     72  C   UNL A   1      39.766  33.286  35.840  1.00  0.00     0.012 A 
ATOM     73  C   UNL A   1      38.538  31.362  36.673  1.00  0.00     0.148 A 
ATOM     74  C   UNL A   1      39.407  34.015  36.974  1.00  0.00     0.002 A 
ATOM     75  C   UNL A   1      38.136  32.112  37.773  1.00  0.00     0.091 A 
ATOM     76  F   UNL A   1      38.160  30.087  36.510  1.00  0.00    -0.205 F 
ATOM     77  C   UNL A   1      38.585  33.432  37.936  1.00  0.00     0.022 A 
BRANCH  75  78
ATOM     78  S   UNL A   1      36.973  31.490  38.992  1.00  0.00     0.127 S 
ATOM     79  O   UNL A   1      36.726  30.136  38.506  1.00  0.00    -0.237 OA
ATOM     80  O   UNL A   1      37.759  31.570  40.225  1.00  0.00    -0.237 OA
ATOM     81  O   UNL A   1      35.832  32.395  38.948  1.00  0.00    -0.744 OA
ENDBRANCH  75  78
ENDBRANCH  47  71
BRANCH  59  82
ATOM     82  C   UNL A   1      44.693  27.683  34.220  1.00  0.00     0.023 A 
ATOM     83  C   UNL A   1      45.841  28.496  34.296  1.00  0.00     0.012 A 
ATOM     84  C   UNL A   1      44.636  26.491  34.969  1.00  0.00     0.148 A 
ATOM     85  C   UNL A   1      46.925  28.115  35.087  1.00  0.00     0.002 A 
ATOM     86  C   UNL A   1      45.697  26.145  35.797  1.00  0.00     0.091 A 
ATOM     87  F   UNL A   1      43.539  25.726  34.869  1.00  0.00    -0.205 F 
ATOM     88  C   UNL A   1      46.847  26.950  35.848  1.00  0.00     0.022 A 
BRANCH  86  89
ATOM     89  S   UNL A   1      45.647  24.720  36.888  1.00  0.00     0.127 S 
ATOM     90  O   UNL A   1      45.583  23.616  35.933  1.00  0.00    -0.237 OA
ATOM     91  O   UNL A   1      46.916  24.836  37.605  1.00  0.00    -0.237 OA
ATOM     92  O   UNL A   1      44.462  24.888  37.720  1.00  0.00    -0.744 OA
ENDBRANCH  86  89
ENDBRANCH  59  82
ENDBRANCH  33  34
ENDBRANCH  25  28
ENDBRANCH   1  24
TORSDOF 15
ENDMDL
