MODEL 1
REMARK VINA RESULT:     -10.2      0.000      0.000
REMARK SMILES C/C=C/c1cncc(-c2ccc([C@@H](C)C(=O)NCCCNC(=O)c3ccc(-c4c5nc(c(-c6cccc(S(=O)(=O)[O-])c6F)c6ccc([nH]6)c(-c6cccc(S(=O)(=O)[O-])c6F)c6nc(c(-c7cccc(S(=O)(=O)[O-])c7F)c7ccc4[nH]7)C=C6)C=C5)cc3)cc2)c1
REMARK SMILES IDX 19 1 18 2 17 3 15 4 16 5 13 7 14 8 12 9 9 10 10 11 88 12
REMARK SMILES IDX 11 13 87 14 8 15 4 16 5 17 89 18 6 19 7 20 3 21 1 22 2 23
REMARK SMILES IDX 20 24 21 25 22 26 23 28 24 29 25 30 86 31 26 32 85 33 27 34
REMARK SMILES IDX 28 35 29 36 79 37 30 38 84 39 78 40 80 41 31 42 83 43 77 44
REMARK SMILES IDX 76 45 32 47 64 48 44 49 63 50 45 51 48 52 62 53 81 54 46 55
REMARK SMILES IDX 47 56 61 58 82 59 49 60 33 61 34 62 42 63 35 64 37 65 43 66
REMARK SMILES IDX 36 67 38 68 39 69 40 70 41 71 65 72 66 73 74 74 67 75 69 76
REMARK SMILES IDX 75 77 68 78 70 79 71 80 72 81 73 82 50 83 51 84 59 85 52 86
REMARK SMILES IDX 54 87 60 88 53 89 55 90 56 91 57 92 58 93
REMARK H PARENT 17 6 21 27 80 46 48 57
REMARK Flexibility Score: inf
ROOT
ATOM      1  C   UNL A   1      33.438  34.037  28.433  1.00  0.00     0.042 C 
ENDROOT
BRANCH   1   2
ATOM      2  C   UNL A   1      34.136  35.314  28.891  1.00  0.00     0.117 C 
BRANCH   2   3
ATOM      3  N   UNL A   1      34.077  35.498  30.327  1.00  0.00    -0.356 N 
ATOM      4  C   UNL A   1      34.545  34.744  31.360  1.00  0.00     0.227 C 
ATOM      5  O   UNL A   1      34.300  35.164  32.498  1.00  0.00    -0.274 OA
ATOM      6  H   UNL A   1      33.612  36.319  30.608  1.00  0.00     0.163 HD
BRANCH   4   7
ATOM      7  C   UNL A   1      35.355  33.451  31.182  1.00  0.00     0.105 C 
ATOM      8  C   UNL A   1      35.084  32.389  32.248  1.00  0.00     0.023 C 
BRANCH   7   9
ATOM      9  C   UNL A   1      36.817  33.693  30.840  1.00  0.00    -0.036 A 
ATOM     10  C   UNL A   1      39.508  34.267  30.061  1.00  0.00    -0.017 A 
ATOM     11  C   UNL A   1      39.016  34.610  31.330  1.00  0.00     0.009 A 
ATOM     12  C   UNL A   1      38.626  33.604  29.196  1.00  0.00     0.009 A 
ATOM     13  C   UNL A   1      37.710  34.298  31.725  1.00  0.00     0.005 A 
ATOM     14  C   UNL A   1      37.301  33.337  29.571  1.00  0.00     0.005 A 
BRANCH  10  15
ATOM     15  C   UNL A   1      40.894  34.599  29.675  1.00  0.00     0.001 A 
ATOM     16  C   UNL A   1      43.307  34.213  29.718  1.00  0.00    -0.007 A 
ATOM     17  C   UNL A   1      43.434  35.264  28.813  1.00  0.00     0.119 A 
ATOM     18  C   UNL A   1      42.012  33.892  30.152  1.00  0.00     0.020 A 
ATOM     19  N   UNL A   1      42.400  36.001  28.354  1.00  0.00    -0.263 NA
ATOM     20  C   UNL A   1      41.171  35.643  28.786  1.00  0.00     0.119 A 
BRANCH  16  21
ATOM     21  C   UNL A   1      44.514  33.544  30.216  1.00  0.00     0.005 C 
ATOM     22  C   UNL A   1      45.917  31.566  30.807  1.00  0.00     0.035 C 
ATOM     23  C   UNL A   1      44.651  32.216  30.345  1.00  0.00    -0.030 C 
ENDBRANCH  16  21
ENDBRANCH  10  15
ENDBRANCH   7   9
ENDBRANCH   4   7
ENDBRANCH   2   3
ENDBRANCH   1   2
BRANCH   1  24
ATOM     24  C   UNL A   1      34.383  32.956  27.927  1.00  0.00     0.118 C 
BRANCH  24  25
ATOM     25  N   UNL A   1      33.707  31.681  27.735  1.00  0.00    -0.352 N 
ATOM     26  C   UNL A   1      34.187  30.396  27.761  1.00  0.00     0.251 C 
ATOM     27  H   UNL A   1      32.741  31.754  27.556  1.00  0.00     0.163 HD
ATOM     28  O   UNL A   1      33.456  29.492  27.358  1.00  0.00    -0.269 OA
BRANCH  26  29
ATOM     29  C   UNL A   1      35.546  30.075  28.261  1.00  0.00     0.039 A 
ATOM     30  C   UNL A   1      36.624  30.175  27.374  1.00  0.00     0.014 A 
ATOM     31  C   UNL A   1      35.767  29.593  29.555  1.00  0.00     0.014 A 
ATOM     32  C   UNL A   1      37.908  29.808  27.783  1.00  0.00     0.010 A 
ATOM     33  C   UNL A   1      37.062  29.318  29.991  1.00  0.00     0.010 A 
ATOM     34  C   UNL A   1      38.141  29.381  29.099  1.00  0.00    -0.014 A 
BRANCH  34  35
ATOM     35  C   UNL A   1      39.491  28.940  29.535  1.00  0.00     0.031 A 
ATOM     36  C   UNL A   1      40.196  29.655  30.663  1.00  0.00     0.074 A 
ATOM     37  C   UNL A   1      40.112  27.935  28.887  1.00  0.00     0.049 A 
ATOM     38  N   UNL A   1      41.372  29.418  31.184  1.00  0.00    -0.248 NA
ATOM     39  C   UNL A   1      39.503  30.808  31.261  1.00  0.00     0.031 C 
ATOM     40  C   UNL A   1      39.580  27.226  27.722  1.00  0.00     0.029 A 
ATOM     41  N   UNL A   1      41.332  27.348  29.106  1.00  0.00    -0.354 N 
ATOM     42  C   UNL A   1      41.576  30.412  32.134  1.00  0.00     0.074 A 
ATOM     43  C   UNL A   1      40.422  31.281  32.090  1.00  0.00     0.031 C 
ATOM     44  C   UNL A   1      40.464  26.292  27.335  1.00  0.00     0.029 A 
ATOM     45  C   UNL A   1      41.629  26.346  28.213  1.00  0.00     0.049 A 
ATOM     46  H   UNL A   1      41.938  27.621  29.832  1.00  0.00     0.167 HD
ATOM     47  C   UNL A   1      42.612  30.572  32.993  1.00  0.00     0.034 A 
ATOM     48  C   UNL A   1      42.713  25.551  28.121  1.00  0.00     0.034 A 
ATOM     49  C   UNL A   1      43.730  29.670  33.077  1.00  0.00     0.049 A 
ATOM     50  C   UNL A   1      43.803  25.681  29.149  1.00  0.00     0.074 A 
ATOM     51  C   UNL A   1      44.783  29.683  33.975  1.00  0.00     0.029 A 
ATOM     52  N   UNL A   1      43.936  28.589  32.234  1.00  0.00    -0.354 N 
ATOM     53  N   UNL A   1      43.898  26.523  30.151  1.00  0.00    -0.248 NA
ATOM     54  C   UNL A   1      44.911  24.718  29.069  1.00  0.00     0.031 C 
ATOM     55  C   UNL A   1      45.633  28.615  33.664  1.00  0.00     0.029 A 
ATOM     56  C   UNL A   1      45.097  27.925  32.589  1.00  0.00     0.049 A 
ATOM     57  H   UNL A   1      43.343  28.332  31.491  1.00  0.00     0.167 HD
ATOM     58  C   UNL A   1      45.052  26.169  30.840  1.00  0.00     0.074 A 
ATOM     59  C   UNL A   1      45.609  25.021  30.154  1.00  0.00     0.031 C 
ATOM     60  C   UNL A   1      45.609  26.750  31.931  1.00  0.00     0.034 A 
BRANCH  47  61
ATOM     61  C   UNL A   1      42.551  31.733  33.953  1.00  0.00     0.023 A 
ATOM     62  C   UNL A   1      42.962  33.012  33.525  1.00  0.00     0.012 A 
ATOM     63  C   UNL A   1      42.056  31.572  35.262  1.00  0.00     0.148 A 
ATOM     64  C   UNL A   1      42.925  34.102  34.395  1.00  0.00     0.002 A 
ATOM     65  C   UNL A   1      41.976  32.673  36.109  1.00  0.00     0.091 A 
ATOM     66  F   UNL A   1      41.689  30.346  35.662  1.00  0.00    -0.205 F 
ATOM     67  C   UNL A   1      42.423  33.934  35.682  1.00  0.00     0.022 A 
BRANCH  65  68
ATOM     68  S   UNL A   1      41.270  32.574  37.757  1.00  0.00     0.127 S 
ATOM     69  O   UNL A   1      41.402  33.955  38.219  1.00  0.00    -0.237 OA
ATOM     70  O   UNL A   1      39.895  32.153  37.481  1.00  0.00    -0.237 OA
ATOM     71  O   UNL A   1      42.068  31.592  38.477  1.00  0.00    -0.744 OA
ENDBRANCH  65  68
ENDBRANCH  47  61
BRANCH  48  72
ATOM     72  C   UNL A   1      42.767  24.492  27.073  1.00  0.00     0.023 A 
ATOM     73  C   UNL A   1      43.499  24.725  25.893  1.00  0.00     0.012 A 
ATOM     74  C   UNL A   1      42.137  23.246  27.257  1.00  0.00     0.148 A 
ATOM     75  C   UNL A   1      43.579  23.749  24.900  1.00  0.00     0.002 A 
ATOM     76  C   UNL A   1      42.265  22.258  26.287  1.00  0.00     0.091 A 
ATOM     77  F   UNL A   1      41.439  23.048  28.384  1.00  0.00    -0.205 F 
ATOM     78  C   UNL A   1      42.971  22.513  25.102  1.00  0.00     0.022 A 
BRANCH  76  79
ATOM     79  S   UNL A   1      41.622  20.596  26.512  1.00  0.00     0.127 S 
ATOM     80  O   UNL A   1      40.183  20.812  26.385  1.00  0.00    -0.237 OA
ATOM     81  O   UNL A   1      42.238  19.881  25.394  1.00  0.00    -0.237 OA
ATOM     82  O   UNL A   1      42.083  20.170  27.827  1.00  0.00    -0.744 OA
ENDBRANCH  76  79
ENDBRANCH  48  72
BRANCH  60  83
ATOM     83  C   UNL A   1      46.868  26.133  32.481  1.00  0.00     0.023 A 
ATOM     84  C   UNL A   1      48.126  26.608  32.059  1.00  0.00     0.012 A 
ATOM     85  C   UNL A   1      46.805  25.120  33.458  1.00  0.00     0.148 A 
ATOM     86  C   UNL A   1      49.300  26.055  32.569  1.00  0.00     0.002 A 
ATOM     87  C   UNL A   1      47.980  24.608  33.998  1.00  0.00     0.091 A 
ATOM     88  F   UNL A   1      45.601  24.663  33.833  1.00  0.00    -0.205 F 
ATOM     89  C   UNL A   1      49.227  25.065  33.545  1.00  0.00     0.022 A 
BRANCH  87  90
ATOM     90  S   UNL A   1      47.965  23.401  35.328  1.00  0.00     0.127 S 
ATOM     91  O   UNL A   1      49.392  23.222  35.586  1.00  0.00    -0.237 OA
ATOM     92  O   UNL A   1      47.239  24.106  36.386  1.00  0.00    -0.237 OA
ATOM     93  O   UNL A   1      47.266  22.238  34.797  1.00  0.00    -0.744 OA
ENDBRANCH  87  90
ENDBRANCH  60  83
ENDBRANCH  34  35
ENDBRANCH  26  29
ENDBRANCH  24  25
ENDBRANCH   1  24
TORSDOF 16
ENDMDL
MODEL 2
REMARK VINA RESULT:     -10.0      4.215     11.224
REMARK SMILES C/C=C/c1cncc(-c2ccc([C@@H](C)C(=O)NCCCNC(=O)c3ccc(-c4c5nc(c(-c6cccc(S(=O)(=O)[O-])c6F)c6ccc([nH]6)c(-c6cccc(S(=O)(=O)[O-])c6F)c6nc(c(-c7cccc(S(=O)(=O)[O-])c7F)c7ccc4[nH]7)C=C6)C=C5)cc3)cc2)c1
REMARK SMILES IDX 19 1 18 2 17 3 15 4 16 5 13 7 14 8 12 9 9 10 10 11 88 12
REMARK SMILES IDX 11 13 87 14 8 15 4 16 5 17 89 18 6 19 7 20 3 21 1 22 2 23
REMARK SMILES IDX 20 24 21 25 22 26 23 28 24 29 25 30 86 31 26 32 85 33 27 34
REMARK SMILES IDX 28 35 29 36 79 37 30 38 84 39 78 40 80 41 31 42 83 43 77 44
REMARK SMILES IDX 76 45 32 47 64 48 44 49 63 50 45 51 48 52 62 53 81 54 46 55
REMARK SMILES IDX 47 56 61 58 82 59 49 60 33 61 34 62 42 63 35 64 37 65 43 66
REMARK SMILES IDX 36 67 38 68 39 69 40 70 41 71 65 72 66 73 74 74 67 75 69 76
REMARK SMILES IDX 75 77 68 78 70 79 71 80 72 81 73 82 50 83 51 84 59 85 52 86
REMARK SMILES IDX 54 87 60 88 53 89 55 90 56 91 57 92 58 93
REMARK H PARENT 17 6 21 27 80 46 48 57
REMARK Flexibility Score: inf
ROOT
ATOM      1  C   UNL A   1      41.731  20.221  27.174  1.00  0.00     0.042 C 
ENDROOT
BRANCH   1   2
ATOM      2  C   UNL A   1      42.324  20.519  25.800  1.00  0.00     0.117 C 
BRANCH   2   3
ATOM      3  N   UNL A   1      43.766  20.374  25.772  1.00  0.00    -0.356 N 
ATOM      4  C   UNL A   1      44.769  21.290  25.670  1.00  0.00     0.227 C 
ATOM      5  O   UNL A   1      45.921  20.838  25.640  1.00  0.00    -0.274 OA
ATOM      6  H   UNL A   1      44.078  19.443  25.838  1.00  0.00     0.163 HD
BRANCH   4   7
ATOM      7  C   UNL A   1      44.544  22.808  25.615  1.00  0.00     0.105 C 
ATOM      8  C   UNL A   1      45.383  23.529  24.558  1.00  0.00     0.023 C 
BRANCH   7   9
ATOM      9  C   UNL A   1      44.495  23.464  26.986  1.00  0.00    -0.036 A 
ATOM     10  C   UNL A   1      44.344  24.532  29.634  1.00  0.00    -0.017 A 
ATOM     11  C   UNL A   1      45.561  24.442  28.941  1.00  0.00     0.009 A 
ATOM     12  C   UNL A   1      43.195  24.098  28.958  1.00  0.00     0.009 A 
ATOM     13  C   UNL A   1      45.631  23.952  27.632  1.00  0.00     0.005 A 
ATOM     14  C   UNL A   1      43.270  23.559  27.665  1.00  0.00     0.005 A 
BRANCH  10  15
ATOM     15  C   UNL A   1      44.299  25.063  31.012  1.00  0.00     0.001 A 
ATOM     16  C   UNL A   1      43.990  26.869  32.628  1.00  0.00    -0.007 A 
ATOM     17  C   UNL A   1      44.153  25.921  33.634  1.00  0.00     0.119 A 
ATOM     18  C   UNL A   1      44.074  26.420  31.302  1.00  0.00     0.020 A 
ATOM     19  N   UNL A   1      44.410  24.614  33.412  1.00  0.00    -0.263 NA
ATOM     20  C   UNL A   1      44.464  24.226  32.119  1.00  0.00     0.119 A 
BRANCH  16  21
ATOM     21  C   UNL A   1      43.806  28.278  32.993  1.00  0.00     0.005 C 
ATOM     22  C   UNL A   1      43.916  30.742  32.608  1.00  0.00     0.035 C 
ATOM     23  C   UNL A   1      44.169  29.318  32.227  1.00  0.00    -0.030 C 
ENDBRANCH  16  21
ENDBRANCH  10  15
ENDBRANCH   7   9
ENDBRANCH   4   7
ENDBRANCH   2   3
ENDBRANCH   1   2
BRANCH   1  24
ATOM     24  C   UNL A   1      40.793  21.300  27.696  1.00  0.00     0.118 C 
BRANCH  24  25
ATOM     25  N   UNL A   1      39.717  21.592  26.760  1.00  0.00    -0.352 N 
ATOM     26  C   UNL A   1      39.089  22.772  26.453  1.00  0.00     0.251 C 
ATOM     27  H   UNL A   1      39.383  20.809  26.263  1.00  0.00     0.163 HD
ATOM     28  O   UNL A   1      38.060  22.727  25.779  1.00  0.00    -0.269 OA
BRANCH  26  29
ATOM     29  C   UNL A   1      39.616  24.084  26.902  1.00  0.00     0.039 A 
ATOM     30  C   UNL A   1      39.443  24.448  28.243  1.00  0.00     0.014 A 
ATOM     31  C   UNL A   1      40.195  24.995  26.015  1.00  0.00     0.014 A 
ATOM     32  C   UNL A   1      39.856  25.706  28.689  1.00  0.00     0.010 A 
ATOM     33  C   UNL A   1      40.694  26.211  26.480  1.00  0.00     0.010 A 
ATOM     34  C   UNL A   1      40.492  26.599  27.812  1.00  0.00    -0.014 A 
BRANCH  34  35
ATOM     35  C   UNL A   1      40.893  27.958  28.258  1.00  0.00     0.031 A 
ATOM     36  C   UNL A   1      42.347  28.364  28.245  1.00  0.00     0.074 A 
ATOM     37  C   UNL A   1      39.962  28.812  28.728  1.00  0.00     0.049 A 
ATOM     38  N   UNL A   1      42.890  29.501  28.594  1.00  0.00    -0.248 NA
ATOM     39  C   UNL A   1      43.321  27.348  27.813  1.00  0.00     0.031 C 
ATOM     40  C   UNL A   1      38.539  28.508  28.883  1.00  0.00     0.029 A 
ATOM     41  N   UNL A   1      40.079  30.102  29.179  1.00  0.00    -0.354 N 
ATOM     42  C   UNL A   1      44.263  29.323  28.468  1.00  0.00     0.074 A 
ATOM     43  C   UNL A   1      44.474  27.956  28.048  1.00  0.00     0.031 C 
ATOM     44  C   UNL A   1      37.912  29.586  29.383  1.00  0.00     0.029 A 
ATOM     45  C   UNL A   1      38.889  30.650  29.596  1.00  0.00     0.049 A 
ATOM     46  H   UNL A   1      40.934  30.589  29.202  1.00  0.00     0.167 HD
ATOM     47  C   UNL A   1      45.260  30.224  28.647  1.00  0.00     0.034 A 
ATOM     48  C   UNL A   1      38.614  31.875  30.085  1.00  0.00     0.034 A 
ATOM     49  C   UNL A   1      45.043  31.600  29.002  1.00  0.00     0.049 A 
ATOM     50  C   UNL A   1      39.722  32.889  30.178  1.00  0.00     0.074 A 
ATOM     51  C   UNL A   1      45.972  32.619  29.115  1.00  0.00     0.029 A 
ATOM     52  N   UNL A   1      43.806  32.152  29.299  1.00  0.00    -0.354 N 
ATOM     53  N   UNL A   1      40.995  32.750  29.890  1.00  0.00    -0.248 NA
ATOM     54  C   UNL A   1      39.350  34.242  30.613  1.00  0.00     0.031 C 
ATOM     55  C   UNL A   1      45.296  33.785  29.492  1.00  0.00     0.029 A 
ATOM     56  C   UNL A   1      43.945  33.497  29.593  1.00  0.00     0.049 A 
ATOM     57  H   UNL A   1      42.954  31.658  29.302  1.00  0.00     0.167 HD
ATOM     58  C   UNL A   1      41.566  34.004  30.072  1.00  0.00     0.074 A 
ATOM     59  C   UNL A   1      40.495  34.894  30.473  1.00  0.00     0.031 C 
ATOM     60  C   UNL A   1      42.861  34.383  29.935  1.00  0.00     0.034 A 
BRANCH  47  61
ATOM     61  C   UNL A   1      46.673  29.759  28.398  1.00  0.00     0.023 A 
ATOM     62  C   UNL A   1      47.265  29.976  27.135  1.00  0.00     0.012 A 
ATOM     63  C   UNL A   1      47.428  29.143  29.414  1.00  0.00     0.148 A 
ATOM     64  C   UNL A   1      48.566  29.549  26.875  1.00  0.00     0.002 A 
ATOM     65  C   UNL A   1      48.742  28.762  29.162  1.00  0.00     0.091 A 
ATOM     66  F   UNL A   1      46.846  28.924  30.602  1.00  0.00    -0.205 F 
ATOM     67  C   UNL A   1      49.308  28.952  27.890  1.00  0.00     0.022 A 
BRANCH  65  68
ATOM     68  S   UNL A   1      49.805  28.059  30.428  1.00  0.00     0.127 S 
ATOM     69  O   UNL A   1      49.789  29.110  31.444  1.00  0.00    -0.237 OA
ATOM     70  O   UNL A   1      49.081  26.842  30.800  1.00  0.00    -0.237 OA
ATOM     71  O   UNL A   1      51.090  27.824  29.786  1.00  0.00    -0.744 OA
ENDBRANCH  65  68
ENDBRANCH  47  61
BRANCH  48  72
ATOM     72  C   UNL A   1      37.209  32.239  30.422  1.00  0.00     0.023 A 
ATOM     73  C   UNL A   1      36.730  32.004  31.725  1.00  0.00     0.012 A 
ATOM     74  C   UNL A   1      36.363  32.853  29.478  1.00  0.00     0.148 A 
ATOM     75  C   UNL A   1      35.424  32.346  32.076  1.00  0.00     0.002 A 
ATOM     76  C   UNL A   1      35.080  33.238  29.849  1.00  0.00     0.091 A 
ATOM     77  F   UNL A   1      36.837  33.059  28.242  1.00  0.00    -0.205 F 
ATOM     78  C   UNL A   1      34.604  32.972  31.142  1.00  0.00     0.022 A 
BRANCH  76  79
ATOM     79  S   UNL A   1      33.995  34.160  28.753  1.00  0.00     0.127 S 
ATOM     80  O   UNL A   1      33.630  33.144  27.770  1.00  0.00    -0.237 OA
ATOM     81  O   UNL A   1      32.917  34.555  29.660  1.00  0.00    -0.237 OA
ATOM     82  O   UNL A   1      34.795  35.269  28.249  1.00  0.00    -0.744 OA
ENDBRANCH  76  79
ENDBRANCH  48  72
BRANCH  60  83
ATOM     83  C   UNL A   1      43.192  35.830  30.182  1.00  0.00     0.023 A 
ATOM     84  C   UNL A   1      43.728  36.227  31.424  1.00  0.00     0.012 A 
ATOM     85  C   UNL A   1      43.024  36.791  29.165  1.00  0.00     0.148 A 
ATOM     86  C   UNL A   1      44.053  37.562  31.663  1.00  0.00     0.002 A 
ATOM     87  C   UNL A   1      43.395  38.111  29.395  1.00  0.00     0.091 A 
ATOM     88  F   UNL A   1      42.492  36.403  27.997  1.00  0.00    -0.205 F 
ATOM     89  C   UNL A   1      43.896  38.500  30.646  1.00  0.00     0.022 A 
BRANCH  87  90
ATOM     90  S   UNL A   1      43.316  39.357  28.103  1.00  0.00     0.127 S 
ATOM     91  O   UNL A   1      43.847  40.533  28.787  1.00  0.00    -0.237 OA
ATOM     92  O   UNL A   1      44.197  38.801  27.073  1.00  0.00    -0.237 OA
ATOM     93  O   UNL A   1      41.914  39.429  27.712  1.00  0.00    -0.744 OA
ENDBRANCH  87  90
ENDBRANCH  60  83
ENDBRANCH  34  35
ENDBRANCH  26  29
ENDBRANCH  24  25
ENDBRANCH   1  24
TORSDOF 16
ENDMDL
MODEL 3
REMARK VINA RESULT:      -9.9      3.974     11.007
REMARK SMILES C/C=C/c1cncc(-c2ccc([C@@H](C)C(=O)NCCCNC(=O)c3ccc(-c4c5nc(c(-c6cccc(S(=O)(=O)[O-])c6F)c6ccc([nH]6)c(-c6cccc(S(=O)(=O)[O-])c6F)c6nc(c(-c7cccc(S(=O)(=O)[O-])c7F)c7ccc4[nH]7)C=C6)C=C5)cc3)cc2)c1
REMARK SMILES IDX 19 1 18 2 17 3 15 4 16 5 13 7 14 8 12 9 9 10 10 11 88 12
REMARK SMILES IDX 11 13 87 14 8 15 4 16 5 17 89 18 6 19 7 20 3 21 1 22 2 23
REMARK SMILES IDX 20 24 21 25 22 26 23 28 24 29 25 30 86 31 26 32 85 33 27 34
REMARK SMILES IDX 28 35 29 36 79 37 30 38 84 39 78 40 80 41 31 42 83 43 77 44
REMARK SMILES IDX 76 45 32 47 64 48 44 49 63 50 45 51 48 52 62 53 81 54 46 55
REMARK SMILES IDX 47 56 61 58 82 59 49 60 33 61 34 62 42 63 35 64 37 65 43 66
REMARK SMILES IDX 36 67 38 68 39 69 40 70 41 71 65 72 66 73 74 74 67 75 69 76
REMARK SMILES IDX 75 77 68 78 70 79 71 80 72 81 73 82 50 83 51 84 59 85 52 86
REMARK SMILES IDX 54 87 60 88 53 89 55 90 56 91 57 92 58 93
REMARK H PARENT 17 6 21 27 80 46 48 57
REMARK Flexibility Score: inf
ROOT
ATOM      1  C   UNL A   1      41.004  19.916  26.214  1.00  0.00     0.042 C 
ENDROOT
BRANCH   1   2
ATOM      2  C   UNL A   1      42.311  19.562  26.918  1.00  0.00     0.117 C 
BRANCH   2   3
ATOM      3  N   UNL A   1      43.477  19.853  26.107  1.00  0.00    -0.356 N 
ATOM      4  C   UNL A   1      43.955  21.017  25.588  1.00  0.00     0.227 C 
ATOM      5  O   UNL A   1      44.977  20.928  24.896  1.00  0.00    -0.274 OA
ATOM      6  H   UNL A   1      44.023  19.063  25.891  1.00  0.00     0.163 HD
BRANCH   4   7
ATOM      7  C   UNL A   1      43.317  22.393  25.832  1.00  0.00     0.105 C 
ATOM      8  C   UNL A   1      43.468  23.370  24.665  1.00  0.00     0.023 C 
BRANCH   7   9
ATOM      9  C   UNL A   1      43.603  22.957  27.215  1.00  0.00    -0.036 A 
ATOM     10  C   UNL A   1      44.088  23.852  29.887  1.00  0.00    -0.017 A 
ATOM     11  C   UNL A   1      45.124  23.735  28.946  1.00  0.00     0.009 A 
ATOM     12  C   UNL A   1      42.795  23.535  29.449  1.00  0.00     0.009 A 
ATOM     13  C   UNL A   1      44.882  23.331  27.628  1.00  0.00     0.005 A 
ATOM     14  C   UNL A   1      42.558  23.080  28.144  1.00  0.00     0.005 A 
BRANCH  10  15
ATOM     15  C   UNL A   1      44.371  24.292  31.268  1.00  0.00     0.001 A 
ATOM     16  C   UNL A   1      44.823  26.010  32.946  1.00  0.00    -0.007 A 
ATOM     17  C   UNL A   1      44.806  25.000  33.904  1.00  0.00     0.119 A 
ATOM     18  C   UNL A   1      44.608  25.634  31.611  1.00  0.00     0.020 A 
ATOM     19  N   UNL A   1      44.622  23.691  33.625  1.00  0.00    -0.263 NA
ATOM     20  C   UNL A   1      44.402  23.381  32.329  1.00  0.00     0.119 A 
BRANCH  16  21
ATOM     21  C   UNL A   1      45.123  27.386  33.358  1.00  0.00     0.005 C 
ATOM     22  C   UNL A   1      44.931  29.871  33.236  1.00  0.00     0.035 C 
ATOM     23  C   UNL A   1      44.646  28.484  32.755  1.00  0.00    -0.030 C 
ENDBRANCH  16  21
ENDBRANCH  10  15
ENDBRANCH   7   9
ENDBRANCH   4   7
ENDBRANCH   2   3
ENDBRANCH   1   2
BRANCH   1  24
ATOM     24  C   UNL A   1      40.249  21.076  26.849  1.00  0.00     0.118 C 
BRANCH  24  25
ATOM     25  N   UNL A   1      39.143  21.531  26.019  1.00  0.00    -0.352 N 
ATOM     26  C   UNL A   1      38.544  22.761  25.915  1.00  0.00     0.251 C 
ATOM     27  H   UNL A   1      38.760  20.838  25.432  1.00  0.00     0.163 HD
ATOM     28  O   UNL A   1      37.485  22.843  25.294  1.00  0.00    -0.269 OA
BRANCH  26  29
ATOM     29  C   UNL A   1      39.137  23.978  26.521  1.00  0.00     0.039 A 
ATOM     30  C   UNL A   1      38.828  24.278  27.853  1.00  0.00     0.014 A 
ATOM     31  C   UNL A   1      39.916  24.872  25.781  1.00  0.00     0.014 A 
ATOM     32  C   UNL A   1      39.303  25.455  28.438  1.00  0.00     0.010 A 
ATOM     33  C   UNL A   1      40.468  25.997  26.393  1.00  0.00     0.010 A 
ATOM     34  C   UNL A   1      40.134  26.324  27.714  1.00  0.00    -0.014 A 
BRANCH  34  35
ATOM     35  C   UNL A   1      40.607  27.602  28.305  1.00  0.00     0.031 A 
ATOM     36  C   UNL A   1      42.086  27.870  28.451  1.00  0.00     0.074 A 
ATOM     37  C   UNL A   1      39.714  28.502  28.761  1.00  0.00     0.049 A 
ATOM     38  N   UNL A   1      42.690  28.922  28.940  1.00  0.00    -0.248 NA
ATOM     39  C   UNL A   1      43.005  26.803  28.023  1.00  0.00     0.031 C 
ATOM     40  C   UNL A   1      38.262  28.322  28.766  1.00  0.00     0.029 A 
ATOM     41  N   UNL A   1      39.899  29.738  29.326  1.00  0.00    -0.354 N 
ATOM     42  C   UNL A   1      44.048  28.626  28.918  1.00  0.00     0.074 A 
ATOM     43  C   UNL A   1      44.179  27.281  28.407  1.00  0.00     0.031 C 
ATOM     44  C   UNL A   1      37.687  29.414  29.297  1.00  0.00     0.029 A 
ATOM     45  C   UNL A   1      38.728  30.362  29.683  1.00  0.00     0.049 A 
ATOM     46  H   UNL A   1      40.787  30.140  29.464  1.00  0.00     0.167 HD
ATOM     47  C   UNL A   1      45.098  29.413  29.257  1.00  0.00     0.034 A 
ATOM     48  C   UNL A   1      38.515  31.567  30.245  1.00  0.00     0.034 A 
ATOM     49  C   UNL A   1      44.968  30.774  29.706  1.00  0.00     0.049 A 
ATOM     50  C   UNL A   1      39.693  32.463  30.518  1.00  0.00     0.074 A 
ATOM     51  C   UNL A   1      45.968  31.689  29.983  1.00  0.00     0.029 A 
ATOM     52  N   UNL A   1      43.762  31.415  29.939  1.00  0.00    -0.354 N 
ATOM     53  N   UNL A   1      40.970  32.228  30.331  1.00  0.00    -0.248 NA
ATOM     54  C   UNL A   1      39.399  33.809  31.030  1.00  0.00     0.031 C 
ATOM     55  C   UNL A   1      45.363  32.882  30.395  1.00  0.00     0.029 A 
ATOM     56  C   UNL A   1      43.988  32.715  30.354  1.00  0.00     0.049 A 
ATOM     57  H   UNL A   1      42.874  31.005  29.827  1.00  0.00     0.167 HD
ATOM     58  C   UNL A   1      41.628  33.406  30.665  1.00  0.00     0.074 A 
ATOM     59  C   UNL A   1      40.605  34.360  31.045  1.00  0.00     0.031 C 
ATOM     60  C   UNL A   1      42.958  33.671  30.674  1.00  0.00     0.034 A 
BRANCH  47  61
ATOM     61  C   UNL A   1      46.483  28.838  29.094  1.00  0.00     0.023 A 
ATOM     62  C   UNL A   1      47.046  28.074  30.138  1.00  0.00     0.012 A 
ATOM     63  C   UNL A   1      47.213  29.021  27.904  1.00  0.00     0.148 A 
ATOM     64  C   UNL A   1      48.328  27.537  30.018  1.00  0.00     0.002 A 
ATOM     65  C   UNL A   1      48.472  28.444  27.773  1.00  0.00     0.091 A 
ATOM     66  F   UNL A   1      46.675  29.768  26.930  1.00  0.00    -0.205 F 
ATOM     67  C   UNL A   1      49.036  27.714  28.833  1.00  0.00     0.022 A 
BRANCH  65  68
ATOM     68  S   UNL A   1      49.429  28.546  26.256  1.00  0.00     0.127 S 
ATOM     69  O   UNL A   1      49.879  29.936  26.284  1.00  0.00    -0.237 OA
ATOM     70  O   UNL A   1      50.485  27.559  26.487  1.00  0.00    -0.237 OA
ATOM     71  O   UNL A   1      48.509  28.204  25.180  1.00  0.00    -0.744 OA
ENDBRANCH  65  68
ENDBRANCH  47  61
BRANCH  48  72
ATOM     72  C   UNL A   1      37.121  32.035  30.489  1.00  0.00     0.023 A 
ATOM     73  C   UNL A   1      36.552  31.872  31.767  1.00  0.00     0.012 A 
ATOM     74  C   UNL A   1      36.376  32.676  29.481  1.00  0.00     0.148 A 
ATOM     75  C   UNL A   1      35.254  32.312  32.030  1.00  0.00     0.002 A 
ATOM     76  C   UNL A   1      35.103  33.158  29.764  1.00  0.00     0.091 A 
ATOM     77  F   UNL A   1      36.933  32.814  28.270  1.00  0.00    -0.205 F 
ATOM     78  C   UNL A   1      34.535  32.963  31.032  1.00  0.00     0.022 A 
BRANCH  76  79
ATOM     79  S   UNL A   1      34.149  34.118  28.582  1.00  0.00     0.127 S 
ATOM     80  O   UNL A   1      35.011  35.279  28.374  1.00  0.00    -0.237 OA
ATOM     81  O   UNL A   1      34.067  33.201  27.445  1.00  0.00    -0.237 OA
ATOM     82  O   UNL A   1      32.873  34.387  29.232  1.00  0.00    -0.744 OA
ENDBRANCH  76  79
ENDBRANCH  48  72
BRANCH  60  83
ATOM     83  C   UNL A   1      43.389  35.058  31.068  1.00  0.00     0.023 A 
ATOM     84  C   UNL A   1      43.652  36.021  30.073  1.00  0.00     0.012 A 
ATOM     85  C   UNL A   1      43.480  35.425  32.425  1.00  0.00     0.148 A 
ATOM     86  C   UNL A   1      44.039  37.315  30.423  1.00  0.00     0.002 A 
ATOM     87  C   UNL A   1      43.819  36.730  32.766  1.00  0.00     0.091 A 
ATOM     88  F   UNL A   1      43.248  34.491  33.360  1.00  0.00    -0.205 F 
ATOM     89  C   UNL A   1      44.111  37.671  31.767  1.00  0.00     0.022 A 
BRANCH  87  90
ATOM     90  S   UNL A   1      43.836  37.290  34.473  1.00  0.00     0.127 S 
ATOM     91  O   UNL A   1      42.623  36.673  35.003  1.00  0.00    -0.237 OA
ATOM     92  O   UNL A   1      45.084  36.716  34.981  1.00  0.00    -0.237 OA
ATOM     93  O   UNL A   1      43.832  38.746  34.409  1.00  0.00    -0.744 OA
ENDBRANCH  87  90
ENDBRANCH  60  83
ENDBRANCH  34  35
ENDBRANCH  26  29
ENDBRANCH  24  25
ENDBRANCH   1  24
TORSDOF 16
ENDMDL
