MODEL 1
REMARK VINA RESULT:     -13.6      0.000      0.000
REMARK SMILES Cc1ccc(NC(=O)[C@H]2CC(Cl)=CC[C@@H]2C(=O)NCCCNC(=O)c2ccc(-c3c4nc(c(-c5cccc(S(=O)(=O)[O-])c5F)c5ccc([nH]5)c(-c5cccc(S(=O)(=O)[O-])c5F)c5nc(c(-c6cccc(S(=O)(=O)[O-])c6F)c6ccc3[nH]6)C=C5)C=C4)cc2)cc1[N+](=O)[O-]
REMARK SMILES IDX 20 1 19 2 18 3 16 4 17 5 15 7 9 8 10 9 11 10 14 11 12 12
REMARK SMILES IDX 13 13 7 14 6 15 8 17 5 18 1 19 2 20 3 21 89 22 4 23 88 24
REMARK SMILES IDX 90 25 91 26 92 27 21 28 22 29 23 30 24 32 25 33 26 34 87 35
REMARK SMILES IDX 27 36 86 37 28 38 29 39 30 40 80 41 31 42 85 43 79 44 81 45
REMARK SMILES IDX 32 46 84 47 78 48 77 49 33 51 65 52 45 53 64 54 46 55 49 56
REMARK SMILES IDX 63 57 82 58 47 59 48 60 62 62 83 63 50 64 34 65 35 66 43 67
REMARK SMILES IDX 36 68 38 69 44 70 37 71 39 72 40 73 41 74 42 75 66 76 67 77
REMARK SMILES IDX 75 78 68 79 70 80 76 81 69 82 71 83 72 84 73 85 74 86 51 87
REMARK SMILES IDX 52 88 60 89 53 90 55 91 61 92 54 93 56 94 57 95 58 96 59 97
REMARK H PARENT 18 6 6 16 22 31 81 50 49 61
REMARK Flexibility Score: inf
ROOT
ATOM      1  C   UNL A   1      34.210  30.326  26.970  1.00  0.00     0.042 C 
ENDROOT
BRANCH   1   2
ATOM      2  C   UNL A   1      34.313  28.804  26.983  1.00  0.00     0.117 C 
BRANCH   2   3
ATOM      3  N   UNL A   1      33.033  28.126  26.878  1.00  0.00    -0.356 N 
ATOM      4  C   UNL A   1      32.685  26.942  26.305  1.00  0.00     0.224 C 
ATOM      5  O   UNL A   1      31.572  26.492  26.589  1.00  0.00    -0.275 OA
ATOM      6  H   UNL A   1      32.284  28.609  27.297  1.00  0.00     0.163 HD
BRANCH   4   7
ATOM      7  C   UNL A   1      33.588  26.219  25.293  1.00  0.00     0.095 C 
ATOM      8  C   UNL A   1      33.058  26.512  23.872  1.00  0.00     0.097 C 
ATOM      9  C   UNL A   1      33.678  25.616  22.794  1.00  0.00     0.062 C 
ATOM     10  C   UNL A   1      33.501  24.179  23.149  1.00  0.00     0.015 C 
ATOM     11  C   UNL A   1      33.529  24.691  25.600  1.00  0.00     0.043 C 
ATOM     12  Cl  UNL A   1      33.314  23.079  21.837  1.00  0.00    -0.089 Cl
ATOM     13  C   UNL A   1      33.428  23.763  24.418  1.00  0.00    -0.010 C 
BRANCH   8  14
ATOM     14  C   UNL A   1      33.313  27.944  23.438  1.00  0.00     0.228 C 
ATOM     15  N   UNL A   1      32.324  28.709  22.887  1.00  0.00    -0.326 N 
ATOM     16  H   UNL A   1      32.607  29.566  22.495  1.00  0.00     0.169 HD
ATOM     17  O   UNL A   1      34.412  28.472  23.639  1.00  0.00    -0.274 OA
BRANCH  15  18
ATOM     18  C   UNL A   1      30.956  28.418  22.813  1.00  0.00     0.048 A 
ATOM     19  C   UNL A   1      26.691  28.401  23.487  1.00  0.00     0.052 C 
ATOM     20  C   UNL A   1      28.149  28.347  23.132  1.00  0.00     0.027 A 
ATOM     21  C   UNL A   1      28.941  27.296  23.595  1.00  0.00     0.012 A 
ATOM     22  C   UNL A   1      28.807  29.335  22.398  1.00  0.00     0.274 A 
ATOM     23  C   UNL A   1      30.333  27.324  23.418  1.00  0.00     0.027 A 
ATOM     24  C   UNL A   1      30.183  29.371  22.189  1.00  0.00     0.112 A 
BRANCH  22  25
ATOM     25  N   UNL A   1      28.099  30.435  21.834  1.00  0.00     0.063 N 
ATOM     26  O   UNL A   1      27.865  31.379  22.603  1.00  0.00    -0.258 OA
ATOM     27  O   UNL A   1      27.941  30.379  20.612  1.00  0.00    -0.258 OA
ENDBRANCH  22  25
ENDBRANCH  15  18
ENDBRANCH   8  14
ENDBRANCH   4   7
ENDBRANCH   2   3
ENDBRANCH   1   2
BRANCH   1  28
ATOM     28  C   UNL A   1      34.229  30.988  28.356  1.00  0.00     0.118 C 
BRANCH  28  29
ATOM     29  N   UNL A   1      35.301  31.976  28.462  1.00  0.00    -0.352 N 
ATOM     30  C   UNL A   1      36.660  31.828  28.658  1.00  0.00     0.251 C 
ATOM     31  H   UNL A   1      35.003  32.910  28.378  1.00  0.00     0.163 HD
ATOM     32  O   UNL A   1      37.358  32.836  28.751  1.00  0.00    -0.269 OA
BRANCH  30  33
ATOM     33  C   UNL A   1      37.268  30.482  28.652  1.00  0.00     0.039 A 
ATOM     34  C   UNL A   1      37.271  29.752  29.845  1.00  0.00     0.014 A 
ATOM     35  C   UNL A   1      37.962  30.008  27.543  1.00  0.00     0.014 A 
ATOM     36  C   UNL A   1      38.167  28.695  30.012  1.00  0.00     0.010 A 
ATOM     37  C   UNL A   1      38.870  28.973  27.717  1.00  0.00     0.010 A 
ATOM     38  C   UNL A   1      39.045  28.379  28.979  1.00  0.00    -0.014 A 
BRANCH  38  39
ATOM     39  C   UNL A   1      40.277  27.612  29.190  1.00  0.00     0.031 A 
ATOM     40  C   UNL A   1      40.420  26.191  28.798  1.00  0.00     0.074 A 
ATOM     41  C   UNL A   1      41.409  28.275  29.526  1.00  0.00     0.049 A 
ATOM     42  N   UNL A   1      41.412  25.450  29.168  1.00  0.00    -0.248 NA
ATOM     43  C   UNL A   1      39.465  25.489  27.952  1.00  0.00     0.031 C 
ATOM     44  C   UNL A   1      42.784  27.848  29.239  1.00  0.00     0.029 A 
ATOM     45  N   UNL A   1      41.590  29.510  30.126  1.00  0.00    -0.354 N 
ATOM     46  C   UNL A   1      41.407  24.322  28.386  1.00  0.00     0.074 A 
ATOM     47  C   UNL A   1      40.128  24.352  27.707  1.00  0.00     0.031 C 
ATOM     48  C   UNL A   1      43.651  28.720  29.768  1.00  0.00     0.029 A 
ATOM     49  C   UNL A   1      42.896  29.615  30.616  1.00  0.00     0.049 A 
ATOM     50  H   UNL A   1      40.901  30.210  30.197  1.00  0.00     0.167 HD
ATOM     51  C   UNL A   1      42.535  23.562  28.284  1.00  0.00     0.034 A 
ATOM     52  C   UNL A   1      43.122  29.766  31.955  1.00  0.00     0.034 A 
ATOM     53  C   UNL A   1      43.670  24.133  29.033  1.00  0.00     0.049 A 
ATOM     54  C   UNL A   1      43.728  28.527  32.606  1.00  0.00     0.074 A 
ATOM     55  C   UNL A   1      44.831  24.813  28.687  1.00  0.00     0.029 A 
ATOM     56  N   UNL A   1      43.579  24.240  30.410  1.00  0.00    -0.354 N 
ATOM     57  N   UNL A   1      44.284  27.533  31.962  1.00  0.00    -0.248 NA
ATOM     58  C   UNL A   1      43.677  28.281  34.047  1.00  0.00     0.031 C 
ATOM     59  C   UNL A   1      45.427  25.324  29.879  1.00  0.00     0.029 A 
ATOM     60  C   UNL A   1      44.638  24.951  30.952  1.00  0.00     0.049 A 
ATOM     61  H   UNL A   1      42.845  23.856  30.944  1.00  0.00     0.167 HD
ATOM     62  C   UNL A   1      44.406  26.462  32.812  1.00  0.00     0.074 A 
ATOM     63  C   UNL A   1      44.096  27.008  34.123  1.00  0.00     0.031 C 
ATOM     64  C   UNL A   1      44.655  25.182  32.393  1.00  0.00     0.034 A 
BRANCH  51  65
ATOM     65  C   UNL A   1      42.693  22.421  27.296  1.00  0.00     0.023 A 
ATOM     66  C   UNL A   1      41.973  21.227  27.533  1.00  0.00     0.012 A 
ATOM     67  C   UNL A   1      43.514  22.433  26.147  1.00  0.00     0.148 A 
ATOM     68  C   UNL A   1      42.138  20.082  26.747  1.00  0.00     0.002 A 
ATOM     69  C   UNL A   1      43.751  21.265  25.417  1.00  0.00     0.091 A 
ATOM     70  F   UNL A   1      44.008  23.594  25.700  1.00  0.00    -0.205 F 
ATOM     71  C   UNL A   1      43.061  20.086  25.714  1.00  0.00     0.022 A 
BRANCH  69  72
ATOM     72  S   UNL A   1      45.029  21.162  24.152  1.00  0.00     0.127 S 
ATOM     73  O   UNL A   1      44.836  19.806  23.631  1.00  0.00    -0.237 OA
ATOM     74  O   UNL A   1      44.648  22.225  23.226  1.00  0.00    -0.237 OA
ATOM     75  O   UNL A   1      46.296  21.348  24.850  1.00  0.00    -0.744 OA
ENDBRANCH  69  72
ENDBRANCH  51  65
BRANCH  52  76
ATOM     76  C   UNL A   1      42.135  30.705  32.562  1.00  0.00     0.023 A 
ATOM     77  C   UNL A   1      42.169  32.038  32.078  1.00  0.00     0.012 A 
ATOM     78  C   UNL A   1      40.978  30.248  33.216  1.00  0.00     0.148 A 
ATOM     79  C   UNL A   1      41.031  32.843  32.119  1.00  0.00     0.002 A 
ATOM     80  C   UNL A   1      39.850  31.064  33.261  1.00  0.00     0.091 A 
ATOM     81  F   UNL A   1      40.969  29.007  33.719  1.00  0.00    -0.205 F 
ATOM     82  C   UNL A   1      39.862  32.341  32.677  1.00  0.00     0.022 A 
BRANCH  80  83
ATOM     83  S   UNL A   1      38.299  30.477  33.954  1.00  0.00     0.127 S 
ATOM     84  O   UNL A   1      37.368  31.502  33.489  1.00  0.00    -0.237 OA
ATOM     85  O   UNL A   1      38.141  29.172  33.312  1.00  0.00    -0.237 OA
ATOM     86  O   UNL A   1      38.523  30.414  35.389  1.00  0.00    -0.744 OA
ENDBRANCH  80  83
ENDBRANCH  52  76
BRANCH  64  87
ATOM     87  C   UNL A   1      44.912  24.032  33.350  1.00  0.00     0.023 A 
ATOM     88  C   UNL A   1      43.836  23.238  33.801  1.00  0.00     0.012 A 
ATOM     89  C   UNL A   1      46.175  23.790  33.947  1.00  0.00     0.148 A 
ATOM     90  C   UNL A   1      44.013  22.209  34.732  1.00  0.00     0.002 A 
ATOM     91  C   UNL A   1      46.329  22.827  34.943  1.00  0.00     0.091 A 
ATOM     92  F   UNL A   1      47.251  24.466  33.532  1.00  0.00    -0.205 F 
ATOM     93  C   UNL A   1      45.257  22.012  35.312  1.00  0.00     0.022 A 
BRANCH  91  94
ATOM     94  S   UNL A   1      47.850  22.644  35.889  1.00  0.00     0.127 S 
ATOM     95  O   UNL A   1      48.804  22.261  34.846  1.00  0.00    -0.237 OA
ATOM     96  O   UNL A   1      48.037  23.994  36.417  1.00  0.00    -0.237 OA
ATOM     97  O   UNL A   1      47.590  21.607  36.875  1.00  0.00    -0.744 OA
ENDBRANCH  91  94
ENDBRANCH  64  87
ENDBRANCH  38  39
ENDBRANCH  30  33
ENDBRANCH  28  29
ENDBRANCH   1  28
TORSDOF 16
ENDMDL
MODEL 2
REMARK VINA RESULT:     -13.5      1.771      2.252
REMARK SMILES Cc1ccc(NC(=O)[C@H]2CC(Cl)=CC[C@@H]2C(=O)NCCCNC(=O)c2ccc(-c3c4nc(c(-c5cccc(S(=O)(=O)[O-])c5F)c5ccc([nH]5)c(-c5cccc(S(=O)(=O)[O-])c5F)c5nc(c(-c6cccc(S(=O)(=O)[O-])c6F)c6ccc3[nH]6)C=C5)C=C4)cc2)cc1[N+](=O)[O-]
REMARK SMILES IDX 20 1 19 2 18 3 16 4 17 5 15 7 9 8 10 9 11 10 14 11 12 12
REMARK SMILES IDX 13 13 7 14 6 15 8 17 5 18 1 19 2 20 3 21 89 22 4 23 88 24
REMARK SMILES IDX 90 25 91 26 92 27 21 28 22 29 23 30 24 32 25 33 26 34 87 35
REMARK SMILES IDX 27 36 86 37 28 38 29 39 30 40 80 41 31 42 85 43 79 44 81 45
REMARK SMILES IDX 32 46 84 47 78 48 77 49 33 51 65 52 45 53 64 54 46 55 49 56
REMARK SMILES IDX 63 57 82 58 47 59 48 60 62 62 83 63 50 64 34 65 35 66 43 67
REMARK SMILES IDX 36 68 38 69 44 70 37 71 39 72 40 73 41 74 42 75 66 76 67 77
REMARK SMILES IDX 75 78 68 79 70 80 76 81 69 82 71 83 72 84 73 85 74 86 51 87
REMARK SMILES IDX 52 88 60 89 53 90 55 91 61 92 54 93 56 94 57 95 58 96 59 97
REMARK H PARENT 18 6 6 16 22 31 81 50 49 61
REMARK Flexibility Score: inf
ROOT
ATOM      1  C   UNL A   1      32.631  30.357  27.398  1.00  0.00     0.042 C 
ENDROOT
BRANCH   1   2
ATOM      2  C   UNL A   1      32.965  28.868  27.343  1.00  0.00     0.117 C 
BRANCH   2   3
ATOM      3  N   UNL A   1      31.825  28.021  27.039  1.00  0.00    -0.356 N 
ATOM      4  C   UNL A   1      31.747  26.779  26.489  1.00  0.00     0.224 C 
ATOM      5  O   UNL A   1      30.665  26.195  26.582  1.00  0.00    -0.275 OA
ATOM      6  H   UNL A   1      30.954  28.415  27.274  1.00  0.00     0.163 HD
BRANCH   4   7
ATOM      7  C   UNL A   1      32.916  26.144  25.718  1.00  0.00     0.095 C 
ATOM      8  C   UNL A   1      32.738  26.460  24.216  1.00  0.00     0.097 C 
ATOM      9  C   UNL A   1      33.661  25.639  23.308  1.00  0.00     0.062 C 
ATOM     10  C   UNL A   1      33.491  24.183  23.576  1.00  0.00     0.015 C 
ATOM     11  C   UNL A   1      32.878  24.605  25.967  1.00  0.00     0.043 C 
ATOM     12  Cl  UNL A   1      33.703  23.123  22.235  1.00  0.00    -0.089 Cl
ATOM     13  C   UNL A   1      33.131  23.717  24.777  1.00  0.00    -0.010 C 
BRANCH   8  14
ATOM     14  C   UNL A   1      33.004  27.918  23.891  1.00  0.00     0.228 C 
ATOM     15  N   UNL A   1      32.047  28.706  23.316  1.00  0.00    -0.326 N 
ATOM     16  H   UNL A   1      32.345  29.589  23.000  1.00  0.00     0.169 HD
ATOM     17  O   UNL A   1      34.076  28.445  24.207  1.00  0.00    -0.274 OA
BRANCH  15  18
ATOM     18  C   UNL A   1      30.693  28.407  23.122  1.00  0.00     0.048 A 
ATOM     19  C   UNL A   1      26.416  28.088  23.625  1.00  0.00     0.052 C 
ATOM     20  C   UNL A   1      27.883  28.173  23.318  1.00  0.00     0.027 A 
ATOM     21  C   UNL A   1      28.701  27.059  23.509  1.00  0.00     0.012 A 
ATOM     22  C   UNL A   1      28.522  29.339  22.896  1.00  0.00     0.274 A 
ATOM     23  C   UNL A   1      30.096  27.173  23.392  1.00  0.00     0.027 A 
ATOM     24  C   UNL A   1      29.901  29.469  22.749  1.00  0.00     0.112 A 
BRANCH  22  25
ATOM     25  N   UNL A   1      27.789  30.529  22.622  1.00  0.00     0.063 N 
ATOM     26  O   UNL A   1      27.686  30.836  21.424  1.00  0.00    -0.258 OA
ATOM     27  O   UNL A   1      27.218  31.025  23.596  1.00  0.00    -0.258 OA
ENDBRANCH  22  25
ENDBRANCH  15  18
ENDBRANCH   8  14
ENDBRANCH   4   7
ENDBRANCH   2   3
ENDBRANCH   1   2
BRANCH   1  28
ATOM     28  C   UNL A   1      33.800  31.294  27.058  1.00  0.00     0.118 C 
BRANCH  28  29
ATOM     29  N   UNL A   1      34.251  32.034  28.235  1.00  0.00    -0.352 N 
ATOM     30  C   UNL A   1      35.241  31.762  29.158  1.00  0.00     0.251 C 
ATOM     31  H   UNL A   1      33.764  32.874  28.399  1.00  0.00     0.163 HD
ATOM     32  O   UNL A   1      35.404  32.537  30.099  1.00  0.00    -0.269 OA
BRANCH  30  33
ATOM     33  C   UNL A   1      36.150  30.615  28.954  1.00  0.00     0.039 A 
ATOM     34  C   UNL A   1      36.353  29.735  30.023  1.00  0.00     0.014 A 
ATOM     35  C   UNL A   1      36.908  30.491  27.795  1.00  0.00     0.014 A 
ATOM     36  C   UNL A   1      37.477  28.907  30.037  1.00  0.00     0.010 A 
ATOM     37  C   UNL A   1      38.039  29.687  27.821  1.00  0.00     0.010 A 
ATOM     38  C   UNL A   1      38.379  28.967  28.978  1.00  0.00    -0.014 A 
BRANCH  38  39
ATOM     39  C   UNL A   1      39.763  28.491  29.086  1.00  0.00     0.031 A 
ATOM     40  C   UNL A   1      40.163  27.099  28.777  1.00  0.00     0.074 A 
ATOM     41  C   UNL A   1      40.757  29.400  29.231  1.00  0.00     0.049 A 
ATOM     42  N   UNL A   1      41.324  26.614  29.070  1.00  0.00    -0.248 NA
ATOM     43  C   UNL A   1      39.295  26.142  28.107  1.00  0.00     0.031 C 
ATOM     44  C   UNL A   1      42.151  29.238  28.804  1.00  0.00     0.029 A 
ATOM     45  N   UNL A   1      40.733  30.696  29.718  1.00  0.00    -0.354 N 
ATOM     46  C   UNL A   1      41.476  25.442  28.373  1.00  0.00     0.074 A 
ATOM     47  C   UNL A   1      40.154  25.146  27.859  1.00  0.00     0.031 C 
ATOM     48  C   UNL A   1      42.864  30.314  29.159  1.00  0.00     0.029 A 
ATOM     49  C   UNL A   1      42.032  31.111  30.032  1.00  0.00     0.049 A 
ATOM     50  H   UNL A   1      39.922  31.245  29.827  1.00  0.00     0.167 HD
ATOM     51  C   UNL A   1      42.723  24.921  28.183  1.00  0.00     0.034 A 
ATOM     52  C   UNL A   1      42.364  31.429  31.319  1.00  0.00     0.034 A 
ATOM     53  C   UNL A   1      43.784  25.780  28.743  1.00  0.00     0.049 A 
ATOM     54  C   UNL A   1      43.287  30.405  31.972  1.00  0.00     0.074 A 
ATOM     55  C   UNL A   1      44.728  26.646  28.208  1.00  0.00     0.029 A 
ATOM     56  N   UNL A   1      43.821  25.994  30.110  1.00  0.00    -0.354 N 
ATOM     57  N   UNL A   1      43.970  29.491  31.333  1.00  0.00    -0.248 NA
ATOM     58  C   UNL A   1      43.446  30.289  33.422  1.00  0.00     0.031 C 
ATOM     59  C   UNL A   1      45.326  27.378  29.278  1.00  0.00     0.029 A 
ATOM     60  C   UNL A   1      44.756  26.953  30.465  1.00  0.00     0.049 A 
ATOM     61  H   UNL A   1      43.248  25.519  30.756  1.00  0.00     0.167 HD
ATOM     62  C   UNL A   1      44.409  28.551  32.232  1.00  0.00     0.074 A 
ATOM     63  C   UNL A   1      44.134  29.141  33.531  1.00  0.00     0.031 C 
ATOM     64  C   UNL A   1      44.879  27.316  31.873  1.00  0.00     0.034 A 
BRANCH  51  65
ATOM     65  C   UNL A   1      43.013  23.750  27.263  1.00  0.00     0.023 A 
ATOM     66  C   UNL A   1      43.848  23.970  26.144  1.00  0.00     0.012 A 
ATOM     67  C   UNL A   1      42.510  22.438  27.414  1.00  0.00     0.148 A 
ATOM     68  C   UNL A   1      44.082  22.987  25.177  1.00  0.00     0.002 A 
ATOM     69  C   UNL A   1      42.667  21.485  26.404  1.00  0.00     0.091 A 
ATOM     70  F   UNL A   1      41.948  22.076  28.574  1.00  0.00    -0.205 F 
ATOM     71  C   UNL A   1      43.456  21.756  25.283  1.00  0.00     0.022 A 
BRANCH  69  72
ATOM     72  S   UNL A   1      41.778  19.919  26.412  1.00  0.00     0.127 S 
ATOM     73  O   UNL A   1      42.326  19.249  25.229  1.00  0.00    -0.237 OA
ATOM     74  O   UNL A   1      42.183  19.327  27.684  1.00  0.00    -0.237 OA
ATOM     75  O   UNL A   1      40.365  20.263  26.290  1.00  0.00    -0.744 OA
ENDBRANCH  69  72
ENDBRANCH  51  65
BRANCH  52  76
ATOM     76  C   UNL A   1      41.270  32.199  31.979  1.00  0.00     0.023 A 
ATOM     77  C   UNL A   1      40.993  33.477  31.431  1.00  0.00     0.012 A 
ATOM     78  C   UNL A   1      40.293  31.573  32.772  1.00  0.00     0.148 A 
ATOM     79  C   UNL A   1      39.727  34.049  31.550  1.00  0.00     0.002 A 
ATOM     80  C   UNL A   1      39.035  32.157  32.895  1.00  0.00     0.091 A 
ATOM     81  F   UNL A   1      40.577  30.390  33.333  1.00  0.00    -0.205 F 
ATOM     82  C   UNL A   1      38.738  33.369  32.251  1.00  0.00     0.022 A 
BRANCH  80  83
ATOM     83  S   UNL A   1      37.702  31.331  33.773  1.00  0.00     0.127 S 
ATOM     84  O   UNL A   1      38.166  31.420  35.155  1.00  0.00    -0.237 OA
ATOM     85  O   UNL A   1      36.548  32.174  33.461  1.00  0.00    -0.237 OA
ATOM     86  O   UNL A   1      37.639  29.995  33.201  1.00  0.00    -0.744 OA
ENDBRANCH  80  83
ENDBRANCH  52  76
BRANCH  64  87
ATOM     87  C   UNL A   1      45.478  26.336  32.866  1.00  0.00     0.023 A 
ATOM     88  C   UNL A   1      46.847  26.005  32.791  1.00  0.00     0.012 A 
ATOM     89  C   UNL A   1      44.696  25.603  33.796  1.00  0.00     0.148 A 
ATOM     90  C   UNL A   1      47.430  25.060  33.643  1.00  0.00     0.002 A 
ATOM     91  C   UNL A   1      45.260  24.597  34.577  1.00  0.00     0.091 A 
ATOM     92  F   UNL A   1      43.402  25.898  33.961  1.00  0.00    -0.205 F 
ATOM     93  C   UNL A   1      46.633  24.347  34.526  1.00  0.00     0.022 A 
BRANCH  91  94
ATOM     94  S   UNL A   1      44.271  23.489  35.595  1.00  0.00     0.127 S 
ATOM     95  O   UNL A   1      43.740  24.409  36.603  1.00  0.00    -0.237 OA
ATOM     96  O   UNL A   1      43.283  23.003  34.634  1.00  0.00    -0.237 OA
ATOM     97  O   UNL A   1      45.192  22.491  36.119  1.00  0.00    -0.744 OA
ENDBRANCH  91  94
ENDBRANCH  64  87
ENDBRANCH  38  39
ENDBRANCH  30  33
ENDBRANCH  28  29
ENDBRANCH   1  28
TORSDOF 16
ENDMDL
MODEL 3
REMARK VINA RESULT:     -13.3      2.389      3.967
REMARK SMILES Cc1ccc(NC(=O)[C@H]2CC(Cl)=CC[C@@H]2C(=O)NCCCNC(=O)c2ccc(-c3c4nc(c(-c5cccc(S(=O)(=O)[O-])c5F)c5ccc([nH]5)c(-c5cccc(S(=O)(=O)[O-])c5F)c5nc(c(-c6cccc(S(=O)(=O)[O-])c6F)c6ccc3[nH]6)C=C5)C=C4)cc2)cc1[N+](=O)[O-]
REMARK SMILES IDX 20 1 19 2 18 3 16 4 17 5 15 7 9 8 10 9 11 10 14 11 12 12
REMARK SMILES IDX 13 13 7 14 6 15 8 17 5 18 1 19 2 20 3 21 89 22 4 23 88 24
REMARK SMILES IDX 90 25 91 26 92 27 21 28 22 29 23 30 24 32 25 33 26 34 87 35
REMARK SMILES IDX 27 36 86 37 28 38 29 39 30 40 80 41 31 42 85 43 79 44 81 45
REMARK SMILES IDX 32 46 84 47 78 48 77 49 33 51 65 52 45 53 64 54 46 55 49 56
REMARK SMILES IDX 63 57 82 58 47 59 48 60 62 62 83 63 50 64 34 65 35 66 43 67
REMARK SMILES IDX 36 68 38 69 44 70 37 71 39 72 40 73 41 74 42 75 66 76 67 77
REMARK SMILES IDX 75 78 68 79 70 80 76 81 69 82 71 83 72 84 73 85 74 86 51 87
REMARK SMILES IDX 52 88 60 89 53 90 55 91 61 92 54 93 56 94 57 95 58 96 59 97
REMARK H PARENT 18 6 6 16 22 31 81 50 49 61
REMARK Flexibility Score: inf
ROOT
ATOM      1  C   UNL A   1      32.032  30.625  26.879  1.00  0.00     0.042 C 
ENDROOT
BRANCH   1   2
ATOM      2  C   UNL A   1      31.453  29.213  26.900  1.00  0.00     0.117 C 
BRANCH   2   3
ATOM      3  N   UNL A   1      32.456  28.164  26.824  1.00  0.00    -0.356 N 
ATOM      4  C   UNL A   1      33.006  27.520  25.759  1.00  0.00     0.224 C 
ATOM      5  O   UNL A   1      34.020  26.852  25.975  1.00  0.00    -0.275 OA
ATOM      6  H   UNL A   1      32.799  27.868  27.698  1.00  0.00     0.163 HD
BRANCH   4   7
ATOM      7  C   UNL A   1      32.370  27.548  24.360  1.00  0.00     0.095 C 
ATOM      8  C   UNL A   1      31.859  26.128  24.028  1.00  0.00     0.097 C 
ATOM      9  C   UNL A   1      31.478  25.946  22.555  1.00  0.00     0.062 C 
ATOM     10  C   UNL A   1      32.617  26.328  21.674  1.00  0.00     0.015 C 
ATOM     11  C   UNL A   1      33.464  27.993  23.342  1.00  0.00     0.043 C 
ATOM     12  Cl  UNL A   1      32.767  25.464  20.191  1.00  0.00    -0.089 Cl
ATOM     13  C   UNL A   1      33.518  27.249  22.033  1.00  0.00    -0.010 C 
BRANCH   8  14
ATOM     14  C   UNL A   1      30.635  25.744  24.839  1.00  0.00     0.228 C 
ATOM     15  N   UNL A   1      30.411  24.453  25.225  1.00  0.00    -0.326 N 
ATOM     16  H   UNL A   1      29.526  24.263  25.611  1.00  0.00     0.169 HD
ATOM     17  O   UNL A   1      29.845  26.612  25.228  1.00  0.00    -0.274 OA
BRANCH  15  18
ATOM     18  C   UNL A   1      31.290  23.367  25.135  1.00  0.00     0.048 A 
ATOM     19  C   UNL A   1      34.809  20.933  24.554  1.00  0.00     0.052 C 
ATOM     20  C   UNL A   1      33.533  21.675  24.827  1.00  0.00     0.027 A 
ATOM     21  C   UNL A   1      32.507  21.671  23.881  1.00  0.00     0.012 A 
ATOM     22  C   UNL A   1      33.310  22.444  25.970  1.00  0.00     0.274 A 
ATOM     23  C   UNL A   1      31.385  22.497  24.046  1.00  0.00     0.027 A 
ATOM     24  C   UNL A   1      32.194  23.252  26.167  1.00  0.00     0.112 A 
BRANCH  22  25
ATOM     25  N   UNL A   1      34.263  22.492  27.028  1.00  0.00     0.063 N 
ATOM     26  O   UNL A   1      35.155  23.346  26.914  1.00  0.00    -0.258 OA
ATOM     27  O   UNL A   1      33.995  21.783  28.001  1.00  0.00    -0.258 OA
ENDBRANCH  22  25
ENDBRANCH  15  18
ENDBRANCH   8  14
ENDBRANCH   4   7
ENDBRANCH   2   3
ENDBRANCH   1   2
BRANCH   1  28
ATOM     28  C   UNL A   1      33.567  30.695  26.869  1.00  0.00     0.118 C 
BRANCH  28  29
ATOM     29  N   UNL A   1      34.065  31.647  27.860  1.00  0.00    -0.352 N 
ATOM     30  C   UNL A   1      35.106  31.560  28.763  1.00  0.00     0.251 C 
ATOM     31  H   UNL A   1      33.572  32.498  27.889  1.00  0.00     0.163 HD
ATOM     32  O   UNL A   1      35.304  32.500  29.531  1.00  0.00    -0.269 OA
BRANCH  30  33
ATOM     33  C   UNL A   1      36.023  30.403  28.729  1.00  0.00     0.039 A 
ATOM     34  C   UNL A   1      36.302  29.745  29.932  1.00  0.00     0.014 A 
ATOM     35  C   UNL A   1      36.718  30.065  27.573  1.00  0.00     0.014 A 
ATOM     36  C   UNL A   1      37.440  28.944  30.040  1.00  0.00     0.010 A 
ATOM     37  C   UNL A   1      37.863  29.289  27.686  1.00  0.00     0.010 A 
ATOM     38  C   UNL A   1      38.281  28.807  28.938  1.00  0.00    -0.014 A 
BRANCH  38  39
ATOM     39  C   UNL A   1      39.676  28.371  29.054  1.00  0.00     0.031 A 
ATOM     40  C   UNL A   1      40.117  26.989  28.757  1.00  0.00     0.074 A 
ATOM     41  C   UNL A   1      40.644  29.308  29.197  1.00  0.00     0.049 A 
ATOM     42  N   UNL A   1      41.290  26.538  29.057  1.00  0.00    -0.248 NA
ATOM     43  C   UNL A   1      39.278  26.003  28.091  1.00  0.00     0.031 C 
ATOM     44  C   UNL A   1      42.044  29.183  28.776  1.00  0.00     0.029 A 
ATOM     45  N   UNL A   1      40.582  30.607  29.674  1.00  0.00    -0.354 N 
ATOM     46  C   UNL A   1      41.477  25.366  28.369  1.00  0.00     0.074 A 
ATOM     47  C   UNL A   1      40.167  25.030  27.853  1.00  0.00     0.031 C 
ATOM     48  C   UNL A   1      42.725  30.281  29.127  1.00  0.00     0.029 A 
ATOM     49  C   UNL A   1      41.867  31.060  29.991  1.00  0.00     0.049 A 
ATOM     50  H   UNL A   1      39.755  31.133  29.776  1.00  0.00     0.167 HD
ATOM     51  C   UNL A   1      42.739  24.879  28.188  1.00  0.00     0.034 A 
ATOM     52  C   UNL A   1      42.185  31.396  31.277  1.00  0.00     0.034 A 
ATOM     53  C   UNL A   1      43.774  25.771  28.746  1.00  0.00     0.049 A 
ATOM     54  C   UNL A   1      43.134  30.404  31.940  1.00  0.00     0.074 A 
ATOM     55  C   UNL A   1      44.695  26.661  28.208  1.00  0.00     0.029 A 
ATOM     56  N   UNL A   1      43.799  25.996  30.111  1.00  0.00    -0.354 N 
ATOM     57  N   UNL A   1      43.845  29.504  31.310  1.00  0.00    -0.248 NA
ATOM     58  C   UNL A   1      43.290  30.302  33.391  1.00  0.00     0.031 C 
ATOM     59  C   UNL A   1      45.269  27.416  29.275  1.00  0.00     0.029 A 
ATOM     60  C   UNL A   1      44.705  26.984  30.463  1.00  0.00     0.049 A 
ATOM     61  H   UNL A   1      43.238  25.510  30.758  1.00  0.00     0.167 HD
ATOM     62  C   UNL A   1      44.307  28.583  32.217  1.00  0.00     0.074 A 
ATOM     63  C   UNL A   1      44.010  29.175  33.511  1.00  0.00     0.031 C 
ATOM     64  C   UNL A   1      44.813  27.359  31.868  1.00  0.00     0.034 A 
BRANCH  51  65
ATOM     65  C   UNL A   1      43.066  23.710  27.277  1.00  0.00     0.023 A 
ATOM     66  C   UNL A   1      43.956  23.929  26.202  1.00  0.00     0.012 A 
ATOM     67  C   UNL A   1      42.547  22.402  27.396  1.00  0.00     0.148 A 
ATOM     68  C   UNL A   1      44.231  22.949  25.242  1.00  0.00     0.002 A 
ATOM     69  C   UNL A   1      42.746  21.452  26.391  1.00  0.00     0.091 A 
ATOM     70  F   UNL A   1      41.925  22.038  28.525  1.00  0.00    -0.205 F 
ATOM     71  C   UNL A   1      43.591  21.723  25.311  1.00  0.00     0.022 A 
BRANCH  69  72
ATOM     72  S   UNL A   1      41.846  19.893  26.346  1.00  0.00     0.127 S 
ATOM     73  O   UNL A   1      42.272  19.257  27.596  1.00  0.00    -0.237 OA
ATOM     74  O   UNL A   1      40.452  20.329  26.335  1.00  0.00    -0.237 OA
ATOM     75  O   UNL A   1      42.307  19.201  25.148  1.00  0.00    -0.744 OA
ENDBRANCH  69  72
ENDBRANCH  51  65
BRANCH  52  76
ATOM     76  C   UNL A   1      41.068  32.140  31.927  1.00  0.00     0.023 A 
ATOM     77  C   UNL A   1      40.826  33.449  31.438  1.00  0.00     0.012 A 
ATOM     78  C   UNL A   1      40.050  31.481  32.638  1.00  0.00     0.148 A 
ATOM     79  C   UNL A   1      39.560  34.026  31.530  1.00  0.00     0.002 A 
ATOM     80  C   UNL A   1      38.792  32.070  32.735  1.00  0.00     0.091 A 
ATOM     81  F   UNL A   1      40.299  30.267  33.145  1.00  0.00    -0.205 F 
ATOM     82  C   UNL A   1      38.534  33.319  32.146  1.00  0.00     0.022 A 
BRANCH  80  83
ATOM     83  S   UNL A   1      37.414  31.210  33.504  1.00  0.00     0.127 S 
ATOM     84  O   UNL A   1      37.534  31.650  34.891  1.00  0.00    -0.237 OA
ATOM     85  O   UNL A   1      36.261  31.758  32.787  1.00  0.00    -0.237 OA
ATOM     86  O   UNL A   1      37.657  29.798  33.252  1.00  0.00    -0.744 OA
ENDBRANCH  80  83
ENDBRANCH  52  76
BRANCH  64  87
ATOM     87  C   UNL A   1      45.435  26.404  32.871  1.00  0.00     0.023 A 
ATOM     88  C   UNL A   1      46.826  26.168  32.850  1.00  0.00     0.012 A 
ATOM     89  C   UNL A   1      44.667  25.603  33.755  1.00  0.00     0.148 A 
ATOM     90  C   UNL A   1      47.435  25.249  33.711  1.00  0.00     0.002 A 
ATOM     91  C   UNL A   1      45.265  24.622  34.543  1.00  0.00     0.091 A 
ATOM     92  F   UNL A   1      43.350  25.806  33.868  1.00  0.00    -0.205 F 
ATOM     93  C   UNL A   1      46.653  24.467  34.548  1.00  0.00     0.022 A 
BRANCH  91  94
ATOM     94  S   UNL A   1      44.313  23.431  35.500  1.00  0.00     0.127 S 
ATOM     95  O   UNL A   1      43.552  22.749  34.451  1.00  0.00    -0.237 OA
ATOM     96  O   UNL A   1      45.368  22.624  36.108  1.00  0.00    -0.237 OA
ATOM     97  O   UNL A   1      43.499  24.211  36.421  1.00  0.00    -0.744 OA
ENDBRANCH  91  94
ENDBRANCH  64  87
ENDBRANCH  38  39
ENDBRANCH  30  33
ENDBRANCH  28  29
ENDBRANCH   1  28
TORSDOF 16
ENDMDL
