MODEL 1
REMARK VINA RESULT:     -12.6      0.000      0.000
REMARK SMILES CC1=C(C(=O)NCCCNC(=O)c2ccc(-c3c4nc(c(-c5cccc(S(=O)(=O)[O-])c5F)c5ccc([nH]5)c(-c5cccc(S(=O)(=O)[O-])c5F)c5nc(c(-c6cccc(S(=O)(=O)[O-])c6F)c6ccc3[nH]6)C=C5)C=C4)cc2)N2C(=O)[C@@H](NC(=O)c3ccn(C)n3)[C@H]2SC1
REMARK SMILES IDX 8 1 7 2 6 3 4 4 5 5 3 7 1 8 2 9 91 10 76 11 90 12 77 13
REMARK SMILES IDX 89 14 78 15 79 16 80 17 81 18 82 20 83 21 84 22 88 23 85 24
REMARK SMILES IDX 86 25 87 26 9 27 10 28 11 29 12 31 13 32 14 33 75 34 15 35
REMARK SMILES IDX 74 36 16 37 17 38 18 39 68 40 19 41 73 42 67 43 69 44 20 45
REMARK SMILES IDX 72 46 66 47 65 48 21 50 53 51 33 52 52 53 34 54 37 55 51 56
REMARK SMILES IDX 70 57 35 58 36 59 50 61 71 62 38 63 22 64 23 65 31 66 24 67
REMARK SMILES IDX 26 68 32 69 25 70 27 71 28 72 29 73 30 74 54 75 55 76 63 77
REMARK SMILES IDX 56 78 58 79 64 80 57 81 59 82 60 83 61 84 62 85 39 86 40 87
REMARK SMILES IDX 48 88 41 89 43 90 49 91 42 92 44 93 45 94 46 95 47 96
REMARK H PARENT 6 6 80 19 10 30 69 49 37 60
REMARK Flexibility Score: inf
ROOT
ATOM      1  C   UNL A   1      33.976  29.198  24.906  1.00  0.00     0.042 C 
ENDROOT
BRANCH   1   2
ATOM      2  C   UNL A   1      33.650  29.021  23.441  1.00  0.00     0.118 C 
BRANCH   2   3
ATOM      3  N   UNL A   1      34.139  27.815  22.807  1.00  0.00    -0.351 N 
ATOM      4  C   UNL A   1      33.582  26.566  22.795  1.00  0.00     0.268 C 
ATOM      5  O   UNL A   1      34.001  25.735  21.987  1.00  0.00    -0.268 OA
ATOM      6  H   UNL A   1      34.989  27.906  22.318  1.00  0.00     0.163 HD
BRANCH   4   7
ATOM      7  C   UNL A   1      32.509  26.180  23.787  1.00  0.00     0.110 C 
ATOM      8  C   UNL A   1      33.990  25.105  25.545  1.00  0.00     0.043 C 
ATOM      9  C   UNL A   1      32.662  25.440  24.916  1.00  0.00    -0.034 C 
ATOM     10  C   UNL A   1      31.490  24.878  25.726  1.00  0.00     0.104 C 
ATOM     11  N   UNL A   1      31.306  26.789  23.612  1.00  0.00    -0.290 N 
ATOM     12  S   UNL A   1      29.824  25.446  25.231  1.00  0.00    -0.129 SA
ATOM     13  C   UNL A   1      30.601  27.468  22.688  1.00  0.00     0.253 C 
ATOM     14  C   UNL A   1      30.446  27.062  24.740  1.00  0.00     0.181 C 
ATOM     15  O   UNL A   1      30.714  27.637  21.495  1.00  0.00    -0.272 OA
ATOM     16  C   UNL A   1      29.640  27.972  23.800  1.00  0.00     0.206 C 
BRANCH  16  17
ATOM     17  N   UNL A   1      28.185  27.741  23.678  1.00  0.00    -0.336 N 
ATOM     18  C   UNL A   1      27.241  28.659  23.256  1.00  0.00     0.272 C 
ATOM     19  H   UNL A   1      27.855  26.845  23.921  1.00  0.00     0.164 HD
ATOM     20  O   UNL A   1      26.046  28.403  23.392  1.00  0.00    -0.267 OA
BRANCH  18  21
ATOM     21  C   UNL A   1      27.727  29.923  22.673  1.00  0.00     0.150 A 
ATOM     22  C   UNL A   1      28.010  30.196  21.303  1.00  0.00     0.056 A 
ATOM     23  N   UNL A   1      28.011  30.999  23.433  1.00  0.00    -0.168 NA
ATOM     24  C   UNL A   1      28.528  31.468  21.277  1.00  0.00     0.109 A 
ATOM     25  N   UNL A   1      28.467  31.915  22.563  1.00  0.00    -0.275 N 
ATOM     26  C   UNL A   1      28.862  33.224  23.027  1.00  0.00     0.173 C 
ENDBRANCH  18  21
ENDBRANCH  16  17
ENDBRANCH   4   7
ENDBRANCH   2   3
ENDBRANCH   1   2
BRANCH   1  27
ATOM     27  C   UNL A   1      32.779  29.366  25.822  1.00  0.00     0.118 C 
BRANCH  27  28
ATOM     28  N   UNL A   1      32.574  30.729  26.305  1.00  0.00    -0.352 N 
ATOM     29  C   UNL A   1      33.315  31.517  27.160  1.00  0.00     0.251 C 
ATOM     30  H   UNL A   1      31.761  31.162  25.959  1.00  0.00     0.163 HD
ATOM     31  O   UNL A   1      32.875  32.614  27.495  1.00  0.00    -0.269 OA
BRANCH  29  32
ATOM     32  C   UNL A   1      34.605  31.041  27.711  1.00  0.00     0.039 A 
ATOM     33  C   UNL A   1      35.658  31.949  27.873  1.00  0.00     0.014 A 
ATOM     34  C   UNL A   1      34.785  29.713  28.088  1.00  0.00     0.014 A 
ATOM     35  C   UNL A   1      36.837  31.540  28.505  1.00  0.00     0.010 A 
ATOM     36  C   UNL A   1      35.888  29.350  28.851  1.00  0.00     0.010 A 
ATOM     37  C   UNL A   1      36.939  30.251  29.054  1.00  0.00    -0.014 A 
BRANCH  37  38
ATOM     38  C   UNL A   1      38.135  29.820  29.827  1.00  0.00     0.031 A 
ATOM     39  C   UNL A   1      38.372  30.347  31.220  1.00  0.00     0.074 A 
ATOM     40  C   UNL A   1      39.051  29.016  29.249  1.00  0.00     0.049 A 
ATOM     41  N   UNL A   1      39.375  30.120  32.028  1.00  0.00    -0.248 NA
ATOM     42  C   UNL A   1      37.372  31.281  31.766  1.00  0.00     0.031 C 
ATOM     43  C   UNL A   1      38.991  28.510  27.875  1.00  0.00     0.029 A 
ATOM     44  N   UNL A   1      40.225  28.497  29.737  1.00  0.00    -0.354 N 
ATOM     45  C   UNL A   1      39.146  30.906  33.152  1.00  0.00     0.074 A 
ATOM     46  C   UNL A   1      37.940  31.660  32.900  1.00  0.00     0.031 C 
ATOM     47  C   UNL A   1      40.060  27.733  27.642  1.00  0.00     0.029 A 
ATOM     48  C   UNL A   1      40.906  27.719  28.830  1.00  0.00     0.049 A 
ATOM     49  H   UNL A   1      40.550  28.667  30.651  1.00  0.00     0.167 HD
ATOM     50  C   UNL A   1      39.851  30.970  34.306  1.00  0.00     0.034 A 
ATOM     51  C   UNL A   1      42.084  27.072  28.938  1.00  0.00     0.034 A 
ATOM     52  C   UNL A   1      41.029  30.192  34.569  1.00  0.00     0.049 A 
ATOM     53  C   UNL A   1      42.832  27.135  30.242  1.00  0.00     0.074 A 
ATOM     54  C   UNL A   1      41.769  30.120  35.736  1.00  0.00     0.029 A 
ATOM     55  N   UNL A   1      41.650  29.361  33.650  1.00  0.00    -0.354 N 
ATOM     56  N   UNL A   1      42.515  27.766  31.347  1.00  0.00    -0.248 NA
ATOM     57  C   UNL A   1      44.082  26.366  30.326  1.00  0.00     0.031 C 
ATOM     58  C   UNL A   1      42.860  29.277  35.508  1.00  0.00     0.029 A 
ATOM     59  C   UNL A   1      42.772  28.783  34.217  1.00  0.00     0.049 A 
ATOM     60  H   UNL A   1      41.338  29.205  32.729  1.00  0.00     0.167 HD
ATOM     61  C   UNL A   1      43.503  27.437  32.269  1.00  0.00     0.074 A 
ATOM     62  C   UNL A   1      44.415  26.534  31.597  1.00  0.00     0.031 C 
ATOM     63  C   UNL A   1      43.647  27.853  33.552  1.00  0.00     0.034 A 
BRANCH  50  64
ATOM     64  C   UNL A   1      39.339  31.886  35.389  1.00  0.00     0.023 A 
ATOM     65  C   UNL A   1      38.412  31.404  36.338  1.00  0.00     0.012 A 
ATOM     66  C   UNL A   1      39.808  33.209  35.498  1.00  0.00     0.148 A 
ATOM     67  C   UNL A   1      37.930  32.235  37.349  1.00  0.00     0.002 A 
ATOM     68  C   UNL A   1      39.364  34.015  36.540  1.00  0.00     0.091 A 
ATOM     69  F   UNL A   1      40.673  33.659  34.577  1.00  0.00    -0.205 F 
ATOM     70  C   UNL A   1      38.414  33.535  37.456  1.00  0.00     0.022 A 
BRANCH  68  71
ATOM     71  S   UNL A   1      39.989  35.675  36.819  1.00  0.00     0.127 S 
ATOM     72  O   UNL A   1      41.426  35.432  36.947  1.00  0.00    -0.237 OA
ATOM     73  O   UNL A   1      39.594  36.360  35.588  1.00  0.00    -0.237 OA
ATOM     74  O   UNL A   1      39.330  36.157  38.024  1.00  0.00    -0.744 OA
ENDBRANCH  68  71
ENDBRANCH  50  64
BRANCH  51  75
ATOM     75  C   UNL A   1      42.601  26.260  27.800  1.00  0.00     0.023 A 
ATOM     76  C   UNL A   1      43.574  26.805  26.939  1.00  0.00     0.012 A 
ATOM     77  C   UNL A   1      42.143  24.948  27.571  1.00  0.00     0.148 A 
ATOM     78  C   UNL A   1      44.052  26.075  25.850  1.00  0.00     0.002 A 
ATOM     79  C   UNL A   1      42.665  24.205  26.520  1.00  0.00     0.091 A 
ATOM     80  F   UNL A   1      41.212  24.449  28.397  1.00  0.00    -0.205 F 
ATOM     81  C   UNL A   1      43.604  24.774  25.645  1.00  0.00     0.022 A 
BRANCH  79  82
ATOM     82  S   UNL A   1      42.248  22.478  26.257  1.00  0.00     0.127 S 
ATOM     83  O   UNL A   1      42.996  22.171  25.041  1.00  0.00    -0.237 OA
ATOM     84  O   UNL A   1      42.766  21.857  27.476  1.00  0.00    -0.237 OA
ATOM     85  O   UNL A   1      40.797  22.438  26.133  1.00  0.00    -0.744 OA
ENDBRANCH  79  82
ENDBRANCH  51  75
BRANCH  63  86
ATOM     86  C   UNL A   1      44.805  27.296  34.339  1.00  0.00     0.023 A 
ATOM     87  C   UNL A   1      46.062  27.932  34.302  1.00  0.00     0.012 A 
ATOM     88  C   UNL A   1      44.626  26.166  35.162  1.00  0.00     0.148 A 
ATOM     89  C   UNL A   1      47.134  27.424  35.036  1.00  0.00     0.002 A 
ATOM     90  C   UNL A   1      45.681  25.702  35.935  1.00  0.00     0.091 A 
ATOM     91  F   UNL A   1      43.427  25.565  35.172  1.00  0.00    -0.205 F 
ATOM     92  C   UNL A   1      46.941  26.318  35.860  1.00  0.00     0.022 A 
BRANCH  90  93
ATOM     93  S   UNL A   1      45.498  24.348  37.101  1.00  0.00     0.127 S 
ATOM     94  O   UNL A   1      44.488  24.877  38.016  1.00  0.00    -0.237 OA
ATOM     95  O   UNL A   1      45.032  23.260  36.239  1.00  0.00    -0.237 OA
ATOM     96  O   UNL A   1      46.816  24.136  37.683  1.00  0.00    -0.744 OA
ENDBRANCH  90  93
ENDBRANCH  63  86
ENDBRANCH  37  38
ENDBRANCH  29  32
ENDBRANCH  27  28
ENDBRANCH   1  27
TORSDOF 15
ENDMDL
MODEL 2
REMARK VINA RESULT:     -12.2      5.706      8.754
REMARK SMILES CC1=C(C(=O)NCCCNC(=O)c2ccc(-c3c4nc(c(-c5cccc(S(=O)(=O)[O-])c5F)c5ccc([nH]5)c(-c5cccc(S(=O)(=O)[O-])c5F)c5nc(c(-c6cccc(S(=O)(=O)[O-])c6F)c6ccc3[nH]6)C=C5)C=C4)cc2)N2C(=O)[C@@H](NC(=O)c3ccn(C)n3)[C@H]2SC1
REMARK SMILES IDX 8 1 7 2 6 3 4 4 5 5 3 7 1 8 2 9 91 10 76 11 90 12 77 13
REMARK SMILES IDX 89 14 78 15 79 16 80 17 81 18 82 20 83 21 84 22 88 23 85 24
REMARK SMILES IDX 86 25 87 26 9 27 10 28 11 29 12 31 13 32 14 33 75 34 15 35
REMARK SMILES IDX 74 36 16 37 17 38 18 39 68 40 19 41 73 42 67 43 69 44 20 45
REMARK SMILES IDX 72 46 66 47 65 48 21 50 53 51 33 52 52 53 34 54 37 55 51 56
REMARK SMILES IDX 70 57 35 58 36 59 50 61 71 62 38 63 22 64 23 65 31 66 24 67
REMARK SMILES IDX 26 68 32 69 25 70 27 71 28 72 29 73 30 74 54 75 55 76 63 77
REMARK SMILES IDX 56 78 58 79 64 80 57 81 59 82 60 83 61 84 62 85 39 86 40 87
REMARK SMILES IDX 48 88 41 89 43 90 49 91 42 92 44 93 45 94 46 95 47 96
REMARK H PARENT 6 6 80 19 10 30 69 49 37 60
REMARK Flexibility Score: inf
ROOT
ATOM      1  C   UNL A   1      37.774  20.042  25.098  1.00  0.00     0.042 C 
ENDROOT
BRANCH   1   2
ATOM      2  C   UNL A   1      36.749  21.137  24.913  1.00  0.00     0.118 C 
BRANCH   2   3
ATOM      3  N   UNL A   1      35.957  21.490  26.073  1.00  0.00    -0.351 N 
ATOM      4  C   UNL A   1      34.611  21.346  26.268  1.00  0.00     0.268 C 
ATOM      5  O   UNL A   1      34.160  21.455  27.409  1.00  0.00    -0.268 OA
ATOM      6  H   UNL A   1      36.456  21.889  26.823  1.00  0.00     0.163 HD
BRANCH   4   7
ATOM      7  C   UNL A   1      33.673  21.112  25.105  1.00  0.00     0.110 C 
ATOM      8  C   UNL A   1      32.904  18.770  25.707  1.00  0.00     0.043 C 
ATOM      9  C   UNL A   1      33.030  19.959  24.789  1.00  0.00    -0.034 C 
ATOM     10  C   UNL A   1      32.305  19.730  23.459  1.00  0.00     0.104 C 
ATOM     11  N   UNL A   1      33.310  22.226  24.416  1.00  0.00    -0.290 N 
ATOM     12  S   UNL A   1      32.142  21.190  22.371  1.00  0.00    -0.129 SA
ATOM     13  C   UNL A   1      33.682  23.505  24.223  1.00  0.00     0.253 C 
ATOM     14  C   UNL A   1      32.018  22.309  23.776  1.00  0.00     0.181 C 
ATOM     15  O   UNL A   1      34.682  24.141  24.467  1.00  0.00    -0.272 OA
ATOM     16  C   UNL A   1      32.284  23.814  23.619  1.00  0.00     0.206 C 
BRANCH  16  17
ATOM     17  N   UNL A   1      32.177  24.408  22.269  1.00  0.00    -0.336 N 
ATOM     18  C   UNL A   1      31.834  25.715  21.973  1.00  0.00     0.272 C 
ATOM     19  H   UNL A   1      32.369  23.815  21.507  1.00  0.00     0.164 HD
ATOM     20  O   UNL A   1      31.586  26.024  20.808  1.00  0.00    -0.267 OA
BRANCH  18  21
ATOM     21  C   UNL A   1      31.764  26.675  23.089  1.00  0.00     0.150 A 
ATOM     22  C   UNL A   1      30.595  27.167  23.739  1.00  0.00     0.056 A 
ATOM     23  N   UNL A   1      32.866  27.252  23.607  1.00  0.00    -0.168 NA
ATOM     24  C   UNL A   1      31.038  28.107  24.638  1.00  0.00     0.109 A 
ATOM     25  N   UNL A   1      32.397  28.087  24.549  1.00  0.00    -0.275 N 
ATOM     26  C   UNL A   1      33.312  28.878  25.338  1.00  0.00     0.173 C 
ENDBRANCH  18  21
ENDBRANCH  16  17
ENDBRANCH   4   7
ENDBRANCH   2   3
ENDBRANCH   1   2
BRANCH   1  27
ATOM     27  C   UNL A   1      39.073  20.471  25.751  1.00  0.00     0.118 C 
BRANCH  27  28
ATOM     28  N   UNL A   1      40.064  19.407  25.884  1.00  0.00    -0.352 N 
ATOM     29  C   UNL A   1      41.418  19.445  26.136  1.00  0.00     0.251 C 
ATOM     30  H   UNL A   1      39.699  18.499  25.774  1.00  0.00     0.163 HD
ATOM     31  O   UNL A   1      42.063  18.399  26.104  1.00  0.00    -0.269 OA
BRANCH  29  32
ATOM     32  C   UNL A   1      42.110  20.729  26.400  1.00  0.00     0.039 A 
ATOM     33  C   UNL A   1      42.597  21.478  25.324  1.00  0.00     0.014 A 
ATOM     34  C   UNL A   1      42.267  21.213  27.696  1.00  0.00     0.014 A 
ATOM     35  C   UNL A   1      43.140  22.748  25.550  1.00  0.00     0.010 A 
ATOM     36  C   UNL A   1      42.659  22.529  27.903  1.00  0.00     0.010 A 
ATOM     37  C   UNL A   1      43.121  23.309  26.837  1.00  0.00    -0.014 A 
BRANCH  37  38
ATOM     38  C   UNL A   1      43.590  24.698  27.096  1.00  0.00     0.031 A 
ATOM     39  C   UNL A   1      42.635  25.738  27.626  1.00  0.00     0.074 A 
ATOM     40  C   UNL A   1      44.853  25.048  26.777  1.00  0.00     0.049 A 
ATOM     41  N   UNL A   1      42.848  27.004  27.872  1.00  0.00    -0.248 NA
ATOM     42  C   UNL A   1      41.248  25.310  27.883  1.00  0.00     0.031 C 
ATOM     43  C   UNL A   1      45.852  24.164  26.169  1.00  0.00     0.029 A 
ATOM     44  N   UNL A   1      45.511  26.246  26.902  1.00  0.00    -0.354 N 
ATOM     45  C   UNL A   1      41.624  27.528  28.272  1.00  0.00     0.074 A 
ATOM     46  C   UNL A   1      40.658  26.457  28.182  1.00  0.00     0.031 C 
ATOM     47  C   UNL A   1      46.999  24.840  26.003  1.00  0.00     0.029 A 
ATOM     48  C   UNL A   1      46.809  26.216  26.448  1.00  0.00     0.049 A 
ATOM     49  H   UNL A   1      45.092  27.053  27.281  1.00  0.00     0.167 HD
ATOM     50  C   UNL A   1      41.331  28.775  28.710  1.00  0.00     0.034 A 
ATOM     51  C   UNL A   1      47.742  27.188  26.390  1.00  0.00     0.034 A 
ATOM     52  C   UNL A   1      42.300  29.828  28.834  1.00  0.00     0.049 A 
ATOM     53  C   UNL A   1      47.400  28.557  26.911  1.00  0.00     0.074 A 
ATOM     54  C   UNL A   1      42.124  31.101  29.346  1.00  0.00     0.029 A 
ATOM     55  N   UNL A   1      43.622  29.738  28.429  1.00  0.00    -0.354 N 
ATOM     56  N   UNL A   1      46.274  28.987  27.428  1.00  0.00    -0.248 NA
ATOM     57  C   UNL A   1      48.469  29.565  26.877  1.00  0.00     0.031 C 
ATOM     58  C   UNL A   1      43.332  31.794  29.212  1.00  0.00     0.029 A 
ATOM     59  C   UNL A   1      44.272  30.936  28.665  1.00  0.00     0.049 A 
ATOM     60  H   UNL A   1      44.038  28.938  28.031  1.00  0.00     0.167 HD
ATOM     61  C   UNL A   1      46.512  30.301  27.817  1.00  0.00     0.074 A 
ATOM     62  C   UNL A   1      47.895  30.586  27.496  1.00  0.00     0.031 C 
ATOM     63  C   UNL A   1      45.660  31.193  28.380  1.00  0.00     0.034 A 
BRANCH  50  64
ATOM     64  C   UNL A   1      39.909  29.054  29.128  1.00  0.00     0.023 A 
ATOM     65  C   UNL A   1      38.911  29.235  28.146  1.00  0.00     0.012 A 
ATOM     66  C   UNL A   1      39.550  29.092  30.489  1.00  0.00     0.148 A 
ATOM     67  C   UNL A   1      37.590  29.491  28.513  1.00  0.00     0.002 A 
ATOM     68  C   UNL A   1      38.222  29.293  30.846  1.00  0.00     0.091 A 
ATOM     69  F   UNL A   1      40.514  28.938  31.409  1.00  0.00    -0.205 F 
ATOM     70  C   UNL A   1      37.244  29.509  29.861  1.00  0.00     0.022 A 
BRANCH  68  71
ATOM     71  S   UNL A   1      37.657  29.249  32.550  1.00  0.00     0.127 S 
ATOM     72  O   UNL A   1      36.282  29.729  32.417  1.00  0.00    -0.237 OA
ATOM     73  O   UNL A   1      37.778  27.828  32.875  1.00  0.00    -0.237 OA
ATOM     74  O   UNL A   1      38.552  30.124  33.295  1.00  0.00    -0.744 OA
ENDBRANCH  68  71
ENDBRANCH  50  64
BRANCH  51  75
ATOM     75  C   UNL A   1      49.107  26.887  25.870  1.00  0.00     0.023 A 
ATOM     76  C   UNL A   1      50.016  26.171  26.673  1.00  0.00     0.012 A 
ATOM     77  C   UNL A   1      49.504  27.297  24.584  1.00  0.00     0.148 A 
ATOM     78  C   UNL A   1      51.309  25.903  26.220  1.00  0.00     0.002 A 
ATOM     79  C   UNL A   1      50.772  26.976  24.115  1.00  0.00     0.091 A 
ATOM     80  F   UNL A   1      48.627  27.983  23.838  1.00  0.00    -0.205 F 
ATOM     81  C   UNL A   1      51.683  26.297  24.939  1.00  0.00     0.022 A 
BRANCH  79  82
ATOM     82  S   UNL A   1      51.298  27.326  22.434  1.00  0.00     0.127 S 
ATOM     83  O   UNL A   1      52.586  26.641  22.374  1.00  0.00    -0.237 OA
ATOM     84  O   UNL A   1      50.229  26.704  21.651  1.00  0.00    -0.237 OA
ATOM     85  O   UNL A   1      51.350  28.778  22.332  1.00  0.00    -0.744 OA
ENDBRANCH  79  82
ENDBRANCH  51  75
BRANCH  63  86
ATOM     86  C   UNL A   1      46.208  32.550  28.738  1.00  0.00     0.023 A 
ATOM     87  C   UNL A   1      46.859  32.751  29.972  1.00  0.00     0.012 A 
ATOM     88  C   UNL A   1      46.125  33.615  27.820  1.00  0.00     0.148 A 
ATOM     89  C   UNL A   1      47.377  34.002  30.304  1.00  0.00     0.002 A 
ATOM     90  C   UNL A   1      46.694  34.842  28.133  1.00  0.00     0.091 A 
ATOM     91  F   UNL A   1      45.489  33.410  26.658  1.00  0.00    -0.205 F 
ATOM     92  C   UNL A   1      47.305  35.043  29.382  1.00  0.00     0.022 A 
BRANCH  90  93
ATOM     93  S   UNL A   1      46.739  36.209  26.968  1.00  0.00     0.127 S 
ATOM     94  O   UNL A   1      45.321  36.384  26.660  1.00  0.00    -0.237 OA
ATOM     95  O   UNL A   1      47.326  37.281  27.774  1.00  0.00    -0.237 OA
ATOM     96  O   UNL A   1      47.568  35.764  25.857  1.00  0.00    -0.744 OA
ENDBRANCH  90  93
ENDBRANCH  63  86
ENDBRANCH  37  38
ENDBRANCH  29  32
ENDBRANCH  27  28
ENDBRANCH   1  27
TORSDOF 15
ENDMDL
MODEL 3
REMARK VINA RESULT:     -12.2      4.830      9.695
REMARK SMILES CC1=C(C(=O)NCCCNC(=O)c2ccc(-c3c4nc(c(-c5cccc(S(=O)(=O)[O-])c5F)c5ccc([nH]5)c(-c5cccc(S(=O)(=O)[O-])c5F)c5nc(c(-c6cccc(S(=O)(=O)[O-])c6F)c6ccc3[nH]6)C=C5)C=C4)cc2)N2C(=O)[C@@H](NC(=O)c3ccn(C)n3)[C@H]2SC1
REMARK SMILES IDX 8 1 7 2 6 3 4 4 5 5 3 7 1 8 2 9 91 10 76 11 90 12 77 13
REMARK SMILES IDX 89 14 78 15 79 16 80 17 81 18 82 20 83 21 84 22 88 23 85 24
REMARK SMILES IDX 86 25 87 26 9 27 10 28 11 29 12 31 13 32 14 33 75 34 15 35
REMARK SMILES IDX 74 36 16 37 17 38 18 39 68 40 19 41 73 42 67 43 69 44 20 45
REMARK SMILES IDX 72 46 66 47 65 48 21 50 53 51 33 52 52 53 34 54 37 55 51 56
REMARK SMILES IDX 70 57 35 58 36 59 50 61 71 62 38 63 22 64 23 65 31 66 24 67
REMARK SMILES IDX 26 68 32 69 25 70 27 71 28 72 29 73 30 74 54 75 55 76 63 77
REMARK SMILES IDX 56 78 58 79 64 80 57 81 59 82 60 83 61 84 62 85 39 86 40 87
REMARK SMILES IDX 48 88 41 89 43 90 49 91 42 92 44 93 45 94 46 95 47 96
REMARK H PARENT 6 6 80 19 10 30 69 49 37 60
REMARK Flexibility Score: inf
ROOT
ATOM      1  C   UNL A   1      34.717  21.348  26.301  1.00  0.00     0.042 C 
ENDROOT
BRANCH   1   2
ATOM      2  C   UNL A   1      33.816  22.177  27.186  1.00  0.00     0.118 C 
BRANCH   2   3
ATOM      3  N   UNL A   1      32.390  22.025  26.988  1.00  0.00    -0.351 N 
ATOM      4  C   UNL A   1      31.657  22.218  25.850  1.00  0.00     0.268 C 
ATOM      5  O   UNL A   1      30.504  21.785  25.804  1.00  0.00    -0.268 OA
ATOM      6  H   UNL A   1      31.878  21.744  27.781  1.00  0.00     0.163 HD
BRANCH   4   7
ATOM      7  C   UNL A   1      32.218  22.995  24.681  1.00  0.00     0.110 C 
ATOM      8  C   UNL A   1      32.233  21.130  22.961  1.00  0.00     0.043 C 
ATOM      9  C   UNL A   1      32.586  22.505  23.470  1.00  0.00    -0.034 C 
ATOM     10  C   UNL A   1      33.382  23.308  22.436  1.00  0.00     0.104 C 
ATOM     11  N   UNL A   1      32.181  24.348  24.809  1.00  0.00    -0.290 N 
ATOM     12  S   UNL A   1      33.630  25.079  22.813  1.00  0.00    -0.129 SA
ATOM     13  C   UNL A   1      32.042  25.308  25.743  1.00  0.00     0.253 C 
ATOM     14  C   UNL A   1      32.040  25.196  23.648  1.00  0.00     0.181 C 
ATOM     15  O   UNL A   1      32.093  25.325  26.951  1.00  0.00    -0.272 OA
ATOM     16  C   UNL A   1      31.738  26.343  24.624  1.00  0.00     0.206 C 
BRANCH  16  17
ATOM     17  N   UNL A   1      32.542  27.579  24.524  1.00  0.00    -0.336 N 
ATOM     18  C   UNL A   1      32.146  28.771  23.943  1.00  0.00     0.272 C 
ATOM     19  H   UNL A   1      33.448  27.553  24.909  1.00  0.00     0.164 HD
ATOM     20  O   UNL A   1      32.980  29.653  23.748  1.00  0.00    -0.267 OA
BRANCH  18  21
ATOM     21  C   UNL A   1      30.728  28.912  23.566  1.00  0.00     0.150 A 
ATOM     22  C   UNL A   1      29.924  27.980  22.845  1.00  0.00     0.056 A 
ATOM     23  N   UNL A   1      30.020  30.024  23.844  1.00  0.00    -0.168 NA
ATOM     24  C   UNL A   1      28.715  28.603  22.656  1.00  0.00     0.109 A 
ATOM     25  N   UNL A   1      28.810  29.797  23.306  1.00  0.00    -0.275 N 
ATOM     26  C   UNL A   1      27.766  30.786  23.424  1.00  0.00     0.173 C 
ENDBRANCH  18  21
ENDBRANCH  16  17
ENDBRANCH   4   7
ENDBRANCH   2   3
ENDBRANCH   1   2
BRANCH   1  27
ATOM     27  C   UNL A   1      35.995  22.031  25.854  1.00  0.00     0.118 C 
BRANCH  27  28
ATOM     28  N   UNL A   1      37.125  21.127  25.652  1.00  0.00    -0.352 N 
ATOM     29  C   UNL A   1      38.479  21.300  25.840  1.00  0.00     0.251 C 
ATOM     30  H   UNL A   1      36.873  20.234  25.321  1.00  0.00     0.163 HD
ATOM     31  O   UNL A   1      39.250  20.405  25.500  1.00  0.00    -0.269 OA
BRANCH  29  32
ATOM     32  C   UNL A   1      39.016  22.560  26.403  1.00  0.00     0.039 A 
ATOM     33  C   UNL A   1      40.128  22.514  27.250  1.00  0.00     0.014 A 
ATOM     34  C   UNL A   1      38.448  23.792  26.090  1.00  0.00     0.014 A 
ATOM     35  C   UNL A   1      40.720  23.704  27.688  1.00  0.00     0.010 A 
ATOM     36  C   UNL A   1      39.123  24.967  26.395  1.00  0.00     0.010 A 
ATOM     37  C   UNL A   1      40.257  24.943  27.215  1.00  0.00    -0.014 A 
BRANCH  37  38
ATOM     38  C   UNL A   1      40.930  26.220  27.573  1.00  0.00     0.031 A 
ATOM     39  C   UNL A   1      42.357  26.473  27.155  1.00  0.00     0.074 A 
ATOM     40  C   UNL A   1      40.287  27.122  28.343  1.00  0.00     0.049 A 
ATOM     41  N   UNL A   1      43.120  27.504  27.410  1.00  0.00    -0.248 NA
ATOM     42  C   UNL A   1      43.029  25.417  26.379  1.00  0.00     0.031 C 
ATOM     43  C   UNL A   1      38.939  26.961  28.894  1.00  0.00     0.029 A 
ATOM     44  N   UNL A   1      40.687  28.348  28.815  1.00  0.00    -0.354 N 
ATOM     45  C   UNL A   1      44.363  27.204  26.863  1.00  0.00     0.074 A 
ATOM     46  C   UNL A   1      44.270  25.872  26.312  1.00  0.00     0.031 C 
ATOM     47  C   UNL A   1      38.615  28.055  29.600  1.00  0.00     0.029 A 
ATOM     48  C   UNL A   1      39.744  28.978  29.593  1.00  0.00     0.049 A 
ATOM     49  H   UNL A   1      41.569  28.740  28.614  1.00  0.00     0.167 HD
ATOM     50  C   UNL A   1      45.473  27.976  26.790  1.00  0.00     0.034 A 
ATOM     51  C   UNL A   1      39.784  30.162  30.236  1.00  0.00     0.034 A 
ATOM     52  C   UNL A   1      45.552  29.315  27.306  1.00  0.00     0.049 A 
ATOM     53  C   UNL A   1      41.018  31.015  30.113  1.00  0.00     0.074 A 
ATOM     54  C   UNL A   1      46.600  30.212  27.210  1.00  0.00     0.029 A 
ATOM     55  N   UNL A   1      44.550  29.944  28.028  1.00  0.00    -0.354 N 
ATOM     56  N   UNL A   1      42.129  30.772  29.460  1.00  0.00    -0.248 NA
ATOM     57  C   UNL A   1      40.990  32.321  30.787  1.00  0.00     0.031 C 
ATOM     58  C   UNL A   1      46.247  31.370  27.910  1.00  0.00     0.029 A 
ATOM     59  C   UNL A   1      44.960  31.214  28.397  1.00  0.00     0.049 A 
ATOM     60  H   UNL A   1      43.676  29.547  28.246  1.00  0.00     0.167 HD
ATOM     61  C   UNL A   1      42.914  31.911  29.608  1.00  0.00     0.074 A 
ATOM     62  C   UNL A   1      42.140  32.849  30.395  1.00  0.00     0.031 C 
ATOM     63  C   UNL A   1      44.164  32.153  29.144  1.00  0.00     0.034 A 
BRANCH  50  64
ATOM     64  C   UNL A   1      46.679  27.405  26.089  1.00  0.00     0.023 A 
ATOM     65  C   UNL A   1      46.821  27.562  24.694  1.00  0.00     0.012 A 
ATOM     66  C   UNL A   1      47.696  26.754  26.814  1.00  0.00     0.148 A 
ATOM     67  C   UNL A   1      47.931  27.043  24.028  1.00  0.00     0.002 A 
ATOM     68  C   UNL A   1      48.825  26.288  26.152  1.00  0.00     0.091 A 
ATOM     69  F   UNL A   1      47.536  26.596  28.137  1.00  0.00    -0.205 F 
ATOM     70  C   UNL A   1      48.937  26.417  24.758  1.00  0.00     0.022 A 
BRANCH  68  71
ATOM     71  S   UNL A   1      50.216  25.544  27.009  1.00  0.00     0.127 S 
ATOM     72  O   UNL A   1      51.171  25.360  25.917  1.00  0.00    -0.237 OA
ATOM     73  O   UNL A   1      50.579  26.589  27.967  1.00  0.00    -0.237 OA
ATOM     74  O   UNL A   1      49.712  24.316  27.607  1.00  0.00    -0.744 OA
ENDBRANCH  68  71
ENDBRANCH  50  64
BRANCH  51  75
ATOM     75  C   UNL A   1      38.600  30.639  31.004  1.00  0.00     0.023 A 
ATOM     76  C   UNL A   1      38.537  30.423  32.395  1.00  0.00     0.012 A 
ATOM     77  C   UNL A   1      37.540  31.315  30.369  1.00  0.00     0.148 A 
ATOM     78  C   UNL A   1      37.425  30.834  33.131  1.00  0.00     0.002 A 
ATOM     79  C   UNL A   1      36.464  31.775  31.116  1.00  0.00     0.091 A 
ATOM     80  F   UNL A   1      37.616  31.506  29.044  1.00  0.00    -0.205 F 
ATOM     81  C   UNL A   1      36.394  31.517  32.494  1.00  0.00     0.022 A 
BRANCH  79  82
ATOM     82  S   UNL A   1      35.153  32.776  30.407  1.00  0.00     0.127 S 
ATOM     83  O   UNL A   1      35.885  33.963  29.973  1.00  0.00    -0.237 OA
ATOM     84  O   UNL A   1      34.672  31.917  29.325  1.00  0.00    -0.237 OA
ATOM     85  O   UNL A   1      34.191  32.985  31.481  1.00  0.00    -0.744 OA
ENDBRANCH  79  82
ENDBRANCH  51  75
BRANCH  63  86
ATOM     86  C   UNL A   1      44.761  33.508  29.425  1.00  0.00     0.023 A 
ATOM     87  C   UNL A   1      45.500  33.729  30.605  1.00  0.00     0.012 A 
ATOM     88  C   UNL A   1      44.634  34.549  28.484  1.00  0.00     0.148 A 
ATOM     89  C   UNL A   1      46.062  34.978  30.865  1.00  0.00     0.002 A 
ATOM     90  C   UNL A   1      45.246  35.772  28.723  1.00  0.00     0.091 A 
ATOM     91  F   UNL A   1      43.916  34.325  27.375  1.00  0.00    -0.205 F 
ATOM     92  C   UNL A   1      45.945  35.995  29.920  1.00  0.00     0.022 A 
BRANCH  90  93
ATOM     93  S   UNL A   1      45.236  37.106  27.519  1.00  0.00     0.127 S 
ATOM     94  O   UNL A   1      45.946  38.162  28.238  1.00  0.00    -0.237 OA
ATOM     95  O   UNL A   1      45.980  36.519  26.404  1.00  0.00    -0.237 OA
ATOM     96  O   UNL A   1      43.834  37.380  27.234  1.00  0.00    -0.744 OA
ENDBRANCH  90  93
ENDBRANCH  63  86
ENDBRANCH  37  38
ENDBRANCH  29  32
ENDBRANCH  27  28
ENDBRANCH   1  27
TORSDOF 15
ENDMDL
