MODEL 1
REMARK VINA RESULT:     -12.4      0.000      0.000
REMARK SMILES CC[C@@H]1CCC[C@@](CC[NH+]2CCOCC2)(C(=O)NCCCNC(=O)c2ccc(-c3c4nc(c(-c5cccc(S(=O)(=O)[O-])c5F)c5ccc([nH]5)c(-c5cccc(S(=O)(=O)[O-])c5F)c5nc(c(-c6cccc(S(=O)(=O)[O-])c6F)c6ccc3[nH]6)C=C5)C=C4)cc2)C1
REMARK SMILES IDX 20 1 19 2 18 3 16 4 17 5 7 7 3 8 4 9 88 10 5 11 6 12 2 13
REMARK SMILES IDX 1 14 8 15 9 16 10 17 11 18 15 19 12 21 14 22 13 23 21 24
REMARK SMILES IDX 22 25 23 26 24 28 25 29 26 30 87 31 27 32 86 33 28 34 29 35
REMARK SMILES IDX 30 36 80 37 31 38 85 39 79 40 81 41 32 42 84 43 78 44 77 45
REMARK SMILES IDX 33 47 65 48 45 49 64 50 46 51 49 52 63 53 82 54 47 55 48 56
REMARK SMILES IDX 62 58 83 59 50 60 34 61 35 62 43 63 36 64 38 65 44 66 37 67
REMARK SMILES IDX 39 68 40 69 41 70 42 71 66 72 67 73 75 74 68 75 70 76 76 77
REMARK SMILES IDX 69 78 71 79 72 80 73 81 74 82 51 83 52 84 60 85 53 86 55 87
REMARK SMILES IDX 61 88 54 89 56 90 57 91 58 92 59 93
REMARK H PARENT 18 6 10 20 22 27 81 46 49 57
REMARK Flexibility Score: inf
ROOT
ATOM      1  C   UNL A   1      37.224  20.606  24.398  1.00  0.00     0.042 C 
ENDROOT
BRANCH   1   2
ATOM      2  C   UNL A   1      35.928  20.192  25.048  1.00  0.00     0.117 C 
BRANCH   2   3
ATOM      3  N   UNL A   1      35.418  21.076  26.061  1.00  0.00    -0.356 N 
ATOM      4  C   UNL A   1      34.100  21.338  26.289  1.00  0.00     0.226 C 
ATOM      5  O   UNL A   1      33.757  21.443  27.473  1.00  0.00    -0.274 OA
ATOM      6  H   UNL A   1      36.075  21.528  26.639  1.00  0.00     0.163 HD
BRANCH   4   7
ATOM      7  C   UNL A   1      33.081  21.547  25.133  1.00  0.00     0.055 C 
ATOM      8  C   UNL A   1      32.691  24.006  25.934  1.00  0.00    -0.010 C 
ATOM      9  C   UNL A   1      33.407  24.540  24.688  1.00  0.00     0.003 C 
ATOM     10  C   UNL A   1      32.051  22.623  25.664  1.00  0.00     0.020 C 
ATOM     11  C   UNL A   1      34.352  23.514  24.074  1.00  0.00     0.001 C 
ATOM     12  C   UNL A   1      33.649  22.173  23.833  1.00  0.00     0.017 C 
BRANCH   8  13
ATOM     13  C   UNL A   1      31.667  25.000  26.528  1.00  0.00     0.000 C 
ATOM     14  C   UNL A   1      31.375  26.235  25.689  1.00  0.00     0.004 C 
ENDBRANCH   8  13
BRANCH   7  15
ATOM     15  C   UNL A   1      32.249  20.240  24.880  1.00  0.00     0.078 C 
BRANCH  15  16
ATOM     16  C   UNL A   1      32.695  18.871  25.452  1.00  0.00     0.263 C 
BRANCH  16  17
ATOM     17  N   UNL A   1      32.256  17.690  24.705  1.00  0.00    -0.331 N 
ATOM     18  C   UNL A   1      32.505  16.412  25.418  1.00  0.00     0.291 C 
ATOM     19  C   UNL A   1      32.779  17.574  23.331  1.00  0.00     0.291 C 
ATOM     20  H   UNL A   1      31.252  17.854  24.632  1.00  0.00     0.348 HD
ATOM     21  C   UNL A   1      33.927  15.861  25.289  1.00  0.00     0.221 C 
ATOM     22  C   UNL A   1      34.205  17.007  23.252  1.00  0.00     0.221 C 
ATOM     23  O   UNL A   1      34.316  15.742  23.916  1.00  0.00    -0.370 OA
ENDBRANCH  16  17
ENDBRANCH  15  16
ENDBRANCH   7  15
ENDBRANCH   4   7
ENDBRANCH   2   3
ENDBRANCH   1   2
BRANCH   1  24
ATOM     24  C   UNL A   1      38.139  21.329  25.376  1.00  0.00     0.118 C 
BRANCH  24  25
ATOM     25  N   UNL A   1      39.172  20.458  25.957  1.00  0.00    -0.352 N 
ATOM     26  C   UNL A   1      40.325  20.761  26.646  1.00  0.00     0.251 C 
ATOM     27  H   UNL A   1      39.012  19.494  25.832  1.00  0.00     0.163 HD
ATOM     28  O   UNL A   1      41.163  19.901  26.861  1.00  0.00    -0.269 OA
BRANCH  26  29
ATOM     29  C   UNL A   1      40.530  22.146  27.108  1.00  0.00     0.039 A 
ATOM     30  C   UNL A   1      41.436  22.417  28.136  1.00  0.00     0.014 A 
ATOM     31  C   UNL A   1      39.859  23.180  26.463  1.00  0.00     0.014 A 
ATOM     32  C   UNL A   1      41.754  23.745  28.433  1.00  0.00     0.010 A 
ATOM     33  C   UNL A   1      40.282  24.481  26.656  1.00  0.00     0.010 A 
ATOM     34  C   UNL A   1      41.225  24.782  27.649  1.00  0.00    -0.014 A 
BRANCH  34  35
ATOM     35  C   UNL A   1      41.603  26.206  27.820  1.00  0.00     0.031 A 
ATOM     36  C   UNL A   1      42.975  26.647  27.377  1.00  0.00     0.074 A 
ATOM     37  C   UNL A   1      40.808  27.036  28.523  1.00  0.00     0.049 A 
ATOM     38  N   UNL A   1      43.628  27.738  27.673  1.00  0.00    -0.248 NA
ATOM     39  C   UNL A   1      43.741  25.696  26.550  1.00  0.00     0.031 C 
ATOM     40  C   UNL A   1      39.496  26.696  29.082  1.00  0.00     0.029 A 
ATOM     41  N   UNL A   1      41.012  28.332  28.929  1.00  0.00    -0.354 N 
ATOM     42  C   UNL A   1      44.902  27.566  27.144  1.00  0.00     0.074 A 
ATOM     43  C   UNL A   1      44.942  26.251  26.545  1.00  0.00     0.031 C 
ATOM     44  C   UNL A   1      39.011  27.756  29.748  1.00  0.00     0.029 A 
ATOM     45  C   UNL A   1      39.991  28.834  29.705  1.00  0.00     0.049 A 
ATOM     46  H   UNL A   1      41.811  28.852  28.688  1.00  0.00     0.167 HD
ATOM     47  C   UNL A   1      45.935  28.439  27.124  1.00  0.00     0.034 A 
ATOM     48  C   UNL A   1      39.871  30.028  30.319  1.00  0.00     0.034 A 
ATOM     49  C   UNL A   1      45.842  29.782  27.624  1.00  0.00     0.049 A 
ATOM     50  C   UNL A   1      40.988  31.027  30.175  1.00  0.00     0.074 A 
ATOM     51  C   UNL A   1      46.782  30.791  27.560  1.00  0.00     0.029 A 
ATOM     52  N   UNL A   1      44.725  30.309  28.254  1.00  0.00    -0.354 N 
ATOM     53  N   UNL A   1      42.139  30.893  29.562  1.00  0.00    -0.248 NA
ATOM     54  C   UNL A   1      40.777  32.353  30.773  1.00  0.00     0.031 C 
ATOM     55  C   UNL A   1      46.231  31.935  28.146  1.00  0.00     0.029 A 
ATOM     56  C   UNL A   1      44.942  31.637  28.565  1.00  0.00     0.049 A 
ATOM     57  H   UNL A   1      43.899  29.809  28.451  1.00  0.00     0.167 HD
ATOM     58  C   UNL A   1      42.768  32.128  29.659  1.00  0.00     0.074 A 
ATOM     59  C   UNL A   1      41.865  33.001  30.380  1.00  0.00     0.031 C 
ATOM     60  C   UNL A   1      43.989  32.504  29.207  1.00  0.00     0.034 A 
BRANCH  47  61
ATOM     61  C   UNL A   1      47.216  27.998  26.467  1.00  0.00     0.023 A 
ATOM     62  C   UNL A   1      48.302  27.589  27.269  1.00  0.00     0.012 A 
ATOM     63  C   UNL A   1      47.338  27.949  25.064  1.00  0.00     0.148 A 
ATOM     64  C   UNL A   1      49.502  27.180  26.689  1.00  0.00     0.002 A 
ATOM     65  C   UNL A   1      48.521  27.493  24.493  1.00  0.00     0.091 A 
ATOM     66  F   UNL A   1      46.305  28.362  24.317  1.00  0.00    -0.205 F 
ATOM     67  C   UNL A   1      49.607  27.121  25.303  1.00  0.00     0.022 A 
BRANCH  65  68
ATOM     68  S   UNL A   1      48.730  27.300  22.720  1.00  0.00     0.127 S 
ATOM     69  O   UNL A   1      47.758  28.261  22.201  1.00  0.00    -0.237 OA
ATOM     70  O   UNL A   1      50.129  27.686  22.530  1.00  0.00    -0.237 OA
ATOM     71  O   UNL A   1      48.443  25.902  22.431  1.00  0.00    -0.744 OA
ENDBRANCH  65  68
ENDBRANCH  47  61
BRANCH  48  72
ATOM     72  C   UNL A   1      38.613  30.377  31.038  1.00  0.00     0.023 A 
ATOM     73  C   UNL A   1      38.470  29.988  32.385  1.00  0.00     0.012 A 
ATOM     74  C   UNL A   1      37.578  31.107  30.423  1.00  0.00     0.148 A 
ATOM     75  C   UNL A   1      37.306  30.286  33.095  1.00  0.00     0.002 A 
ATOM     76  C   UNL A   1      36.442  31.446  31.152  1.00  0.00     0.091 A 
ATOM     77  F   UNL A   1      37.726  31.463  29.139  1.00  0.00    -0.205 F 
ATOM     78  C   UNL A   1      36.296  31.022  32.482  1.00  0.00     0.022 A 
BRANCH  76  79
ATOM     79  S   UNL A   1      35.152  32.503  30.482  1.00  0.00     0.127 S 
ATOM     80  O   UNL A   1      34.182  32.521  31.574  1.00  0.00    -0.237 OA
ATOM     81  O   UNL A   1      35.867  33.763  30.271  1.00  0.00    -0.237 OA
ATOM     82  O   UNL A   1      34.719  31.853  29.253  1.00  0.00    -0.744 OA
ENDBRANCH  76  79
ENDBRANCH  48  72
BRANCH  60  83
ATOM     83  C   UNL A   1      44.403  33.934  29.414  1.00  0.00     0.023 A 
ATOM     84  C   UNL A   1      45.177  34.284  30.536  1.00  0.00     0.012 A 
ATOM     85  C   UNL A   1      44.114  34.906  28.436  1.00  0.00     0.148 A 
ATOM     86  C   UNL A   1      45.640  35.589  30.694  1.00  0.00     0.002 A 
ATOM     87  C   UNL A   1      44.617  36.192  28.576  1.00  0.00     0.091 A 
ATOM     88  F   UNL A   1      43.358  34.551  27.386  1.00  0.00    -0.205 F 
ATOM     89  C   UNL A   1      45.373  36.538  29.709  1.00  0.00     0.022 A 
BRANCH  87  90
ATOM     90  S   UNL A   1      44.406  37.448  27.310  1.00  0.00     0.127 S 
ATOM     91  O   UNL A   1      44.339  38.669  28.110  1.00  0.00    -0.237 OA
ATOM     92  O   UNL A   1      45.629  37.302  26.520  1.00  0.00    -0.237 OA
ATOM     93  O   UNL A   1      43.184  37.097  26.598  1.00  0.00    -0.744 OA
ENDBRANCH  87  90
ENDBRANCH  60  83
ENDBRANCH  34  35
ENDBRANCH  26  29
ENDBRANCH  24  25
ENDBRANCH   1  24
TORSDOF 17
ENDMDL
MODEL 2
REMARK VINA RESULT:     -12.3      2.015      8.063
REMARK SMILES CC[C@@H]1CCC[C@@](CC[NH+]2CCOCC2)(C(=O)NCCCNC(=O)c2ccc(-c3c4nc(c(-c5cccc(S(=O)(=O)[O-])c5F)c5ccc([nH]5)c(-c5cccc(S(=O)(=O)[O-])c5F)c5nc(c(-c6cccc(S(=O)(=O)[O-])c6F)c6ccc3[nH]6)C=C5)C=C4)cc2)C1
REMARK SMILES IDX 20 1 19 2 18 3 16 4 17 5 7 7 3 8 4 9 88 10 5 11 6 12 2 13
REMARK SMILES IDX 1 14 8 15 9 16 10 17 11 18 15 19 12 21 14 22 13 23 21 24
REMARK SMILES IDX 22 25 23 26 24 28 25 29 26 30 87 31 27 32 86 33 28 34 29 35
REMARK SMILES IDX 30 36 80 37 31 38 85 39 79 40 81 41 32 42 84 43 78 44 77 45
REMARK SMILES IDX 33 47 65 48 45 49 64 50 46 51 49 52 63 53 82 54 47 55 48 56
REMARK SMILES IDX 62 58 83 59 50 60 34 61 35 62 43 63 36 64 38 65 44 66 37 67
REMARK SMILES IDX 39 68 40 69 41 70 42 71 66 72 67 73 75 74 68 75 70 76 76 77
REMARK SMILES IDX 69 78 71 79 72 80 73 81 74 82 51 83 52 84 60 85 53 86 55 87
REMARK SMILES IDX 61 88 54 89 56 90 57 91 58 92 59 93
REMARK H PARENT 18 6 10 20 22 27 81 46 49 57
REMARK Flexibility Score: inf
ROOT
ATOM      1  C   UNL A   1      37.795  21.382  24.879  1.00  0.00     0.042 C 
ENDROOT
BRANCH   1   2
ATOM      2  C   UNL A   1      36.514  20.769  25.386  1.00  0.00     0.117 C 
BRANCH   2   3
ATOM      3  N   UNL A   1      35.786  21.541  26.357  1.00  0.00    -0.356 N 
ATOM      4  C   UNL A   1      34.435  21.725  26.366  1.00  0.00     0.226 C 
ATOM      5  O   UNL A   1      33.886  21.713  27.475  1.00  0.00    -0.274 OA
ATOM      6  H   UNL A   1      36.304  21.970  27.075  1.00  0.00     0.163 HD
BRANCH   4   7
ATOM      7  C   UNL A   1      33.622  21.986  25.066  1.00  0.00     0.055 C 
ATOM      8  C   UNL A   1      32.957  24.348  25.969  1.00  0.00    -0.010 C 
ATOM      9  C   UNL A   1      33.846  25.017  24.914  1.00  0.00     0.003 C 
ATOM     10  C   UNL A   1      32.454  22.966  25.486  1.00  0.00     0.020 C 
ATOM     11  C   UNL A   1      34.941  24.089  24.401  1.00  0.00     0.001 C 
ATOM     12  C   UNL A   1      34.369  22.743  23.939  1.00  0.00     0.017 C 
BRANCH   8  13
ATOM     13  C   UNL A   1      31.789  25.242  26.445  1.00  0.00     0.000 C 
ATOM     14  C   UNL A   1      32.084  26.733  26.524  1.00  0.00     0.004 C 
ENDBRANCH   8  13
BRANCH   7  15
ATOM     15  C   UNL A   1      32.924  20.670  24.572  1.00  0.00     0.078 C 
BRANCH  15  16
ATOM     16  C   UNL A   1      33.147  19.314  25.287  1.00  0.00     0.263 C 
BRANCH  16  17
ATOM     17  N   UNL A   1      32.424  18.168  24.732  1.00  0.00    -0.331 N 
ATOM     18  C   UNL A   1      32.539  16.939  25.556  1.00  0.00     0.291 C 
ATOM     19  C   UNL A   1      32.744  17.830  23.333  1.00  0.00     0.291 C 
ATOM     20  H   UNL A   1      31.461  18.505  24.747  1.00  0.00     0.348 HD
ATOM     21  C   UNL A   1      33.819  16.128  25.341  1.00  0.00     0.221 C 
ATOM     22  C   UNL A   1      34.032  17.007  23.167  1.00  0.00     0.221 C 
ATOM     23  O   UNL A   1      34.008  15.812  23.957  1.00  0.00    -0.370 OA
ENDBRANCH  16  17
ENDBRANCH  15  16
ENDBRANCH   7  15
ENDBRANCH   4   7
ENDBRANCH   2   3
ENDBRANCH   1   2
BRANCH   1  24
ATOM     24  C   UNL A   1      38.870  21.414  25.955  1.00  0.00     0.118 C 
BRANCH  24  25
ATOM     25  N   UNL A   1      39.652  20.170  26.031  1.00  0.00    -0.352 N 
ATOM     26  C   UNL A   1      41.011  19.961  26.113  1.00  0.00     0.251 C 
ATOM     27  H   UNL A   1      39.112  19.346  26.022  1.00  0.00     0.163 HD
ATOM     28  O   UNL A   1      41.478  18.846  25.951  1.00  0.00    -0.269 OA
BRANCH  26  29
ATOM     29  C   UNL A   1      41.888  21.114  26.389  1.00  0.00     0.039 A 
ATOM     30  C   UNL A   1      42.276  21.965  25.352  1.00  0.00     0.014 A 
ATOM     31  C   UNL A   1      42.269  21.376  27.701  1.00  0.00     0.014 A 
ATOM     32  C   UNL A   1      42.950  23.150  25.658  1.00  0.00     0.010 A 
ATOM     33  C   UNL A   1      42.802  22.611  28.015  1.00  0.00     0.010 A 
ATOM     34  C   UNL A   1      43.159  23.509  26.999  1.00  0.00    -0.014 A 
BRANCH  34  35
ATOM     35  C   UNL A   1      43.759  24.802  27.413  1.00  0.00     0.031 A 
ATOM     36  C   UNL A   1      42.855  25.868  27.977  1.00  0.00     0.074 A 
ATOM     37  C   UNL A   1      45.044  25.076  27.117  1.00  0.00     0.049 A 
ATOM     38  N   UNL A   1      43.082  27.144  28.138  1.00  0.00    -0.248 NA
ATOM     39  C   UNL A   1      41.486  25.453  28.337  1.00  0.00     0.031 C 
ATOM     40  C   UNL A   1      45.993  24.153  26.487  1.00  0.00     0.029 A 
ATOM     41  N   UNL A   1      45.764  26.235  27.267  1.00  0.00    -0.354 N 
ATOM     42  C   UNL A   1      41.868  27.692  28.534  1.00  0.00     0.074 A 
ATOM     43  C   UNL A   1      40.899  26.620  28.549  1.00  0.00     0.031 C 
ATOM     44  C   UNL A   1      47.169  24.778  26.313  1.00  0.00     0.029 A 
ATOM     45  C   UNL A   1      47.047  26.155  26.775  1.00  0.00     0.049 A 
ATOM     46  H   UNL A   1      45.396  27.046  27.686  1.00  0.00     0.167 HD
ATOM     47  C   UNL A   1      41.592  28.967  28.890  1.00  0.00     0.034 A 
ATOM     48  C   UNL A   1      48.010  27.096  26.697  1.00  0.00     0.034 A 
ATOM     49  C   UNL A   1      42.590  29.996  28.977  1.00  0.00     0.049 A 
ATOM     50  C   UNL A   1      47.710  28.476  27.217  1.00  0.00     0.074 A 
ATOM     51  C   UNL A   1      42.453  31.293  29.430  1.00  0.00     0.029 A 
ATOM     52  N   UNL A   1      43.922  29.827  28.630  1.00  0.00    -0.354 N 
ATOM     53  N   UNL A   1      46.589  28.947  27.707  1.00  0.00    -0.248 NA
ATOM     54  C   UNL A   1      48.815  29.445  27.209  1.00  0.00     0.031 C 
ATOM     55  C   UNL A   1      43.706  31.910  29.365  1.00  0.00     0.029 A 
ATOM     56  C   UNL A   1      44.625  30.990  28.879  1.00  0.00     0.049 A 
ATOM     57  H   UNL A   1      44.309  29.000  28.260  1.00  0.00     0.167 HD
ATOM     58  C   UNL A   1      46.865  30.248  28.109  1.00  0.00     0.074 A 
ATOM     59  C   UNL A   1      48.263  30.488  27.815  1.00  0.00     0.031 C 
ATOM     60  C   UNL A   1      46.035  31.169  28.656  1.00  0.00     0.034 A 
BRANCH  47  61
ATOM     61  C   UNL A   1      40.178  29.295  29.295  1.00  0.00     0.023 A 
ATOM     62  C   UNL A   1      39.244  29.671  28.308  1.00  0.00     0.012 A 
ATOM     63  C   UNL A   1      39.761  29.194  30.637  1.00  0.00     0.148 A 
ATOM     64  C   UNL A   1      37.931  29.985  28.653  1.00  0.00     0.002 A 
ATOM     65  C   UNL A   1      38.436  29.459  30.966  1.00  0.00     0.091 A 
ATOM     66  F   UNL A   1      40.666  28.856  31.565  1.00  0.00    -0.205 F 
ATOM     67  C   UNL A   1      37.524  29.868  29.978  1.00  0.00     0.022 A 
BRANCH  65  68
ATOM     68  S   UNL A   1      37.791  29.258  32.630  1.00  0.00     0.127 S 
ATOM     69  O   UNL A   1      38.801  29.955  33.425  1.00  0.00    -0.237 OA
ATOM     70  O   UNL A   1      36.501  29.945  32.546  1.00  0.00    -0.237 OA
ATOM     71  O   UNL A   1      37.700  27.823  32.854  1.00  0.00    -0.744 OA
ENDBRANCH  65  68
ENDBRANCH  47  61
BRANCH  48  72
ATOM     72  C   UNL A   1      49.368  26.738  26.199  1.00  0.00     0.023 A 
ATOM     73  C   UNL A   1      50.200  25.939  27.009  1.00  0.00     0.012 A 
ATOM     74  C   UNL A   1      49.834  27.149  24.936  1.00  0.00     0.148 A 
ATOM     75  C   UNL A   1      51.482  25.586  26.588  1.00  0.00     0.002 A 
ATOM     76  C   UNL A   1      51.094  26.751  24.500  1.00  0.00     0.091 A 
ATOM     77  F   UNL A   1      49.035  27.916  24.181  1.00  0.00    -0.205 F 
ATOM     78  C   UNL A   1      51.926  25.985  25.330  1.00  0.00     0.022 A 
BRANCH  76  79
ATOM     79  S   UNL A   1      51.693  27.109  22.844  1.00  0.00     0.127 S 
ATOM     80  O   UNL A   1      51.965  28.542  22.927  1.00  0.00    -0.237 OA
ATOM     81  O   UNL A   1      52.884  26.261  22.758  1.00  0.00    -0.237 OA
ATOM     82  O   UNL A   1      50.616  26.714  21.948  1.00  0.00    -0.744 OA
ENDBRANCH  76  79
ENDBRANCH  48  72
BRANCH  60  83
ATOM     83  C   UNL A   1      46.621  32.500  29.039  1.00  0.00     0.023 A 
ATOM     84  C   UNL A   1      47.199  32.670  30.311  1.00  0.00     0.012 A 
ATOM     85  C   UNL A   1      46.693  33.542  28.094  1.00  0.00     0.148 A 
ATOM     86  C   UNL A   1      47.822  33.871  30.647  1.00  0.00     0.002 A 
ATOM     87  C   UNL A   1      47.356  34.718  28.419  1.00  0.00     0.091 A 
ATOM     88  F   UNL A   1      46.118  33.361  26.897  1.00  0.00    -0.205 F 
ATOM     89  C   UNL A   1      47.913  34.888  29.698  1.00  0.00     0.022 A 
BRANCH  87  90
ATOM     90  S   UNL A   1      47.607  36.038  27.228  1.00  0.00     0.127 S 
ATOM     91  O   UNL A   1      48.304  35.338  26.151  1.00  0.00    -0.237 OA
ATOM     92  O   UNL A   1      46.235  36.437  26.911  1.00  0.00    -0.237 OA
ATOM     93  O   UNL A   1      48.385  37.058  27.919  1.00  0.00    -0.744 OA
ENDBRANCH  87  90
ENDBRANCH  60  83
ENDBRANCH  34  35
ENDBRANCH  26  29
ENDBRANCH  24  25
ENDBRANCH   1  24
TORSDOF 17
ENDMDL
MODEL 3
REMARK VINA RESULT:     -12.1      6.067      9.769
REMARK SMILES CC[C@@H]1CCC[C@@](CC[NH+]2CCOCC2)(C(=O)NCCCNC(=O)c2ccc(-c3c4nc(c(-c5cccc(S(=O)(=O)[O-])c5F)c5ccc([nH]5)c(-c5cccc(S(=O)(=O)[O-])c5F)c5nc(c(-c6cccc(S(=O)(=O)[O-])c6F)c6ccc3[nH]6)C=C5)C=C4)cc2)C1
REMARK SMILES IDX 20 1 19 2 18 3 16 4 17 5 7 7 3 8 4 9 88 10 5 11 6 12 2 13
REMARK SMILES IDX 1 14 8 15 9 16 10 17 11 18 15 19 12 21 14 22 13 23 21 24
REMARK SMILES IDX 22 25 23 26 24 28 25 29 26 30 87 31 27 32 86 33 28 34 29 35
REMARK SMILES IDX 30 36 80 37 31 38 85 39 79 40 81 41 32 42 84 43 78 44 77 45
REMARK SMILES IDX 33 47 65 48 45 49 64 50 46 51 49 52 63 53 82 54 47 55 48 56
REMARK SMILES IDX 62 58 83 59 50 60 34 61 35 62 43 63 36 64 38 65 44 66 37 67
REMARK SMILES IDX 39 68 40 69 41 70 42 71 66 72 67 73 75 74 68 75 70 76 76 77
REMARK SMILES IDX 69 78 71 79 72 80 73 81 74 82 51 83 52 84 60 85 53 86 55 87
REMARK SMILES IDX 61 88 54 89 56 90 57 91 58 92 59 93
REMARK H PARENT 18 6 10 20 22 27 81 46 49 57
REMARK Flexibility Score: inf
ROOT
ATOM      1  C   UNL A   1      31.082  31.942  26.029  1.00  0.00     0.042 C 
ENDROOT
BRANCH   1   2
ATOM      2  C   UNL A   1      31.047  30.472  25.695  1.00  0.00     0.117 C 
BRANCH   2   3
ATOM      3  N   UNL A   1      32.207  29.949  25.024  1.00  0.00    -0.356 N 
ATOM      4  C   UNL A   1      32.191  29.004  24.041  1.00  0.00     0.226 C 
ATOM      5  O   UNL A   1      32.991  29.166  23.111  1.00  0.00    -0.274 OA
ATOM      6  H   UNL A   1      33.084  30.304  25.295  1.00  0.00     0.163 HD
BRANCH   4   7
ATOM      7  C   UNL A   1      31.260  27.760  24.098  1.00  0.00     0.055 C 
ATOM      8  C   UNL A   1      33.350  26.200  23.913  1.00  0.00    -0.010 C 
ATOM      9  C   UNL A   1      33.159  25.748  25.366  1.00  0.00     0.003 C 
ATOM     10  C   UNL A   1      32.007  26.633  23.277  1.00  0.00     0.020 C 
ATOM     11  C   UNL A   1      32.365  26.755  26.189  1.00  0.00     0.001 C 
ATOM     12  C   UNL A   1      31.049  27.135  25.500  1.00  0.00     0.017 C 
BRANCH   8  13
ATOM     13  C   UNL A   1      34.084  25.159  23.036  1.00  0.00     0.000 C 
ATOM     14  C   UNL A   1      33.416  23.796  22.925  1.00  0.00     0.004 C 
ENDBRANCH   8  13
BRANCH   7  15
ATOM     15  C   UNL A   1      29.918  28.033  23.332  1.00  0.00     0.078 C 
BRANCH  15  16
ATOM     16  C   UNL A   1      29.699  29.331  22.514  1.00  0.00     0.263 C 
BRANCH  16  17
ATOM     17  N   UNL A   1      28.320  29.819  22.441  1.00  0.00    -0.331 N 
ATOM     18  C   UNL A   1      27.966  30.396  21.120  1.00  0.00     0.291 C 
ATOM     19  C   UNL A   1      27.924  30.771  23.494  1.00  0.00     0.291 C 
ATOM     20  H   UNL A   1      27.789  28.961  22.595  1.00  0.00     0.348 HD
ATOM     21  C   UNL A   1      28.402  31.848  20.906  1.00  0.00     0.221 C 
ATOM     22  C   UNL A   1      28.376  32.217  23.231  1.00  0.00     0.221 C 
ATOM     23  O   UNL A   1      27.924  32.694  21.957  1.00  0.00    -0.370 OA
ENDBRANCH  16  17
ENDBRANCH  15  16
ENDBRANCH   7  15
ENDBRANCH   4   7
ENDBRANCH   2   3
ENDBRANCH   1   2
BRANCH   1  24
ATOM     24  C   UNL A   1      32.322  32.309  26.831  1.00  0.00     0.118 C 
BRANCH  24  25
ATOM     25  N   UNL A   1      32.261  33.660  27.408  1.00  0.00    -0.352 N 
ATOM     26  C   UNL A   1      33.053  34.276  28.352  1.00  0.00     0.251 C 
ATOM     27  H   UNL A   1      31.530  34.221  27.060  1.00  0.00     0.163 HD
ATOM     28  O   UNL A   1      32.710  35.332  28.856  1.00  0.00    -0.269 OA
BRANCH  26  29
ATOM     29  C   UNL A   1      34.316  33.626  28.747  1.00  0.00     0.039 A 
ATOM     30  C   UNL A   1      35.541  34.212  28.420  1.00  0.00     0.014 A 
ATOM     31  C   UNL A   1      34.269  32.459  29.504  1.00  0.00     0.014 A 
ATOM     32  C   UNL A   1      36.716  33.684  28.960  1.00  0.00     0.010 A 
ATOM     33  C   UNL A   1      35.411  32.030  30.152  1.00  0.00     0.010 A 
ATOM     34  C   UNL A   1      36.649  32.628  29.881  1.00  0.00    -0.014 A 
BRANCH  34  35
ATOM     35  C   UNL A   1      37.836  32.089  30.590  1.00  0.00     0.031 A 
ATOM     36  C   UNL A   1      38.657  31.021  29.913  1.00  0.00     0.074 A 
ATOM     37  C   UNL A   1      38.058  32.413  31.879  1.00  0.00     0.049 A 
ATOM     38  N   UNL A   1      39.542  30.210  30.426  1.00  0.00    -0.248 NA
ATOM     39  C   UNL A   1      38.388  30.787  28.482  1.00  0.00     0.031 C 
ATOM     40  C   UNL A   1      37.274  33.367  32.669  1.00  0.00     0.029 A 
ATOM     41  N   UNL A   1      38.988  31.937  32.768  1.00  0.00    -0.354 N 
ATOM     42  C   UNL A   1      39.869  29.322  29.407  1.00  0.00     0.074 A 
ATOM     43  C   UNL A   1      39.059  29.668  28.262  1.00  0.00     0.031 C 
ATOM     44  C   UNL A   1      37.761  33.412  33.919  1.00  0.00     0.029 A 
ATOM     45  C   UNL A   1      38.859  32.460  34.036  1.00  0.00     0.049 A 
ATOM     46  H   UNL A   1      39.682  31.283  32.523  1.00  0.00     0.167 HD
ATOM     47  C   UNL A   1      40.790  28.331  29.412  1.00  0.00     0.034 A 
ATOM     48  C   UNL A   1      39.546  32.189  35.163  1.00  0.00     0.034 A 
ATOM     49  C   UNL A   1      41.665  28.073  30.521  1.00  0.00     0.049 A 
ATOM     50  C   UNL A   1      40.649  31.167  35.106  1.00  0.00     0.074 A 
ATOM     51  C   UNL A   1      42.708  27.172  30.603  1.00  0.00     0.029 A 
ATOM     52  N   UNL A   1      41.614  28.744  31.733  1.00  0.00    -0.354 N 
ATOM     53  N   UNL A   1      41.031  30.422  34.097  1.00  0.00    -0.248 NA
ATOM     54  C   UNL A   1      41.442  30.972  36.329  1.00  0.00     0.031 C 
ATOM     55  C   UNL A   1      43.296  27.303  31.865  1.00  0.00     0.029 A 
ATOM     56  C   UNL A   1      42.622  28.294  32.564  1.00  0.00     0.049 A 
ATOM     57  H   UNL A   1      40.956  29.439  31.968  1.00  0.00     0.167 HD
ATOM     58  C   UNL A   1      42.135  29.708  34.546  1.00  0.00     0.074 A 
ATOM     59  C   UNL A   1      42.367  30.117  35.916  1.00  0.00     0.031 C 
ATOM     60  C   UNL A   1      42.880  28.784  33.892  1.00  0.00     0.034 A 
BRANCH  47  61
ATOM     61  C   UNL A   1      40.954  27.518  28.155  1.00  0.00     0.023 A 
ATOM     62  C   UNL A   1      41.613  28.084  27.044  1.00  0.00     0.012 A 
ATOM     63  C   UNL A   1      40.498  26.187  28.081  1.00  0.00     0.148 A 
ATOM     64  C   UNL A   1      41.776  27.358  25.866  1.00  0.00     0.002 A 
ATOM     65  C   UNL A   1      40.709  25.452  26.920  1.00  0.00     0.091 A 
ATOM     66  F   UNL A   1      39.856  25.670  29.138  1.00  0.00    -0.205 F 
ATOM     67  C   UNL A   1      41.335  26.040  25.808  1.00  0.00     0.022 A 
BRANCH  65  68
ATOM     68  S   UNL A   1      40.254  23.721  26.772  1.00  0.00     0.127 S 
ATOM     69  O   UNL A   1      38.901  23.817  26.227  1.00  0.00    -0.237 OA
ATOM     70  O   UNL A   1      41.256  23.218  25.830  1.00  0.00    -0.237 OA
ATOM     71  O   UNL A   1      40.351  23.164  28.113  1.00  0.00    -0.744 OA
ENDBRANCH  65  68
ENDBRANCH  47  61
BRANCH  48  72
ATOM     72  C   UNL A   1      39.277  32.962  36.408  1.00  0.00     0.023 A 
ATOM     73  C   UNL A   1      39.823  34.256  36.535  1.00  0.00     0.012 A 
ATOM     74  C   UNL A   1      38.473  32.455  37.446  1.00  0.00     0.148 A 
ATOM     75  C   UNL A   1      39.604  35.013  37.687  1.00  0.00     0.002 A 
ATOM     76  C   UNL A   1      38.216  33.235  38.569  1.00  0.00     0.091 A 
ATOM     77  F   UNL A   1      37.967  31.220  37.314  1.00  0.00    -0.205 F 
ATOM     78  C   UNL A   1      38.795  34.507  38.699  1.00  0.00     0.022 A 
BRANCH  76  79
ATOM     79  S   UNL A   1      37.079  32.715  39.860  1.00  0.00     0.127 S 
ATOM     80  O   UNL A   1      37.689  31.466  40.310  1.00  0.00    -0.237 OA
ATOM     81  O   UNL A   1      37.170  33.823  40.813  1.00  0.00    -0.237 OA
ATOM     82  O   UNL A   1      35.783  32.595  39.209  1.00  0.00    -0.744 OA
ENDBRANCH  76  79
ENDBRANCH  48  72
BRANCH  60  83
ATOM     83  C   UNL A   1      44.060  28.196  34.616  1.00  0.00     0.023 A 
ATOM     84  C   UNL A   1      45.349  28.713  34.391  1.00  0.00     0.012 A 
ATOM     85  C   UNL A   1      43.867  27.205  35.600  1.00  0.00     0.148 A 
ATOM     86  C   UNL A   1      46.437  28.236  35.119  1.00  0.00     0.002 A 
ATOM     87  C   UNL A   1      44.948  26.768  36.354  1.00  0.00     0.091 A 
ATOM     88  F   UNL A   1      42.632  26.716  35.782  1.00  0.00    -0.205 F 
ATOM     89  C   UNL A   1      46.235  27.276  36.108  1.00  0.00     0.022 A 
BRANCH  87  90
ATOM     90  S   UNL A   1      44.763  25.609  37.713  1.00  0.00     0.127 S 
ATOM     91  O   UNL A   1      43.826  26.318  38.583  1.00  0.00    -0.237 OA
ATOM     92  O   UNL A   1      44.206  24.432  37.045  1.00  0.00    -0.237 OA
ATOM     93  O   UNL A   1      46.101  25.415  38.258  1.00  0.00    -0.744 OA
ENDBRANCH  87  90
ENDBRANCH  60  83
ENDBRANCH  34  35
ENDBRANCH  26  29
ENDBRANCH  24  25
ENDBRANCH   1  24
TORSDOF 17
ENDMDL
