MODEL 1
REMARK VINA RESULT:     -12.4      0.000      0.000
REMARK SMILES Cc1ncccc1OC1(C(=O)NCCCNC(=O)c2ccc(-c3c4nc(c(-c5cccc(S(=O)(=O)[O-])c5F)c5ccc([nH]5)c(-c5cccc(S(=O)(=O)[O-])c5F)c5nc(c(-c6cccc(S(=O)(=O)[O-])c6F)c6ccc3[nH]6)C=C5)C=C4)cc2)CCN(C(=O)c2ccc(O)nn2)CC1
REMARK SMILES IDX 14 1 13 2 12 3 10 4 11 5 9 7 82 8 95 9 83 10 94 11 84 12
REMARK SMILES IDX 85 13 86 14 8 15 7 16 1 17 2 18 3 19 4 20 6 21 5 22 87 23
REMARK SMILES IDX 88 24 93 25 89 26 92 27 90 28 91 29 15 31 16 32 17 33 18 35
REMARK SMILES IDX 19 36 20 37 81 38 21 39 80 40 22 41 23 42 24 43 74 44 25 45
REMARK SMILES IDX 79 46 73 47 75 48 26 49 78 50 72 51 71 52 27 54 59 55 39 56
REMARK SMILES IDX 58 57 40 58 43 59 57 60 76 61 41 62 42 63 56 65 77 66 44 67
REMARK SMILES IDX 28 68 29 69 37 70 30 71 32 72 38 73 31 74 33 75 34 76 35 77
REMARK SMILES IDX 36 78 60 79 61 80 69 81 62 82 64 83 70 84 63 85 65 86 66 87
REMARK SMILES IDX 67 88 68 89 45 90 46 91 54 92 47 93 49 94 55 95 48 96 50 97
REMARK SMILES IDX 51 98 52 99 53 100
REMARK H PARENT 12 6 91 30 16 34 75 53 43 64
REMARK Flexibility Score: inf
ROOT
ATOM      1  C   UNL A   1      37.752  20.517  24.626  1.00  0.00     0.042 C 
ENDROOT
BRANCH   1   2
ATOM      2  C   UNL A   1      37.054  21.866  24.512  1.00  0.00     0.118 C 
BRANCH   2   3
ATOM      3  N   UNL A   1      36.516  22.341  25.770  1.00  0.00    -0.353 N 
ATOM      4  C   UNL A   1      35.254  22.688  26.163  1.00  0.00     0.264 C 
ATOM      5  O   UNL A   1      35.148  22.935  27.371  1.00  0.00    -0.270 OA
ATOM      6  H   UNL A   1      37.193  22.433  26.480  1.00  0.00     0.163 HD
BRANCH   4   7
ATOM      7  C   UNL A   1      34.022  22.764  25.176  1.00  0.00     0.190 C 
ATOM      8  C   UNL A   1      32.754  22.503  25.983  1.00  0.00     0.080 C 
ATOM      9  C   UNL A   1      34.152  24.035  24.345  1.00  0.00     0.080 C 
ATOM     10  C   UNL A   1      31.851  23.695  26.239  1.00  0.00     0.124 C 
ATOM     11  C   UNL A   1      33.076  25.096  24.497  1.00  0.00     0.124 C 
ATOM     12  N   UNL A   1      31.876  24.781  25.267  1.00  0.00    -0.337 N 
ATOM     13  C   UNL A   1      30.797  25.687  25.343  1.00  0.00     0.274 C 
ATOM     14  O   UNL A   1      29.880  25.576  26.155  1.00  0.00    -0.267 OA
BRANCH   7  15
ATOM     15  O   UNL A   1      34.297  21.616  24.326  1.00  0.00    -0.475 OA
BRANCH  15  16
ATOM     16  C   UNL A   1      33.603  20.482  24.052  1.00  0.00     0.142 A 
ATOM     17  C   UNL A   1      31.778  21.081  22.315  1.00  0.00     0.071 C 
ATOM     18  C   UNL A   1      32.527  20.168  23.216  1.00  0.00     0.079 A 
ATOM     19  N   UNL A   1      32.007  18.903  23.133  1.00  0.00    -0.258 NA
ATOM     20  C   UNL A   1      32.532  17.927  23.891  1.00  0.00     0.111 A 
ATOM     21  C   UNL A   1      34.119  19.418  24.813  1.00  0.00     0.050 A 
ATOM     22  C   UNL A   1      33.587  18.134  24.744  1.00  0.00     0.024 A 
ENDBRANCH  15  16
ENDBRANCH   7  15
BRANCH  13  23
ATOM     23  C   UNL A   1      30.803  26.889  24.476  1.00  0.00     0.151 A 
ATOM     24  C   UNL A   1      31.424  28.045  24.919  1.00  0.00     0.042 A 
ATOM     25  N   UNL A   1      30.258  26.768  23.238  1.00  0.00    -0.142 NA
ATOM     26  C   UNL A   1      31.512  29.109  24.033  1.00  0.00     0.072 A 
ATOM     27  N   UNL A   1      30.342  27.814  22.376  1.00  0.00    -0.112 NA
ATOM     28  C   UNL A   1      30.961  28.940  22.781  1.00  0.00     0.230 A 
BRANCH  28  29
ATOM     29  O   UNL A   1      31.031  29.929  21.854  1.00  0.00    -0.492 OA
ATOM     30  H   UNL A   1      30.735  29.771  20.978  1.00  0.00     0.295 HD
ENDBRANCH  28  29
ENDBRANCH  13  23
ENDBRANCH   4   7
ENDBRANCH   2   3
ENDBRANCH   1   2
BRANCH   1  31
ATOM     31  C   UNL A   1      38.227  20.180  26.033  1.00  0.00     0.118 C 
BRANCH  31  32
ATOM     32  N   UNL A   1      39.433  19.357  26.031  1.00  0.00    -0.352 N 
ATOM     33  C   UNL A   1      40.759  19.703  26.129  1.00  0.00     0.251 C 
ATOM     34  H   UNL A   1      39.267  18.391  25.945  1.00  0.00     0.163 HD
ATOM     35  O   UNL A   1      41.610  18.844  25.903  1.00  0.00    -0.269 OA
BRANCH  33  36
ATOM     36  C   UNL A   1      41.177  21.079  26.486  1.00  0.00     0.039 A 
ATOM     37  C   UNL A   1      41.862  21.286  27.689  1.00  0.00     0.014 A 
ATOM     38  C   UNL A   1      40.864  22.173  25.676  1.00  0.00     0.014 A 
ATOM     39  C   UNL A   1      42.288  22.571  28.042  1.00  0.00     0.010 A 
ATOM     40  C   UNL A   1      41.360  23.437  25.986  1.00  0.00     0.010 A 
ATOM     41  C   UNL A   1      42.072  23.654  27.175  1.00  0.00    -0.014 A 
BRANCH  41  42
ATOM     42  C   UNL A   1      42.587  25.015  27.479  1.00  0.00     0.031 A 
ATOM     43  C   UNL A   1      41.698  26.035  28.142  1.00  0.00     0.074 A 
ATOM     44  C   UNL A   1      43.816  25.373  27.058  1.00  0.00     0.049 A 
ATOM     45  N   UNL A   1      41.935  27.296  28.394  1.00  0.00    -0.248 NA
ATOM     46  C   UNL A   1      40.354  25.587  28.546  1.00  0.00     0.031 C 
ATOM     47  C   UNL A   1      44.745  24.507  26.326  1.00  0.00     0.029 A 
ATOM     48  N   UNL A   1      44.485  26.567  27.154  1.00  0.00    -0.354 N 
ATOM     49  C   UNL A   1      40.760  27.804  28.936  1.00  0.00     0.074 A 
ATOM     50  C   UNL A   1      39.802  26.720  28.956  1.00  0.00     0.031 C 
ATOM     51  C   UNL A   1      45.859  25.198  26.042  1.00  0.00     0.029 A 
ATOM     52  C   UNL A   1      45.719  26.561  26.546  1.00  0.00     0.049 A 
ATOM     53  H   UNL A   1      44.116  27.355  27.615  1.00  0.00     0.167 HD
ATOM     54  C   UNL A   1      40.508  29.050  29.403  1.00  0.00     0.034 A 
ATOM     55  C   UNL A   1      46.633  27.541  26.404  1.00  0.00     0.034 A 
ATOM     56  C   UNL A   1      41.483  30.105  29.453  1.00  0.00     0.049 A 
ATOM     57  C   UNL A   1      46.358  28.893  27.003  1.00  0.00     0.074 A 
ATOM     58  C   UNL A   1      41.359  31.365  30.012  1.00  0.00     0.029 A 
ATOM     59  N   UNL A   1      42.765  30.024  28.931  1.00  0.00    -0.354 N 
ATOM     60  N   UNL A   1      45.301  29.303  27.661  1.00  0.00    -0.248 NA
ATOM     61  C   UNL A   1      47.416  29.907  26.874  1.00  0.00     0.031 C 
ATOM     62  C   UNL A   1      42.565  32.049  29.821  1.00  0.00     0.029 A 
ATOM     63  C   UNL A   1      43.442  31.211  29.152  1.00  0.00     0.049 A 
ATOM     64  H   UNL A   1      43.138  29.238  28.470  1.00  0.00     0.167 HD
ATOM     65  C   UNL A   1      45.578  30.608  28.051  1.00  0.00     0.074 A 
ATOM     66  C   UNL A   1      46.911  30.914  27.574  1.00  0.00     0.031 C 
ATOM     67  C   UNL A   1      44.790  31.481  28.726  1.00  0.00     0.034 A 
BRANCH  54  68
ATOM     68  C   UNL A   1      39.140  29.323  29.969  1.00  0.00     0.023 A 
ATOM     69  C   UNL A   1      38.831  28.879  31.271  1.00  0.00     0.012 A 
ATOM     70  C   UNL A   1      38.185  30.064  29.246  1.00  0.00     0.148 A 
ATOM     71  C   UNL A   1      37.582  29.141  31.834  1.00  0.00     0.002 A 
ATOM     72  C   UNL A   1      36.957  30.355  29.830  1.00  0.00     0.091 A 
ATOM     73  F   UNL A   1      38.488  30.457  28.001  1.00  0.00    -0.205 F 
ATOM     74  C   UNL A   1      36.651  29.887  31.118  1.00  0.00     0.022 A 
BRANCH  72  75
ATOM     75  S   UNL A   1      35.719  31.371  29.014  1.00  0.00     0.127 S 
ATOM     76  O   UNL A   1      35.098  30.408  28.106  1.00  0.00    -0.237 OA
ATOM     77  O   UNL A   1      34.871  31.786  30.133  1.00  0.00    -0.237 OA
ATOM     78  O   UNL A   1      36.451  32.456  28.377  1.00  0.00    -0.744 OA
ENDBRANCH  72  75
ENDBRANCH  54  68
BRANCH  55  79
ATOM     79  C   UNL A   1      47.933  27.247  25.739  1.00  0.00     0.023 A 
ATOM     80  C   UNL A   1      48.981  26.694  26.500  1.00  0.00     0.012 A 
ATOM     81  C   UNL A   1      48.125  27.468  24.362  1.00  0.00     0.148 A 
ATOM     82  C   UNL A   1      50.205  26.385  25.906  1.00  0.00     0.002 A 
ATOM     83  C   UNL A   1      49.329  27.112  23.766  1.00  0.00     0.091 A 
ATOM     84  F   UNL A   1      47.120  28.010  23.658  1.00  0.00    -0.205 F 
ATOM     85  C   UNL A   1      50.375  26.583  24.538  1.00  0.00     0.022 A 
BRANCH  83  86
ATOM     86  S   UNL A   1      49.587  27.211  21.991  1.00  0.00     0.127 S 
ATOM     87  O   UNL A   1      50.999  26.855  21.873  1.00  0.00    -0.237 OA
ATOM     88  O   UNL A   1      48.653  26.201  21.490  1.00  0.00    -0.237 OA
ATOM     89  O   UNL A   1      49.241  28.578  21.625  1.00  0.00    -0.744 OA
ENDBRANCH  83  86
ENDBRANCH  55  79
BRANCH  67  90
ATOM     90  C   UNL A   1      45.350  32.847  29.018  1.00  0.00     0.023 A 
ATOM     91  C   UNL A   1      46.116  33.049  30.183  1.00  0.00     0.012 A 
ATOM     92  C   UNL A   1      45.192  33.904  28.101  1.00  0.00     0.148 A 
ATOM     93  C   UNL A   1      46.696  34.290  30.444  1.00  0.00     0.002 A 
ATOM     94  C   UNL A   1      45.808  35.126  28.346  1.00  0.00     0.091 A 
ATOM     95  F   UNL A   1      44.441  33.699  27.009  1.00  0.00    -0.205 F 
ATOM     96  C   UNL A   1      46.553  35.324  29.520  1.00  0.00     0.022 A 
BRANCH  94  97
ATOM     97  S   UNL A   1      45.749  36.480  27.166  1.00  0.00     0.127 S 
ATOM     98  O   UNL A   1      46.501  37.520  27.865  1.00  0.00    -0.237 OA
ATOM     99  O   UNL A   1      46.431  35.913  26.001  1.00  0.00    -0.237 OA
ATOM    100  O   UNL A   1      44.335  36.758  26.954  1.00  0.00    -0.744 OA
ENDBRANCH  94  97
ENDBRANCH  67  90
ENDBRANCH  41  42
ENDBRANCH  33  36
ENDBRANCH  31  32
ENDBRANCH   1  31
TORSDOF 17
ENDMDL
MODEL 2
REMARK VINA RESULT:     -12.4      5.106      8.834
REMARK SMILES Cc1ncccc1OC1(C(=O)NCCCNC(=O)c2ccc(-c3c4nc(c(-c5cccc(S(=O)(=O)[O-])c5F)c5ccc([nH]5)c(-c5cccc(S(=O)(=O)[O-])c5F)c5nc(c(-c6cccc(S(=O)(=O)[O-])c6F)c6ccc3[nH]6)C=C5)C=C4)cc2)CCN(C(=O)c2ccc(O)nn2)CC1
REMARK SMILES IDX 14 1 13 2 12 3 10 4 11 5 9 7 82 8 95 9 83 10 94 11 84 12
REMARK SMILES IDX 85 13 86 14 8 15 7 16 1 17 2 18 3 19 4 20 6 21 5 22 87 23
REMARK SMILES IDX 88 24 93 25 89 26 92 27 90 28 91 29 15 31 16 32 17 33 18 35
REMARK SMILES IDX 19 36 20 37 81 38 21 39 80 40 22 41 23 42 24 43 74 44 25 45
REMARK SMILES IDX 79 46 73 47 75 48 26 49 78 50 72 51 71 52 27 54 59 55 39 56
REMARK SMILES IDX 58 57 40 58 43 59 57 60 76 61 41 62 42 63 56 65 77 66 44 67
REMARK SMILES IDX 28 68 29 69 37 70 30 71 32 72 38 73 31 74 33 75 34 76 35 77
REMARK SMILES IDX 36 78 60 79 61 80 69 81 62 82 64 83 70 84 63 85 65 86 66 87
REMARK SMILES IDX 67 88 68 89 45 90 46 91 54 92 47 93 49 94 55 95 48 96 50 97
REMARK SMILES IDX 51 98 52 99 53 100
REMARK H PARENT 12 6 91 30 16 34 75 53 43 64
REMARK Flexibility Score: inf
ROOT
ATOM      1  C   UNL A   1      32.222  29.109  26.910  1.00  0.00     0.042 C 
ENDROOT
BRANCH   1   2
ATOM      2  C   UNL A   1      32.310  27.640  27.304  1.00  0.00     0.118 C 
BRANCH   2   3
ATOM      3  N   UNL A   1      31.047  26.941  27.193  1.00  0.00    -0.353 N 
ATOM      4  C   UNL A   1      30.650  25.862  26.454  1.00  0.00     0.264 C 
ATOM      5  O   UNL A   1      29.508  25.461  26.713  1.00  0.00    -0.270 OA
ATOM      6  H   UNL A   1      30.334  27.317  27.760  1.00  0.00     0.163 HD
BRANCH   4   7
ATOM      7  C   UNL A   1      31.560  25.168  25.364  1.00  0.00     0.190 C 
ATOM      8  C   UNL A   1      33.000  25.195  25.866  1.00  0.00     0.080 C 
ATOM      9  C   UNL A   1      30.913  23.845  24.972  1.00  0.00     0.080 C 
ATOM     10  C   UNL A   1      33.589  23.875  26.326  1.00  0.00     0.124 C 
ATOM     11  C   UNL A   1      31.674  22.565  25.270  1.00  0.00     0.124 C 
ATOM     12  N   UNL A   1      33.057  22.655  25.731  1.00  0.00    -0.337 N 
ATOM     13  C   UNL A   1      33.844  21.499  25.912  1.00  0.00     0.274 C 
ATOM     14  O   UNL A   1      34.917  21.502  26.512  1.00  0.00    -0.267 OA
BRANCH   7  15
ATOM     15  O   UNL A   1      31.414  26.108  24.264  1.00  0.00    -0.475 OA
BRANCH  15  16
ATOM     16  C   UNL A   1      32.296  26.632  23.374  1.00  0.00     0.142 A 
ATOM     17  C   UNL A   1      33.134  24.698  21.870  1.00  0.00     0.071 C 
ATOM     18  C   UNL A   1      33.064  26.109  22.331  1.00  0.00     0.079 A 
ATOM     19  N   UNL A   1      33.897  26.886  21.570  1.00  0.00    -0.258 NA
ATOM     20  C   UNL A   1      33.998  28.198  21.841  1.00  0.00     0.111 A 
ATOM     21  C   UNL A   1      32.433  28.013  23.604  1.00  0.00     0.050 A 
ATOM     22  C   UNL A   1      33.286  28.807  22.844  1.00  0.00     0.024 A 
ENDBRANCH  15  16
ENDBRANCH   7  15
BRANCH  13  23
ATOM     23  C   UNL A   1      33.322  20.192  25.447  1.00  0.00     0.151 A 
ATOM     24  C   UNL A   1      33.309  19.908  24.091  1.00  0.00     0.042 A 
ATOM     25  N   UNL A   1      32.949  19.296  26.396  1.00  0.00    -0.142 NA
ATOM     26  C   UNL A   1      32.924  18.632  23.704  1.00  0.00     0.072 A 
ATOM     27  N   UNL A   1      32.570  18.049  26.012  1.00  0.00    -0.112 NA
ATOM     28  C   UNL A   1      32.570  17.747  24.699  1.00  0.00     0.230 A 
BRANCH  28  29
ATOM     29  O   UNL A   1      32.207  16.474  24.398  1.00  0.00    -0.492 OA
ATOM     30  H   UNL A   1      31.540  16.046  24.899  1.00  0.00     0.295 HD
ENDBRANCH  28  29
ENDBRANCH  13  23
ENDBRANCH   4   7
ENDBRANCH   2   3
ENDBRANCH   1   2
BRANCH   1  31
ATOM     31  C   UNL A   1      33.572  29.806  26.802  1.00  0.00     0.118 C 
BRANCH  31  32
ATOM     32  N   UNL A   1      33.576  31.116  27.444  1.00  0.00    -0.352 N 
ATOM     33  C   UNL A   1      34.416  31.655  28.388  1.00  0.00     0.251 C 
ATOM     34  H   UNL A   1      32.852  31.716  27.151  1.00  0.00     0.163 HD
ATOM     35  O   UNL A   1      34.098  32.715  28.924  1.00  0.00    -0.269 OA
BRANCH  33  36
ATOM     36  C   UNL A   1      35.680  30.983  28.774  1.00  0.00     0.039 A 
ATOM     37  C   UNL A   1      36.853  31.303  28.082  1.00  0.00     0.014 A 
ATOM     38  C   UNL A   1      35.715  30.010  29.775  1.00  0.00     0.014 A 
ATOM     39  C   UNL A   1      38.065  30.701  28.440  1.00  0.00     0.010 A 
ATOM     40  C   UNL A   1      36.932  29.473  30.186  1.00  0.00     0.010 A 
ATOM     41  C   UNL A   1      38.121  29.805  29.520  1.00  0.00    -0.014 A 
BRANCH  41  42
ATOM     42  C   UNL A   1      39.405  29.214  29.981  1.00  0.00     0.031 A 
ATOM     43  C   UNL A   1      40.177  29.852  31.106  1.00  0.00     0.074 A 
ATOM     44  C   UNL A   1      39.935  28.170  29.314  1.00  0.00     0.049 A 
ATOM     45  N   UNL A   1      41.357  29.542  31.576  1.00  0.00    -0.248 NA
ATOM     46  C   UNL A   1      39.555  31.011  31.769  1.00  0.00     0.031 C 
ATOM     47  C   UNL A   1      39.331  27.514  28.151  1.00  0.00     0.029 A 
ATOM     48  N   UNL A   1      41.117  27.496  29.496  1.00  0.00    -0.354 N 
ATOM     49  C   UNL A   1      41.642  30.492  32.550  1.00  0.00     0.074 A 
ATOM     50  C   UNL A   1      40.520  31.405  32.588  1.00  0.00     0.031 C 
ATOM     51  C   UNL A   1      40.145  26.535  27.726  1.00  0.00     0.029 A 
ATOM     52  C   UNL A   1      41.339  26.506  28.566  1.00  0.00     0.049 A 
ATOM     53  H   UNL A   1      41.748  27.701  30.223  1.00  0.00     0.167 HD
ATOM     54  C   UNL A   1      42.723  30.582  33.361  1.00  0.00     0.034 A 
ATOM     55  C   UNL A   1      42.385  25.673  28.403  1.00  0.00     0.034 A 
ATOM     56  C   UNL A   1      43.801  29.631  33.375  1.00  0.00     0.049 A 
ATOM     57  C   UNL A   1      43.536  25.744  29.368  1.00  0.00     0.074 A 
ATOM     58  C   UNL A   1      44.884  29.571  34.236  1.00  0.00     0.029 A 
ATOM     59  N   UNL A   1      43.933  28.570  32.492  1.00  0.00    -0.354 N 
ATOM     60  N   UNL A   1      43.707  26.547  30.390  1.00  0.00    -0.248 NA
ATOM     61  C   UNL A   1      44.623  24.770  29.182  1.00  0.00     0.031 C 
ATOM     62  C   UNL A   1      45.674  28.476  33.868  1.00  0.00     0.029 A 
ATOM     63  C   UNL A   1      45.079  27.851  32.785  1.00  0.00     0.049 A 
ATOM     64  H   UNL A   1      43.305  28.360  31.764  1.00  0.00     0.167 HD
ATOM     65  C   UNL A   1      44.900  26.156  30.986  1.00  0.00     0.074 A 
ATOM     66  C   UNL A   1      45.401  25.031  30.224  1.00  0.00     0.031 C 
ATOM     67  C   UNL A   1      45.534  26.695  32.057  1.00  0.00     0.034 A 
BRANCH  54  68
ATOM     68  C   UNL A   1      42.760  31.710  34.356  1.00  0.00     0.023 A 
ATOM     69  C   UNL A   1      43.337  32.941  33.983  1.00  0.00     0.012 A 
ATOM     70  C   UNL A   1      42.176  31.579  35.631  1.00  0.00     0.148 A 
ATOM     71  C   UNL A   1      43.360  34.015  34.872  1.00  0.00     0.002 A 
ATOM     72  C   UNL A   1      42.168  32.666  36.498  1.00  0.00     0.091 A 
ATOM     73  F   UNL A   1      41.653  30.394  35.978  1.00  0.00    -0.205 F 
ATOM     74  C   UNL A   1      42.768  33.881  36.124  1.00  0.00     0.022 A 
BRANCH  72  75
ATOM     75  S   UNL A   1      41.365  32.613  38.105  1.00  0.00     0.127 S 
ATOM     76  O   UNL A   1      40.022  32.159  37.749  1.00  0.00    -0.237 OA
ATOM     77  O   UNL A   1      42.172  31.623  38.822  1.00  0.00    -0.237 OA
ATOM     78  O   UNL A   1      41.454  33.964  38.639  1.00  0.00    -0.744 OA
ENDBRANCH  72  75
ENDBRANCH  54  68
BRANCH  55  79
ATOM     79  C   UNL A   1      42.346  24.640  27.330  1.00  0.00     0.023 A 
ATOM     80  C   UNL A   1      43.146  24.814  26.185  1.00  0.00     0.012 A 
ATOM     81  C   UNL A   1      41.566  23.475  27.454  1.00  0.00     0.148 A 
ATOM     82  C   UNL A   1      43.153  23.858  25.169  1.00  0.00     0.002 A 
ATOM     83  C   UNL A   1      41.615  22.502  26.463  1.00  0.00     0.091 A 
ATOM     84  F   UNL A   1      40.800  23.335  28.546  1.00  0.00    -0.205 F 
ATOM     85  C   UNL A   1      42.397  22.697  25.313  1.00  0.00     0.022 A 
BRANCH  83  86
ATOM     86  S   UNL A   1      40.777  20.922  26.628  1.00  0.00     0.127 S 
ATOM     87  O   UNL A   1      39.436  21.243  26.146  1.00  0.00    -0.237 OA
ATOM     88  O   UNL A   1      41.562  20.065  25.738  1.00  0.00    -0.237 OA
ATOM     89  O   UNL A   1      40.881  20.573  28.038  1.00  0.00    -0.744 OA
ENDBRANCH  83  86
ENDBRANCH  55  79
BRANCH  67  90
ATOM     90  C   UNL A   1      46.828  26.064  32.494  1.00  0.00     0.023 A 
ATOM     91  C   UNL A   1      48.048  26.563  31.995  1.00  0.00     0.012 A 
ATOM     92  C   UNL A   1      46.843  25.037  33.458  1.00  0.00     0.148 A 
ATOM     93  C   UNL A   1      49.262  26.035  32.432  1.00  0.00     0.002 A 
ATOM     94  C   UNL A   1      48.058  24.544  33.920  1.00  0.00     0.091 A 
ATOM     95  F   UNL A   1      45.672  24.559  33.903  1.00  0.00    -0.205 F 
ATOM     96  C   UNL A   1      49.267  25.035  33.402  1.00  0.00     0.022 A 
BRANCH  94  97
ATOM     97  S   UNL A   1      48.154  23.321  35.233  1.00  0.00     0.127 S 
ATOM     98  O   UNL A   1      49.596  23.234  35.455  1.00  0.00    -0.237 OA
ATOM     99  O   UNL A   1      47.407  23.961  36.317  1.00  0.00    -0.237 OA
ATOM    100  O   UNL A   1      47.526  22.120  34.701  1.00  0.00    -0.744 OA
ENDBRANCH  94  97
ENDBRANCH  67  90
ENDBRANCH  41  42
ENDBRANCH  33  36
ENDBRANCH  31  32
ENDBRANCH   1  31
TORSDOF 17
ENDMDL
MODEL 3
REMARK VINA RESULT:     -12.3      2.626      7.890
REMARK SMILES Cc1ncccc1OC1(C(=O)NCCCNC(=O)c2ccc(-c3c4nc(c(-c5cccc(S(=O)(=O)[O-])c5F)c5ccc([nH]5)c(-c5cccc(S(=O)(=O)[O-])c5F)c5nc(c(-c6cccc(S(=O)(=O)[O-])c6F)c6ccc3[nH]6)C=C5)C=C4)cc2)CCN(C(=O)c2ccc(O)nn2)CC1
REMARK SMILES IDX 14 1 13 2 12 3 10 4 11 5 9 7 82 8 95 9 83 10 94 11 84 12
REMARK SMILES IDX 85 13 86 14 8 15 7 16 1 17 2 18 3 19 4 20 6 21 5 22 87 23
REMARK SMILES IDX 88 24 93 25 89 26 92 27 90 28 91 29 15 31 16 32 17 33 18 35
REMARK SMILES IDX 19 36 20 37 81 38 21 39 80 40 22 41 23 42 24 43 74 44 25 45
REMARK SMILES IDX 79 46 73 47 75 48 26 49 78 50 72 51 71 52 27 54 59 55 39 56
REMARK SMILES IDX 58 57 40 58 43 59 57 60 76 61 41 62 42 63 56 65 77 66 44 67
REMARK SMILES IDX 28 68 29 69 37 70 30 71 32 72 38 73 31 74 33 75 34 76 35 77
REMARK SMILES IDX 36 78 60 79 61 80 69 81 62 82 64 83 70 84 63 85 65 86 66 87
REMARK SMILES IDX 67 88 68 89 45 90 46 91 54 92 47 93 49 94 55 95 48 96 50 97
REMARK SMILES IDX 51 98 52 99 53 100
REMARK H PARENT 12 6 91 30 16 34 75 53 43 64
REMARK Flexibility Score: inf
ROOT
ATOM      1  C   UNL A   1      36.506  22.935  23.646  1.00  0.00     0.042 C 
ENDROOT
BRANCH   1   2
ATOM      2  C   UNL A   1      35.165  22.263  23.909  1.00  0.00     0.118 C 
BRANCH   2   3
ATOM      3  N   UNL A   1      34.997  21.838  25.283  1.00  0.00    -0.353 N 
ATOM      4  C   UNL A   1      33.899  21.739  26.092  1.00  0.00     0.264 C 
ATOM      5  O   UNL A   1      34.122  21.210  27.188  1.00  0.00    -0.270 OA
ATOM      6  H   UNL A   1      35.838  21.567  25.720  1.00  0.00     0.163 HD
BRANCH   4   7
ATOM      7  C   UNL A   1      32.460  22.243  25.676  1.00  0.00     0.190 C 
ATOM      8  C   UNL A   1      31.782  22.809  26.920  1.00  0.00     0.080 C 
ATOM      9  C   UNL A   1      32.597  23.099  24.423  1.00  0.00     0.080 C 
ATOM     10  C   UNL A   1      31.630  24.317  26.988  1.00  0.00     0.124 C 
ATOM     11  C   UNL A   1      32.210  24.565  24.518  1.00  0.00     0.124 C 
ATOM     12  N   UNL A   1      31.546  25.044  25.727  1.00  0.00    -0.337 N 
ATOM     13  C   UNL A   1      31.064  26.367  25.820  1.00  0.00     0.274 C 
ATOM     14  O   UNL A   1      30.716  26.883  26.881  1.00  0.00    -0.267 OA
BRANCH   7  15
ATOM     15  O   UNL A   1      31.835  20.980  25.318  1.00  0.00    -0.475 OA
BRANCH  15  16
ATOM     16  C   UNL A   1      32.210  19.962  24.501  1.00  0.00     0.142 A 
ATOM     17  C   UNL A   1      31.901  20.763  22.058  1.00  0.00     0.071 C 
ATOM     18  C   UNL A   1      32.271  19.787  23.116  1.00  0.00     0.079 A 
ATOM     19  N   UNL A   1      32.701  18.620  22.541  1.00  0.00    -0.258 NA
ATOM     20  C   UNL A   1      33.062  17.596  23.330  1.00  0.00     0.111 A 
ATOM     21  C   UNL A   1      32.613  18.860  25.277  1.00  0.00     0.050 A 
ATOM     22  C   UNL A   1      33.038  17.668  24.700  1.00  0.00     0.024 A 
ENDBRANCH  15  16
ENDBRANCH   7  15
BRANCH  13  23
ATOM     23  C   UNL A   1      31.060  27.220  24.609  1.00  0.00     0.151 A 
ATOM     24  C   UNL A   1      29.945  27.230  23.787  1.00  0.00     0.042 A 
ATOM     25  N   UNL A   1      32.138  28.019  24.406  1.00  0.00    -0.142 NA
ATOM     26  C   UNL A   1      29.933  28.129  22.729  1.00  0.00     0.072 A 
ATOM     27  N   UNL A   1      32.124  28.894  23.367  1.00  0.00    -0.112 NA
ATOM     28  C   UNL A   1      31.040  28.934  22.568  1.00  0.00     0.230 A 
BRANCH  28  29
ATOM     29  O   UNL A   1      31.088  29.854  21.571  1.00  0.00    -0.492 OA
ATOM     30  H   UNL A   1      31.781  29.824  20.940  1.00  0.00     0.295 HD
ENDBRANCH  28  29
ENDBRANCH  13  23
ENDBRANCH   4   7
ENDBRANCH   2   3
ENDBRANCH   1   2
BRANCH   1  31
ATOM     31  C   UNL A   1      37.168  23.510  24.891  1.00  0.00     0.118 C 
BRANCH  31  32
ATOM     32  N   UNL A   1      38.102  22.574  25.508  1.00  0.00    -0.352 N 
ATOM     33  C   UNL A   1      39.223  22.792  26.274  1.00  0.00     0.251 C 
ATOM     34  H   UNL A   1      37.894  21.625  25.349  1.00  0.00     0.163 HD
ATOM     35  O   UNL A   1      39.964  21.842  26.516  1.00  0.00    -0.269 OA
BRANCH  33  36
ATOM     36  C   UNL A   1      39.555  24.139  26.795  1.00  0.00     0.039 A 
ATOM     37  C   UNL A   1      39.230  24.449  28.121  1.00  0.00     0.014 A 
ATOM     38  C   UNL A   1      40.139  25.114  25.985  1.00  0.00     0.014 A 
ATOM     39  C   UNL A   1      39.551  25.705  28.647  1.00  0.00     0.010 A 
ATOM     40  C   UNL A   1      40.533  26.333  26.531  1.00  0.00     0.010 A 
ATOM     41  C   UNL A   1      40.239  26.647  27.866  1.00  0.00    -0.014 A 
BRANCH  41  42
ATOM     42  C   UNL A   1      40.671  27.957  28.420  1.00  0.00     0.031 A 
ATOM     43  C   UNL A   1      42.134  28.256  28.615  1.00  0.00     0.074 A 
ATOM     44  C   UNL A   1      39.746  28.835  28.854  1.00  0.00     0.049 A 
ATOM     45  N   UNL A   1      42.697  29.296  29.174  1.00  0.00    -0.248 NA
ATOM     46  C   UNL A   1      43.092  27.238  28.148  1.00  0.00     0.031 C 
ATOM     47  C   UNL A   1      38.295  28.630  28.804  1.00  0.00     0.029 A 
ATOM     48  N   UNL A   1      39.885  30.062  29.454  1.00  0.00    -0.354 N 
ATOM     49  C   UNL A   1      44.062  29.038  29.174  1.00  0.00     0.074 A 
ATOM     50  C   UNL A   1      44.244  27.731  28.579  1.00  0.00     0.031 C 
ATOM     51  C   UNL A   1      37.682  29.693  29.348  1.00  0.00     0.029 A 
ATOM     52  C   UNL A   1      38.690  30.643  29.809  1.00  0.00     0.049 A 
ATOM     53  H   UNL A   1      40.758  30.487  29.615  1.00  0.00     0.167 HD
ATOM     54  C   UNL A   1      45.078  29.826  29.602  1.00  0.00     0.034 A 
ATOM     55  C   UNL A   1      38.432  31.807  30.439  1.00  0.00     0.034 A 
ATOM     56  C   UNL A   1      44.902  31.154  30.122  1.00  0.00     0.049 A 
ATOM     57  C   UNL A   1      39.578  32.698  30.831  1.00  0.00     0.074 A 
ATOM     58  C   UNL A   1      45.874  32.075  30.475  1.00  0.00     0.029 A 
ATOM     59  N   UNL A   1      43.676  31.756  30.360  1.00  0.00    -0.354 N 
ATOM     60  N   UNL A   1      40.864  32.506  30.669  1.00  0.00    -0.248 NA
ATOM     61  C   UNL A   1      39.237  33.984  31.458  1.00  0.00     0.031 C 
ATOM     62  C   UNL A   1      45.234  33.232  30.933  1.00  0.00     0.029 A 
ATOM     63  C   UNL A   1      43.865  33.034  30.856  1.00  0.00     0.049 A 
ATOM     64  H   UNL A   1      42.800  31.336  30.199  1.00  0.00     0.167 HD
ATOM     65  C   UNL A   1      41.484  33.656  31.144  1.00  0.00     0.074 A 
ATOM     66  C   UNL A   1      40.431  34.549  31.581  1.00  0.00     0.031 C 
ATOM     67  C   UNL A   1      42.807  33.937  31.229  1.00  0.00     0.034 A 
BRANCH  54  68
ATOM     68  C   UNL A   1      46.481  29.301  29.456  1.00  0.00     0.023 A 
ATOM     69  C   UNL A   1      47.031  28.508  30.484  1.00  0.00     0.012 A 
ATOM     70  C   UNL A   1      47.231  29.537  28.288  1.00  0.00     0.148 A 
ATOM     71  C   UNL A   1      48.317  27.983  30.366  1.00  0.00     0.002 A 
ATOM     72  C   UNL A   1      48.498  28.977  28.161  1.00  0.00     0.091 A 
ATOM     73  F   UNL A   1      46.701  30.312  27.332  1.00  0.00    -0.205 F 
ATOM     74  C   UNL A   1      49.045  28.209  29.202  1.00  0.00     0.022 A 
BRANCH  72  75
ATOM     75  S   UNL A   1      49.484  29.152  26.669  1.00  0.00     0.127 S 
ATOM     76  O   UNL A   1      50.667  28.362  27.002  1.00  0.00    -0.237 OA
ATOM     77  O   UNL A   1      48.618  28.552  25.651  1.00  0.00    -0.237 OA
ATOM     78  O   UNL A   1      49.705  30.582  26.504  1.00  0.00    -0.744 OA
ENDBRANCH  72  75
ENDBRANCH  54  68
BRANCH  55  79
ATOM     79  C   UNL A   1      37.020  32.232  30.656  1.00  0.00     0.023 A 
ATOM     80  C   UNL A   1      36.448  32.073  31.932  1.00  0.00     0.012 A 
ATOM     81  C   UNL A   1      36.262  32.828  29.631  1.00  0.00     0.148 A 
ATOM     82  C   UNL A   1      35.137  32.479  32.179  1.00  0.00     0.002 A 
ATOM     83  C   UNL A   1      34.974  33.276  29.896  1.00  0.00     0.091 A 
ATOM     84  F   UNL A   1      36.821  32.956  28.418  1.00  0.00    -0.205 F 
ATOM     85  C   UNL A   1      34.404  33.091  31.166  1.00  0.00     0.022 A 
BRANCH  83  86
ATOM     86  S   UNL A   1      34.009  34.191  28.688  1.00  0.00     0.127 S 
ATOM     87  O   UNL A   1      33.755  33.171  27.674  1.00  0.00    -0.237 OA
ATOM     88  O   UNL A   1      32.837  34.587  29.470  1.00  0.00    -0.237 OA
ATOM     89  O   UNL A   1      34.856  35.302  28.276  1.00  0.00    -0.744 OA
ENDBRANCH  83  86
ENDBRANCH  55  79
BRANCH  67  90
ATOM     90  C   UNL A   1      43.203  35.276  31.792  1.00  0.00     0.023 A 
ATOM     91  C   UNL A   1      43.344  35.431  33.185  1.00  0.00     0.012 A 
ATOM     92  C   UNL A   1      43.516  36.354  30.940  1.00  0.00     0.148 A 
ATOM     93  C   UNL A   1      43.768  36.644  33.724  1.00  0.00     0.002 A 
ATOM     94  C   UNL A   1      43.978  37.548  31.482  1.00  0.00     0.091 A 
ATOM     95  F   UNL A   1      43.353  36.195  29.619  1.00  0.00    -0.205 F 
ATOM     96  C   UNL A   1      44.097  37.698  32.873  1.00  0.00     0.022 A 
BRANCH  94  97
ATOM     97  S   UNL A   1      44.509  38.921  30.453  1.00  0.00     0.127 S 
ATOM     98  O   UNL A   1      45.569  38.307  29.657  1.00  0.00    -0.237 OA
ATOM     99  O   UNL A   1      43.293  39.243  29.704  1.00  0.00    -0.237 OA
ATOM    100  O   UNL A   1      44.937  39.964  31.375  1.00  0.00    -0.744 OA
ENDBRANCH  94  97
ENDBRANCH  67  90
ENDBRANCH  41  42
ENDBRANCH  33  36
ENDBRANCH  31  32
ENDBRANCH   1  31
TORSDOF 17
ENDMDL
