MODEL 1
REMARK VINA RESULT:     -10.6      0.000      0.000
REMARK SMILES C[C@H](Sc1ccnc(C(=O)NCCCNC(=O)c2ccc(-c3c4nc(c(-c5cccc(S(=O)(=O)[O-])c5F)c5ccc([nH]5)c(-c5cccc(S(=O)(=O)[O-])c5F)c5nc(c(-c6cccc(S(=O)(=O)[O-])c6F)c6ccc3[nH]6)C=C5)C=C4)cc2)c1)[C@@H](C)O
REMARK SMILES IDX 12 1 11 2 9 3 10 4 8 6 4 7 5 8 81 9 6 10 7 11 3 12 2 13 1 14
REMARK SMILES IDX 82 15 83 16 84 17 13 19 14 20 15 21 16 22 17 24 18 25 19 26
REMARK SMILES IDX 80 27 20 28 79 29 21 30 22 31 23 32 73 33 24 34 78 35 72 36
REMARK SMILES IDX 74 37 25 38 77 39 71 40 70 41 26 43 58 44 38 45 57 46 39 47
REMARK SMILES IDX 42 48 56 49 75 50 40 51 41 52 55 54 76 55 43 56 27 57 28 58
REMARK SMILES IDX 36 59 29 60 31 61 37 62 30 63 32 64 33 65 34 66 35 67 59 68
REMARK SMILES IDX 60 69 68 70 61 71 63 72 69 73 62 74 64 75 65 76 66 77 67 78
REMARK SMILES IDX 44 79 45 80 53 81 46 82 48 83 54 84 47 85 49 86 50 87 51 88
REMARK SMILES IDX 52 89
REMARK H PARENT 11 5 84 18 15 23 74 42 42 53
REMARK Flexibility Score: inf
ROOT
ATOM      1  C   UNL A   1      35.220  34.954  28.405  1.00  0.00     0.118 C 
ENDROOT
BRANCH   1   2
ATOM      2  N   UNL A   1      33.869  35.474  28.303  1.00  0.00    -0.351 N 
ATOM      3  C   UNL A   1      32.994  36.018  29.217  1.00  0.00     0.269 C 
ATOM      4  O   UNL A   1      31.912  36.401  28.766  1.00  0.00    -0.268 OA
ATOM      5  H   UNL A   1      33.501  35.427  27.391  1.00  0.00     0.163 HD
BRANCH   3   6
ATOM      6  C   UNL A   1      33.309  36.211  30.678  1.00  0.00     0.129 A 
ATOM      7  C   UNL A   1      34.161  35.514  32.825  1.00  0.00     0.011 A 
ATOM      8  C   UNL A   1      33.979  36.813  33.276  1.00  0.00     0.035 A 
ATOM      9  C   UNL A   1      33.760  35.207  31.518  1.00  0.00     0.049 A 
ATOM     10  C   UNL A   1      33.444  37.746  32.405  1.00  0.00     0.113 A 
ATOM     11  N   UNL A   1      33.133  37.482  31.124  1.00  0.00    -0.251 NA
BRANCH   7  12
ATOM     12  S   UNL A   1      34.991  34.189  33.691  1.00  0.00    -0.120 SA
BRANCH  12  13
ATOM     13  C   UNL A   1      36.705  34.059  33.025  1.00  0.00     0.077 C 
ATOM     14  C   UNL A   1      37.753  34.343  34.104  1.00  0.00     0.022 C 
BRANCH  13  15
ATOM     15  C   UNL A   1      36.989  32.809  32.166  1.00  0.00     0.124 C 
ATOM     16  C   UNL A   1      35.816  31.831  32.112  1.00  0.00     0.039 C 
BRANCH  15  17
ATOM     17  O   UNL A   1      37.301  33.207  30.825  1.00  0.00    -0.392 OA
ATOM     18  H   UNL A   1      37.065  34.139  30.701  1.00  0.00     0.210 HD
ENDBRANCH  15  17
ENDBRANCH  13  15
ENDBRANCH  12  13
ENDBRANCH   7  12
ENDBRANCH   3   6
ENDBRANCH   1   2
BRANCH   1  19
ATOM     19  C   UNL A   1      35.274  33.476  28.014  1.00  0.00     0.042 C 
BRANCH  19  20
ATOM     20  C   UNL A   1      34.411  32.583  28.904  1.00  0.00     0.118 C 
BRANCH  20  21
ATOM     21  N   UNL A   1      33.818  31.486  28.152  1.00  0.00    -0.352 N 
ATOM     22  C   UNL A   1      34.384  30.343  27.649  1.00  0.00     0.251 C 
ATOM     23  H   UNL A   1      32.855  31.581  27.975  1.00  0.00     0.163 HD
ATOM     24  O   UNL A   1      33.747  29.679  26.835  1.00  0.00    -0.269 OA
BRANCH  22  25
ATOM     25  C   UNL A   1      35.732  29.899  28.072  1.00  0.00     0.039 A 
ATOM     26  C   UNL A   1      35.877  29.339  29.344  1.00  0.00     0.014 A 
ATOM     27  C   UNL A   1      36.858  30.104  27.271  1.00  0.00     0.014 A 
ATOM     28  C   UNL A   1      37.142  28.962  29.800  1.00  0.00     0.010 A 
ATOM     29  C   UNL A   1      38.110  29.661  27.698  1.00  0.00     0.010 A 
ATOM     30  C   UNL A   1      38.269  29.105  28.974  1.00  0.00    -0.014 A 
BRANCH  30  31
ATOM     31  C   UNL A   1      39.611  28.677  29.445  1.00  0.00     0.031 A 
ATOM     32  C   UNL A   1      40.307  29.414  30.559  1.00  0.00     0.074 A 
ATOM     33  C   UNL A   1      40.227  27.649  28.829  1.00  0.00     0.049 A 
ATOM     34  N   UNL A   1      41.467  29.165  31.111  1.00  0.00    -0.248 NA
ATOM     35  C   UNL A   1      39.627  30.598  31.109  1.00  0.00     0.031 C 
ATOM     36  C   UNL A   1      39.696  26.915  27.678  1.00  0.00     0.029 A 
ATOM     37  N   UNL A   1      41.437  27.051  29.074  1.00  0.00    -0.354 N 
ATOM     38  C   UNL A   1      41.670  30.175  32.046  1.00  0.00     0.074 A 
ATOM     39  C   UNL A   1      40.530  31.061  31.960  1.00  0.00     0.031 C 
ATOM     40  C   UNL A   1      40.568  25.957  27.327  1.00  0.00     0.029 A 
ATOM     41  C   UNL A   1      41.726  26.018  28.213  1.00  0.00     0.049 A 
ATOM     42  H   UNL A   1      42.042  27.335  29.797  1.00  0.00     0.167 HD
ATOM     43  C   UNL A   1      42.693  30.332  32.920  1.00  0.00     0.034 A 
ATOM     44  C   UNL A   1      42.797  25.205  28.152  1.00  0.00     0.034 A 
ATOM     45  C   UNL A   1      43.802  29.422  33.031  1.00  0.00     0.049 A 
ATOM     46  C   UNL A   1      43.883  25.353  29.183  1.00  0.00     0.074 A 
ATOM     47  C   UNL A   1      44.846  29.441  33.939  1.00  0.00     0.029 A 
ATOM     48  N   UNL A   1      44.012  28.326  32.207  1.00  0.00    -0.354 N 
ATOM     49  N   UNL A   1      43.973  26.213  30.169  1.00  0.00    -0.248 NA
ATOM     50  C   UNL A   1      44.990  24.389  29.124  1.00  0.00     0.031 C 
ATOM     51  C   UNL A   1      45.696  28.366  33.653  1.00  0.00     0.029 A 
ATOM     52  C   UNL A   1      45.168  27.663  32.582  1.00  0.00     0.049 A 
ATOM     53  H   UNL A   1      43.424  28.059  31.464  1.00  0.00     0.167 HD
ATOM     54  C   UNL A   1      45.126  25.874  30.866  1.00  0.00     0.074 A 
ATOM     55  C   UNL A   1      45.684  24.711  30.206  1.00  0.00     0.031 C 
ATOM     56  C   UNL A   1      45.684  26.479  31.944  1.00  0.00     0.034 A 
BRANCH  43  57
ATOM     57  C   UNL A   1      42.631  31.503  33.868  1.00  0.00     0.023 A 
ATOM     58  C   UNL A   1      43.280  32.708  33.525  1.00  0.00     0.012 A 
ATOM     59  C   UNL A   1      41.894  31.435  35.067  1.00  0.00     0.148 A 
ATOM     60  C   UNL A   1      43.227  33.813  34.373  1.00  0.00     0.002 A 
ATOM     61  C   UNL A   1      41.809  32.556  35.887  1.00  0.00     0.091 A 
ATOM     62  F   UNL A   1      41.301  30.277  35.389  1.00  0.00    -0.205 F 
ATOM     63  C   UNL A   1      42.485  33.739  35.549  1.00  0.00     0.022 A 
BRANCH  61  64
ATOM     64  S   UNL A   1      40.812  32.591  37.382  1.00  0.00     0.127 S 
ATOM     65  O   UNL A   1      41.694  31.925  38.340  1.00  0.00    -0.237 OA
ATOM     66  O   UNL A   1      40.643  34.027  37.606  1.00  0.00    -0.237 OA
ATOM     67  O   UNL A   1      39.584  31.878  37.061  1.00  0.00    -0.744 OA
ENDBRANCH  61  64
ENDBRANCH  43  57
BRANCH  44  68
ATOM     68  C   UNL A   1      42.847  24.117  27.133  1.00  0.00     0.023 A 
ATOM     69  C   UNL A   1      43.615  24.298  25.967  1.00  0.00     0.012 A 
ATOM     70  C   UNL A   1      42.173  22.897  27.329  1.00  0.00     0.148 A 
ATOM     71  C   UNL A   1      43.684  23.298  24.997  1.00  0.00     0.002 A 
ATOM     72  C   UNL A   1      42.291  21.882  26.386  1.00  0.00     0.091 A 
ATOM     73  F   UNL A   1      41.439  22.747  28.440  1.00  0.00    -0.205 F 
ATOM     74  C   UNL A   1      43.032  22.087  25.211  1.00  0.00     0.022 A 
BRANCH  72  75
ATOM     75  S   UNL A   1      41.602  20.244  26.645  1.00  0.00     0.127 S 
ATOM     76  O   UNL A   1      42.013  19.550  25.429  1.00  0.00    -0.237 OA
ATOM     77  O   UNL A   1      42.287  19.814  27.864  1.00  0.00    -0.237 OA
ATOM     78  O   UNL A   1      40.167  20.446  26.809  1.00  0.00    -0.744 OA
ENDBRANCH  72  75
ENDBRANCH  44  68
BRANCH  56  79
ATOM     79  C   UNL A   1      46.950  25.877  32.495  1.00  0.00     0.023 A 
ATOM     80  C   UNL A   1      48.202  26.332  32.030  1.00  0.00     0.012 A 
ATOM     81  C   UNL A   1      46.904  24.896  33.503  1.00  0.00     0.148 A 
ATOM     82  C   UNL A   1      49.384  25.784  32.526  1.00  0.00     0.002 A 
ATOM     83  C   UNL A   1      48.089  24.391  34.029  1.00  0.00     0.091 A 
ATOM     84  F   UNL A   1      45.707  24.459  33.921  1.00  0.00    -0.205 F 
ATOM     85  C   UNL A   1      49.329  24.823  33.531  1.00  0.00     0.022 A 
BRANCH  83  86
ATOM     86  S   UNL A   1      48.103  23.221  35.392  1.00  0.00     0.127 S 
ATOM     87  O   UNL A   1      49.493  23.298  35.837  1.00  0.00    -0.237 OA
ATOM     88  O   UNL A   1      47.133  23.806  36.320  1.00  0.00    -0.237 OA
ATOM     89  O   UNL A   1      47.690  21.946  34.821  1.00  0.00    -0.744 OA
ENDBRANCH  83  86
ENDBRANCH  56  79
ENDBRANCH  30  31
ENDBRANCH  22  25
ENDBRANCH  20  21
ENDBRANCH  19  20
ENDBRANCH   1  19
TORSDOF 17
ENDMDL
MODEL 2
REMARK VINA RESULT:     -10.4      5.902     11.275
REMARK SMILES C[C@H](Sc1ccnc(C(=O)NCCCNC(=O)c2ccc(-c3c4nc(c(-c5cccc(S(=O)(=O)[O-])c5F)c5ccc([nH]5)c(-c5cccc(S(=O)(=O)[O-])c5F)c5nc(c(-c6cccc(S(=O)(=O)[O-])c6F)c6ccc3[nH]6)C=C5)C=C4)cc2)c1)[C@@H](C)O
REMARK SMILES IDX 12 1 11 2 9 3 10 4 8 6 4 7 5 8 81 9 6 10 7 11 3 12 2 13 1 14
REMARK SMILES IDX 82 15 83 16 84 17 13 19 14 20 15 21 16 22 17 24 18 25 19 26
REMARK SMILES IDX 80 27 20 28 79 29 21 30 22 31 23 32 73 33 24 34 78 35 72 36
REMARK SMILES IDX 74 37 25 38 77 39 71 40 70 41 26 43 58 44 38 45 57 46 39 47
REMARK SMILES IDX 42 48 56 49 75 50 40 51 41 52 55 54 76 55 43 56 27 57 28 58
REMARK SMILES IDX 36 59 29 60 31 61 37 62 30 63 32 64 33 65 34 66 35 67 59 68
REMARK SMILES IDX 60 69 68 70 61 71 63 72 69 73 62 74 64 75 65 76 66 77 67 78
REMARK SMILES IDX 44 79 45 80 53 81 46 82 48 83 54 84 47 85 49 86 50 87 51 88
REMARK SMILES IDX 52 89
REMARK H PARENT 11 5 84 18 15 23 74 42 42 53
REMARK Flexibility Score: inf
ROOT
ATOM      1  C   UNL A   1      34.494  24.105  24.497  1.00  0.00     0.118 C 
ENDROOT
BRANCH   1   2
ATOM      2  N   UNL A   1      34.362  24.568  23.128  1.00  0.00    -0.351 N 
ATOM      3  C   UNL A   1      33.427  25.341  22.479  1.00  0.00     0.269 C 
ATOM      4  O   UNL A   1      33.653  25.577  21.289  1.00  0.00    -0.268 OA
ATOM      5  H   UNL A   1      35.094  24.265  22.542  1.00  0.00     0.163 HD
BRANCH   3   6
ATOM      6  C   UNL A   1      32.213  25.937  23.143  1.00  0.00     0.129 A 
ATOM      7  C   UNL A   1      30.888  27.757  24.012  1.00  0.00     0.011 A 
ATOM      8  C   UNL A   1      29.845  26.860  24.195  1.00  0.00     0.035 A 
ATOM      9  C   UNL A   1      32.107  27.263  23.532  1.00  0.00     0.049 A 
ATOM     10  C   UNL A   1      30.050  25.532  23.862  1.00  0.00     0.113 A 
ATOM     11  N   UNL A   1      31.189  25.062  23.323  1.00  0.00    -0.251 NA
BRANCH   7  12
ATOM     12  S   UNL A   1      30.812  29.534  24.195  1.00  0.00    -0.120 SA
BRANCH  12  13
ATOM     13  C   UNL A   1      29.279  30.126  23.362  1.00  0.00     0.077 C 
ATOM     14  C   UNL A   1      28.855  31.505  23.873  1.00  0.00     0.022 C 
BRANCH  13  15
ATOM     15  C   UNL A   1      29.260  29.977  21.826  1.00  0.00     0.124 C 
ATOM     16  C   UNL A   1      28.402  31.029  21.124  1.00  0.00     0.039 C 
BRANCH  15  17
ATOM     17  O   UNL A   1      30.595  30.077  21.315  1.00  0.00    -0.392 OA
ATOM     18  H   UNL A   1      30.808  29.278  20.808  1.00  0.00     0.210 HD
ENDBRANCH  15  17
ENDBRANCH  13  15
ENDBRANCH  12  13
ENDBRANCH   7  12
ENDBRANCH   3   6
ENDBRANCH   1   2
BRANCH   1  19
ATOM     19  C   UNL A   1      35.391  22.868  24.578  1.00  0.00     0.042 C 
BRANCH  19  20
ATOM     20  C   UNL A   1      36.040  22.680  25.949  1.00  0.00     0.118 C 
BRANCH  20  21
ATOM     21  N   UNL A   1      37.009  21.593  25.941  1.00  0.00    -0.352 N 
ATOM     22  C   UNL A   1      38.377  21.620  26.027  1.00  0.00     0.251 C 
ATOM     23  H   UNL A   1      36.619  20.693  25.860  1.00  0.00     0.163 HD
ATOM     24  O   UNL A   1      39.004  20.599  25.751  1.00  0.00    -0.269 OA
BRANCH  22  25
ATOM     25  C   UNL A   1      39.100  22.841  26.448  1.00  0.00     0.039 A 
ATOM     26  C   UNL A   1      38.812  24.042  25.794  1.00  0.00     0.014 A 
ATOM     27  C   UNL A   1      40.110  22.801  27.413  1.00  0.00     0.014 A 
ATOM     28  C   UNL A   1      39.515  25.202  26.123  1.00  0.00     0.010 A 
ATOM     29  C   UNL A   1      40.760  23.975  27.793  1.00  0.00     0.010 A 
ATOM     30  C   UNL A   1      40.485  25.184  27.138  1.00  0.00    -0.014 A 
BRANCH  30  31
ATOM     31  C   UNL A   1      41.213  26.423  27.512  1.00  0.00     0.031 A 
ATOM     32  C   UNL A   1      42.636  26.644  27.068  1.00  0.00     0.074 A 
ATOM     33  C   UNL A   1      40.604  27.331  28.299  1.00  0.00     0.049 A 
ATOM     34  N   UNL A   1      43.414  27.674  27.282  1.00  0.00    -0.248 NA
ATOM     35  C   UNL A   1      43.277  25.559  26.307  1.00  0.00     0.031 C 
ATOM     36  C   UNL A   1      39.263  27.188  28.870  1.00  0.00     0.029 A 
ATOM     37  N   UNL A   1      41.036  28.546  28.768  1.00  0.00    -0.354 N 
ATOM     38  C   UNL A   1      44.641  27.349  26.714  1.00  0.00     0.074 A 
ATOM     39  C   UNL A   1      44.516  26.012  26.178  1.00  0.00     0.031 C 
ATOM     40  C   UNL A   1      38.976  28.279  29.598  1.00  0.00     0.029 A 
ATOM     41  C   UNL A   1      40.116  29.189  29.562  1.00  0.00     0.049 A 
ATOM     42  H   UNL A   1      41.921  28.921  28.555  1.00  0.00     0.167 HD
ATOM     43  C   UNL A   1      45.760  28.108  26.616  1.00  0.00     0.034 A 
ATOM     44  C   UNL A   1      40.179  30.383  30.181  1.00  0.00     0.034 A 
ATOM     45  C   UNL A   1      45.863  29.455  27.110  1.00  0.00     0.049 A 
ATOM     46  C   UNL A   1      41.403  31.237  29.991  1.00  0.00     0.074 A 
ATOM     47  C   UNL A   1      46.920  30.340  26.988  1.00  0.00     0.029 A 
ATOM     48  N   UNL A   1      44.874  30.113  27.825  1.00  0.00    -0.354 N 
ATOM     49  N   UNL A   1      42.491  30.980  29.306  1.00  0.00    -0.248 NA
ATOM     50  C   UNL A   1      41.389  32.565  30.620  1.00  0.00     0.031 C 
ATOM     51  C   UNL A   1      46.574  31.529  27.642  1.00  0.00     0.029 A 
ATOM     52  C   UNL A   1      45.293  31.392  28.151  1.00  0.00     0.049 A 
ATOM     53  H   UNL A   1      44.000  29.728  28.064  1.00  0.00     0.167 HD
ATOM     54  C   UNL A   1      43.275  32.124  29.392  1.00  0.00     0.074 A 
ATOM     55  C   UNL A   1      42.523  33.086  30.172  1.00  0.00     0.031 C 
ATOM     56  C   UNL A   1      44.513  32.354  28.888  1.00  0.00     0.034 A 
BRANCH  43  57
ATOM     57  C   UNL A   1      46.944  27.519  25.893  1.00  0.00     0.023 A 
ATOM     58  C   UNL A   1      47.786  26.609  26.568  1.00  0.00     0.012 A 
ATOM     59  C   UNL A   1      47.198  27.817  24.539  1.00  0.00     0.148 A 
ATOM     60  C   UNL A   1      48.880  26.036  25.921  1.00  0.00     0.002 A 
ATOM     61  C   UNL A   1      48.266  27.207  23.888  1.00  0.00     0.091 A 
ATOM     62  F   UNL A   1      46.403  28.699  23.918  1.00  0.00    -0.205 F 
ATOM     63  C   UNL A   1      49.114  26.327  24.580  1.00  0.00     0.022 A 
BRANCH  61  64
ATOM     64  S   UNL A   1      48.605  27.452  22.141  1.00  0.00     0.127 S 
ATOM     65  O   UNL A   1      49.843  28.228  22.186  1.00  0.00    -0.237 OA
ATOM     66  O   UNL A   1      48.763  26.079  21.661  1.00  0.00    -0.237 OA
ATOM     67  O   UNL A   1      47.447  28.153  21.603  1.00  0.00    -0.744 OA
ENDBRANCH  61  64
ENDBRANCH  43  57
BRANCH  44  68
ATOM     68  C   UNL A   1      39.008  30.879  30.959  1.00  0.00     0.023 A 
ATOM     69  C   UNL A   1      38.934  30.613  32.340  1.00  0.00     0.012 A 
ATOM     70  C   UNL A   1      37.992  31.640  30.352  1.00  0.00     0.148 A 
ATOM     71  C   UNL A   1      37.853  31.066  33.096  1.00  0.00     0.002 A 
ATOM     72  C   UNL A   1      36.946  32.138  31.121  1.00  0.00     0.091 A 
ATOM     73  F   UNL A   1      38.075  31.875  29.035  1.00  0.00    -0.205 F 
ATOM     74  C   UNL A   1      36.865  31.837  32.490  1.00  0.00     0.022 A 
BRANCH  72  75
ATOM     75  S   UNL A   1      35.707  33.254  30.452  1.00  0.00     0.127 S 
ATOM     76  O   UNL A   1      34.646  32.329  30.070  1.00  0.00    -0.237 OA
ATOM     77  O   UNL A   1      35.405  34.099  31.607  1.00  0.00    -0.237 OA
ATOM     78  O   UNL A   1      36.365  33.956  29.357  1.00  0.00    -0.744 OA
ENDBRANCH  72  75
ENDBRANCH  44  68
BRANCH  56  79
ATOM     79  C   UNL A   1      45.121  33.708  29.141  1.00  0.00     0.023 A 
ATOM     80  C   UNL A   1      45.862  33.934  30.319  1.00  0.00     0.012 A 
ATOM     81  C   UNL A   1      44.998  34.743  28.194  1.00  0.00     0.148 A 
ATOM     82  C   UNL A   1      46.429  35.183  30.571  1.00  0.00     0.002 A 
ATOM     83  C   UNL A   1      45.610  35.970  28.430  1.00  0.00     0.091 A 
ATOM     84  F   UNL A   1      44.274  34.520  27.088  1.00  0.00    -0.205 F 
ATOM     85  C   UNL A   1      46.313  36.196  29.624  1.00  0.00     0.022 A 
BRANCH  83  86
ATOM     86  S   UNL A   1      45.587  37.294  27.215  1.00  0.00     0.127 S 
ATOM     87  O   UNL A   1      46.244  38.377  27.944  1.00  0.00    -0.237 OA
ATOM     88  O   UNL A   1      46.376  36.730  26.119  1.00  0.00    -0.237 OA
ATOM     89  O   UNL A   1      44.183  37.508  26.893  1.00  0.00    -0.744 OA
ENDBRANCH  83  86
ENDBRANCH  56  79
ENDBRANCH  30  31
ENDBRANCH  22  25
ENDBRANCH  20  21
ENDBRANCH  19  20
ENDBRANCH   1  19
TORSDOF 17
ENDMDL
MODEL 3
REMARK VINA RESULT:     -10.3      3.011      6.037
REMARK SMILES C[C@H](Sc1ccnc(C(=O)NCCCNC(=O)c2ccc(-c3c4nc(c(-c5cccc(S(=O)(=O)[O-])c5F)c5ccc([nH]5)c(-c5cccc(S(=O)(=O)[O-])c5F)c5nc(c(-c6cccc(S(=O)(=O)[O-])c6F)c6ccc3[nH]6)C=C5)C=C4)cc2)c1)[C@@H](C)O
REMARK SMILES IDX 12 1 11 2 9 3 10 4 8 6 4 7 5 8 81 9 6 10 7 11 3 12 2 13 1 14
REMARK SMILES IDX 82 15 83 16 84 17 13 19 14 20 15 21 16 22 17 24 18 25 19 26
REMARK SMILES IDX 80 27 20 28 79 29 21 30 22 31 23 32 73 33 24 34 78 35 72 36
REMARK SMILES IDX 74 37 25 38 77 39 71 40 70 41 26 43 58 44 38 45 57 46 39 47
REMARK SMILES IDX 42 48 56 49 75 50 40 51 41 52 55 54 76 55 43 56 27 57 28 58
REMARK SMILES IDX 36 59 29 60 31 61 37 62 30 63 32 64 33 65 34 66 35 67 59 68
REMARK SMILES IDX 60 69 68 70 61 71 63 72 69 73 62 74 64 75 65 76 66 77 67 78
REMARK SMILES IDX 44 79 45 80 53 81 46 82 48 83 54 84 47 85 49 86 50 87 51 88
REMARK SMILES IDX 52 89
REMARK H PARENT 11 5 84 18 15 23 74 42 42 53
REMARK Flexibility Score: inf
ROOT
ATOM      1  C   UNL A   1      31.801  27.670  26.013  1.00  0.00     0.118 C 
ENDROOT
BRANCH   1   2
ATOM      2  N   UNL A   1      31.044  26.530  26.493  1.00  0.00    -0.351 N 
ATOM      3  C   UNL A   1      30.966  25.213  26.097  1.00  0.00     0.269 C 
ATOM      4  O   UNL A   1      30.229  24.489  26.771  1.00  0.00    -0.268 OA
ATOM      5  H   UNL A   1      30.464  26.741  27.261  1.00  0.00     0.163 HD
BRANCH   3   6
ATOM      6  C   UNL A   1      31.753  24.625  24.954  1.00  0.00     0.129 A 
ATOM      7  C   UNL A   1      33.236  23.013  23.944  1.00  0.00     0.011 A 
ATOM      8  C   UNL A   1      32.965  23.592  22.713  1.00  0.00     0.035 A 
ATOM      9  C   UNL A   1      32.659  23.586  25.084  1.00  0.00     0.049 A 
ATOM     10  C   UNL A   1      32.114  24.683  22.669  1.00  0.00     0.113 A 
ATOM     11  N   UNL A   1      31.490  25.189  23.747  1.00  0.00    -0.251 NA
BRANCH   7  12
ATOM     12  S   UNL A   1      34.149  21.503  24.236  1.00  0.00    -0.120 SA
BRANCH  12  13
ATOM     13  C   UNL A   1      35.931  21.941  24.409  1.00  0.00     0.077 C 
ATOM     14  C   UNL A   1      36.418  22.797  23.237  1.00  0.00     0.022 C 
BRANCH  13  15
ATOM     15  C   UNL A   1      36.354  22.454  25.801  1.00  0.00     0.124 C 
ATOM     16  C   UNL A   1      36.331  23.978  25.918  1.00  0.00     0.039 C 
BRANCH  15  17
ATOM     17  O   UNL A   1      35.479  21.916  26.800  1.00  0.00    -0.392 OA
ATOM     18  H   UNL A   1      34.608  22.335  26.725  1.00  0.00     0.210 HD
ENDBRANCH  15  17
ENDBRANCH  13  15
ENDBRANCH  12  13
ENDBRANCH   7  12
ENDBRANCH   3   6
ENDBRANCH   1   2
BRANCH   1  19
ATOM     19  C   UNL A   1      33.110  27.831  26.790  1.00  0.00     0.042 C 
BRANCH  19  20
ATOM     20  C   UNL A   1      34.057  28.860  26.174  1.00  0.00     0.118 C 
BRANCH  20  21
ATOM     21  N   UNL A   1      33.847  30.187  26.735  1.00  0.00    -0.352 N 
ATOM     22  C   UNL A   1      34.510  30.845  27.738  1.00  0.00     0.251 C 
ATOM     23  H   UNL A   1      33.109  30.695  26.327  1.00  0.00     0.163 HD
ATOM     24  O   UNL A   1      34.004  31.859  28.212  1.00  0.00    -0.269 OA
BRANCH  22  25
ATOM     25  C   UNL A   1      35.812  30.361  28.249  1.00  0.00     0.039 A 
ATOM     26  C   UNL A   1      36.972  30.725  27.559  1.00  0.00     0.014 A 
ATOM     27  C   UNL A   1      35.898  29.491  29.339  1.00  0.00     0.014 A 
ATOM     28  C   UNL A   1      38.214  30.240  27.976  1.00  0.00     0.010 A 
ATOM     29  C   UNL A   1      37.144  29.066  29.799  1.00  0.00     0.010 A 
ATOM     30  C   UNL A   1      38.313  29.418  29.111  1.00  0.00    -0.014 A 
BRANCH  30  31
ATOM     31  C   UNL A   1      39.635  28.926  29.575  1.00  0.00     0.031 A 
ATOM     32  C   UNL A   1      40.359  29.613  30.703  1.00  0.00     0.074 A 
ATOM     33  C   UNL A   1      40.208  27.884  28.942  1.00  0.00     0.049 A 
ATOM     34  N   UNL A   1      41.506  29.306  31.253  1.00  0.00    -0.248 NA
ATOM     35  C   UNL A   1      39.728  30.815  31.273  1.00  0.00     0.031 C 
ATOM     36  C   UNL A   1      39.650  27.193  27.777  1.00  0.00     0.029 A 
ATOM     37  N   UNL A   1      41.392  27.232  29.178  1.00  0.00    -0.354 N 
ATOM     38  C   UNL A   1      41.749  30.290  32.205  1.00  0.00     0.074 A 
ATOM     39  C   UNL A   1      40.648  31.225  32.134  1.00  0.00     0.031 C 
ATOM     40  C   UNL A   1      40.481  26.206  27.410  1.00  0.00     0.029 A 
ATOM     41  C   UNL A   1      41.638  26.203  28.299  1.00  0.00     0.049 A 
ATOM     42  H   UNL A   1      42.006  27.477  29.907  1.00  0.00     0.167 HD
ATOM     43  C   UNL A   1      42.777  30.389  33.083  1.00  0.00     0.034 A 
ATOM     44  C   UNL A   1      42.675  25.346  28.225  1.00  0.00     0.034 A 
ATOM     45  C   UNL A   1      43.846  29.431  33.180  1.00  0.00     0.049 A 
ATOM     46  C   UNL A   1      43.763  25.430  29.260  1.00  0.00     0.074 A 
ATOM     47  C   UNL A   1      44.888  29.390  34.089  1.00  0.00     0.029 A 
ATOM     48  N   UNL A   1      44.011  28.342  32.337  1.00  0.00    -0.354 N 
ATOM     49  N   UNL A   1      43.888  26.268  30.261  1.00  0.00    -0.248 NA
ATOM     50  C   UNL A   1      44.830  24.422  29.185  1.00  0.00     0.031 C 
ATOM     51  C   UNL A   1      45.693  28.285  33.786  1.00  0.00     0.029 A 
ATOM     52  C   UNL A   1      45.137  27.624  32.702  1.00  0.00     0.049 A 
ATOM     53  H   UNL A   1      43.414  28.113  31.588  1.00  0.00     0.167 HD
ATOM     54  C   UNL A   1      45.024  25.869  30.954  1.00  0.00     0.074 A 
ATOM     55  C   UNL A   1      45.534  24.695  30.275  1.00  0.00     0.031 C 
ATOM     56  C   UNL A   1      45.605  26.431  32.043  1.00  0.00     0.034 A 
BRANCH  43  57
ATOM     57  C   UNL A   1      42.762  31.544  34.052  1.00  0.00     0.023 A 
ATOM     58  C   UNL A   1      43.322  32.780  33.665  1.00  0.00     0.012 A 
ATOM     59  C   UNL A   1      42.153  31.430  35.317  1.00  0.00     0.148 A 
ATOM     60  C   UNL A   1      43.309  33.871  34.533  1.00  0.00     0.002 A 
ATOM     61  C   UNL A   1      42.105  32.536  36.160  1.00  0.00     0.091 A 
ATOM     62  F   UNL A   1      41.644  30.244  35.678  1.00  0.00    -0.205 F 
ATOM     63  C   UNL A   1      42.693  33.752  35.775  1.00  0.00     0.022 A 
BRANCH  61  64
ATOM     64  S   UNL A   1      41.263  32.510  37.748  1.00  0.00     0.127 S 
ATOM     65  O   UNL A   1      41.321  33.918  38.135  1.00  0.00    -0.237 OA
ATOM     66  O   UNL A   1      39.929  32.033  37.382  1.00  0.00    -0.237 OA
ATOM     67  O   UNL A   1      42.024  31.597  38.589  1.00  0.00    -0.744 OA
ENDBRANCH  61  64
ENDBRANCH  43  57
BRANCH  44  68
ATOM     68  C   UNL A   1      42.681  24.276  27.188  1.00  0.00     0.023 A 
ATOM     69  C   UNL A   1      43.401  24.475  25.994  1.00  0.00     0.012 A 
ATOM     70  C   UNL A   1      42.013  23.053  27.390  1.00  0.00     0.148 A 
ATOM     71  C   UNL A   1      43.429  23.491  25.006  1.00  0.00     0.002 A 
ATOM     72  C   UNL A   1      42.091  22.054  26.427  1.00  0.00     0.091 A 
ATOM     73  F   UNL A   1      41.324  22.886  28.528  1.00  0.00    -0.205 F 
ATOM     74  C   UNL A   1      42.783  22.277  25.226  1.00  0.00     0.022 A 
BRANCH  72  75
ATOM     75  S   UNL A   1      41.409  20.413  26.686  1.00  0.00     0.127 S 
ATOM     76  O   UNL A   1      42.098  19.990  27.901  1.00  0.00    -0.237 OA
ATOM     77  O   UNL A   1      39.983  20.698  26.851  1.00  0.00    -0.237 OA
ATOM     78  O   UNL A   1      41.730  19.662  25.478  1.00  0.00    -0.744 OA
ENDBRANCH  72  75
ENDBRANCH  44  68
BRANCH  56  79
ATOM     79  C   UNL A   1      46.844  25.767  32.585  1.00  0.00     0.023 A 
ATOM     80  C   UNL A   1      48.112  26.148  32.100  1.00  0.00     0.012 A 
ATOM     81  C   UNL A   1      46.757  24.798  33.604  1.00  0.00     0.148 A 
ATOM     82  C   UNL A   1      49.269  25.542  32.588  1.00  0.00     0.002 A 
ATOM     83  C   UNL A   1      47.919  24.235  34.121  1.00  0.00     0.091 A 
ATOM     84  F   UNL A   1      45.544  24.431  34.040  1.00  0.00    -0.205 F 
ATOM     85  C   UNL A   1      49.174  24.595  33.604  1.00  0.00     0.022 A 
BRANCH  83  86
ATOM     86  S   UNL A   1      47.886  23.079  35.495  1.00  0.00     0.127 S 
ATOM     87  O   UNL A   1      47.177  21.942  34.912  1.00  0.00    -0.237 OA
ATOM     88  O   UNL A   1      49.310  22.846  35.746  1.00  0.00    -0.237 OA
ATOM     89  O   UNL A   1      47.194  23.771  36.575  1.00  0.00    -0.744 OA
ENDBRANCH  83  86
ENDBRANCH  56  79
ENDBRANCH  30  31
ENDBRANCH  22  25
ENDBRANCH  20  21
ENDBRANCH  19  20
ENDBRANCH   1  19
TORSDOF 17
ENDMDL
