MODEL 1
REMARK VINA RESULT:     -13.9      0.000      0.000
REMARK SMILES O=C(NCCCNC(=O)[C@H]1[C@H]2CC[C@H](CC2)[C@@H]1C(=O)Nc1sc2c(c1C(=O)N1CCCCC1)CCCC2)c1ccc(-c2c3nc(c(-c4cccc(S(=O)(=O)[O-])c4F)c4ccc([nH]4)c(-c4cccc(S(=O)(=O)[O-])c4F)c4nc(c(-c5cccc(S(=O)(=O)[O-])c5F)c5ccc2[nH]5)C=C4)C=C3)cc1
REMARK SMILES IDX 5 1 4 2 3 3 1 4 2 5 38 7 39 8 100 9 40 10 99 11 41 12 42 13
REMARK SMILES IDX 43 14 93 15 44 16 98 17 92 18 94 19 45 20 97 21 91 22 90 23
REMARK SMILES IDX 46 25 78 26 58 27 77 28 59 29 62 30 76 31 95 32 60 33 61 34
REMARK SMILES IDX 75 36 96 37 63 38 47 39 48 40 56 41 49 42 51 43 57 44 50 45
REMARK SMILES IDX 52 46 53 47 54 48 55 49 79 50 80 51 88 52 81 53 83 54 89 55
REMARK SMILES IDX 82 56 84 57 85 58 86 59 87 60 64 61 65 62 73 63 66 64 68 65
REMARK SMILES IDX 74 66 67 67 69 68 70 69 71 70 72 71 6 72 7 73 8 74 9 76
REMARK SMILES IDX 10 77 11 78 17 79 12 80 16 81 14 82 13 83 15 84 18 85 19 86
REMARK SMILES IDX 20 87 21 89 22 90 25 91 23 92 24 93 37 94 34 95 36 96 35 97
REMARK SMILES IDX 26 98 27 99 28 100 29 101 33 102 30 103 32 104 31 105
REMARK H PARENT 3 6 94 24 62 35 7 75 20 88
REMARK Flexibility Score: inf
ROOT
ATOM      1  C   UNL A   1      37.633  19.505  25.018  1.00  0.00     0.042 C 
ENDROOT
BRANCH   1   2
ATOM      2  C   UNL A   1      38.851  20.362  25.327  1.00  0.00     0.118 C 
BRANCH   2   3
ATOM      3  N   UNL A   1      39.796  19.621  26.151  1.00  0.00    -0.352 N 
ATOM      4  O   UNL A   1      41.822  19.213  27.020  1.00  0.00    -0.269 OA
ATOM      5  C   UNL A   1      40.972  20.046  26.723  1.00  0.00     0.251 C 
ATOM      6  H   UNL A   1      39.559  18.682  26.324  1.00  0.00     0.163 HD
BRANCH   5   7
ATOM      7  C   UNL A   1      41.206  21.485  26.983  1.00  0.00     0.039 A 
ATOM      8  C   UNL A   1      41.772  21.910  28.188  1.00  0.00     0.014 A 
ATOM      9  C   UNL A   1      40.947  22.416  25.972  1.00  0.00     0.014 A 
ATOM     10  C   UNL A   1      41.976  23.263  28.429  1.00  0.00     0.010 A 
ATOM     11  C   UNL A   1      41.244  23.765  26.177  1.00  0.00     0.010 A 
ATOM     12  C   UNL A   1      41.753  24.200  27.411  1.00  0.00    -0.014 A 
BRANCH  12  13
ATOM     13  C   UNL A   1      42.177  25.607  27.604  1.00  0.00     0.031 A 
ATOM     14  C   UNL A   1      43.537  26.073  27.181  1.00  0.00     0.074 A 
ATOM     15  C   UNL A   1      41.328  26.450  28.227  1.00  0.00     0.049 A 
ATOM     16  N   UNL A   1      44.092  27.244  27.348  1.00  0.00    -0.248 NA
ATOM     17  C   UNL A   1      44.393  25.094  26.493  1.00  0.00     0.031 C 
ATOM     18  C   UNL A   1      39.999  26.085  28.725  1.00  0.00     0.029 A 
ATOM     19  N   UNL A   1      41.461  27.769  28.577  1.00  0.00    -0.354 N 
ATOM     20  C   UNL A   1      45.378  27.132  26.836  1.00  0.00     0.074 A 
ATOM     21  C   UNL A   1      45.521  25.776  26.348  1.00  0.00     0.031 C 
ATOM     22  C   UNL A   1      39.442  27.149  29.317  1.00  0.00     0.029 A 
ATOM     23  C   UNL A   1      40.395  28.251  29.299  1.00  0.00     0.049 A 
ATOM     24  H   UNL A   1      42.243  28.316  28.334  1.00  0.00     0.167 HD
ATOM     25  C   UNL A   1      46.346  28.077  26.773  1.00  0.00     0.034 A 
ATOM     26  C   UNL A   1      40.216  29.432  29.919  1.00  0.00     0.034 A 
ATOM     27  C   UNL A   1      46.176  29.430  27.236  1.00  0.00     0.049 A 
ATOM     28  C   UNL A   1      41.291  30.471  29.814  1.00  0.00     0.074 A 
ATOM     29  C   UNL A   1      47.063  30.488  27.145  1.00  0.00     0.029 A 
ATOM     30  N   UNL A   1      45.051  29.906  27.893  1.00  0.00    -0.354 N 
ATOM     31  N   UNL A   1      42.449  30.392  29.205  1.00  0.00    -0.248 NA
ATOM     32  C   UNL A   1      41.031  31.768  30.450  1.00  0.00     0.031 C 
ATOM     33  C   UNL A   1      46.482  31.597  27.770  1.00  0.00     0.029 A 
ATOM     34  C   UNL A   1      45.223  31.237  28.226  1.00  0.00     0.049 A 
ATOM     35  H   UNL A   1      44.246  29.373  28.092  1.00  0.00     0.167 HD
ATOM     36  C   UNL A   1      43.049  31.634  29.360  1.00  0.00     0.074 A 
ATOM     37  C   UNL A   1      42.116  32.454  30.110  1.00  0.00     0.031 C 
ATOM     38  C   UNL A   1      44.264  32.052  28.931  1.00  0.00     0.034 A 
BRANCH  25  39
ATOM     39  C   UNL A   1      47.667  27.686  26.164  1.00  0.00     0.023 A 
ATOM     40  C   UNL A   1      48.712  27.229  26.992  1.00  0.00     0.012 A 
ATOM     41  C   UNL A   1      47.864  27.736  24.770  1.00  0.00     0.148 A 
ATOM     42  C   UNL A   1      49.946  26.868  26.447  1.00  0.00     0.002 A 
ATOM     43  C   UNL A   1      49.083  27.334  24.231  1.00  0.00     0.091 A 
ATOM     44  F   UNL A   1      46.870  28.196  23.996  1.00  0.00    -0.205 F 
ATOM     45  C   UNL A   1      50.127  26.913  25.068  1.00  0.00     0.022 A 
BRANCH  43  46
ATOM     46  S   UNL A   1      49.376  27.290  22.458  1.00  0.00     0.127 S 
ATOM     47  O   UNL A   1      50.811  27.014  22.403  1.00  0.00    -0.237 OA
ATOM     48  O   UNL A   1      48.526  26.178  22.029  1.00  0.00    -0.237 OA
ATOM     49  O   UNL A   1      48.960  28.592  21.957  1.00  0.00    -0.744 OA
ENDBRANCH  43  46
ENDBRANCH  25  39
BRANCH  26  50
ATOM     50  C   UNL A   1      38.948  29.672  30.662  1.00  0.00     0.023 A 
ATOM     51  C   UNL A   1      38.786  29.137  31.953  1.00  0.00     0.012 A 
ATOM     52  C   UNL A   1      37.955  30.525  30.139  1.00  0.00     0.148 A 
ATOM     53  C   UNL A   1      37.653  29.440  32.709  1.00  0.00     0.002 A 
ATOM     54  C   UNL A   1      36.858  30.870  30.919  1.00  0.00     0.091 A 
ATOM     55  F   UNL A   1      38.128  31.018  28.905  1.00  0.00    -0.205 F 
ATOM     56  C   UNL A   1      36.698  30.317  32.199  1.00  0.00     0.022 A 
BRANCH  54  57
ATOM     57  S   UNL A   1      35.661  32.109  30.408  1.00  0.00     0.127 S 
ATOM     58  O   UNL A   1      36.512  33.278  30.203  1.00  0.00    -0.237 OA
ATOM     59  O   UNL A   1      35.122  31.517  29.183  1.00  0.00    -0.237 OA
ATOM     60  O   UNL A   1      34.703  32.207  31.500  1.00  0.00    -0.744 OA
ENDBRANCH  54  57
ENDBRANCH  26  50
BRANCH  38  61
ATOM     61  C   UNL A   1      44.656  33.474  29.223  1.00  0.00     0.023 A 
ATOM     62  C   UNL A   1      45.311  33.785  30.429  1.00  0.00     0.012 A 
ATOM     63  C   UNL A   1      44.472  34.478  28.252  1.00  0.00     0.148 A 
ATOM     64  C   UNL A   1      45.767  35.080  30.671  1.00  0.00     0.002 A 
ATOM     65  C   UNL A   1      44.969  35.754  28.480  1.00  0.00     0.091 A 
ATOM     66  F   UNL A   1      43.826  34.160  27.120  1.00  0.00    -0.205 F 
ATOM     67  C   UNL A   1      45.609  36.060  29.692  1.00  0.00     0.022 A 
BRANCH  65  68
ATOM     68  S   UNL A   1      44.900  37.052  27.240  1.00  0.00     0.127 S 
ATOM     69  O   UNL A   1      43.501  36.991  26.823  1.00  0.00    -0.237 OA
ATOM     70  O   UNL A   1      45.256  38.239  28.016  1.00  0.00    -0.237 OA
ATOM     71  O   UNL A   1      45.871  36.684  26.216  1.00  0.00    -0.744 OA
ENDBRANCH  65  68
ENDBRANCH  38  61
ENDBRANCH  12  13
ENDBRANCH   5   7
ENDBRANCH   2   3
ENDBRANCH   1   2
BRANCH   1  72
ATOM     72  C   UNL A   1      36.357  20.337  24.923  1.00  0.00     0.117 C 
BRANCH  72  73
ATOM     73  N   UNL A   1      36.607  21.576  24.233  1.00  0.00    -0.356 N 
ATOM     74  C   UNL A   1      35.796  22.530  23.738  1.00  0.00     0.224 C 
ATOM     75  H   UNL A   1      37.564  21.763  24.096  1.00  0.00     0.163 HD
ATOM     76  O   UNL A   1      36.395  23.419  23.113  1.00  0.00    -0.275 OA
BRANCH  74  77
ATOM     77  C   UNL A   1      34.278  22.663  23.955  1.00  0.00     0.094 C 
ATOM     78  C   UNL A   1      33.469  21.826  24.991  1.00  0.00     0.002 C 
ATOM     79  C   UNL A   1      33.808  24.126  23.924  1.00  0.00     0.094 C 
ATOM     80  C   UNL A   1      33.456  22.386  26.417  1.00  0.00     0.005 C 
ATOM     81  C   UNL A   1      31.968  21.914  24.580  1.00  0.00     0.005 C 
ATOM     82  C   UNL A   1      32.676  24.304  24.990  1.00  0.00     0.002 C 
ATOM     83  C   UNL A   1      33.189  23.890  26.383  1.00  0.00     0.005 C 
ATOM     84  C   UNL A   1      31.498  23.382  24.624  1.00  0.00     0.005 C 
BRANCH  79  85
ATOM     85  C   UNL A   1      33.367  24.857  22.611  1.00  0.00     0.229 C 
ATOM     86  O   UNL A   1      33.398  24.185  21.563  1.00  0.00    -0.274 OA
ATOM     87  N   UNL A   1      32.758  26.069  22.489  1.00  0.00    -0.317 N 
ATOM     88  H   UNL A   1      32.205  26.154  21.679  1.00  0.00     0.170 HD
BRANCH  87  89
ATOM     89  C   UNL A   1      32.765  27.197  23.275  1.00  0.00     0.108 A 
ATOM     90  S   UNL A   1      34.242  27.978  23.600  1.00  0.00    -0.122 S 
ATOM     91  C   UNL A   1      31.699  28.013  23.663  1.00  0.00     0.078 A 
ATOM     92  C   UNL A   1      33.528  28.658  24.983  1.00  0.00     0.011 A 
ATOM     93  C   UNL A   1      32.162  28.806  24.803  1.00  0.00    -0.019 A 
ATOM     94  C   UNL A   1      34.306  29.004  26.213  1.00  0.00     0.047 C 
ATOM     95  C   UNL A   1      31.352  29.540  25.832  1.00  0.00     0.037 C 
ATOM     96  C   UNL A   1      33.342  29.222  27.391  1.00  0.00     0.006 C 
ATOM     97  C   UNL A   1      32.193  30.137  26.975  1.00  0.00     0.005 C 
BRANCH  91  98
ATOM     98  C   UNL A   1      30.348  27.766  23.126  1.00  0.00     0.257 C 
ATOM     99  O   UNL A   1      29.926  26.612  22.999  1.00  0.00    -0.269 OA
ATOM    100  N   UNL A   1      29.520  28.838  22.799  1.00  0.00    -0.339 N 
ATOM    101  C   UNL A   1      28.088  28.620  22.936  1.00  0.00     0.120 C 
ATOM    102  C   UNL A   1      29.888  29.849  21.813  1.00  0.00     0.120 C 
ATOM    103  C   UNL A   1      27.401  29.914  23.344  1.00  0.00     0.022 C 
ATOM    104  C   UNL A   1      29.188  31.185  22.090  1.00  0.00     0.022 C 
ATOM    105  C   UNL A   1      27.687  31.021  22.331  1.00  0.00     0.004 C 
ENDBRANCH  91  98
ENDBRANCH  87  89
ENDBRANCH  79  85
ENDBRANCH  74  77
ENDBRANCH  72  73
ENDBRANCH   1  72
TORSDOF 16
ENDMDL
MODEL 2
REMARK VINA RESULT:     -13.9      1.713      2.247
REMARK SMILES O=C(NCCCNC(=O)[C@H]1[C@H]2CC[C@H](CC2)[C@@H]1C(=O)Nc1sc2c(c1C(=O)N1CCCCC1)CCCC2)c1ccc(-c2c3nc(c(-c4cccc(S(=O)(=O)[O-])c4F)c4ccc([nH]4)c(-c4cccc(S(=O)(=O)[O-])c4F)c4nc(c(-c5cccc(S(=O)(=O)[O-])c5F)c5ccc2[nH]5)C=C4)C=C3)cc1
REMARK SMILES IDX 5 1 4 2 3 3 1 4 2 5 38 7 39 8 100 9 40 10 99 11 41 12 42 13
REMARK SMILES IDX 43 14 93 15 44 16 98 17 92 18 94 19 45 20 97 21 91 22 90 23
REMARK SMILES IDX 46 25 78 26 58 27 77 28 59 29 62 30 76 31 95 32 60 33 61 34
REMARK SMILES IDX 75 36 96 37 63 38 47 39 48 40 56 41 49 42 51 43 57 44 50 45
REMARK SMILES IDX 52 46 53 47 54 48 55 49 79 50 80 51 88 52 81 53 83 54 89 55
REMARK SMILES IDX 82 56 84 57 85 58 86 59 87 60 64 61 65 62 73 63 66 64 68 65
REMARK SMILES IDX 74 66 67 67 69 68 70 69 71 70 72 71 6 72 7 73 8 74 9 76
REMARK SMILES IDX 10 77 11 78 17 79 12 80 16 81 14 82 13 83 15 84 18 85 19 86
REMARK SMILES IDX 20 87 21 89 22 90 25 91 23 92 24 93 37 94 34 95 36 96 35 97
REMARK SMILES IDX 26 98 27 99 28 100 29 101 33 102 30 103 32 104 31 105
REMARK H PARENT 3 6 94 24 62 35 7 75 20 88
REMARK Flexibility Score: inf
ROOT
ATOM      1  C   UNL A   1      38.016  19.880  24.934  1.00  0.00     0.042 C 
ENDROOT
BRANCH   1   2
ATOM      2  C   UNL A   1      39.140  20.446  25.790  1.00  0.00     0.118 C 
BRANCH   2   3
ATOM      3  N   UNL A   1      40.149  19.426  26.040  1.00  0.00    -0.352 N 
ATOM      4  O   UNL A   1      42.197  18.532  25.856  1.00  0.00    -0.269 OA
ATOM      5  C   UNL A   1      41.519  19.539  26.036  1.00  0.00     0.251 C 
ATOM      6  H   UNL A   1      39.800  18.528  26.240  1.00  0.00     0.163 HD
BRANCH   5   7
ATOM      7  C   UNL A   1      42.168  20.852  26.253  1.00  0.00     0.039 A 
ATOM      8  C   UNL A   1      42.454  21.695  25.175  1.00  0.00     0.014 A 
ATOM      9  C   UNL A   1      42.405  21.291  27.559  1.00  0.00     0.014 A 
ATOM     10  C   UNL A   1      43.075  22.919  25.388  1.00  0.00     0.010 A 
ATOM     11  C   UNL A   1      42.939  22.563  27.778  1.00  0.00     0.010 A 
ATOM     12  C   UNL A   1      43.286  23.384  26.693  1.00  0.00    -0.014 A 
BRANCH  12  13
ATOM     13  C   UNL A   1      43.747  24.776  26.911  1.00  0.00     0.031 A 
ATOM     14  C   UNL A   1      45.183  25.156  26.709  1.00  0.00     0.074 A 
ATOM     15  C   UNL A   1      42.854  25.683  27.355  1.00  0.00     0.049 A 
ATOM     16  N   UNL A   1      45.766  26.305  26.930  1.00  0.00    -0.248 NA
ATOM     17  C   UNL A   1      46.087  24.110  26.207  1.00  0.00     0.031 C 
ATOM     18  C   UNL A   1      41.442  25.404  27.632  1.00  0.00     0.029 A 
ATOM     19  N   UNL A   1      42.999  27.007  27.680  1.00  0.00    -0.354 N 
ATOM     20  C   UNL A   1      47.111  26.110  26.647  1.00  0.00     0.074 A 
ATOM     21  C   UNL A   1      47.259  24.730  26.233  1.00  0.00     0.031 C 
ATOM     22  C   UNL A   1      40.854  26.517  28.088  1.00  0.00     0.029 A 
ATOM     23  C   UNL A   1      41.856  27.569  28.197  1.00  0.00     0.049 A 
ATOM     24  H   UNL A   1      43.839  27.506  27.556  1.00  0.00     0.167 HD
ATOM     25  C   UNL A   1      48.126  27.003  26.718  1.00  0.00     0.034 A 
ATOM     26  C   UNL A   1      41.640  28.782  28.740  1.00  0.00     0.034 A 
ATOM     27  C   UNL A   1      47.956  28.380  27.103  1.00  0.00     0.049 A 
ATOM     28  C   UNL A   1      42.774  29.762  28.785  1.00  0.00     0.074 A 
ATOM     29  C   UNL A   1      48.902  29.389  27.130  1.00  0.00     0.029 A 
ATOM     30  N   UNL A   1      46.764  28.937  27.545  1.00  0.00    -0.354 N 
ATOM     31  N   UNL A   1      44.011  29.602  28.383  1.00  0.00    -0.248 NA
ATOM     32  C   UNL A   1      42.483  31.095  29.326  1.00  0.00     0.031 C 
ATOM     33  C   UNL A   1      48.287  30.550  27.613  1.00  0.00     0.029 A 
ATOM     34  C   UNL A   1      46.952  30.271  27.861  1.00  0.00     0.049 A 
ATOM     35  H   UNL A   1      45.910  28.452  27.623  1.00  0.00     0.167 HD
ATOM     36  C   UNL A   1      44.643  30.818  28.598  1.00  0.00     0.074 A 
ATOM     37  C   UNL A   1      43.645  31.713  29.154  1.00  0.00     0.031 C 
ATOM     38  C   UNL A   1      45.934  31.159  28.367  1.00  0.00     0.034 A 
BRANCH  25  39
ATOM     39  C   UNL A   1      49.507  26.524  26.354  1.00  0.00     0.023 A 
ATOM     40  C   UNL A   1      50.176  25.610  27.193  1.00  0.00     0.012 A 
ATOM     41  C   UNL A   1      50.130  26.948  25.164  1.00  0.00     0.148 A 
ATOM     42  C   UNL A   1      51.458  25.159  26.877  1.00  0.00     0.002 A 
ATOM     43  C   UNL A   1      51.391  26.461  24.833  1.00  0.00     0.091 A 
ATOM     44  F   UNL A   1      49.493  27.836  24.386  1.00  0.00    -0.205 F 
ATOM     45  C   UNL A   1      52.061  25.578  25.694  1.00  0.00     0.022 A 
BRANCH  43  46
ATOM     46  S   UNL A   1      52.208  26.891  23.292  1.00  0.00     0.127 S 
ATOM     47  O   UNL A   1      51.116  26.749  22.329  1.00  0.00    -0.237 OA
ATOM     48  O   UNL A   1      52.629  28.272  23.535  1.00  0.00    -0.237 OA
ATOM     49  O   UNL A   1      53.305  25.945  23.150  1.00  0.00    -0.744 OA
ENDBRANCH  43  46
ENDBRANCH  25  39
BRANCH  26  50
ATOM     50  C   UNL A   1      40.281  29.114  29.250  1.00  0.00     0.023 A 
ATOM     51  C   UNL A   1      39.272  29.492  28.345  1.00  0.00     0.012 A 
ATOM     52  C   UNL A   1      39.959  28.941  30.611  1.00  0.00     0.148 A 
ATOM     53  C   UNL A   1      37.966  29.700  28.789  1.00  0.00     0.002 A 
ATOM     54  C   UNL A   1      38.645  29.093  31.036  1.00  0.00     0.091 A 
ATOM     55  F   UNL A   1      40.939  28.586  31.454  1.00  0.00    -0.205 F 
ATOM     56  C   UNL A   1      37.649  29.486  30.129  1.00  0.00     0.022 A 
BRANCH  54  57
ATOM     57  S   UNL A   1      38.117  28.688  32.705  1.00  0.00     0.127 S 
ATOM     58  O   UNL A   1      39.040  29.482  33.510  1.00  0.00    -0.237 OA
ATOM     59  O   UNL A   1      36.733  29.164  32.704  1.00  0.00    -0.237 OA
ATOM     60  O   UNL A   1      38.255  27.243  32.824  1.00  0.00    -0.744 OA
ENDBRANCH  54  57
ENDBRANCH  26  50
BRANCH  38  61
ATOM     61  C   UNL A   1      46.350  32.570  28.676  1.00  0.00     0.023 A 
ATOM     62  C   UNL A   1      46.754  32.911  29.981  1.00  0.00     0.012 A 
ATOM     63  C   UNL A   1      46.442  33.528  27.646  1.00  0.00     0.148 A 
ATOM     64  C   UNL A   1      47.234  34.190  30.260  1.00  0.00     0.002 A 
ATOM     65  C   UNL A   1      46.965  34.785  27.922  1.00  0.00     0.091 A 
ATOM     66  F   UNL A   1      46.032  33.184  26.417  1.00  0.00    -0.205 F 
ATOM     67  C   UNL A   1      47.352  35.121  29.229  1.00  0.00     0.022 A 
BRANCH  65  68
ATOM     68  S   UNL A   1      47.246  36.014  26.643  1.00  0.00     0.127 S 
ATOM     69  O   UNL A   1      47.896  37.084  27.395  1.00  0.00    -0.237 OA
ATOM     70  O   UNL A   1      48.121  35.299  25.715  1.00  0.00    -0.237 OA
ATOM     71  O   UNL A   1      45.932  36.343  26.104  1.00  0.00    -0.744 OA
ENDBRANCH  65  68
ENDBRANCH  38  61
ENDBRANCH  12  13
ENDBRANCH   5   7
ENDBRANCH   2   3
ENDBRANCH   1   2
BRANCH   1  72
ATOM     72  C   UNL A   1      36.753  20.733  25.012  1.00  0.00     0.117 C 
BRANCH  72  73
ATOM     73  N   UNL A   1      36.869  21.893  24.168  1.00  0.00    -0.356 N 
ATOM     74  C   UNL A   1      35.960  22.682  23.563  1.00  0.00     0.224 C 
ATOM     75  H   UNL A   1      37.799  22.165  23.999  1.00  0.00     0.163 HD
ATOM     76  O   UNL A   1      36.460  23.544  22.824  1.00  0.00    -0.275 OA
BRANCH  74  77
ATOM     77  C   UNL A   1      34.435  22.674  23.776  1.00  0.00     0.094 C 
ATOM     78  C   UNL A   1      33.698  21.721  24.764  1.00  0.00     0.002 C 
ATOM     79  C   UNL A   1      33.841  24.091  23.813  1.00  0.00     0.094 C 
ATOM     80  C   UNL A   1      33.633  22.206  26.215  1.00  0.00     0.005 C 
ATOM     81  C   UNL A   1      32.195  21.701  24.347  1.00  0.00     0.005 C 
ATOM     82  C   UNL A   1      32.696  24.120  24.878  1.00  0.00     0.002 C 
ATOM     83  C   UNL A   1      33.239  23.683  26.253  1.00  0.00     0.005 C 
ATOM     84  C   UNL A   1      31.602  23.120  24.460  1.00  0.00     0.005 C 
BRANCH  79  85
ATOM     85  C   UNL A   1      33.343  24.847  22.534  1.00  0.00     0.229 C 
ATOM     86  O   UNL A   1      33.339  24.197  21.472  1.00  0.00    -0.274 OA
ATOM     87  N   UNL A   1      32.720  26.054  22.462  1.00  0.00    -0.317 N 
ATOM     88  H   UNL A   1      32.135  26.151  21.676  1.00  0.00     0.170 HD
BRANCH  87  89
ATOM     89  C   UNL A   1      32.747  27.165  23.272  1.00  0.00     0.108 A 
ATOM     90  S   UNL A   1      34.229  27.955  23.555  1.00  0.00    -0.122 S 
ATOM     91  C   UNL A   1      31.690  27.962  23.720  1.00  0.00     0.078 A 
ATOM     92  C   UNL A   1      33.565  28.597  24.980  1.00  0.00     0.011 A 
ATOM     93  C   UNL A   1      32.191  28.735  24.858  1.00  0.00    -0.019 A 
ATOM     94  C   UNL A   1      34.388  28.925  26.185  1.00  0.00     0.047 C 
ATOM     95  C   UNL A   1      31.417  29.438  25.934  1.00  0.00     0.037 C 
ATOM     96  C   UNL A   1      33.471  29.108  27.404  1.00  0.00     0.006 C 
ATOM     97  C   UNL A   1      32.297  30.019  27.055  1.00  0.00     0.005 C 
BRANCH  91  98
ATOM     98  C   UNL A   1      30.321  27.713  23.233  1.00  0.00     0.257 C 
ATOM     99  O   UNL A   1      29.871  26.563  23.191  1.00  0.00    -0.269 OA
ATOM    100  N   UNL A   1      29.510  28.781  22.855  1.00  0.00    -0.339 N 
ATOM    101  C   UNL A   1      28.076  28.605  23.040  1.00  0.00     0.120 C 
ATOM    102  C   UNL A   1      29.875  29.716  21.797  1.00  0.00     0.120 C 
ATOM    103  C   UNL A   1      27.429  29.940  23.378  1.00  0.00     0.022 C 
ATOM    104  C   UNL A   1      29.211  31.084  22.002  1.00  0.00     0.022 C 
ATOM    105  C   UNL A   1      27.714  30.971  22.288  1.00  0.00     0.004 C 
ENDBRANCH  91  98
ENDBRANCH  87  89
ENDBRANCH  79  85
ENDBRANCH  74  77
ENDBRANCH  72  73
ENDBRANCH   1  72
TORSDOF 16
ENDMDL
MODEL 3
REMARK VINA RESULT:     -13.8      2.027      7.468
REMARK SMILES O=C(NCCCNC(=O)[C@H]1[C@H]2CC[C@H](CC2)[C@@H]1C(=O)Nc1sc2c(c1C(=O)N1CCCCC1)CCCC2)c1ccc(-c2c3nc(c(-c4cccc(S(=O)(=O)[O-])c4F)c4ccc([nH]4)c(-c4cccc(S(=O)(=O)[O-])c4F)c4nc(c(-c5cccc(S(=O)(=O)[O-])c5F)c5ccc2[nH]5)C=C4)C=C3)cc1
REMARK SMILES IDX 5 1 4 2 3 3 1 4 2 5 38 7 39 8 100 9 40 10 99 11 41 12 42 13
REMARK SMILES IDX 43 14 93 15 44 16 98 17 92 18 94 19 45 20 97 21 91 22 90 23
REMARK SMILES IDX 46 25 78 26 58 27 77 28 59 29 62 30 76 31 95 32 60 33 61 34
REMARK SMILES IDX 75 36 96 37 63 38 47 39 48 40 56 41 49 42 51 43 57 44 50 45
REMARK SMILES IDX 52 46 53 47 54 48 55 49 79 50 80 51 88 52 81 53 83 54 89 55
REMARK SMILES IDX 82 56 84 57 85 58 86 59 87 60 64 61 65 62 73 63 66 64 68 65
REMARK SMILES IDX 74 66 67 67 69 68 70 69 71 70 72 71 6 72 7 73 8 74 9 76
REMARK SMILES IDX 10 77 11 78 17 79 12 80 16 81 14 82 13 83 15 84 18 85 19 86
REMARK SMILES IDX 20 87 21 89 22 90 25 91 23 92 24 93 37 94 34 95 36 96 35 97
REMARK SMILES IDX 26 98 27 99 28 100 29 101 33 102 30 103 32 104 31 105
REMARK H PARENT 3 6 94 24 62 35 7 75 20 88
REMARK Flexibility Score: inf
ROOT
ATOM      1  C   UNL A   1      37.994  19.899  24.994  1.00  0.00     0.042 C 
ENDROOT
BRANCH   1   2
ATOM      2  C   UNL A   1      39.129  20.437  25.852  1.00  0.00     0.118 C 
BRANCH   2   3
ATOM      3  N   UNL A   1      40.134  19.405  26.067  1.00  0.00    -0.352 N 
ATOM      4  O   UNL A   1      42.191  18.530  25.892  1.00  0.00    -0.269 OA
ATOM      5  C   UNL A   1      41.503  19.521  26.116  1.00  0.00     0.251 C 
ATOM      6  H   UNL A   1      39.783  18.495  26.195  1.00  0.00     0.163 HD
BRANCH   5   7
ATOM      7  C   UNL A   1      42.138  20.818  26.442  1.00  0.00     0.039 A 
ATOM      8  C   UNL A   1      42.477  21.722  25.431  1.00  0.00     0.014 A 
ATOM      9  C   UNL A   1      42.309  21.180  27.782  1.00  0.00     0.014 A 
ATOM     10  C   UNL A   1      43.084  22.931  25.746  1.00  0.00     0.010 A 
ATOM     11  C   UNL A   1      42.829  22.436  28.101  1.00  0.00     0.010 A 
ATOM     12  C   UNL A   1      43.228  23.319  27.085  1.00  0.00    -0.014 A 
BRANCH  12  13
ATOM     13  C   UNL A   1      43.676  24.695  27.406  1.00  0.00     0.031 A 
ATOM     14  C   UNL A   1      42.709  25.730  27.895  1.00  0.00     0.074 A 
ATOM     15  C   UNL A   1      44.969  25.013  27.191  1.00  0.00     0.049 A 
ATOM     16  N   UNL A   1      42.919  26.996  28.146  1.00  0.00    -0.248 NA
ATOM     17  C   UNL A   1      41.322  25.295  28.120  1.00  0.00     0.031 C 
ATOM     18  C   UNL A   1      45.982  24.092  26.669  1.00  0.00     0.029 A 
ATOM     19  N   UNL A   1      45.646  26.194  27.350  1.00  0.00    -0.354 N 
ATOM     20  C   UNL A   1      41.686  27.522  28.506  1.00  0.00     0.074 A 
ATOM     21  C   UNL A   1      40.730  26.436  28.445  1.00  0.00     0.031 C 
ATOM     22  C   UNL A   1      47.147  24.742  26.547  1.00  0.00     0.029 A 
ATOM     23  C   UNL A   1      46.950  26.136  26.920  1.00  0.00     0.049 A 
ATOM     24  H   UNL A   1      45.238  27.003  27.735  1.00  0.00     0.167 HD
ATOM     25  C   UNL A   1      41.383  28.793  28.862  1.00  0.00     0.034 A 
ATOM     26  C   UNL A   1      47.879  27.103  26.796  1.00  0.00     0.034 A 
ATOM     27  C   UNL A   1      42.353  29.854  28.946  1.00  0.00     0.049 A 
ATOM     28  C   UNL A   1      47.527  28.497  27.220  1.00  0.00     0.074 A 
ATOM     29  C   UNL A   1      42.167  31.157  29.374  1.00  0.00     0.029 A 
ATOM     30  N   UNL A   1      43.685  29.739  28.578  1.00  0.00    -0.354 N 
ATOM     31  N   UNL A   1      46.389  28.948  27.690  1.00  0.00    -0.248 NA
ATOM     32  C   UNL A   1      48.585  29.510  27.128  1.00  0.00     0.031 C 
ATOM     33  C   UNL A   1      43.384  31.836  29.241  1.00  0.00     0.029 A 
ATOM     34  C   UNL A   1      44.333  30.949  28.755  1.00  0.00     0.049 A 
ATOM     35  H   UNL A   1      44.108  28.916  28.240  1.00  0.00     0.167 HD
ATOM     36  C   UNL A   1      46.597  30.290  27.974  1.00  0.00     0.074 A 
ATOM     37  C   UNL A   1      47.979  30.576  27.637  1.00  0.00     0.031 C 
ATOM     38  C   UNL A   1      45.722  31.203  28.460  1.00  0.00     0.034 A 
BRANCH  25  39
ATOM     39  C   UNL A   1      39.949  29.100  29.206  1.00  0.00     0.023 A 
ATOM     40  C   UNL A   1      39.013  29.323  28.176  1.00  0.00     0.012 A 
ATOM     41  C   UNL A   1      39.518  29.134  30.547  1.00  0.00     0.148 A 
ATOM     42  C   UNL A   1      37.682  29.616  28.474  1.00  0.00     0.002 A 
ATOM     43  C   UNL A   1      38.180  29.384  30.835  1.00  0.00     0.091 A 
ATOM     44  F   UNL A   1      40.423  28.944  31.518  1.00  0.00    -0.205 F 
ATOM     45  C   UNL A   1      37.264  29.638  29.802  1.00  0.00     0.022 A 
BRANCH  43  46
ATOM     46  S   UNL A   1      37.542  29.356  32.515  1.00  0.00     0.127 S 
ATOM     47  O   UNL A   1      37.675  27.941  32.858  1.00  0.00    -0.237 OA
ATOM     48  O   UNL A   1      38.472  30.243  33.217  1.00  0.00    -0.237 OA
ATOM     49  O   UNL A   1      36.180  29.862  32.428  1.00  0.00    -0.744 OA
ENDBRANCH  43  46
ENDBRANCH  25  39
BRANCH  26  50
ATOM     50  C   UNL A   1      49.225  26.748  26.268  1.00  0.00     0.023 A 
ATOM     51  C   UNL A   1      49.445  26.731  24.879  1.00  0.00     0.012 A 
ATOM     52  C   UNL A   1      50.312  26.543  27.142  1.00  0.00     0.148 A 
ATOM     53  C   UNL A   1      50.724  26.508  24.367  1.00  0.00     0.002 A 
ATOM     54  C   UNL A   1      51.592  26.380  26.628  1.00  0.00     0.091 A 
ATOM     55  F   UNL A   1      50.076  26.558  28.461  1.00  0.00    -0.205 F 
ATOM     56  C   UNL A   1      51.798  26.348  25.240  1.00  0.00     0.022 A 
BRANCH  54  57
ATOM     57  S   UNL A   1      53.053  26.324  27.673  1.00  0.00     0.127 S 
ATOM     58  O   UNL A   1      53.856  25.301  27.008  1.00  0.00    -0.237 OA
ATOM     59  O   UNL A   1      53.565  27.689  27.545  1.00  0.00    -0.237 OA
ATOM     60  O   UNL A   1      52.573  25.984  29.005  1.00  0.00    -0.744 OA
ENDBRANCH  54  57
ENDBRANCH  26  50
BRANCH  38  61
ATOM     61  C   UNL A   1      46.228  32.599  28.696  1.00  0.00     0.023 A 
ATOM     62  C   UNL A   1      46.746  32.951  29.957  1.00  0.00     0.012 A 
ATOM     63  C   UNL A   1      46.291  33.523  27.635  1.00  0.00     0.148 A 
ATOM     64  C   UNL A   1      47.308  34.210  30.163  1.00  0.00     0.002 A 
ATOM     65  C   UNL A   1      46.894  34.758  27.834  1.00  0.00     0.091 A 
ATOM     66  F   UNL A   1      45.773  33.169  26.449  1.00  0.00    -0.205 F 
ATOM     67  C   UNL A   1      47.394  35.107  29.099  1.00  0.00     0.022 A 
BRANCH  65  68
ATOM     68  S   UNL A   1      47.139  35.938  26.502  1.00  0.00     0.127 S 
ATOM     69  O   UNL A   1      47.474  35.059  25.384  1.00  0.00    -0.237 OA
ATOM     70  O   UNL A   1      45.826  36.574  26.408  1.00  0.00    -0.237 OA
ATOM     71  O   UNL A   1      48.211  36.823  26.940  1.00  0.00    -0.744 OA
ENDBRANCH  65  68
ENDBRANCH  38  61
ENDBRANCH  12  13
ENDBRANCH   5   7
ENDBRANCH   2   3
ENDBRANCH   1   2
BRANCH   1  72
ATOM     72  C   UNL A   1      36.748  20.778  25.075  1.00  0.00     0.117 C 
BRANCH  72  73
ATOM     73  N   UNL A   1      36.857  21.898  24.177  1.00  0.00    -0.356 N 
ATOM     74  C   UNL A   1      35.943  22.645  23.528  1.00  0.00     0.224 C 
ATOM     75  H   UNL A   1      37.785  22.175  24.003  1.00  0.00     0.163 HD
ATOM     76  O   UNL A   1      36.438  23.477  22.753  1.00  0.00    -0.275 OA
BRANCH  74  77
ATOM     77  C   UNL A   1      34.416  22.626  23.728  1.00  0.00     0.094 C 
ATOM     78  C   UNL A   1      33.677  21.660  24.701  1.00  0.00     0.002 C 
ATOM     79  C   UNL A   1      33.815  24.040  23.774  1.00  0.00     0.094 C 
ATOM     80  C   UNL A   1      33.597  22.130  26.156  1.00  0.00     0.005 C 
ATOM     81  C   UNL A   1      32.178  21.635  24.271  1.00  0.00     0.005 C 
ATOM     82  C   UNL A   1      32.661  24.051  24.830  1.00  0.00     0.002 C 
ATOM     83  C   UNL A   1      33.194  23.604  26.205  1.00  0.00     0.005 C 
ATOM     84  C   UNL A   1      31.576  23.049  24.393  1.00  0.00     0.005 C 
BRANCH  79  85
ATOM     85  C   UNL A   1      33.323  24.804  22.498  1.00  0.00     0.229 C 
ATOM     86  O   UNL A   1      33.316  24.160  21.432  1.00  0.00    -0.274 OA
ATOM     87  N   UNL A   1      32.706  26.016  22.431  1.00  0.00    -0.317 N 
ATOM     88  H   UNL A   1      32.123  26.120  21.645  1.00  0.00     0.170 HD
BRANCH  87  89
ATOM     89  C   UNL A   1      32.739  27.122  23.247  1.00  0.00     0.108 A 
ATOM     90  S   UNL A   1      34.226  27.894  23.547  1.00  0.00    -0.122 S 
ATOM     91  C   UNL A   1      31.687  27.928  23.689  1.00  0.00     0.078 A 
ATOM     92  C   UNL A   1      33.557  28.537  24.969  1.00  0.00     0.011 A 
ATOM     93  C   UNL A   1      32.186  28.690  24.835  1.00  0.00    -0.019 A 
ATOM     94  C   UNL A   1      34.373  28.850  26.183  1.00  0.00     0.047 C 
ATOM     95  C   UNL A   1      31.410  29.397  25.909  1.00  0.00     0.037 C 
ATOM     96  C   UNL A   1      33.446  29.036  27.395  1.00  0.00     0.006 C 
ATOM     97  C   UNL A   1      32.286  29.963  27.040  1.00  0.00     0.005 C 
BRANCH  91  98
ATOM     98  C   UNL A   1      30.319  27.697  23.188  1.00  0.00     0.257 C 
ATOM     99  O   UNL A   1      29.871  26.550  23.101  1.00  0.00    -0.269 OA
ATOM    100  N   UNL A   1      29.508  28.778  22.850  1.00  0.00    -0.339 N 
ATOM    101  C   UNL A   1      28.074  28.594  23.024  1.00  0.00     0.120 C 
ATOM    102  C   UNL A   1      29.875  29.755  21.831  1.00  0.00     0.120 C 
ATOM    103  C   UNL A   1      27.424  29.914  23.412  1.00  0.00     0.022 C 
ATOM    104  C   UNL A   1      29.209  31.112  22.087  1.00  0.00     0.022 C 
ATOM    105  C   UNL A   1      27.711  30.987  22.364  1.00  0.00     0.004 C 
ENDBRANCH  91  98
ENDBRANCH  87  89
ENDBRANCH  79  85
ENDBRANCH  74  77
ENDBRANCH  72  73
ENDBRANCH   1  72
TORSDOF 16
ENDMDL
