MODEL 1
REMARK VINA RESULT:     -11.0      0.000      0.000
REMARK SMILES C[C@@H](C(=O)NCCCNC(=O)c1ccc(-c2c3nc(c(-c4cccc(S(=O)(=O)[O-])c4F)c4ccc([nH]4)c(-c4cccc(S(=O)(=O)[O-])c4F)c4nc(c(-c5cccc(S(=O)(=O)[O-])c5F)c5ccc2[nH]5)C=C4)C=C3)cc1)c1cccn(C(F)F)c1=O
REMARK SMILES IDX 7 1 6 2 5 3 3 4 4 5 2 7 1 8 75 9 76 10 83 11 77 12 79 13
REMARK SMILES IDX 84 14 78 15 80 16 81 17 82 18 8 19 9 20 10 21 11 23 12 24
REMARK SMILES IDX 13 25 74 26 14 27 73 28 15 29 16 30 17 31 67 32 18 33 72 34
REMARK SMILES IDX 66 35 68 36 19 37 71 38 65 39 64 40 20 42 52 43 32 44 51 45
REMARK SMILES IDX 33 46 36 47 50 48 69 49 34 50 35 51 49 53 70 54 37 55 21 56
REMARK SMILES IDX 22 57 30 58 23 59 25 60 31 61 24 62 26 63 27 64 28 65 29 66
REMARK SMILES IDX 53 67 54 68 62 69 55 70 57 71 63 72 56 73 58 74 59 75 60 76
REMARK SMILES IDX 61 77 38 78 39 79 47 80 40 81 42 82 48 83 41 84 43 85 44 86
REMARK SMILES IDX 45 87 46 88
REMARK H PARENT 5 6 9 22 68 41 36 52
REMARK Flexibility Score: inf
ROOT
ATOM      1  C   UNL A   1      34.786  34.725  28.021  1.00  0.00     0.042 C 
ENDROOT
BRANCH   1   2
ATOM      2  C   UNL A   1      33.511  34.975  28.819  1.00  0.00     0.117 C 
BRANCH   2   3
ATOM      3  N   UNL A   1      33.574  36.221  29.561  1.00  0.00    -0.356 N 
ATOM      4  C   UNL A   1      33.176  36.515  30.833  1.00  0.00     0.227 C 
ATOM      5  O   UNL A   1      33.360  37.673  31.217  1.00  0.00    -0.274 OA
ATOM      6  H   UNL A   1      33.968  36.976  29.065  1.00  0.00     0.163 HD
BRANCH   4   7
ATOM      7  C   UNL A   1      32.634  35.401  31.741  1.00  0.00     0.111 C 
ATOM      8  C   UNL A   1      31.436  35.835  32.591  1.00  0.00     0.023 C 
BRANCH   7   9
ATOM      9  C   UNL A   1      33.779  34.833  32.558  1.00  0.00     0.030 A 
ATOM     10  C   UNL A   1      34.261  35.448  33.655  1.00  0.00     0.012 A 
ATOM     11  C   UNL A   1      34.389  33.518  32.148  1.00  0.00     0.258 A 
ATOM     12  C   UNL A   1      35.339  34.884  34.425  1.00  0.00     0.019 A 
ATOM     13  N   UNL A   1      35.460  33.077  32.908  1.00  0.00    -0.258 N 
ATOM     14  O   UNL A   1      33.971  32.907  31.168  1.00  0.00    -0.269 OA
ATOM     15  C   UNL A   1      35.908  33.741  34.031  1.00  0.00     0.095 A 
BRANCH  13  16
ATOM     16  C   UNL A   1      36.121  31.870  32.484  1.00  0.00     0.451 C 
ATOM     17  F   UNL A   1      36.968  32.163  31.458  1.00  0.00    -0.185 F 
ATOM     18  F   UNL A   1      36.907  31.399  33.491  1.00  0.00    -0.185 F 
ENDBRANCH  13  16
ENDBRANCH   7   9
ENDBRANCH   4   7
ENDBRANCH   2   3
ENDBRANCH   1   2
BRANCH   1  19
ATOM     19  C   UNL A   1      35.356  33.317  28.189  1.00  0.00     0.118 C 
BRANCH  19  20
ATOM     20  N   UNL A   1      34.439  32.284  27.724  1.00  0.00    -0.352 N 
ATOM     21  C   UNL A   1      34.633  30.933  27.575  1.00  0.00     0.251 C 
ATOM     22  H   UNL A   1      33.541  32.605  27.478  1.00  0.00     0.163 HD
ATOM     23  O   UNL A   1      33.785  30.267  26.984  1.00  0.00    -0.269 OA
BRANCH  21  24
ATOM     24  C   UNL A   1      35.850  30.281  28.107  1.00  0.00     0.039 A 
ATOM     25  C   UNL A   1      36.985  30.209  27.293  1.00  0.00     0.014 A 
ATOM     26  C   UNL A   1      35.868  29.711  29.381  1.00  0.00     0.014 A 
ATOM     27  C   UNL A   1      38.153  29.618  27.782  1.00  0.00     0.010 A 
ATOM     28  C   UNL A   1      37.054  29.188  29.893  1.00  0.00     0.010 A 
ATOM     29  C   UNL A   1      38.208  29.130  29.097  1.00  0.00    -0.014 A 
BRANCH  29  30
ATOM     30  C   UNL A   1      39.462  28.569  29.662  1.00  0.00     0.031 A 
ATOM     31  C   UNL A   1      40.109  29.205  30.863  1.00  0.00     0.074 A 
ATOM     32  C   UNL A   1      40.070  27.541  29.036  1.00  0.00     0.049 A 
ATOM     33  N   UNL A   1      41.234  28.895  31.455  1.00  0.00    -0.248 NA
ATOM     34  C   UNL A   1      39.414  30.356  31.464  1.00  0.00     0.031 C 
ATOM     35  C   UNL A   1      39.585  26.888  27.819  1.00  0.00     0.029 A 
ATOM     36  N   UNL A   1      41.241  26.884  29.321  1.00  0.00    -0.354 N 
ATOM     37  C   UNL A   1      41.402  29.831  32.468  1.00  0.00     0.074 A 
ATOM     38  C   UNL A   1      40.278  30.740  32.393  1.00  0.00     0.031 C 
ATOM     39  C   UNL A   1      40.451  25.926  27.461  1.00  0.00     0.029 A 
ATOM     40  C   UNL A   1      41.565  25.911  28.404  1.00  0.00     0.049 A 
ATOM     41  H   UNL A   1      41.796  27.090  30.108  1.00  0.00     0.167 HD
ATOM     42  C   UNL A   1      42.385  29.912  33.396  1.00  0.00     0.034 A 
ATOM     43  C   UNL A   1      42.642  25.106  28.324  1.00  0.00     0.034 A 
ATOM     44  C   UNL A   1      43.478  28.981  33.496  1.00  0.00     0.049 A 
ATOM     45  C   UNL A   1      43.699  25.189  29.391  1.00  0.00     0.074 A 
ATOM     46  C   UNL A   1      44.473  28.923  34.456  1.00  0.00     0.029 A 
ATOM     47  N   UNL A   1      43.725  27.952  32.601  1.00  0.00    -0.354 N 
ATOM     48  N   UNL A   1      43.755  25.976  30.439  1.00  0.00    -0.248 NA
ATOM     49  C   UNL A   1      44.825  24.249  29.286  1.00  0.00     0.031 C 
ATOM     50  C   UNL A   1      45.335  27.870  34.128  1.00  0.00     0.029 A 
ATOM     51  C   UNL A   1      44.863  27.258  32.979  1.00  0.00     0.049 A 
ATOM     52  H   UNL A   1      43.173  27.745  31.812  1.00  0.00     0.167 HD
ATOM     53  C   UNL A   1      44.899  25.603  31.135  1.00  0.00     0.074 A 
ATOM     54  C   UNL A   1      45.496  24.506  30.402  1.00  0.00     0.031 C 
ATOM     55  C   UNL A   1      45.418  26.133  32.270  1.00  0.00     0.034 A 
BRANCH  42  56
ATOM     56  C   UNL A   1      42.297  31.018  34.416  1.00  0.00     0.023 A 
ATOM     57  C   UNL A   1      41.697  30.764  35.666  1.00  0.00     0.012 A 
ATOM     58  C   UNL A   1      42.857  32.287  34.164  1.00  0.00     0.148 A 
ATOM     59  C   UNL A   1      41.620  31.764  36.635  1.00  0.00     0.002 A 
ATOM     60  C   UNL A   1      42.817  33.264  35.153  1.00  0.00     0.091 A 
ATOM     61  F   UNL A   1      43.406  32.518  32.964  1.00  0.00    -0.205 F 
ATOM     62  C   UNL A   1      42.188  33.008  36.383  1.00  0.00     0.022 A 
BRANCH  60  63
ATOM     63  S   UNL A   1      43.591  34.874  34.955  1.00  0.00     0.127 S 
ATOM     64  O   UNL A   1      44.999  34.509  34.817  1.00  0.00    -0.237 OA
ATOM     65  O   UNL A   1      42.966  35.367  33.726  1.00  0.00    -0.237 OA
ATOM     66  O   UNL A   1      43.254  35.631  36.152  1.00  0.00    -0.744 OA
ENDBRANCH  60  63
ENDBRANCH  42  56
BRANCH  43  67
ATOM     67  C   UNL A   1      42.736  24.100  27.228  1.00  0.00     0.023 A 
ATOM     68  C   UNL A   1      43.502  24.398  26.084  1.00  0.00     0.012 A 
ATOM     69  C   UNL A   1      42.103  22.846  27.324  1.00  0.00     0.148 A 
ATOM     70  C   UNL A   1      43.612  23.476  25.042  1.00  0.00     0.002 A 
ATOM     71  C   UNL A   1      42.262  21.911  26.308  1.00  0.00     0.091 A 
ATOM     72  F   UNL A   1      41.370  22.587  28.416  1.00  0.00    -0.205 F 
ATOM     73  C   UNL A   1      43.001  22.230  25.158  1.00  0.00     0.022 A 
BRANCH  71  74
ATOM     74  S   UNL A   1      41.625  20.236  26.431  1.00  0.00     0.127 S 
ATOM     75  O   UNL A   1      42.229  19.599  25.264  1.00  0.00    -0.237 OA
ATOM     76  O   UNL A   1      42.167  19.801  27.720  1.00  0.00    -0.237 OA
ATOM     77  O   UNL A   1      40.175  20.364  26.405  1.00  0.00    -0.744 OA
ENDBRANCH  71  74
ENDBRANCH  43  67
BRANCH  55  78
ATOM     78  C   UNL A   1      46.677  25.515  32.819  1.00  0.00     0.023 A 
ATOM     79  C   UNL A   1      47.932  26.029  32.438  1.00  0.00     0.012 A 
ATOM     80  C   UNL A   1      46.614  24.476  33.769  1.00  0.00     0.148 A 
ATOM     81  C   UNL A   1      49.107  25.497  32.970  1.00  0.00     0.002 A 
ATOM     82  C   UNL A   1      47.786  23.985  34.331  1.00  0.00     0.091 A 
ATOM     83  F   UNL A   1      45.411  23.988  34.104  1.00  0.00    -0.205 F 
ATOM     84  C   UNL A   1      49.034  24.485  33.924  1.00  0.00     0.022 A 
BRANCH  82  85
ATOM     85  S   UNL A   1      47.783  22.749  35.636  1.00  0.00     0.127 S 
ATOM     86  O   UNL A   1      47.015  21.668  35.022  1.00  0.00    -0.237 OA
ATOM     87  O   UNL A   1      49.210  22.469  35.801  1.00  0.00    -0.237 OA
ATOM     88  O   UNL A   1      47.157  23.386  36.788  1.00  0.00    -0.744 OA
ENDBRANCH  82  85
ENDBRANCH  55  78
ENDBRANCH  29  30
ENDBRANCH  21  24
ENDBRANCH  19  20
ENDBRANCH   1  19
TORSDOF 15
ENDMDL
MODEL 2
REMARK VINA RESULT:     -10.8      4.541     12.475
REMARK SMILES C[C@@H](C(=O)NCCCNC(=O)c1ccc(-c2c3nc(c(-c4cccc(S(=O)(=O)[O-])c4F)c4ccc([nH]4)c(-c4cccc(S(=O)(=O)[O-])c4F)c4nc(c(-c5cccc(S(=O)(=O)[O-])c5F)c5ccc2[nH]5)C=C4)C=C3)cc1)c1cccn(C(F)F)c1=O
REMARK SMILES IDX 7 1 6 2 5 3 3 4 4 5 2 7 1 8 75 9 76 10 83 11 77 12 79 13
REMARK SMILES IDX 84 14 78 15 80 16 81 17 82 18 8 19 9 20 10 21 11 23 12 24
REMARK SMILES IDX 13 25 74 26 14 27 73 28 15 29 16 30 17 31 67 32 18 33 72 34
REMARK SMILES IDX 66 35 68 36 19 37 71 38 65 39 64 40 20 42 52 43 32 44 51 45
REMARK SMILES IDX 33 46 36 47 50 48 69 49 34 50 35 51 49 53 70 54 37 55 21 56
REMARK SMILES IDX 22 57 30 58 23 59 25 60 31 61 24 62 26 63 27 64 28 65 29 66
REMARK SMILES IDX 53 67 54 68 62 69 55 70 57 71 63 72 56 73 58 74 59 75 60 76
REMARK SMILES IDX 61 77 38 78 39 79 47 80 40 81 42 82 48 83 41 84 43 85 44 86
REMARK SMILES IDX 45 87 46 88
REMARK H PARENT 5 6 9 22 68 41 36 52
REMARK Flexibility Score: inf
ROOT
ATOM      1  C   UNL A   1      41.715  20.139  27.563  1.00  0.00     0.042 C 
ENDROOT
BRANCH   1   2
ATOM      2  C   UNL A   1      42.150  19.536  26.231  1.00  0.00     0.117 C 
BRANCH   2   3
ATOM      3  N   UNL A   1      43.500  19.008  26.294  1.00  0.00    -0.356 N 
ATOM      4  C   UNL A   1      44.523  19.085  25.393  1.00  0.00     0.227 C 
ATOM      5  O   UNL A   1      45.585  18.544  25.713  1.00  0.00    -0.274 OA
ATOM      6  H   UNL A   1      43.711  18.514  27.119  1.00  0.00     0.163 HD
BRANCH   4   7
ATOM      7  C   UNL A   1      44.350  19.908  24.108  1.00  0.00     0.111 C 
ATOM      8  C   UNL A   1      44.899  19.214  22.858  1.00  0.00     0.023 C 
BRANCH   7   9
ATOM      9  C   UNL A   1      44.927  21.294  24.332  1.00  0.00     0.030 A 
ATOM     10  C   UNL A   1      46.248  21.549  24.251  1.00  0.00     0.012 A 
ATOM     11  C   UNL A   1      43.994  22.437  24.629  1.00  0.00     0.258 A 
ATOM     12  C   UNL A   1      46.774  22.874  24.452  1.00  0.00     0.019 A 
ATOM     13  N   UNL A   1      44.588  23.666  24.868  1.00  0.00    -0.258 N 
ATOM     14  O   UNL A   1      42.780  22.260  24.692  1.00  0.00    -0.269 OA
ATOM     15  C   UNL A   1      45.947  23.876  24.762  1.00  0.00     0.095 A 
BRANCH  13  16
ATOM     16  C   UNL A   1      43.726  24.756  25.246  1.00  0.00     0.451 C 
ATOM     17  F   UNL A   1      43.253  24.535  26.504  1.00  0.00    -0.185 F 
ATOM     18  F   UNL A   1      44.448  25.908  25.319  1.00  0.00    -0.185 F 
ENDBRANCH  13  16
ENDBRANCH   7   9
ENDBRANCH   4   7
ENDBRANCH   2   3
ENDBRANCH   1   2
BRANCH   1  19
ATOM     19  C   UNL A   1      41.197  21.572  27.455  1.00  0.00     0.118 C 
BRANCH  19  20
ATOM     20  N   UNL A   1      40.024  21.679  26.598  1.00  0.00    -0.352 N 
ATOM     21  C   UNL A   1      39.190  22.746  26.371  1.00  0.00     0.251 C 
ATOM     22  H   UNL A   1      39.792  20.858  26.104  1.00  0.00     0.163 HD
ATOM     23  O   UNL A   1      38.141  22.568  25.755  1.00  0.00    -0.269 OA
BRANCH  21  24
ATOM     24  C   UNL A   1      39.535  24.095  26.870  1.00  0.00     0.039 A 
ATOM     25  C   UNL A   1      39.270  24.408  28.207  1.00  0.00     0.014 A 
ATOM     26  C   UNL A   1      40.084  25.061  26.023  1.00  0.00     0.014 A 
ATOM     27  C   UNL A   1      39.610  25.668  28.706  1.00  0.00     0.010 A 
ATOM     28  C   UNL A   1      40.488  26.290  26.540  1.00  0.00     0.010 A 
ATOM     29  C   UNL A   1      40.250  26.610  27.885  1.00  0.00    -0.014 A 
BRANCH  29  30
ATOM     30  C   UNL A   1      40.689  27.926  28.417  1.00  0.00     0.031 A 
ATOM     31  C   UNL A   1      42.153  28.223  28.605  1.00  0.00     0.074 A 
ATOM     32  C   UNL A   1      39.765  28.822  28.817  1.00  0.00     0.049 A 
ATOM     33  N   UNL A   1      42.720  29.287  29.113  1.00  0.00    -0.248 NA
ATOM     34  C   UNL A   1      43.104  27.176  28.193  1.00  0.00     0.031 C 
ATOM     35  C   UNL A   1      38.316  28.623  28.760  1.00  0.00     0.029 A 
ATOM     36  N   UNL A   1      39.907  30.067  29.378  1.00  0.00    -0.354 N 
ATOM     37  C   UNL A   1      44.085  29.025  29.118  1.00  0.00     0.074 A 
ATOM     38  C   UNL A   1      44.260  27.689  28.590  1.00  0.00     0.031 C 
ATOM     39  C   UNL A   1      37.702  29.705  29.265  1.00  0.00     0.029 A 
ATOM     40  C   UNL A   1      38.711  30.662  29.708  1.00  0.00     0.049 A 
ATOM     41  H   UNL A   1      40.781  30.493  29.529  1.00  0.00     0.167 HD
ATOM     42  C   UNL A   1      45.104  29.832  29.499  1.00  0.00     0.034 A 
ATOM     43  C   UNL A   1      38.455  31.840  30.310  1.00  0.00     0.034 A 
ATOM     44  C   UNL A   1      44.930  31.176  29.983  1.00  0.00     0.049 A 
ATOM     45  C   UNL A   1      39.605  32.735  30.686  1.00  0.00     0.074 A 
ATOM     46  C   UNL A   1      45.902  32.106  30.307  1.00  0.00     0.029 A 
ATOM     47  N   UNL A   1      43.705  31.779  30.220  1.00  0.00    -0.354 N 
ATOM     48  N   UNL A   1      40.891  32.536  30.530  1.00  0.00    -0.248 NA
ATOM     49  C   UNL A   1      39.267  34.033  31.289  1.00  0.00     0.031 C 
ATOM     50  C   UNL A   1      45.263  33.265  30.761  1.00  0.00     0.029 A 
ATOM     51  C   UNL A   1      43.894  33.066  30.697  1.00  0.00     0.049 A 
ATOM     52  H   UNL A   1      42.828  31.355  30.073  1.00  0.00     0.167 HD
ATOM     53  C   UNL A   1      41.514  33.695  30.981  1.00  0.00     0.074 A 
ATOM     54  C   UNL A   1      40.462  34.599  31.397  1.00  0.00     0.031 C 
ATOM     55  C   UNL A   1      42.838  33.977  31.057  1.00  0.00     0.034 A 
BRANCH  42  56
ATOM     56  C   UNL A   1      46.508  29.302  29.359  1.00  0.00     0.023 A 
ATOM     57  C   UNL A   1      47.102  28.617  30.438  1.00  0.00     0.012 A 
ATOM     58  C   UNL A   1      47.216  29.428  28.147  1.00  0.00     0.148 A 
ATOM     59  C   UNL A   1      48.392  28.098  30.328  1.00  0.00     0.002 A 
ATOM     60  C   UNL A   1      48.484  28.868  28.030  1.00  0.00     0.091 A 
ATOM     61  F   UNL A   1      46.644  30.099  27.137  1.00  0.00    -0.205 F 
ATOM     62  C   UNL A   1      49.077  28.214  29.123  1.00  0.00     0.022 A 
BRANCH  60  63
ATOM     63  S   UNL A   1      49.416  28.894  26.495  1.00  0.00     0.127 S 
ATOM     64  O   UNL A   1      49.743  30.313  26.372  1.00  0.00    -0.237 OA
ATOM     65  O   UNL A   1      50.556  28.032  26.812  1.00  0.00    -0.237 OA
ATOM     66  O   UNL A   1      48.523  28.366  25.474  1.00  0.00    -0.744 OA
ENDBRANCH  60  63
ENDBRANCH  42  56
BRANCH  43  67
ATOM     67  C   UNL A   1      37.046  32.270  30.529  1.00  0.00     0.023 A 
ATOM     68  C   UNL A   1      36.465  32.110  31.802  1.00  0.00     0.012 A 
ATOM     69  C   UNL A   1      36.289  32.864  29.499  1.00  0.00     0.148 A 
ATOM     70  C   UNL A   1      35.148  32.505  32.039  1.00  0.00     0.002 A 
ATOM     71  C   UNL A   1      34.997  33.306  29.757  1.00  0.00     0.091 A 
ATOM     72  F   UNL A   1      36.856  32.997  28.292  1.00  0.00    -0.205 F 
ATOM     73  C   UNL A   1      34.419  33.112  31.021  1.00  0.00     0.022 A 
BRANCH  71  74
ATOM     74  S   UNL A   1      34.031  34.218  28.547  1.00  0.00     0.127 S 
ATOM     75  O   UNL A   1      32.825  34.537  29.306  1.00  0.00    -0.237 OA
ATOM     76  O   UNL A   1      34.902  35.361  28.265  1.00  0.00    -0.237 OA
ATOM     77  O   UNL A   1      33.853  33.311  27.422  1.00  0.00    -0.744 OA
ENDBRANCH  71  74
ENDBRANCH  43  67
BRANCH  55  78
ATOM     78  C   UNL A   1      43.234  35.333  31.580  1.00  0.00     0.023 A 
ATOM     79  C   UNL A   1      43.393  35.531  32.966  1.00  0.00     0.012 A 
ATOM     80  C   UNL A   1      43.523  36.389  30.693  1.00  0.00     0.148 A 
ATOM     81  C   UNL A   1      43.801  36.768  33.462  1.00  0.00     0.002 A 
ATOM     82  C   UNL A   1      43.977  37.604  31.192  1.00  0.00     0.091 A 
ATOM     83  F   UNL A   1      43.347  36.187  29.378  1.00  0.00    -0.205 F 
ATOM     84  C   UNL A   1      44.105  37.800  32.577  1.00  0.00     0.022 A 
BRANCH  82  85
ATOM     85  S   UNL A   1      44.483  38.956  30.122  1.00  0.00     0.127 S 
ATOM     86  O   UNL A   1      45.584  38.349  29.376  1.00  0.00    -0.237 OA
ATOM     87  O   UNL A   1      43.273  39.199  29.335  1.00  0.00    -0.237 OA
ATOM     88  O   UNL A   1      44.856  40.051  31.009  1.00  0.00    -0.744 OA
ENDBRANCH  82  85
ENDBRANCH  55  78
ENDBRANCH  29  30
ENDBRANCH  21  24
ENDBRANCH  19  20
ENDBRANCH   1  19
TORSDOF 15
ENDMDL
MODEL 3
REMARK VINA RESULT:     -10.8      5.872     10.509
REMARK SMILES C[C@@H](C(=O)NCCCNC(=O)c1ccc(-c2c3nc(c(-c4cccc(S(=O)(=O)[O-])c4F)c4ccc([nH]4)c(-c4cccc(S(=O)(=O)[O-])c4F)c4nc(c(-c5cccc(S(=O)(=O)[O-])c5F)c5ccc2[nH]5)C=C4)C=C3)cc1)c1cccn(C(F)F)c1=O
REMARK SMILES IDX 7 1 6 2 5 3 3 4 4 5 2 7 1 8 75 9 76 10 83 11 77 12 79 13
REMARK SMILES IDX 84 14 78 15 80 16 81 17 82 18 8 19 9 20 10 21 11 23 12 24
REMARK SMILES IDX 13 25 74 26 14 27 73 28 15 29 16 30 17 31 67 32 18 33 72 34
REMARK SMILES IDX 66 35 68 36 19 37 71 38 65 39 64 40 20 42 52 43 32 44 51 45
REMARK SMILES IDX 33 46 36 47 50 48 69 49 34 50 35 51 49 53 70 54 37 55 21 56
REMARK SMILES IDX 22 57 30 58 23 59 25 60 31 61 24 62 26 63 27 64 28 65 29 66
REMARK SMILES IDX 53 67 54 68 62 69 55 70 57 71 63 72 56 73 58 74 59 75 60 76
REMARK SMILES IDX 61 77 38 78 39 79 47 80 40 81 42 82 48 83 41 84 43 85 44 86
REMARK SMILES IDX 45 87 46 88
REMARK H PARENT 5 6 9 22 68 41 36 52
REMARK Flexibility Score: inf
ROOT
ATOM      1  C   UNL A   1      37.744  19.319  25.000  1.00  0.00     0.042 C 
ENDROOT
BRANCH   1   2
ATOM      2  C   UNL A   1      36.635  20.224  24.473  1.00  0.00     0.117 C 
BRANCH   2   3
ATOM      3  N   UNL A   1      35.790  20.720  25.543  1.00  0.00    -0.356 N 
ATOM      4  C   UNL A   1      35.595  21.992  26.000  1.00  0.00     0.227 C 
ATOM      5  O   UNL A   1      34.800  22.130  26.934  1.00  0.00    -0.274 OA
ATOM      6  H   UNL A   1      35.274  20.027  26.016  1.00  0.00     0.163 HD
BRANCH   4   7
ATOM      7  C   UNL A   1      36.269  23.172  25.285  1.00  0.00     0.111 C 
ATOM      8  C   UNL A   1      37.424  23.789  26.079  1.00  0.00     0.023 C 
BRANCH   7   9
ATOM      9  C   UNL A   1      35.204  24.179  24.889  1.00  0.00     0.030 A 
ATOM     10  C   UNL A   1      34.794  25.161  25.715  1.00  0.00     0.012 A 
ATOM     11  C   UNL A   1      34.597  24.099  23.513  1.00  0.00     0.258 A 
ATOM     12  C   UNL A   1      33.793  26.115  25.314  1.00  0.00     0.019 A 
ATOM     13  N   UNL A   1      33.599  25.018  23.231  1.00  0.00    -0.258 N 
ATOM     14  O   UNL A   1      34.952  23.235  22.716  1.00  0.00    -0.269 OA
ATOM     15  C   UNL A   1      33.223  26.012  24.110  1.00  0.00     0.095 A 
BRANCH  13  16
ATOM     16  C   UNL A   1      32.936  24.906  21.958  1.00  0.00     0.451 C 
ATOM     17  F   UNL A   1      31.589  24.867  22.158  1.00  0.00    -0.185 F 
ATOM     18  F   UNL A   1      33.169  26.025  21.219  1.00  0.00    -0.185 F 
ENDBRANCH  13  16
ENDBRANCH   7   9
ENDBRANCH   4   7
ENDBRANCH   2   3
ENDBRANCH   1   2
BRANCH   1  19
ATOM     19  C   UNL A   1      38.843  20.062  25.757  1.00  0.00     0.118 C 
BRANCH  19  20
ATOM     20  N   UNL A   1      40.006  19.224  26.020  1.00  0.00    -0.352 N 
ATOM     21  C   UNL A   1      41.302  19.576  26.304  1.00  0.00     0.251 C 
ATOM     22  H   UNL A   1      39.835  18.254  25.989  1.00  0.00     0.163 HD
ATOM     23  O   UNL A   1      42.173  18.708  26.304  1.00  0.00    -0.269 OA
BRANCH  21  24
ATOM     24  C   UNL A   1      41.658  20.982  26.595  1.00  0.00     0.039 A 
ATOM     25  C   UNL A   1      41.919  21.351  27.919  1.00  0.00     0.014 A 
ATOM     26  C   UNL A   1      41.701  21.942  25.582  1.00  0.00     0.014 A 
ATOM     27  C   UNL A   1      42.280  22.668  28.214  1.00  0.00     0.010 A 
ATOM     28  C   UNL A   1      42.132  23.236  25.869  1.00  0.00     0.010 A 
ATOM     29  C   UNL A   1      42.420  23.615  27.188  1.00  0.00    -0.014 A 
BRANCH  29  30
ATOM     30  C   UNL A   1      42.877  25.000  27.472  1.00  0.00     0.031 A 
ATOM     31  C   UNL A   1      41.940  26.002  28.091  1.00  0.00     0.074 A 
ATOM     32  C   UNL A   1      44.111  25.383  27.086  1.00  0.00     0.049 A 
ATOM     33  N   UNL A   1      42.140  27.268  28.352  1.00  0.00    -0.248 NA
ATOM     34  C   UNL A   1      40.590  25.525  28.440  1.00  0.00     0.031 C 
ATOM     35  C   UNL A   1      45.086  24.529  26.405  1.00  0.00     0.029 A 
ATOM     36  N   UNL A   1      44.744  26.597  27.184  1.00  0.00    -0.354 N 
ATOM     37  C   UNL A   1      40.937  27.748  28.857  1.00  0.00     0.074 A 
ATOM     38  C   UNL A   1      40.002  26.644  28.838  1.00  0.00     0.031 C 
ATOM     39  C   UNL A   1      46.193  25.245  26.147  1.00  0.00     0.029 A 
ATOM     40  C   UNL A   1      45.997  26.613  26.616  1.00  0.00     0.049 A 
ATOM     41  H   UNL A   1      44.340  27.381  27.621  1.00  0.00     0.167 HD
ATOM     42  C   UNL A   1      40.645  28.986  29.321  1.00  0.00     0.034 A 
ATOM     43  C   UNL A   1      46.884  27.618  26.478  1.00  0.00     0.034 A 
ATOM     44  C   UNL A   1      41.589  30.069  29.379  1.00  0.00     0.049 A 
ATOM     45  C   UNL A   1      46.549  28.973  27.039  1.00  0.00     0.074 A 
ATOM     46  C   UNL A   1      41.417  31.333  29.917  1.00  0.00     0.029 A 
ATOM     47  N   UNL A   1      42.880  30.022  28.875  1.00  0.00    -0.354 N 
ATOM     48  N   UNL A   1      45.464  29.362  27.663  1.00  0.00    -0.248 NA
ATOM     49  C   UNL A   1      47.576  30.018  26.910  1.00  0.00     0.031 C 
ATOM     50  C   UNL A   1      42.598  32.057  29.718  1.00  0.00     0.029 A 
ATOM     51  C   UNL A   1      43.513  31.237  29.079  1.00  0.00     0.049 A 
ATOM     52  H   UNL A   1      43.286  29.240  28.436  1.00  0.00     0.167 HD
ATOM     53  C   UNL A   1      45.689  30.684  28.032  1.00  0.00     0.074 A 
ATOM     54  C   UNL A   1      47.023  31.022  27.580  1.00  0.00     0.031 C 
ATOM     55  C   UNL A   1      44.861  31.545  28.673  1.00  0.00     0.034 A 
BRANCH  42  56
ATOM     56  C   UNL A   1      39.255  29.223  29.855  1.00  0.00     0.023 A 
ATOM     57  C   UNL A   1      38.917  28.756  31.142  1.00  0.00     0.012 A 
ATOM     58  C   UNL A   1      38.305  29.955  29.116  1.00  0.00     0.148 A 
ATOM     59  C   UNL A   1      37.646  28.980  31.669  1.00  0.00     0.002 A 
ATOM     60  C   UNL A   1      37.055  30.213  29.667  1.00  0.00     0.091 A 
ATOM     61  F   UNL A   1      38.636  30.375  27.886  1.00  0.00    -0.205 F 
ATOM     62  C   UNL A   1      36.720  29.716  30.937  1.00  0.00     0.022 A 
BRANCH  60  63
ATOM     63  S   UNL A   1      35.820  31.220  28.837  1.00  0.00     0.127 S 
ATOM     64  O   UNL A   1      35.278  30.277  27.860  1.00  0.00    -0.237 OA
ATOM     65  O   UNL A   1      34.908  31.553  29.932  1.00  0.00    -0.237 OA
ATOM     66  O   UNL A   1      36.538  32.357  28.279  1.00  0.00    -0.744 OA
ENDBRANCH  60  63
ENDBRANCH  42  56
BRANCH  43  67
ATOM     67  C   UNL A   1      48.205  27.358  25.839  1.00  0.00     0.023 A 
ATOM     68  C   UNL A   1      49.277  26.904  26.631  1.00  0.00     0.012 A 
ATOM     69  C   UNL A   1      48.397  27.526  24.453  1.00  0.00     0.148 A 
ATOM     70  C   UNL A   1      50.526  26.650  26.061  1.00  0.00     0.002 A 
ATOM     71  C   UNL A   1      49.626  27.217  23.883  1.00  0.00     0.091 A 
ATOM     72  F   UNL A   1      47.367  27.970  23.719  1.00  0.00    -0.205 F 
ATOM     73  C   UNL A   1      50.697  26.796  24.687  1.00  0.00     0.022 A 
BRANCH  71  74
ATOM     74  S   UNL A   1      49.900  27.247  22.107  1.00  0.00     0.127 S 
ATOM     75  O   UNL A   1      48.872  26.325  21.630  1.00  0.00    -0.237 OA
ATOM     76  O   UNL A   1      49.660  28.656  21.789  1.00  0.00    -0.237 OA
ATOM     77  O   UNL A   1      51.278  26.818  21.915  1.00  0.00    -0.744 OA
ENDBRANCH  71  74
ENDBRANCH  43  67
BRANCH  55  78
ATOM     78  C   UNL A   1      45.377  32.930  28.960  1.00  0.00     0.023 A 
ATOM     79  C   UNL A   1      46.201  33.152  30.081  1.00  0.00     0.012 A 
ATOM     80  C   UNL A   1      45.108  33.995  28.077  1.00  0.00     0.148 A 
ATOM     81  C   UNL A   1      46.722  34.420  30.337  1.00  0.00     0.002 A 
ATOM     82  C   UNL A   1      45.671  35.244  28.312  1.00  0.00     0.091 A 
ATOM     83  F   UNL A   1      44.307  33.768  27.026  1.00  0.00    -0.205 F 
ATOM     84  C   UNL A   1      46.469  35.461  29.448  1.00  0.00     0.022 A 
BRANCH  82  85
ATOM     85  S   UNL A   1      45.478  36.617  27.170  1.00  0.00     0.127 S 
ATOM     86  O   UNL A   1      45.983  37.737  27.962  1.00  0.00    -0.237 OA
ATOM     87  O   UNL A   1      46.339  36.219  26.056  1.00  0.00    -0.237 OA
ATOM     88  O   UNL A   1      44.058  36.670  26.844  1.00  0.00    -0.744 OA
ENDBRANCH  82  85
ENDBRANCH  55  78
ENDBRANCH  29  30
ENDBRANCH  21  24
ENDBRANCH  19  20
ENDBRANCH   1  19
TORSDOF 15
ENDMDL
