MODEL 1
REMARK VINA RESULT:     -10.8      0.000      0.000
REMARK SMILES CCCC[C@@H](C)[NH2+]Cc1ccc(C(=O)NCCCNC(=O)c2ccc(-c3c4nc(c(-c5cccc(S(=O)(=O)[O-])c5F)c5ccc([nH]5)c(-c5cccc(S(=O)(=O)[O-])c5F)c5nc(c(-c6cccc(S(=O)(=O)[O-])c6F)c6ccc3[nH]6)C=C5)C=C4)cc2)cn1
REMARK SMILES IDX 13 1 14 2 15 3 12 5 9 6 10 7 86 8 11 9 85 10 8 11 7 12 5 15
REMARK SMILES IDX 6 16 4 17 3 18 2 19 1 20 16 21 17 22 18 23 19 24 20 25 21 27
REMARK SMILES IDX 22 28 23 29 84 30 24 31 83 32 25 33 26 34 27 35 77 36 28 37
REMARK SMILES IDX 82 38 76 39 78 40 29 41 81 42 75 43 74 44 30 46 62 47 42 48
REMARK SMILES IDX 61 49 43 50 46 51 60 52 79 53 44 54 45 55 59 57 80 58 47 59
REMARK SMILES IDX 31 60 32 61 40 62 33 63 35 64 41 65 34 66 36 67 37 68 38 69
REMARK SMILES IDX 39 70 63 71 64 72 72 73 65 74 67 75 73 76 66 77 68 78 69 79
REMARK SMILES IDX 70 80 71 81 48 82 49 83 57 84 50 85 52 86 58 87 51 88 53 89
REMARK SMILES IDX 54 90 55 91 56 92
REMARK H PARENT 15 4 7 13 7 14 19 26 78 45 46 56
REMARK Flexibility Score: inf
ROOT
ATOM      1  C   UNL A   1      33.157  20.014  25.271  1.00  0.00     0.252 C 
ATOM      2  O   UNL A   1      32.592  18.937  25.441  1.00  0.00    -0.269 OA
ATOM      3  N   UNL A   1      34.475  20.138  25.614  1.00  0.00    -0.352 N 
ATOM      4  H   UNL A   1      34.851  19.370  26.102  1.00  0.00     0.163 HD
ENDROOT
BRANCH   1   5
ATOM      5  C   UNL A   1      32.405  21.129  24.670  1.00  0.00     0.058 A 
ATOM      6  C   UNL A   1      31.149  23.426  23.838  1.00  0.00     0.094 A 
ATOM      7  C   UNL A   1      31.844  22.667  22.901  1.00  0.00     0.030 A 
ATOM      8  N   UNL A   1      30.985  23.031  25.132  1.00  0.00    -0.255 NA
ATOM      9  C   UNL A   1      32.501  21.517  23.334  1.00  0.00     0.017 A 
ATOM     10  C   UNL A   1      31.636  21.910  25.520  1.00  0.00     0.125 A 
BRANCH   6  11
ATOM     11  C   UNL A   1      30.711  24.841  23.500  1.00  0.00     0.318 C 
BRANCH  11  12
ATOM     12  N   UNL A   1      31.165  25.826  24.500  1.00  0.00    -0.339 N 
ATOM     13  H   UNL A   1      30.350  26.133  25.032  1.00  0.00     0.346 HD
ATOM     14  H   UNL A   1      31.868  25.350  25.066  1.00  0.00     0.346 HD
BRANCH  12  15
ATOM     15  C   UNL A   1      31.828  27.027  23.948  1.00  0.00     0.179 C 
ATOM     16  C   UNL A   1      33.356  27.035  24.087  1.00  0.00     0.075 C 
BRANCH  15  17
ATOM     17  C   UNL A   1      31.204  28.232  24.691  1.00  0.00     0.065 C 
BRANCH  17  18
ATOM     18  C   UNL A   1      30.421  29.233  23.828  1.00  0.00     0.006 C 
BRANCH  18  19
ATOM     19  C   UNL A   1      29.542  28.626  22.735  1.00  0.00    -0.003 C 
ATOM     20  C   UNL A   1      28.143  29.215  22.694  1.00  0.00     0.004 C 
ENDBRANCH  18  19
ENDBRANCH  17  18
ENDBRANCH  15  17
ENDBRANCH  12  15
ENDBRANCH  11  12
ENDBRANCH   6  11
ENDBRANCH   1   5
BRANCH   3  21
ATOM     21  C   UNL A   1      35.406  21.223  25.372  1.00  0.00     0.118 C 
BRANCH  21  22
ATOM     22  C   UNL A   1      36.737  20.706  24.838  1.00  0.00     0.042 C 
BRANCH  22  23
ATOM     23  C   UNL A   1      37.942  21.439  25.419  1.00  0.00     0.118 C 
BRANCH  23  24
ATOM     24  N   UNL A   1      38.885  20.520  26.042  1.00  0.00    -0.352 N 
ATOM     25  C   UNL A   1      40.113  20.767  26.602  1.00  0.00     0.251 C 
ATOM     26  H   UNL A   1      38.597  19.578  26.066  1.00  0.00     0.163 HD
ATOM     27  O   UNL A   1      40.868  19.829  26.839  1.00  0.00    -0.269 OA
BRANCH  25  28
ATOM     28  C   UNL A   1      40.522  22.152  26.921  1.00  0.00     0.039 A 
ATOM     29  C   UNL A   1      41.327  22.378  28.039  1.00  0.00     0.014 A 
ATOM     30  C   UNL A   1      40.075  23.226  26.147  1.00  0.00     0.014 A 
ATOM     31  C   UNL A   1      41.719  23.680  28.357  1.00  0.00     0.010 A 
ATOM     32  C   UNL A   1      40.528  24.513  26.420  1.00  0.00     0.010 A 
ATOM     33  C   UNL A   1      41.342  24.756  27.536  1.00  0.00    -0.014 A 
BRANCH  33  34
ATOM     34  C   UNL A   1      41.785  26.142  27.827  1.00  0.00     0.031 A 
ATOM     35  C   UNL A   1      43.187  26.574  27.493  1.00  0.00     0.074 A 
ATOM     36  C   UNL A   1      40.953  26.979  28.476  1.00  0.00     0.049 A 
ATOM     37  N   UNL A   1      43.774  27.717  27.730  1.00  0.00    -0.248 NA
ATOM     38  C   UNL A   1      44.054  25.581  26.835  1.00  0.00     0.031 C 
ATOM     39  C   UNL A   1      39.600  26.647  28.925  1.00  0.00     0.029 A 
ATOM     40  N   UNL A   1      41.134  28.272  28.897  1.00  0.00    -0.354 N 
ATOM     41  C   UNL A   1      45.085  27.571  27.289  1.00  0.00     0.074 A 
ATOM     42  C   UNL A   1      45.216  26.216  26.799  1.00  0.00     0.031 C 
ATOM     43  C   UNL A   1      39.071  27.708  29.555  1.00  0.00     0.029 A 
ATOM     44  C   UNL A   1      40.055  28.786  29.580  1.00  0.00     0.049 A 
ATOM     45  H   UNL A   1      41.957  28.785  28.726  1.00  0.00     0.167 HD
ATOM     46  C   UNL A   1      46.080  28.488  27.268  1.00  0.00     0.034 A 
ATOM     47  C   UNL A   1      39.882  29.987  30.165  1.00  0.00     0.034 A 
ATOM     48  C   UNL A   1      45.927  29.849  27.707  1.00  0.00     0.049 A 
ATOM     49  C   UNL A   1      40.984  31.007  30.075  1.00  0.00     0.074 A 
ATOM     50  C   UNL A   1      46.842  30.884  27.635  1.00  0.00     0.029 A 
ATOM     51  N   UNL A   1      44.787  30.362  28.305  1.00  0.00    -0.354 N 
ATOM     52  N   UNL A   1      42.160  30.901  29.506  1.00  0.00    -0.248 NA
ATOM     53  C   UNL A   1      40.722  32.323  30.673  1.00  0.00     0.031 C 
ATOM     54  C   UNL A   1      46.260  32.020  28.208  1.00  0.00     0.029 A 
ATOM     55  C   UNL A   1      44.975  31.698  28.615  1.00  0.00     0.049 A 
ATOM     56  H   UNL A   1      43.964  29.852  28.483  1.00  0.00     0.167 HD
ATOM     57  C   UNL A   1      42.765  32.145  29.645  1.00  0.00     0.074 A 
ATOM     58  C   UNL A   1      41.814  32.994  30.335  1.00  0.00     0.031 C 
ATOM     59  C   UNL A   1      43.999  32.544  29.253  1.00  0.00     0.034 A 
BRANCH  46  60
ATOM     60  C   UNL A   1      47.411  28.068  26.698  1.00  0.00     0.023 A 
ATOM     61  C   UNL A   1      48.472  27.749  27.571  1.00  0.00     0.012 A 
ATOM     62  C   UNL A   1      47.595  27.930  25.308  1.00  0.00     0.148 A 
ATOM     63  C   UNL A   1      49.705  27.334  27.069  1.00  0.00     0.002 A 
ATOM     64  C   UNL A   1      48.814  27.474  24.818  1.00  0.00     0.091 A 
ATOM     65  F   UNL A   1      46.584  28.259  24.493  1.00  0.00    -0.205 F 
ATOM     66  C   UNL A   1      49.873  27.187  25.696  1.00  0.00     0.022 A 
BRANCH  64  67
ATOM     67  S   UNL A   1      49.105  27.175  23.070  1.00  0.00     0.127 S 
ATOM     68  O   UNL A   1      50.542  26.906  23.053  1.00  0.00    -0.237 OA
ATOM     69  O   UNL A   1      48.262  26.006  22.813  1.00  0.00    -0.237 OA
ATOM     70  O   UNL A   1      48.686  28.388  22.382  1.00  0.00    -0.744 OA
ENDBRANCH  64  67
ENDBRANCH  46  60
BRANCH  47  71
ATOM     71  C   UNL A   1      38.582  30.313  30.818  1.00  0.00     0.023 A 
ATOM     72  C   UNL A   1      38.359  29.907  32.147  1.00  0.00     0.012 A 
ATOM     73  C   UNL A   1      37.589  31.055  30.150  1.00  0.00     0.148 A 
ATOM     74  C   UNL A   1      37.158  30.206  32.790  1.00  0.00     0.002 A 
ATOM     75  C   UNL A   1      36.418  31.398  30.815  1.00  0.00     0.091 A 
ATOM     76  F   UNL A   1      37.816  31.424  28.882  1.00  0.00    -0.205 F 
ATOM     77  C   UNL A   1      36.192  30.959  32.130  1.00  0.00     0.022 A 
BRANCH  75  78
ATOM     78  S   UNL A   1      35.180  32.480  30.089  1.00  0.00     0.127 S 
ATOM     79  O   UNL A   1      34.223  32.617  31.183  1.00  0.00    -0.237 OA
ATOM     80  O   UNL A   1      35.963  33.682  29.799  1.00  0.00    -0.237 OA
ATOM     81  O   UNL A   1      34.696  31.782  28.905  1.00  0.00    -0.744 OA
ENDBRANCH  75  78
ENDBRANCH  47  71
BRANCH  59  82
ATOM     82  C   UNL A   1      44.391  33.972  29.525  1.00  0.00     0.023 A 
ATOM     83  C   UNL A   1      44.898  34.330  30.790  1.00  0.00     0.012 A 
ATOM     84  C   UNL A   1      44.329  34.942  28.505  1.00  0.00     0.148 A 
ATOM     85  C   UNL A   1      45.309  35.638  31.045  1.00  0.00     0.002 A 
ATOM     86  C   UNL A   1      44.786  36.231  28.751  1.00  0.00     0.091 A 
ATOM     87  F   UNL A   1      43.825  34.586  27.313  1.00  0.00    -0.205 F 
ATOM     88  C   UNL A   1      45.265  36.583  30.023  1.00  0.00     0.022 A 
BRANCH  86  89
ATOM     89  S   UNL A   1      44.858  37.485  27.467  1.00  0.00     0.127 S 
ATOM     90  O   UNL A   1      43.475  37.506  26.995  1.00  0.00    -0.237 OA
ATOM     91  O   UNL A   1      45.265  38.675  28.215  1.00  0.00    -0.237 OA
ATOM     92  O   UNL A   1      45.843  37.015  26.502  1.00  0.00    -0.744 OA
ENDBRANCH  86  89
ENDBRANCH  59  82
ENDBRANCH  33  34
ENDBRANCH  25  28
ENDBRANCH  23  24
ENDBRANCH  22  23
ENDBRANCH  21  22
ENDBRANCH   3  21
TORSDOF 19
ENDMDL
MODEL 2
REMARK VINA RESULT:     -10.8      5.084     10.031
REMARK SMILES CCCC[C@@H](C)[NH2+]Cc1ccc(C(=O)NCCCNC(=O)c2ccc(-c3c4nc(c(-c5cccc(S(=O)(=O)[O-])c5F)c5ccc([nH]5)c(-c5cccc(S(=O)(=O)[O-])c5F)c5nc(c(-c6cccc(S(=O)(=O)[O-])c6F)c6ccc3[nH]6)C=C5)C=C4)cc2)cn1
REMARK SMILES IDX 13 1 14 2 15 3 12 5 9 6 10 7 86 8 11 9 85 10 8 11 7 12 5 15
REMARK SMILES IDX 6 16 4 17 3 18 2 19 1 20 16 21 17 22 18 23 19 24 20 25 21 27
REMARK SMILES IDX 22 28 23 29 84 30 24 31 83 32 25 33 26 34 27 35 77 36 28 37
REMARK SMILES IDX 82 38 76 39 78 40 29 41 81 42 75 43 74 44 30 46 62 47 42 48
REMARK SMILES IDX 61 49 43 50 46 51 60 52 79 53 44 54 45 55 59 57 80 58 47 59
REMARK SMILES IDX 31 60 32 61 40 62 33 63 35 64 41 65 34 66 36 67 37 68 38 69
REMARK SMILES IDX 39 70 63 71 64 72 72 73 65 74 67 75 73 76 66 77 68 78 69 79
REMARK SMILES IDX 70 80 71 81 48 82 49 83 57 84 50 85 52 86 58 87 51 88 53 89
REMARK SMILES IDX 54 90 55 91 56 92
REMARK H PARENT 15 4 7 13 7 14 19 26 78 45 46 56
REMARK Flexibility Score: inf
ROOT
ATOM      1  C   UNL A   1      30.742  28.851  22.736  1.00  0.00     0.252 C 
ATOM      2  O   UNL A   1      30.211  29.346  21.746  1.00  0.00    -0.269 OA
ATOM      3  N   UNL A   1      31.382  29.665  23.628  1.00  0.00    -0.352 N 
ATOM      4  H   UNL A   1      31.482  30.601  23.338  1.00  0.00     0.163 HD
ENDROOT
BRANCH   1   5
ATOM      5  C   UNL A   1      30.642  27.396  22.949  1.00  0.00     0.058 A 
ATOM      6  C   UNL A   1      30.835  24.699  23.435  1.00  0.00     0.094 A 
ATOM      7  C   UNL A   1      29.790  25.411  24.018  1.00  0.00     0.030 A 
ATOM      8  N   UNL A   1      31.712  25.263  22.559  1.00  0.00    -0.255 NA
ATOM      9  C   UNL A   1      29.712  26.783  23.789  1.00  0.00     0.017 A 
ATOM     10  C   UNL A   1      31.609  26.597  22.358  1.00  0.00     0.125 A 
BRANCH   6  11
ATOM     11  C   UNL A   1      31.163  23.297  23.916  1.00  0.00     0.318 C 
BRANCH  11  12
ATOM     12  N   UNL A   1      31.352  23.230  25.378  1.00  0.00    -0.339 N 
ATOM     13  H   UNL A   1      31.290  24.180  25.747  1.00  0.00     0.346 HD
ATOM     14  H   UNL A   1      30.625  22.607  25.728  1.00  0.00     0.346 HD
BRANCH  12  15
ATOM     15  C   UNL A   1      32.638  22.651  25.823  1.00  0.00     0.179 C 
ATOM     16  C   UNL A   1      32.788  22.521  27.344  1.00  0.00     0.075 C 
BRANCH  15  17
ATOM     17  C   UNL A   1      33.738  23.568  25.239  1.00  0.00     0.065 C 
BRANCH  17  18
ATOM     18  C   UNL A   1      35.063  23.620  26.013  1.00  0.00     0.006 C 
BRANCH  18  19
ATOM     19  C   UNL A   1      36.063  22.506  25.699  1.00  0.00    -0.003 C 
ATOM     20  C   UNL A   1      36.135  22.163  24.222  1.00  0.00     0.004 C 
ENDBRANCH  18  19
ENDBRANCH  17  18
ENDBRANCH  15  17
ENDBRANCH  12  15
ENDBRANCH  11  12
ENDBRANCH   6  11
ENDBRANCH   1   5
BRANCH   3  21
ATOM     21  C   UNL A   1      31.940  29.368  24.934  1.00  0.00     0.118 C 
BRANCH  21  22
ATOM     22  C   UNL A   1      33.354  28.811  24.822  1.00  0.00     0.042 C 
BRANCH  22  23
ATOM     23  C   UNL A   1      34.179  29.008  26.090  1.00  0.00     0.118 C 
BRANCH  23  24
ATOM     24  N   UNL A   1      33.902  30.292  26.719  1.00  0.00    -0.352 N 
ATOM     25  C   UNL A   1      34.513  30.895  27.790  1.00  0.00     0.251 C 
ATOM     26  H   UNL A   1      33.165  30.806  26.316  1.00  0.00     0.163 HD
ATOM     27  O   UNL A   1      33.971  31.852  28.334  1.00  0.00    -0.269 OA
BRANCH  25  28
ATOM     28  C   UNL A   1      35.816  30.398  28.282  1.00  0.00     0.039 A 
ATOM     29  C   UNL A   1      35.846  29.597  29.426  1.00  0.00     0.014 A 
ATOM     30  C   UNL A   1      37.006  30.758  27.645  1.00  0.00     0.014 A 
ATOM     31  C   UNL A   1      37.067  29.122  29.907  1.00  0.00     0.010 A 
ATOM     32  C   UNL A   1      38.215  30.222  28.080  1.00  0.00     0.010 A 
ATOM     33  C   UNL A   1      38.260  29.412  29.223  1.00  0.00    -0.014 A 
BRANCH  33  34
ATOM     34  C   UNL A   1      39.565  28.880  29.688  1.00  0.00     0.031 A 
ATOM     35  C   UNL A   1      40.315  29.575  30.791  1.00  0.00     0.074 A 
ATOM     36  C   UNL A   1      40.114  27.827  29.053  1.00  0.00     0.049 A 
ATOM     37  N   UNL A   1      41.494  29.300  31.287  1.00  0.00    -0.248 NA
ATOM     38  C   UNL A   1      39.673  30.754  31.398  1.00  0.00     0.031 C 
ATOM     39  C   UNL A   1      39.520  27.122  27.916  1.00  0.00     0.029 A 
ATOM     40  N   UNL A   1      41.309  27.184  29.253  1.00  0.00    -0.354 N 
ATOM     41  C   UNL A   1      41.752  30.289  32.229  1.00  0.00     0.074 A 
ATOM     42  C   UNL A   1      40.620  31.190  32.216  1.00  0.00     0.031 C 
ATOM     43  C   UNL A   1      40.349  26.143  27.521  1.00  0.00     0.029 A 
ATOM     44  C   UNL A   1      41.546  26.168  28.357  1.00  0.00     0.049 A 
ATOM     45  H   UNL A   1      41.939  27.428  29.970  1.00  0.00     0.167 HD
ATOM     46  C   UNL A   1      42.819  30.418  33.052  1.00  0.00     0.034 A 
ATOM     47  C   UNL A   1      42.609  25.351  28.221  1.00  0.00     0.034 A 
ATOM     48  C   UNL A   1      43.914  29.488  33.098  1.00  0.00     0.049 A 
ATOM     49  C   UNL A   1      43.756  25.481  29.186  1.00  0.00     0.074 A 
ATOM     50  C   UNL A   1      44.994  29.473  33.963  1.00  0.00     0.029 A 
ATOM     51  N   UNL A   1      44.073  28.412  32.239  1.00  0.00    -0.354 N 
ATOM     52  N   UNL A   1      43.904  26.323  30.180  1.00  0.00    -0.248 NA
ATOM     53  C   UNL A   1      44.862  24.527  29.036  1.00  0.00     0.031 C 
ATOM     54  C   UNL A   1      45.816  28.397  33.614  1.00  0.00     0.029 A 
ATOM     55  C   UNL A   1      45.237  27.728  32.547  1.00  0.00     0.049 A 
ATOM     56  H   UNL A   1      43.450  28.169  31.517  1.00  0.00     0.167 HD
ATOM     57  C   UNL A   1      45.102  25.977  30.796  1.00  0.00     0.074 A 
ATOM     58  C   UNL A   1      45.627  24.836  30.075  1.00  0.00     0.031 C 
ATOM     59  C   UNL A   1      45.718  26.561  31.853  1.00  0.00     0.034 A 
BRANCH  46  60
ATOM     60  C   UNL A   1      42.827  31.579  34.013  1.00  0.00     0.023 A 
ATOM     61  C   UNL A   1      43.306  32.834  33.583  1.00  0.00     0.012 A 
ATOM     62  C   UNL A   1      42.310  31.447  35.317  1.00  0.00     0.148 A 
ATOM     63  C   UNL A   1      43.302  33.931  34.446  1.00  0.00     0.002 A 
ATOM     64  C   UNL A   1      42.269  32.555  36.156  1.00  0.00     0.091 A 
ATOM     65  F   UNL A   1      41.880  30.242  35.716  1.00  0.00    -0.205 F 
ATOM     66  C   UNL A   1      42.775  33.794  35.727  1.00  0.00     0.022 A 
BRANCH  64  67
ATOM     67  S   UNL A   1      41.538  32.503  37.796  1.00  0.00     0.127 S 
ATOM     68  O   UNL A   1      41.714  33.884  38.242  1.00  0.00    -0.237 OA
ATOM     69  O   UNL A   1      40.153  32.128  37.504  1.00  0.00    -0.237 OA
ATOM     70  O   UNL A   1      42.292  31.503  38.539  1.00  0.00    -0.744 OA
ENDBRANCH  64  67
ENDBRANCH  46  60
BRANCH  47  71
ATOM     71  C   UNL A   1      42.599  24.289  27.176  1.00  0.00     0.023 A 
ATOM     72  C   UNL A   1      43.258  24.520  25.953  1.00  0.00     0.012 A 
ATOM     73  C   UNL A   1      41.983  23.043  27.399  1.00  0.00     0.148 A 
ATOM     74  C   UNL A   1      43.276  23.542  24.958  1.00  0.00     0.002 A 
ATOM     75  C   UNL A   1      42.053  22.052  26.427  1.00  0.00     0.091 A 
ATOM     76  F   UNL A   1      41.353  22.845  28.566  1.00  0.00    -0.205 F 
ATOM     77  C   UNL A   1      42.684  22.306  25.198  1.00  0.00     0.022 A 
BRANCH  75  78
ATOM     78  S   UNL A   1      41.439  20.386  26.703  1.00  0.00     0.127 S 
ATOM     79  O   UNL A   1      42.211  19.970  27.869  1.00  0.00    -0.237 OA
ATOM     80  O   UNL A   1      40.017  20.626  26.956  1.00  0.00    -0.237 OA
ATOM     81  O   UNL A   1      41.710  19.660  25.469  1.00  0.00    -0.744 OA
ENDBRANCH  75  78
ENDBRANCH  47  71
BRANCH  59  82
ATOM     82  C   UNL A   1      47.017  25.961  32.322  1.00  0.00     0.023 A 
ATOM     83  C   UNL A   1      48.234  26.413  31.777  1.00  0.00     0.012 A 
ATOM     84  C   UNL A   1      47.035  25.005  33.357  1.00  0.00     0.148 A 
ATOM     85  C   UNL A   1      49.449  25.902  32.233  1.00  0.00     0.002 A 
ATOM     86  C   UNL A   1      48.250  24.535  33.841  1.00  0.00     0.091 A 
ATOM     87  F   UNL A   1      45.864  24.573  33.850  1.00  0.00    -0.205 F 
ATOM     88  C   UNL A   1      49.456  24.974  33.272  1.00  0.00     0.022 A 
BRANCH  86  89
ATOM     89  S   UNL A   1      48.358  23.415  35.240  1.00  0.00     0.127 S 
ATOM     90  O   UNL A   1      47.661  24.171  36.280  1.00  0.00    -0.237 OA
ATOM     91  O   UNL A   1      47.636  22.239  34.755  1.00  0.00    -0.237 OA
ATOM     92  O   UNL A   1      49.780  23.196  35.470  1.00  0.00    -0.744 OA
ENDBRANCH  86  89
ENDBRANCH  59  82
ENDBRANCH  33  34
ENDBRANCH  25  28
ENDBRANCH  23  24
ENDBRANCH  22  23
ENDBRANCH  21  22
ENDBRANCH   3  21
TORSDOF 19
ENDMDL
MODEL 3
REMARK VINA RESULT:     -10.6      5.980     12.082
REMARK SMILES CCCC[C@@H](C)[NH2+]Cc1ccc(C(=O)NCCCNC(=O)c2ccc(-c3c4nc(c(-c5cccc(S(=O)(=O)[O-])c5F)c5ccc([nH]5)c(-c5cccc(S(=O)(=O)[O-])c5F)c5nc(c(-c6cccc(S(=O)(=O)[O-])c6F)c6ccc3[nH]6)C=C5)C=C4)cc2)cn1
REMARK SMILES IDX 13 1 14 2 15 3 12 5 9 6 10 7 86 8 11 9 85 10 8 11 7 12 5 15
REMARK SMILES IDX 6 16 4 17 3 18 2 19 1 20 16 21 17 22 18 23 19 24 20 25 21 27
REMARK SMILES IDX 22 28 23 29 84 30 24 31 83 32 25 33 26 34 27 35 77 36 28 37
REMARK SMILES IDX 82 38 76 39 78 40 29 41 81 42 75 43 74 44 30 46 62 47 42 48
REMARK SMILES IDX 61 49 43 50 46 51 60 52 79 53 44 54 45 55 59 57 80 58 47 59
REMARK SMILES IDX 31 60 32 61 40 62 33 63 35 64 41 65 34 66 36 67 37 68 38 69
REMARK SMILES IDX 39 70 63 71 64 72 72 73 65 74 67 75 73 76 66 77 68 78 69 79
REMARK SMILES IDX 70 80 71 81 48 82 49 83 57 84 50 85 52 86 58 87 51 88 53 89
REMARK SMILES IDX 54 90 55 91 56 92
REMARK H PARENT 15 4 7 13 7 14 19 26 78 45 46 56
REMARK Flexibility Score: inf
ROOT
ATOM      1  C   UNL A   1      33.009  35.830  31.233  1.00  0.00     0.252 C 
ATOM      2  O   UNL A   1      32.397  36.876  31.432  1.00  0.00    -0.269 OA
ATOM      3  N   UNL A   1      32.874  35.197  30.029  1.00  0.00    -0.352 N 
ATOM      4  H   UNL A   1      32.179  35.570  29.439  1.00  0.00     0.163 HD
ENDROOT
BRANCH   1   5
ATOM      5  C   UNL A   1      33.897  35.309  32.287  1.00  0.00     0.058 A 
ATOM      6  C   UNL A   1      35.566  34.011  34.040  1.00  0.00     0.094 A 
ATOM      7  C   UNL A   1      35.892  35.304  33.640  1.00  0.00     0.030 A 
ATOM      8  N   UNL A   1      34.407  33.395  33.674  1.00  0.00    -0.255 NA
ATOM      9  C   UNL A   1      35.055  35.948  32.730  1.00  0.00     0.017 A 
ATOM     10  C   UNL A   1      33.617  34.048  32.790  1.00  0.00     0.125 A 
BRANCH   6  11
ATOM     11  C   UNL A   1      36.598  33.149  34.746  1.00  0.00     0.318 C 
BRANCH  11  12
ATOM     12  N   UNL A   1      37.392  33.910  35.730  1.00  0.00    -0.339 N 
ATOM     13  H   UNL A   1      37.100  34.887  35.682  1.00  0.00     0.346 HD
ATOM     14  H   UNL A   1      37.213  33.474  36.635  1.00  0.00     0.346 HD
BRANCH  12  15
ATOM     15  C   UNL A   1      38.856  33.861  35.534  1.00  0.00     0.179 C 
ATOM     16  C   UNL A   1      39.584  35.183  35.811  1.00  0.00     0.075 C 
BRANCH  15  17
ATOM     17  C   UNL A   1      39.070  33.414  34.068  1.00  0.00     0.065 C 
BRANCH  17  18
ATOM     18  C   UNL A   1      39.532  34.501  33.086  1.00  0.00     0.006 C 
BRANCH  18  19
ATOM     19  C   UNL A   1      39.830  34.030  31.662  1.00  0.00    -0.003 C 
ATOM     20  C   UNL A   1      41.282  34.214  31.260  1.00  0.00     0.004 C 
ENDBRANCH  18  19
ENDBRANCH  17  18
ENDBRANCH  15  17
ENDBRANCH  12  15
ENDBRANCH  11  12
ENDBRANCH   6  11
ENDBRANCH   1   5
BRANCH   3  21
ATOM     21  C   UNL A   1      33.593  34.061  29.483  1.00  0.00     0.118 C 
BRANCH  21  22
ATOM     22  C   UNL A   1      34.893  34.494  28.816  1.00  0.00     0.042 C 
BRANCH  22  23
ATOM     23  C   UNL A   1      35.548  33.382  28.002  1.00  0.00     0.118 C 
BRANCH  23  24
ATOM     24  N   UNL A   1      34.591  32.352  27.625  1.00  0.00    -0.352 N 
ATOM     25  C   UNL A   1      34.762  30.996  27.505  1.00  0.00     0.251 C 
ATOM     26  H   UNL A   1      33.682  32.677  27.427  1.00  0.00     0.163 HD
ATOM     27  O   UNL A   1      33.910  30.329  26.925  1.00  0.00    -0.269 OA
BRANCH  25  28
ATOM     28  C   UNL A   1      35.961  30.342  28.072  1.00  0.00     0.039 A 
ATOM     29  C   UNL A   1      37.129  30.293  27.307  1.00  0.00     0.014 A 
ATOM     30  C   UNL A   1      35.920  29.740  29.332  1.00  0.00     0.014 A 
ATOM     31  C   UNL A   1      38.270  29.676  27.826  1.00  0.00     0.010 A 
ATOM     32  C   UNL A   1      37.078  29.194  29.878  1.00  0.00     0.010 A 
ATOM     33  C   UNL A   1      38.259  29.142  29.125  1.00  0.00    -0.014 A 
BRANCH  33  34
ATOM     34  C   UNL A   1      39.472  28.524  29.715  1.00  0.00     0.031 A 
ATOM     35  C   UNL A   1      40.088  29.103  30.959  1.00  0.00     0.074 A 
ATOM     36  C   UNL A   1      40.068  27.497  29.077  1.00  0.00     0.049 A 
ATOM     37  N   UNL A   1      41.180  28.743  31.582  1.00  0.00    -0.248 NA
ATOM     38  C   UNL A   1      39.408  30.260  31.566  1.00  0.00     0.031 C 
ATOM     39  C   UNL A   1      39.611  26.904  27.819  1.00  0.00     0.029 A 
ATOM     40  N   UNL A   1      41.204  26.793  29.382  1.00  0.00    -0.354 N 
ATOM     41  C   UNL A   1      41.339  29.648  32.626  1.00  0.00     0.074 A 
ATOM     42  C   UNL A   1      40.250  30.594  32.533  1.00  0.00     0.031 C 
ATOM     43  C   UNL A   1      40.454  25.923  27.462  1.00  0.00     0.029 A 
ATOM     44  C   UNL A   1      41.527  25.836  28.448  1.00  0.00     0.049 A 
ATOM     45  H   UNL A   1      41.739  26.956  30.193  1.00  0.00     0.167 HD
ATOM     46  C   UNL A   1      42.290  29.672  33.589  1.00  0.00     0.034 A 
ATOM     47  C   UNL A   1      42.573  24.988  28.389  1.00  0.00     0.034 A 
ATOM     48  C   UNL A   1      43.339  28.696  33.706  1.00  0.00     0.049 A 
ATOM     49  C   UNL A   1      43.582  24.998  29.505  1.00  0.00     0.074 A 
ATOM     50  C   UNL A   1      44.291  28.571  34.702  1.00  0.00     0.029 A 
ATOM     51  N   UNL A   1      43.577  27.680  32.794  1.00  0.00    -0.354 N 
ATOM     52  N   UNL A   1      43.622  25.757  30.573  1.00  0.00    -0.248 NA
ATOM     53  C   UNL A   1      44.668  24.011  29.428  1.00  0.00     0.031 C 
ATOM     54  C   UNL A   1      45.118  27.490  34.381  1.00  0.00     0.029 A 
ATOM     55  C   UNL A   1      44.667  26.927  33.198  1.00  0.00     0.049 A 
ATOM     56  H   UNL A   1      43.050  27.517  31.980  1.00  0.00     0.167 HD
ATOM     57  C   UNL A   1      44.714  25.317  31.313  1.00  0.00     0.074 A 
ATOM     58  C   UNL A   1      45.295  24.212  30.579  1.00  0.00     0.031 C 
ATOM     59  C   UNL A   1      45.200  25.795  32.484  1.00  0.00     0.034 A 
BRANCH  46  60
ATOM     60  C   UNL A   1      42.205  30.757  34.632  1.00  0.00     0.023 A 
ATOM     61  C   UNL A   1      41.577  30.489  35.866  1.00  0.00     0.012 A 
ATOM     62  C   UNL A   1      42.795  32.019  34.417  1.00  0.00     0.148 A 
ATOM     63  C   UNL A   1      41.507  31.468  36.856  1.00  0.00     0.002 A 
ATOM     64  C   UNL A   1      42.759  32.975  35.426  1.00  0.00     0.091 A 
ATOM     65  F   UNL A   1      43.368  32.263  33.231  1.00  0.00    -0.205 F 
ATOM     66  C   UNL A   1      42.105  32.706  36.640  1.00  0.00     0.022 A 
BRANCH  64  67
ATOM     67  S   UNL A   1      43.569  34.571  35.277  1.00  0.00     0.127 S 
ATOM     68  O   UNL A   1      43.231  35.194  36.556  1.00  0.00    -0.237 OA
ATOM     69  O   UNL A   1      44.975  34.191  35.137  1.00  0.00    -0.237 OA
ATOM     70  O   UNL A   1      42.992  35.205  34.100  1.00  0.00    -0.744 OA
ENDBRANCH  64  67
ENDBRANCH  46  60
BRANCH  47  71
ATOM     71  C   UNL A   1      42.670  24.007  27.272  1.00  0.00     0.023 A 
ATOM     72  C   UNL A   1      43.415  24.341  26.125  1.00  0.00     0.012 A 
ATOM     73  C   UNL A   1      42.070  22.736  27.354  1.00  0.00     0.148 A 
ATOM     74  C   UNL A   1      43.535  23.441  25.066  1.00  0.00     0.002 A 
ATOM     75  C   UNL A   1      42.240  21.822  26.320  1.00  0.00     0.091 A 
ATOM     76  F   UNL A   1      41.357  22.439  28.450  1.00  0.00    -0.205 F 
ATOM     77  C   UNL A   1      42.957  22.179  25.167  1.00  0.00     0.022 A 
BRANCH  75  78
ATOM     78  S   UNL A   1      41.647  20.129  26.424  1.00  0.00     0.127 S 
ATOM     79  O   UNL A   1      42.054  19.751  27.774  1.00  0.00    -0.237 OA
ATOM     80  O   UNL A   1      40.205  20.301  26.238  1.00  0.00    -0.237 OA
ATOM     81  O   UNL A   1      42.309  19.416  25.339  1.00  0.00    -0.744 OA
ENDBRANCH  75  78
ENDBRANCH  47  71
BRANCH  59  82
ATOM     82  C   UNL A   1      46.405  25.108  33.072  1.00  0.00     0.023 A 
ATOM     83  C   UNL A   1      47.697  25.574  32.762  1.00  0.00     0.012 A 
ATOM     84  C   UNL A   1      46.251  24.051  33.991  1.00  0.00     0.148 A 
ATOM     85  C   UNL A   1      48.821  24.979  33.334  1.00  0.00     0.002 A 
ATOM     86  C   UNL A   1      47.373  23.495  34.595  1.00  0.00     0.091 A 
ATOM     87  F   UNL A   1      45.013  23.609  34.259  1.00  0.00    -0.205 F 
ATOM     88  C   UNL A   1      48.658  23.950  34.259  1.00  0.00     0.022 A 
BRANCH  86  89
ATOM     89  S   UNL A   1      47.252  22.235  35.868  1.00  0.00     0.127 S 
ATOM     90  O   UNL A   1      46.631  21.132  35.137  1.00  0.00    -0.237 OA
ATOM     91  O   UNL A   1      48.654  22.016  36.225  1.00  0.00    -0.237 OA
ATOM     92  O   UNL A   1      46.443  22.815  36.932  1.00  0.00    -0.744 OA
ENDBRANCH  86  89
ENDBRANCH  59  82
ENDBRANCH  33  34
ENDBRANCH  25  28
ENDBRANCH  23  24
ENDBRANCH  22  23
ENDBRANCH  21  22
ENDBRANCH   3  21
TORSDOF 19
ENDMDL
