MODEL 1
REMARK VINA RESULT:     -11.3      0.000      0.000
REMARK SMILES CC[C@H]1CC(=O)N(CCn2cc(C(=O)NCCCNC(=O)c3ccc(-c4c5nc(c(-c6cccc(S(=O)(=O)[O-])c6F)c6ccc([nH]6)c(-c6cccc(S(=O)(=O)[O-])c6F)c6nc(c(-c7cccc(S(=O)(=O)[O-])c7F)c7ccc4[nH]7)C=C6)C=C5)cc3)nn2)C1
REMARK SMILES IDX 16 1 15 2 13 3 14 4 12 6 10 7 11 8 86 9 85 10 9 11 8 12 7 13
REMARK SMILES IDX 3 14 4 15 87 16 5 17 6 18 2 19 1 20 17 21 18 22 19 23 20 24
REMARK SMILES IDX 21 26 22 27 23 28 84 29 24 30 83 31 25 32 26 33 27 34 77 35
REMARK SMILES IDX 28 36 82 37 76 38 78 39 29 40 81 41 75 42 74 43 30 45 62 46
REMARK SMILES IDX 42 47 61 48 43 49 46 50 60 51 79 52 44 53 45 54 59 56 80 57
REMARK SMILES IDX 47 58 31 59 32 60 40 61 33 62 35 63 41 64 34 65 36 66 37 67
REMARK SMILES IDX 38 68 39 69 63 70 64 71 72 72 65 73 67 74 73 75 66 76 68 77
REMARK SMILES IDX 69 78 70 79 71 80 48 81 49 82 57 83 50 84 52 85 58 86 51 87
REMARK SMILES IDX 53 88 54 89 55 90 56 91
REMARK H PARENT 15 5 19 25 78 44 46 55
REMARK Flexibility Score: inf
ROOT
ATOM      1  C   UNL A   1      36.942  20.377  24.812  1.00  0.00     0.118 C 
ENDROOT
BRANCH   1   2
ATOM      2  N   UNL A   1      37.162  21.630  25.510  1.00  0.00    -0.351 N 
ATOM      3  C   UNL A   1      36.385  22.776  25.473  1.00  0.00     0.273 C 
ATOM      4  O   UNL A   1      36.547  23.637  26.314  1.00  0.00    -0.267 OA
ATOM      5  H   UNL A   1      37.964  21.671  26.081  1.00  0.00     0.163 HD
BRANCH   3   6
ATOM      6  C   UNL A   1      35.361  22.866  24.441  1.00  0.00     0.170 A 
ATOM      7  N   UNL A   1      33.523  22.958  23.310  1.00  0.00    -0.250 N 
ATOM      8  C   UNL A   1      34.002  22.649  24.546  1.00  0.00     0.145 A 
ATOM      9  N   UNL A   1      34.511  23.345  22.486  1.00  0.00    -0.067 NA
ATOM     10  N   UNL A   1      35.651  23.232  23.149  1.00  0.00    -0.125 NA
BRANCH   7  11
ATOM     11  C   UNL A   1      32.145  22.954  22.870  1.00  0.00     0.167 C 
BRANCH  11  12
ATOM     12  C   UNL A   1      31.238  23.929  23.624  1.00  0.00     0.143 C 
BRANCH  12  13
ATOM     13  N   UNL A   1      31.870  25.207  23.926  1.00  0.00    -0.341 N 
ATOM     14  C   UNL A   1      32.647  27.051  25.147  1.00  0.00     0.017 C 
ATOM     15  C   UNL A   1      33.031  27.219  23.674  1.00  0.00     0.105 C 
ATOM     16  C   UNL A   1      32.288  25.574  25.258  1.00  0.00     0.123 C 
ATOM     17  C   UNL A   1      32.268  26.126  22.972  1.00  0.00     0.222 C 
ATOM     18  O   UNL A   1      32.092  26.041  21.768  1.00  0.00    -0.275 OA
BRANCH  14  19
ATOM     19  C   UNL A   1      33.729  27.439  26.159  1.00  0.00     0.002 C 
ATOM     20  C   UNL A   1      34.097  28.913  26.141  1.00  0.00     0.004 C 
ENDBRANCH  14  19
ENDBRANCH  12  13
ENDBRANCH  11  12
ENDBRANCH   7  11
ENDBRANCH   3   6
ENDBRANCH   1   2
BRANCH   1  21
ATOM     21  C   UNL A   1      38.086  19.377  25.004  1.00  0.00     0.042 C 
BRANCH  21  22
ATOM     22  C   UNL A   1      39.288  20.001  25.697  1.00  0.00     0.118 C 
BRANCH  22  23
ATOM     23  N   UNL A   1      40.429  19.079  25.746  1.00  0.00    -0.352 N 
ATOM     24  C   UNL A   1      41.764  19.351  25.977  1.00  0.00     0.251 C 
ATOM     25  H   UNL A   1      40.213  18.131  25.590  1.00  0.00     0.163 HD
ATOM     26  O   UNL A   1      42.626  18.534  25.673  1.00  0.00    -0.269 OA
BRANCH  24  27
ATOM     27  C   UNL A   1      42.131  20.640  26.582  1.00  0.00     0.039 A 
ATOM     28  C   UNL A   1      42.666  21.678  25.814  1.00  0.00     0.014 A 
ATOM     29  C   UNL A   1      41.873  20.814  27.936  1.00  0.00     0.014 A 
ATOM     30  C   UNL A   1      42.850  22.925  26.405  1.00  0.00     0.010 A 
ATOM     31  C   UNL A   1      41.871  22.079  28.459  1.00  0.00     0.010 A 
ATOM     32  C   UNL A   1      42.428  23.123  27.727  1.00  0.00    -0.014 A 
BRANCH  32  33
ATOM     33  C   UNL A   1      42.486  24.439  28.352  1.00  0.00     0.031 A 
ATOM     34  C   UNL A   1      41.292  25.298  28.129  1.00  0.00     0.074 A 
ATOM     35  C   UNL A   1      43.423  24.750  29.273  1.00  0.00     0.049 A 
ATOM     36  N   UNL A   1      41.220  26.402  27.458  1.00  0.00    -0.248 NA
ATOM     37  C   UNL A   1      39.988  24.803  28.597  1.00  0.00     0.031 C 
ATOM     38  C   UNL A   1      44.435  23.860  29.864  1.00  0.00     0.029 A 
ATOM     39  N   UNL A   1      43.554  25.882  30.013  1.00  0.00    -0.354 N 
ATOM     40  C   UNL A   1      39.913  26.861  27.631  1.00  0.00     0.074 A 
ATOM     41  C   UNL A   1      39.163  25.742  28.133  1.00  0.00     0.031 C 
ATOM     42  C   UNL A   1      44.852  24.377  31.040  1.00  0.00     0.029 A 
ATOM     43  C   UNL A   1      44.297  25.707  31.176  1.00  0.00     0.049 A 
ATOM     44  H   UNL A   1      43.161  26.746  29.751  1.00  0.00     0.167 HD
ATOM     45  C   UNL A   1      39.618  28.192  27.603  1.00  0.00     0.034 A 
ATOM     46  C   UNL A   1      44.399  26.574  32.210  1.00  0.00     0.034 A 
ATOM     47  C   UNL A   1      40.725  28.957  27.082  1.00  0.00     0.049 A 
ATOM     48  C   UNL A   1      43.994  27.904  31.703  1.00  0.00     0.074 A 
ATOM     49  C   UNL A   1      41.447  28.976  25.907  1.00  0.00     0.029 A 
ATOM     50  N   UNL A   1      41.481  29.638  28.005  1.00  0.00    -0.354 N 
ATOM     51  N   UNL A   1      44.653  28.563  30.790  1.00  0.00    -0.248 NA
ATOM     52  C   UNL A   1      42.619  28.324  31.910  1.00  0.00     0.031 C 
ATOM     53  C   UNL A   1      42.788  29.251  26.306  1.00  0.00     0.029 A 
ATOM     54  C   UNL A   1      42.797  29.445  27.690  1.00  0.00     0.049 A 
ATOM     55  H   UNL A   1      41.138  30.171  28.758  1.00  0.00     0.167 HD
ATOM     56  C   UNL A   1      43.665  29.149  30.009  1.00  0.00     0.074 A 
ATOM     57  C   UNL A   1      42.451  29.076  30.820  1.00  0.00     0.031 C 
ATOM     58  C   UNL A   1      43.857  29.364  28.673  1.00  0.00     0.034 A 
BRANCH  45  59
ATOM     59  C   UNL A   1      38.517  28.879  28.391  1.00  0.00     0.023 A 
ATOM     60  C   UNL A   1      37.654  29.740  27.667  1.00  0.00     0.012 A 
ATOM     61  C   UNL A   1      38.453  28.964  29.800  1.00  0.00     0.148 A 
ATOM     62  C   UNL A   1      36.843  30.685  28.305  1.00  0.00     0.002 A 
ATOM     63  C   UNL A   1      37.584  29.849  30.432  1.00  0.00     0.091 A 
ATOM     64  F   UNL A   1      39.320  28.290  30.557  1.00  0.00    -0.205 F 
ATOM     65  C   UNL A   1      36.806  30.739  29.689  1.00  0.00     0.022 A 
BRANCH  63  66
ATOM     66  S   UNL A   1      37.453  29.918  32.224  1.00  0.00     0.127 S 
ATOM     67  O   UNL A   1      36.344  30.850  32.400  1.00  0.00    -0.237 OA
ATOM     68  O   UNL A   1      37.152  28.524  32.556  1.00  0.00    -0.237 OA
ATOM     69  O   UNL A   1      38.758  30.370  32.692  1.00  0.00    -0.744 OA
ENDBRANCH  63  66
ENDBRANCH  45  59
BRANCH  46  70
ATOM     70  C   UNL A   1      44.569  26.289  33.651  1.00  0.00     0.023 A 
ATOM     71  C   UNL A   1      45.849  26.369  34.230  1.00  0.00     0.012 A 
ATOM     72  C   UNL A   1      43.448  26.201  34.508  1.00  0.00     0.148 A 
ATOM     73  C   UNL A   1      46.008  26.393  35.621  1.00  0.00     0.002 A 
ATOM     74  C   UNL A   1      43.612  26.216  35.890  1.00  0.00     0.091 A 
ATOM     75  F   UNL A   1      42.222  26.194  33.967  1.00  0.00    -0.205 F 
ATOM     76  C   UNL A   1      44.890  26.324  36.450  1.00  0.00     0.022 A 
BRANCH  74  77
ATOM     77  S   UNL A   1      42.217  26.152  37.023  1.00  0.00     0.127 S 
ATOM     78  O   UNL A   1      41.678  24.817  36.762  1.00  0.00    -0.237 OA
ATOM     79  O   UNL A   1      42.873  26.304  38.318  1.00  0.00    -0.237 OA
ATOM     80  O   UNL A   1      41.337  27.244  36.627  1.00  0.00    -0.744 OA
ENDBRANCH  74  77
ENDBRANCH  46  70
BRANCH  58  81
ATOM     81  C   UNL A   1      45.253  29.247  28.119  1.00  0.00     0.023 A 
ATOM     82  C   UNL A   1      46.199  30.288  28.217  1.00  0.00     0.012 A 
ATOM     83  C   UNL A   1      45.679  27.981  27.680  1.00  0.00     0.148 A 
ATOM     84  C   UNL A   1      47.537  30.073  27.875  1.00  0.00     0.002 A 
ATOM     85  C   UNL A   1      47.018  27.756  27.391  1.00  0.00     0.091 A 
ATOM     86  F   UNL A   1      44.765  27.001  27.594  1.00  0.00    -0.205 F 
ATOM     87  C   UNL A   1      47.950  28.802  27.479  1.00  0.00     0.022 A 
BRANCH  85  88
ATOM     88  S   UNL A   1      47.630  26.112  27.018  1.00  0.00     0.127 S 
ATOM     89  O   UNL A   1      49.067  26.344  26.880  1.00  0.00    -0.237 OA
ATOM     90  O   UNL A   1      47.244  25.353  28.209  1.00  0.00    -0.237 OA
ATOM     91  O   UNL A   1      46.942  25.695  25.802  1.00  0.00    -0.744 OA
ENDBRANCH  85  88
ENDBRANCH  58  81
ENDBRANCH  32  33
ENDBRANCH  24  27
ENDBRANCH  22  23
ENDBRANCH  21  22
ENDBRANCH   1  21
TORSDOF 17
ENDMDL
MODEL 2
REMARK VINA RESULT:     -10.9      1.533      1.847
REMARK SMILES CC[C@H]1CC(=O)N(CCn2cc(C(=O)NCCCNC(=O)c3ccc(-c4c5nc(c(-c6cccc(S(=O)(=O)[O-])c6F)c6ccc([nH]6)c(-c6cccc(S(=O)(=O)[O-])c6F)c6nc(c(-c7cccc(S(=O)(=O)[O-])c7F)c7ccc4[nH]7)C=C6)C=C5)cc3)nn2)C1
REMARK SMILES IDX 16 1 15 2 13 3 14 4 12 6 10 7 11 8 86 9 85 10 9 11 8 12 7 13
REMARK SMILES IDX 3 14 4 15 87 16 5 17 6 18 2 19 1 20 17 21 18 22 19 23 20 24
REMARK SMILES IDX 21 26 22 27 23 28 84 29 24 30 83 31 25 32 26 33 27 34 77 35
REMARK SMILES IDX 28 36 82 37 76 38 78 39 29 40 81 41 75 42 74 43 30 45 62 46
REMARK SMILES IDX 42 47 61 48 43 49 46 50 60 51 79 52 44 53 45 54 59 56 80 57
REMARK SMILES IDX 47 58 31 59 32 60 40 61 33 62 35 63 41 64 34 65 36 66 37 67
REMARK SMILES IDX 38 68 39 69 63 70 64 71 72 72 65 73 67 74 73 75 66 76 68 77
REMARK SMILES IDX 69 78 70 79 71 80 48 81 49 82 57 83 50 84 52 85 58 86 51 87
REMARK SMILES IDX 53 88 54 89 55 90 56 91
REMARK H PARENT 15 5 19 25 78 44 46 55
REMARK Flexibility Score: inf
ROOT
ATOM      1  C   UNL A   1      36.258  20.229  24.979  1.00  0.00     0.118 C 
ENDROOT
BRANCH   1   2
ATOM      2  N   UNL A   1      36.090  21.247  25.999  1.00  0.00    -0.351 N 
ATOM      3  C   UNL A   1      35.323  22.398  25.938  1.00  0.00     0.273 C 
ATOM      4  O   UNL A   1      35.070  23.005  26.960  1.00  0.00    -0.267 OA
ATOM      5  H   UNL A   1      36.583  21.102  26.839  1.00  0.00     0.163 HD
BRANCH   3   6
ATOM      6  C   UNL A   1      34.809  22.801  24.636  1.00  0.00     0.170 A 
ATOM      7  N   UNL A   1      33.621  23.502  22.974  1.00  0.00    -0.250 N 
ATOM      8  C   UNL A   1      33.514  23.114  24.274  1.00  0.00     0.145 A 
ATOM      9  N   UNL A   1      34.893  23.441  22.548  1.00  0.00    -0.067 NA
ATOM     10  N   UNL A   1      35.622  22.952  23.540  1.00  0.00    -0.125 NA
BRANCH   7  11
ATOM     11  C   UNL A   1      32.568  23.986  22.107  1.00  0.00     0.167 C 
BRANCH  11  12
ATOM     12  C   UNL A   1      32.822  25.375  21.518  1.00  0.00     0.143 C 
BRANCH  12  13
ATOM     13  N   UNL A   1      32.626  26.462  22.468  1.00  0.00    -0.341 N 
ATOM     14  C   UNL A   1      31.645  27.785  24.136  1.00  0.00     0.017 C 
ATOM     15  C   UNL A   1      32.984  28.402  23.721  1.00  0.00     0.105 C 
ATOM     16  C   UNL A   1      31.716  26.366  23.585  1.00  0.00     0.123 C 
ATOM     17  C   UNL A   1      33.378  27.622  22.493  1.00  0.00     0.222 C 
ATOM     18  O   UNL A   1      34.252  27.935  21.702  1.00  0.00    -0.275 OA
BRANCH  14  19
ATOM     19  C   UNL A   1      31.357  27.785  25.641  1.00  0.00     0.002 C 
ATOM     20  C   UNL A   1      32.405  27.066  26.473  1.00  0.00     0.004 C 
ENDBRANCH  14  19
ENDBRANCH  12  13
ENDBRANCH  11  12
ENDBRANCH   7  11
ENDBRANCH   3   6
ENDBRANCH   1   2
BRANCH   1  21
ATOM     21  C   UNL A   1      37.717  20.044  24.554  1.00  0.00     0.042 C 
BRANCH  21  22
ATOM     22  C   UNL A   1      38.688  20.290  25.698  1.00  0.00     0.118 C 
BRANCH  22  23
ATOM     23  N   UNL A   1      39.749  19.277  25.742  1.00  0.00    -0.352 N 
ATOM     24  C   UNL A   1      41.102  19.436  25.973  1.00  0.00     0.251 C 
ATOM     25  H   UNL A   1      39.455  18.350  25.583  1.00  0.00     0.163 HD
ATOM     26  O   UNL A   1      41.893  18.551  25.665  1.00  0.00    -0.269 OA
BRANCH  24  27
ATOM     27  C   UNL A   1      41.576  20.688  26.582  1.00  0.00     0.039 A 
ATOM     28  C   UNL A   1      42.138  21.706  25.807  1.00  0.00     0.014 A 
ATOM     29  C   UNL A   1      41.391  20.850  27.950  1.00  0.00     0.014 A 
ATOM     30  C   UNL A   1      42.426  22.927  26.411  1.00  0.00     0.010 A 
ATOM     31  C   UNL A   1      41.491  22.102  28.493  1.00  0.00     0.010 A 
ATOM     32  C   UNL A   1      42.078  23.124  27.754  1.00  0.00    -0.014 A 
BRANCH  32  33
ATOM     33  C   UNL A   1      42.246  24.422  28.398  1.00  0.00     0.031 A 
ATOM     34  C   UNL A   1      41.103  25.362  28.235  1.00  0.00     0.074 A 
ATOM     35  C   UNL A   1      43.235  24.654  29.288  1.00  0.00     0.049 A 
ATOM     36  N   UNL A   1      41.080  26.480  27.586  1.00  0.00    -0.248 NA
ATOM     37  C   UNL A   1      39.788  24.944  28.744  1.00  0.00     0.031 C 
ATOM     38  C   UNL A   1      44.207  23.688  29.825  1.00  0.00     0.029 A 
ATOM     39  N   UNL A   1      43.468  25.760  30.041  1.00  0.00    -0.354 N 
ATOM     40  C   UNL A   1      39.814  27.021  27.816  1.00  0.00     0.074 A 
ATOM     41  C   UNL A   1      39.010  25.944  28.327  1.00  0.00     0.031 C 
ATOM     42  C   UNL A   1      44.699  24.154  30.992  1.00  0.00     0.029 A 
ATOM     43  C   UNL A   1      44.239  25.515  31.172  1.00  0.00     0.049 A 
ATOM     44  H   UNL A   1      43.122  26.652  29.809  1.00  0.00     0.167 HD
ATOM     45  C   UNL A   1      39.606  28.368  27.821  1.00  0.00     0.034 A 
ATOM     46  C   UNL A   1      44.436  26.353  32.215  1.00  0.00     0.034 A 
ATOM     47  C   UNL A   1      40.741  29.069  27.271  1.00  0.00     0.049 A 
ATOM     48  C   UNL A   1      44.102  27.717  31.746  1.00  0.00     0.074 A 
ATOM     49  C   UNL A   1      41.419  29.063  26.070  1.00  0.00     0.029 A 
ATOM     50  N   UNL A   1      41.575  29.681  28.176  1.00  0.00    -0.354 N 
ATOM     51  N   UNL A   1      44.768  28.348  30.820  1.00  0.00    -0.248 NA
ATOM     52  C   UNL A   1      42.766  28.222  32.013  1.00  0.00     0.031 C 
ATOM     53  C   UNL A   1      42.789  29.242  26.422  1.00  0.00     0.029 A 
ATOM     54  C   UNL A   1      42.862  29.409  27.807  1.00  0.00     0.049 A 
ATOM     55  H   UNL A   1      41.295  30.221  28.950  1.00  0.00     0.167 HD
ATOM     56  C   UNL A   1      43.793  29.012  30.086  1.00  0.00     0.074 A 
ATOM     57  C   UNL A   1      42.609  29.004  30.942  1.00  0.00     0.031 C 
ATOM     58  C   UNL A   1      43.950  29.239  28.749  1.00  0.00     0.034 A 
BRANCH  45  59
ATOM     59  C   UNL A   1      38.583  29.111  28.662  1.00  0.00     0.023 A 
ATOM     60  C   UNL A   1      37.837  30.125  28.011  1.00  0.00     0.012 A 
ATOM     61  C   UNL A   1      38.510  29.082  30.072  1.00  0.00     0.148 A 
ATOM     62  C   UNL A   1      37.134  31.102  28.726  1.00  0.00     0.002 A 
ATOM     63  C   UNL A   1      37.742  30.006  30.775  1.00  0.00     0.091 A 
ATOM     64  F   UNL A   1      39.282  28.248  30.772  1.00  0.00    -0.205 F 
ATOM     65  C   UNL A   1      37.084  31.042  30.110  1.00  0.00     0.022 A 
BRANCH  63  66
ATOM     66  S   UNL A   1      37.596  29.937  32.566  1.00  0.00     0.127 S 
ATOM     67  O   UNL A   1      38.921  30.382  32.984  1.00  0.00    -0.237 OA
ATOM     68  O   UNL A   1      36.513  30.890  32.816  1.00  0.00    -0.237 OA
ATOM     69  O   UNL A   1      37.252  28.554  32.875  1.00  0.00    -0.744 OA
ENDBRANCH  63  66
ENDBRANCH  45  59
BRANCH  46  70
ATOM     70  C   UNL A   1      44.641  26.031  33.644  1.00  0.00     0.023 A 
ATOM     71  C   UNL A   1      45.947  25.933  34.156  1.00  0.00     0.012 A 
ATOM     72  C   UNL A   1      43.563  26.081  34.558  1.00  0.00     0.148 A 
ATOM     73  C   UNL A   1      46.178  25.919  35.537  1.00  0.00     0.002 A 
ATOM     74  C   UNL A   1      43.797  26.057  35.929  1.00  0.00     0.091 A 
ATOM     75  F   UNL A   1      42.321  26.242  34.081  1.00  0.00    -0.205 F 
ATOM     76  C   UNL A   1      45.105  25.988  36.423  1.00  0.00     0.022 A 
BRANCH  74  77
ATOM     77  S   UNL A   1      42.465  26.164  37.133  1.00  0.00     0.127 S 
ATOM     78  O   UNL A   1      43.200  26.142  38.398  1.00  0.00    -0.237 OA
ATOM     79  O   UNL A   1      41.859  27.450  36.799  1.00  0.00    -0.237 OA
ATOM     80  O   UNL A   1      41.630  24.992  36.901  1.00  0.00    -0.744 OA
ENDBRANCH  74  77
ENDBRANCH  46  70
BRANCH  58  81
ATOM     81  C   UNL A   1      45.314  29.042  28.140  1.00  0.00     0.023 A 
ATOM     82  C   UNL A   1      45.670  27.870  27.439  1.00  0.00     0.012 A 
ATOM     83  C   UNL A   1      46.177  30.150  28.094  1.00  0.00     0.148 A 
ATOM     84  C   UNL A   1      46.865  27.804  26.719  1.00  0.00     0.002 A 
ATOM     85  C   UNL A   1      47.339  30.099  27.335  1.00  0.00     0.091 A 
ATOM     86  F   UNL A   1      45.822  31.256  28.765  1.00  0.00    -0.205 F 
ATOM     87  C   UNL A   1      47.691  28.924  26.652  1.00  0.00     0.022 A 
BRANCH  85  88
ATOM     88  S   UNL A   1      48.362  31.552  27.095  1.00  0.00     0.127 S 
ATOM     89  O   UNL A   1      47.510  32.392  26.256  1.00  0.00    -0.237 OA
ATOM     90  O   UNL A   1      48.544  32.039  28.464  1.00  0.00    -0.237 OA
ATOM     91  O   UNL A   1      49.590  31.078  26.468  1.00  0.00    -0.744 OA
ENDBRANCH  85  88
ENDBRANCH  58  81
ENDBRANCH  32  33
ENDBRANCH  24  27
ENDBRANCH  22  23
ENDBRANCH  21  22
ENDBRANCH   1  21
TORSDOF 17
ENDMDL
MODEL 3
REMARK VINA RESULT:     -10.9      1.569      1.896
REMARK SMILES CC[C@H]1CC(=O)N(CCn2cc(C(=O)NCCCNC(=O)c3ccc(-c4c5nc(c(-c6cccc(S(=O)(=O)[O-])c6F)c6ccc([nH]6)c(-c6cccc(S(=O)(=O)[O-])c6F)c6nc(c(-c7cccc(S(=O)(=O)[O-])c7F)c7ccc4[nH]7)C=C6)C=C5)cc3)nn2)C1
REMARK SMILES IDX 16 1 15 2 13 3 14 4 12 6 10 7 11 8 86 9 85 10 9 11 8 12 7 13
REMARK SMILES IDX 3 14 4 15 87 16 5 17 6 18 2 19 1 20 17 21 18 22 19 23 20 24
REMARK SMILES IDX 21 26 22 27 23 28 84 29 24 30 83 31 25 32 26 33 27 34 77 35
REMARK SMILES IDX 28 36 82 37 76 38 78 39 29 40 81 41 75 42 74 43 30 45 62 46
REMARK SMILES IDX 42 47 61 48 43 49 46 50 60 51 79 52 44 53 45 54 59 56 80 57
REMARK SMILES IDX 47 58 31 59 32 60 40 61 33 62 35 63 41 64 34 65 36 66 37 67
REMARK SMILES IDX 38 68 39 69 63 70 64 71 72 72 65 73 67 74 73 75 66 76 68 77
REMARK SMILES IDX 69 78 70 79 71 80 48 81 49 82 57 83 50 84 52 85 58 86 51 87
REMARK SMILES IDX 53 88 54 89 55 90 56 91
REMARK H PARENT 15 5 19 25 78 44 46 55
REMARK Flexibility Score: inf
ROOT
ATOM      1  C   UNL A   1      35.865  20.524  25.019  1.00  0.00     0.118 C 
ENDROOT
BRANCH   1   2
ATOM      2  N   UNL A   1      35.539  21.158  26.284  1.00  0.00    -0.351 N 
ATOM      3  C   UNL A   1      34.638  22.183  26.517  1.00  0.00     0.273 C 
ATOM      4  O   UNL A   1      34.277  22.417  27.653  1.00  0.00    -0.267 OA
ATOM      5  H   UNL A   1      36.016  20.816  27.074  1.00  0.00     0.163 HD
BRANCH   3   6
ATOM      6  C   UNL A   1      34.122  22.906  25.363  1.00  0.00     0.170 A 
ATOM      7  N   UNL A   1      33.734  24.308  23.765  1.00  0.00    -0.250 N 
ATOM      8  C   UNL A   1      34.433  24.178  24.926  1.00  0.00     0.145 A 
ATOM      9  N   UNL A   1      33.034  23.195  23.489  1.00  0.00    -0.067 NA
ATOM     10  N   UNL A   1      33.214  22.351  24.494  1.00  0.00    -0.125 NA
BRANCH   7  11
ATOM     11  C   UNL A   1      33.730  25.434  22.857  1.00  0.00     0.167 C 
BRANCH  11  12
ATOM     12  C   UNL A   1      32.461  26.287  22.911  1.00  0.00     0.143 C 
BRANCH  12  13
ATOM     13  N   UNL A   1      32.048  26.642  24.263  1.00  0.00    -0.341 N 
ATOM     14  C   UNL A   1      32.055  27.646  26.381  1.00  0.00     0.017 C 
ATOM     15  C   UNL A   1      30.807  26.770  26.239  1.00  0.00     0.105 C 
ATOM     16  C   UNL A   1      32.543  27.813  24.947  1.00  0.00     0.123 C 
ATOM     17  C   UNL A   1      31.048  25.997  24.968  1.00  0.00     0.222 C 
ATOM     18  O   UNL A   1      30.423  25.014  24.603  1.00  0.00    -0.275 OA
BRANCH  14  19
ATOM     19  C   UNL A   1      31.836  29.003  27.057  1.00  0.00     0.002 C 
ATOM     20  C   UNL A   1      32.125  30.196  26.161  1.00  0.00     0.004 C 
ENDBRANCH  14  19
ENDBRANCH  12  13
ENDBRANCH  11  12
ENDBRANCH   7  11
ENDBRANCH   3   6
ENDBRANCH   1   2
BRANCH   1  21
ATOM     21  C   UNL A   1      37.199  21.003  24.438  1.00  0.00     0.042 C 
BRANCH  21  22
ATOM     22  C   UNL A   1      38.270  21.162  25.506  1.00  0.00     0.118 C 
BRANCH  22  23
ATOM     23  N   UNL A   1      39.118  19.968  25.612  1.00  0.00    -0.352 N 
ATOM     24  C   UNL A   1      40.460  19.872  25.926  1.00  0.00     0.251 C 
ATOM     25  H   UNL A   1      38.665  19.111  25.431  1.00  0.00     0.163 HD
ATOM     26  O   UNL A   1      41.088  18.853  25.664  1.00  0.00    -0.269 OA
BRANCH  24  27
ATOM     27  C   UNL A   1      41.122  21.018  26.568  1.00  0.00     0.039 A 
ATOM     28  C   UNL A   1      41.860  21.942  25.823  1.00  0.00     0.014 A 
ATOM     29  C   UNL A   1      40.938  21.186  27.935  1.00  0.00     0.014 A 
ATOM     30  C   UNL A   1      42.334  23.088  26.456  1.00  0.00     0.010 A 
ATOM     31  C   UNL A   1      41.233  22.394  28.505  1.00  0.00     0.010 A 
ATOM     32  C   UNL A   1      41.996  23.318  27.797  1.00  0.00    -0.014 A 
BRANCH  32  33
ATOM     33  C   UNL A   1      42.363  24.559  28.469  1.00  0.00     0.031 A 
ATOM     34  C   UNL A   1      41.410  25.686  28.280  1.00  0.00     0.074 A 
ATOM     35  C   UNL A   1      43.342  24.603  29.399  1.00  0.00     0.049 A 
ATOM     36  N   UNL A   1      41.609  26.799  27.651  1.00  0.00    -0.248 NA
ATOM     37  C   UNL A   1      40.023  25.501  28.733  1.00  0.00     0.031 C 
ATOM     38  C   UNL A   1      44.107  23.476  29.955  1.00  0.00     0.029 A 
ATOM     39  N   UNL A   1      43.735  25.644  30.179  1.00  0.00    -0.354 N 
ATOM     40  C   UNL A   1      40.449  27.551  27.843  1.00  0.00     0.074 A 
ATOM     41  C   UNL A   1      39.449  26.626  28.306  1.00  0.00     0.031 C 
ATOM     42  C   UNL A   1      44.627  23.836  31.147  1.00  0.00     0.029 A 
ATOM     43  C   UNL A   1      44.406  25.255  31.333  1.00  0.00     0.049 A 
ATOM     44  H   UNL A   1      43.561  26.585  29.950  1.00  0.00     0.167 HD
ATOM     45  C   UNL A   1      40.481  28.913  27.864  1.00  0.00     0.034 A 
ATOM     46  C   UNL A   1      44.706  26.034  32.397  1.00  0.00     0.034 A 
ATOM     47  C   UNL A   1      41.742  29.410  27.368  1.00  0.00     0.049 A 
ATOM     48  C   UNL A   1      44.635  27.440  31.941  1.00  0.00     0.074 A 
ATOM     49  C   UNL A   1      42.455  29.298  26.193  1.00  0.00     0.029 A 
ATOM     50  N   UNL A   1      42.633  29.856  28.314  1.00  0.00    -0.354 N 
ATOM     51  N   UNL A   1      45.437  27.954  31.050  1.00  0.00    -0.248 NA
ATOM     52  C   UNL A   1      43.398  28.169  32.166  1.00  0.00     0.031 C 
ATOM     53  C   UNL A   1      43.820  29.229  26.599  1.00  0.00     0.029 A 
ATOM     54  C   UNL A   1      43.867  29.366  27.989  1.00  0.00     0.049 A 
ATOM     55  H   UNL A   1      42.422  30.428  29.087  1.00  0.00     0.167 HD
ATOM     56  C   UNL A   1      44.623  28.787  30.293  1.00  0.00     0.074 A 
ATOM     57  C   UNL A   1      43.423  28.978  31.104  1.00  0.00     0.031 C 
ATOM     58  C   UNL A   1      44.870  28.998  28.967  1.00  0.00     0.034 A 
BRANCH  45  59
ATOM     59  C   UNL A   1      39.571  29.815  28.680  1.00  0.00     0.023 A 
ATOM     60  C   UNL A   1      39.948  30.055  30.025  1.00  0.00     0.012 A 
ATOM     61  C   UNL A   1      38.260  30.196  28.315  1.00  0.00     0.148 A 
ATOM     62  C   UNL A   1      39.047  30.561  30.968  1.00  0.00     0.002 A 
ATOM     63  C   UNL A   1      37.394  30.776  29.238  1.00  0.00     0.091 A 
ATOM     64  F   UNL A   1      37.777  29.887  27.111  1.00  0.00    -0.205 F 
ATOM     65  C   UNL A   1      37.768  30.924  30.576  1.00  0.00     0.022 A 
BRANCH  63  66
ATOM     66  S   UNL A   1      35.746  31.319  28.767  1.00  0.00     0.127 S 
ATOM     67  O   UNL A   1      36.049  32.314  27.743  1.00  0.00    -0.237 OA
ATOM     68  O   UNL A   1      35.152  30.077  28.269  1.00  0.00    -0.237 OA
ATOM     69  O   UNL A   1      35.135  31.819  29.993  1.00  0.00    -0.744 OA
ENDBRANCH  63  66
ENDBRANCH  45  59
BRANCH  46  70
ATOM     70  C   UNL A   1      44.794  25.665  33.827  1.00  0.00     0.023 A 
ATOM     71  C   UNL A   1      46.041  25.327  34.384  1.00  0.00     0.012 A 
ATOM     72  C   UNL A   1      43.709  25.900  34.703  1.00  0.00     0.148 A 
ATOM     73  C   UNL A   1      46.213  25.257  35.772  1.00  0.00     0.002 A 
ATOM     74  C   UNL A   1      43.882  25.820  36.081  1.00  0.00     0.091 A 
ATOM     75  F   UNL A   1      42.536  26.289  34.185  1.00  0.00    -0.205 F 
ATOM     76  C   UNL A   1      45.137  25.510  36.620  1.00  0.00     0.022 A 
BRANCH  74  77
ATOM     77  S   UNL A   1      42.547  26.154  37.238  1.00  0.00     0.127 S 
ATOM     78  O   UNL A   1      41.667  25.006  37.022  1.00  0.00    -0.237 OA
ATOM     79  O   UNL A   1      43.250  26.154  38.518  1.00  0.00    -0.237 OA
ATOM     80  O   UNL A   1      41.981  27.433  36.828  1.00  0.00    -0.744 OA
ENDBRANCH  74  77
ENDBRANCH  46  70
BRANCH  58  81
ATOM     81  C   UNL A   1      46.201  28.570  28.405  1.00  0.00     0.023 A 
ATOM     82  C   UNL A   1      47.381  29.318  28.595  1.00  0.00     0.012 A 
ATOM     83  C   UNL A   1      46.295  27.279  27.857  1.00  0.00     0.148 A 
ATOM     84  C   UNL A   1      48.626  28.793  28.236  1.00  0.00     0.002 A 
ATOM     85  C   UNL A   1      47.538  26.740  27.550  1.00  0.00     0.091 A 
ATOM     86  F   UNL A   1      45.163  26.580  27.685  1.00  0.00    -0.205 F 
ATOM     87  C   UNL A   1      48.706  27.497  27.730  1.00  0.00     0.022 A 
BRANCH  85  88
ATOM     88  S   UNL A   1      47.714  25.031  27.035  1.00  0.00     0.127 S 
ATOM     89  O   UNL A   1      47.244  25.078  25.652  1.00  0.00    -0.237 OA
ATOM     90  O   UNL A   1      49.152  24.802  27.186  1.00  0.00    -0.237 OA
ATOM     91  O   UNL A   1      46.891  24.250  27.951  1.00  0.00    -0.744 OA
ENDBRANCH  85  88
ENDBRANCH  58  81
ENDBRANCH  32  33
ENDBRANCH  24  27
ENDBRANCH  22  23
ENDBRANCH  21  22
ENDBRANCH   1  21
TORSDOF 17
ENDMDL
