MODEL 1
REMARK VINA RESULT:     -10.9      0.000      0.000
REMARK SMILES O=C(C[C@H]([NH2+]Cc1ccccc1C1CC1)c1cccs1)NCCCNC(=O)c1ccc(-c2c3nc(c(-c4cccc(S(=O)(=O)[O-])c4F)c4ccc([nH]4)c(-c4cccc(S(=O)(=O)[O-])c4F)c4nc(c(-c5cccc(S(=O)(=O)[O-])c5F)c5ccc2[nH]5)C=C4)C=C3)cc1
REMARK SMILES IDX 22 1 21 2 1 3 2 4 3 6 4 7 16 8 17 9 20 10 18 11 19 12 5 13
REMARK SMILES IDX 6 16 7 17 8 18 12 19 9 20 11 21 10 22 13 23 14 24 15 25
REMARK SMILES IDX 23 26 24 27 25 28 26 29 27 31 28 32 29 33 90 34 30 35 89 36
REMARK SMILES IDX 31 37 32 38 33 39 83 40 34 41 88 42 82 43 84 44 35 45 87 46
REMARK SMILES IDX 81 47 80 48 36 50 68 51 48 52 67 53 49 54 52 55 66 56 85 57
REMARK SMILES IDX 50 58 51 59 65 61 86 62 53 63 37 64 38 65 46 66 39 67 41 68
REMARK SMILES IDX 47 69 40 70 42 71 43 72 44 73 45 74 69 75 70 76 78 77 71 78
REMARK SMILES IDX 73 79 79 80 72 81 74 82 75 83 76 84 77 85 54 86 55 87 63 88
REMARK SMILES IDX 56 89 58 90 64 91 57 92 59 93 60 94 61 95 62 96
REMARK H PARENT 21 5 5 14 5 15 25 30 84 49 52 60
REMARK Flexibility Score: inf
ROOT
ATOM      1  C   UNL A   1      36.561  20.553  25.294  1.00  0.00     0.117 C 
ENDROOT
BRANCH   1   2
ATOM      2  N   UNL A   1      35.966  21.809  25.732  1.00  0.00    -0.356 N 
ATOM      3  O   UNL A   1      33.946  20.904  26.342  1.00  0.00    -0.275 OA
ATOM      4  C   UNL A   1      34.698  21.872  26.276  1.00  0.00     0.226 C 
ATOM      5  H   UNL A   1      36.486  22.641  25.636  1.00  0.00     0.163 HD
BRANCH   4   6
ATOM      6  C   UNL A   1      34.302  23.222  26.847  1.00  0.00     0.171 C 
BRANCH   6   7
ATOM      7  C   UNL A   1      34.105  24.275  25.743  1.00  0.00     0.233 C 
BRANCH   7   8
ATOM      8  C   UNL A   1      33.331  23.717  24.563  1.00  0.00     0.062 A 
ATOM      9  C   UNL A   1      33.806  23.471  23.286  1.00  0.00     0.021 A 
ATOM     10  S   UNL A   1      31.649  23.379  24.672  1.00  0.00    -0.143 S 
ATOM     11  C   UNL A   1      32.775  23.074  22.387  1.00  0.00     0.012 A 
ATOM     12  C   UNL A   1      31.550  22.999  23.009  1.00  0.00     0.065 A 
ENDBRANCH   7   8
BRANCH   7  13
ATOM     13  N   UNL A   1      33.471  25.530  26.206  1.00  0.00    -0.335 N 
ATOM     14  H   UNL A   1      33.852  25.784  27.118  1.00  0.00     0.347 HD
ATOM     15  H   UNL A   1      32.464  25.388  26.278  1.00  0.00     0.347 HD
BRANCH  13  16
ATOM     16  C   UNL A   1      33.735  26.612  25.253  1.00  0.00     0.298 C 
BRANCH  16  17
ATOM     17  C   UNL A   1      33.427  28.000  25.768  1.00  0.00     0.010 A 
ATOM     18  C   UNL A   1      34.403  28.579  26.616  1.00  0.00     0.010 A 
ATOM     19  C   UNL A   1      32.208  28.684  25.536  1.00  0.00    -0.036 A 
ATOM     20  C   UNL A   1      34.171  29.770  27.296  1.00  0.00     0.001 A 
ATOM     21  C   UNL A   1      31.998  29.871  26.284  1.00  0.00     0.004 A 
ATOM     22  C   UNL A   1      32.950  30.404  27.153  1.00  0.00     0.000 A 
BRANCH  19  23
ATOM     23  C   UNL A   1      31.114  28.362  24.531  1.00  0.00     0.020 C 
ATOM     24  C   UNL A   1      30.447  29.283  23.560  1.00  0.00     0.009 C 
ATOM     25  C   UNL A   1      31.426  28.275  23.054  1.00  0.00     0.009 C 
ENDBRANCH  19  23
ENDBRANCH  16  17
ENDBRANCH  13  16
ENDBRANCH   7  13
ENDBRANCH   6   7
ENDBRANCH   4   6
ENDBRANCH   1   2
BRANCH   1  26
ATOM     26  C   UNL A   1      38.020  20.678  24.877  1.00  0.00     0.042 C 
BRANCH  26  27
ATOM     27  C   UNL A   1      39.021  20.653  26.029  1.00  0.00     0.118 C 
BRANCH  27  28
ATOM     28  N   UNL A   1      39.980  19.557  25.950  1.00  0.00    -0.352 N 
ATOM     29  C   UNL A   1      41.350  19.572  26.065  1.00  0.00     0.251 C 
ATOM     30  H   UNL A   1      39.585  18.670  25.789  1.00  0.00     0.163 HD
ATOM     31  O   UNL A   1      41.981  18.534  25.862  1.00  0.00    -0.269 OA
BRANCH  29  32
ATOM     32  C   UNL A   1      42.076  20.821  26.394  1.00  0.00     0.039 A 
ATOM     33  C   UNL A   1      42.462  21.668  25.350  1.00  0.00     0.014 A 
ATOM     34  C   UNL A   1      42.378  21.167  27.713  1.00  0.00     0.014 A 
ATOM     35  C   UNL A   1      43.068  22.895  25.634  1.00  0.00     0.010 A 
ATOM     36  C   UNL A   1      42.914  22.422  28.000  1.00  0.00     0.010 A 
ATOM     37  C   UNL A   1      43.254  23.307  26.964  1.00  0.00    -0.014 A 
BRANCH  37  38
ATOM     38  C   UNL A   1      43.741  24.675  27.290  1.00  0.00     0.031 A 
ATOM     39  C   UNL A   1      42.791  25.741  27.767  1.00  0.00     0.074 A 
ATOM     40  C   UNL A   1      45.033  24.987  27.060  1.00  0.00     0.049 A 
ATOM     41  N   UNL A   1      43.029  27.001  28.027  1.00  0.00    -0.248 NA
ATOM     42  C   UNL A   1      41.386  25.346  27.959  1.00  0.00     0.031 C 
ATOM     43  C   UNL A   1      46.042  24.069  26.530  1.00  0.00     0.029 A 
ATOM     44  N   UNL A   1      45.712  26.172  27.212  1.00  0.00    -0.354 N 
ATOM     45  C   UNL A   1      41.806  27.558  28.379  1.00  0.00     0.074 A 
ATOM     46  C   UNL A   1      40.820  26.502  28.274  1.00  0.00     0.031 C 
ATOM     47  C   UNL A   1      47.208  24.721  26.401  1.00  0.00     0.029 A 
ATOM     48  C   UNL A   1      47.024  26.112  26.798  1.00  0.00     0.049 A 
ATOM     49  H   UNL A   1      45.300  26.986  27.581  1.00  0.00     0.167 HD
ATOM     50  C   UNL A   1      41.529  28.824  28.773  1.00  0.00     0.034 A 
ATOM     51  C   UNL A   1      47.968  27.071  26.725  1.00  0.00     0.034 A 
ATOM     52  C   UNL A   1      42.514  29.867  28.901  1.00  0.00     0.049 A 
ATOM     53  C   UNL A   1      47.636  28.467  27.177  1.00  0.00     0.074 A 
ATOM     54  C   UNL A   1      42.343  31.155  29.377  1.00  0.00     0.029 A 
ATOM     55  N   UNL A   1      43.846  29.751  28.537  1.00  0.00    -0.354 N 
ATOM     56  N   UNL A   1      46.509  28.932  27.660  1.00  0.00    -0.248 NA
ATOM     57  C   UNL A   1      48.715  29.464  27.105  1.00  0.00     0.031 C 
ATOM     58  C   UNL A   1      43.563  31.830  29.264  1.00  0.00     0.029 A 
ATOM     59  C   UNL A   1      44.504  30.951  28.754  1.00  0.00     0.049 A 
ATOM     60  H   UNL A   1      44.263  28.936  28.174  1.00  0.00     0.167 HD
ATOM     61  C   UNL A   1      46.751  30.264  27.975  1.00  0.00     0.074 A 
ATOM     62  C   UNL A   1      48.140  30.523  27.656  1.00  0.00     0.031 C 
ATOM     63  C   UNL A   1      45.896  31.192  28.472  1.00  0.00     0.034 A 
BRANCH  50  64
ATOM     64  C   UNL A   1      40.103  29.151  29.135  1.00  0.00     0.023 A 
ATOM     65  C   UNL A   1      39.160  29.388  28.114  1.00  0.00     0.012 A 
ATOM     66  C   UNL A   1      39.679  29.158  30.479  1.00  0.00     0.148 A 
ATOM     67  C   UNL A   1      37.828  29.661  28.423  1.00  0.00     0.002 A 
ATOM     68  C   UNL A   1      38.340  29.384  30.778  1.00  0.00     0.091 A 
ATOM     69  F   UNL A   1      40.591  28.948  31.438  1.00  0.00    -0.205 F 
ATOM     70  C   UNL A   1      37.416  29.648  29.753  1.00  0.00     0.022 A 
BRANCH  68  71
ATOM     71  S   UNL A   1      37.693  29.310  32.453  1.00  0.00     0.127 S 
ATOM     72  O   UNL A   1      37.793  27.881  32.744  1.00  0.00    -0.237 OA
ATOM     73  O   UNL A   1      38.643  30.148  33.185  1.00  0.00    -0.237 OA
ATOM     74  O   UNL A   1      36.339  29.840  32.384  1.00  0.00    -0.744 OA
ENDBRANCH  68  71
ENDBRANCH  50  64
BRANCH  51  75
ATOM     75  C   UNL A   1      49.335  26.734  26.235  1.00  0.00     0.023 A 
ATOM     76  C   UNL A   1      50.191  25.962  27.045  1.00  0.00     0.012 A 
ATOM     77  C   UNL A   1      49.784  27.157  24.970  1.00  0.00     0.148 A 
ATOM     78  C   UNL A   1      51.481  25.646  26.617  1.00  0.00     0.002 A 
ATOM     79  C   UNL A   1      51.048  26.789  24.525  1.00  0.00     0.091 A 
ATOM     80  F   UNL A   1      48.958  27.900  24.220  1.00  0.00    -0.205 F 
ATOM     81  C   UNL A   1      51.905  26.050  25.355  1.00  0.00     0.022 A 
BRANCH  79  82
ATOM     82  S   UNL A   1      51.628  27.150  22.864  1.00  0.00     0.127 S 
ATOM     83  O   UNL A   1      51.894  28.584  22.946  1.00  0.00    -0.237 OA
ATOM     84  O   UNL A   1      52.819  26.305  22.772  1.00  0.00    -0.237 OA
ATOM     85  O   UNL A   1      50.544  26.758  21.973  1.00  0.00    -0.744 OA
ENDBRANCH  79  82
ENDBRANCH  51  75
BRANCH  63  86
ATOM     86  C   UNL A   1      46.438  32.575  28.731  1.00  0.00     0.023 A 
ATOM     87  C   UNL A   1      46.972  32.894  29.996  1.00  0.00     0.012 A 
ATOM     88  C   UNL A   1      46.477  33.537  27.704  1.00  0.00     0.148 A 
ATOM     89  C   UNL A   1      47.500  34.162  30.244  1.00  0.00     0.002 A 
ATOM     90  C   UNL A   1      47.052  34.779  27.942  1.00  0.00     0.091 A 
ATOM     91  F   UNL A   1      45.950  33.221  26.512  1.00  0.00    -0.205 F 
ATOM     92  C   UNL A   1      47.550  35.098  29.215  1.00  0.00     0.022 A 
BRANCH  90  93
ATOM     93  S   UNL A   1      47.249  36.017  26.655  1.00  0.00     0.127 S 
ATOM     94  O   UNL A   1      45.886  36.529  26.522  1.00  0.00    -0.237 OA
ATOM     95  O   UNL A   1      48.196  36.950  27.267  1.00  0.00    -0.237 OA
ATOM     96  O   UNL A   1      47.764  35.309  25.490  1.00  0.00    -0.744 OA
ENDBRANCH  90  93
ENDBRANCH  63  86
ENDBRANCH  37  38
ENDBRANCH  29  32
ENDBRANCH  27  28
ENDBRANCH  26  27
ENDBRANCH   1  26
TORSDOF 19
ENDMDL
MODEL 2
REMARK VINA RESULT:     -10.8      2.326      8.125
REMARK SMILES O=C(C[C@H]([NH2+]Cc1ccccc1C1CC1)c1cccs1)NCCCNC(=O)c1ccc(-c2c3nc(c(-c4cccc(S(=O)(=O)[O-])c4F)c4ccc([nH]4)c(-c4cccc(S(=O)(=O)[O-])c4F)c4nc(c(-c5cccc(S(=O)(=O)[O-])c5F)c5ccc2[nH]5)C=C4)C=C3)cc1
REMARK SMILES IDX 22 1 21 2 1 3 2 4 3 6 4 7 16 8 17 9 20 10 18 11 19 12 5 13
REMARK SMILES IDX 6 16 7 17 8 18 12 19 9 20 11 21 10 22 13 23 14 24 15 25
REMARK SMILES IDX 23 26 24 27 25 28 26 29 27 31 28 32 29 33 90 34 30 35 89 36
REMARK SMILES IDX 31 37 32 38 33 39 83 40 34 41 88 42 82 43 84 44 35 45 87 46
REMARK SMILES IDX 81 47 80 48 36 50 68 51 48 52 67 53 49 54 52 55 66 56 85 57
REMARK SMILES IDX 50 58 51 59 65 61 86 62 53 63 37 64 38 65 46 66 39 67 41 68
REMARK SMILES IDX 47 69 40 70 42 71 43 72 44 73 45 74 69 75 70 76 78 77 71 78
REMARK SMILES IDX 73 79 79 80 72 81 74 82 75 83 76 84 77 85 54 86 55 87 63 88
REMARK SMILES IDX 56 89 58 90 64 91 57 92 59 93 60 94 61 95 62 96
REMARK H PARENT 21 5 5 14 5 15 25 30 84 49 52 60
REMARK Flexibility Score: inf
ROOT
ATOM      1  C   UNL A   1      36.230  20.130  24.932  1.00  0.00     0.117 C 
ENDROOT
BRANCH   1   2
ATOM      2  N   UNL A   1      36.014  21.566  25.048  1.00  0.00    -0.356 N 
ATOM      3  O   UNL A   1      34.723  21.450  26.944  1.00  0.00    -0.275 OA
ATOM      4  C   UNL A   1      35.303  22.121  26.095  1.00  0.00     0.226 C 
ATOM      5  H   UNL A   1      36.388  22.161  24.358  1.00  0.00     0.163 HD
BRANCH   4   6
ATOM      6  C   UNL A   1      35.328  23.638  26.166  1.00  0.00     0.171 C 
BRANCH   6   7
ATOM      7  C   UNL A   1      34.232  24.269  25.290  1.00  0.00     0.233 C 
BRANCH   7   8
ATOM      8  C   UNL A   1      32.859  23.712  25.617  1.00  0.00     0.062 A 
ATOM      9  C   UNL A   1      32.096  23.964  26.745  1.00  0.00     0.021 A 
ATOM     10  S   UNL A   1      32.084  22.572  24.591  1.00  0.00    -0.143 S 
ATOM     11  C   UNL A   1      30.915  23.170  26.795  1.00  0.00     0.012 A 
ATOM     12  C   UNL A   1      30.795  22.357  25.691  1.00  0.00     0.065 A 
ENDBRANCH   7   8
BRANCH   7  13
ATOM     13  N   UNL A   1      34.193  25.749  25.338  1.00  0.00    -0.335 N 
ATOM     14  H   UNL A   1      35.123  26.103  25.564  1.00  0.00     0.347 HD
ATOM     15  H   UNL A   1      33.526  26.041  26.052  1.00  0.00     0.347 HD
BRANCH  13  16
ATOM     16  C   UNL A   1      33.774  26.286  24.040  1.00  0.00     0.298 C 
BRANCH  16  17
ATOM     17  C   UNL A   1      32.420  26.961  24.041  1.00  0.00     0.010 A 
ATOM     18  C   UNL A   1      31.355  26.219  23.476  1.00  0.00     0.010 A 
ATOM     19  C   UNL A   1      32.196  28.292  24.472  1.00  0.00    -0.036 A 
ATOM     20  C   UNL A   1      30.103  26.784  23.255  1.00  0.00     0.001 A 
ATOM     21  C   UNL A   1      30.918  28.839  24.186  1.00  0.00     0.004 A 
ATOM     22  C   UNL A   1      29.892  28.111  23.584  1.00  0.00     0.000 A 
BRANCH  19  23
ATOM     23  C   UNL A   1      33.114  29.201  25.272  1.00  0.00     0.020 C 
ATOM     24  C   UNL A   1      32.749  30.169  26.352  1.00  0.00     0.009 C 
ATOM     25  C   UNL A   1      33.433  28.892  26.717  1.00  0.00     0.009 C 
ENDBRANCH  19  23
ENDBRANCH  16  17
ENDBRANCH  13  16
ENDBRANCH   7  13
ENDBRANCH   6   7
ENDBRANCH   4   6
ENDBRANCH   1   2
BRANCH   1  26
ATOM     26  C   UNL A   1      37.695  19.738  24.805  1.00  0.00     0.042 C 
BRANCH  26  27
ATOM     27  C   UNL A   1      38.664  20.610  25.598  1.00  0.00     0.118 C 
BRANCH  27  28
ATOM     28  N   UNL A   1      39.806  19.880  26.135  1.00  0.00    -0.352 N 
ATOM     29  C   UNL A   1      40.933  20.346  26.772  1.00  0.00     0.251 C 
ATOM     30  H   UNL A   1      39.765  18.903  26.025  1.00  0.00     0.163 HD
ATOM     31  O   UNL A   1      41.832  19.556  27.058  1.00  0.00    -0.269 OA
BRANCH  29  32
ATOM     32  C   UNL A   1      41.092  21.786  27.087  1.00  0.00     0.039 A 
ATOM     33  C   UNL A   1      41.709  22.145  28.289  1.00  0.00     0.014 A 
ATOM     34  C   UNL A   1      40.645  22.780  26.214  1.00  0.00     0.014 A 
ATOM     35  C   UNL A   1      41.955  23.492  28.574  1.00  0.00     0.010 A 
ATOM     36  C   UNL A   1      40.957  24.117  26.462  1.00  0.00     0.010 A 
ATOM     37  C   UNL A   1      41.627  24.488  27.639  1.00  0.00    -0.014 A 
BRANCH  37  38
ATOM     38  C   UNL A   1      42.029  25.906  27.846  1.00  0.00     0.031 A 
ATOM     39  C   UNL A   1      43.413  26.377  27.487  1.00  0.00     0.074 A 
ATOM     40  C   UNL A   1      41.173  26.753  28.452  1.00  0.00     0.049 A 
ATOM     41  N   UNL A   1      43.956  27.554  27.666  1.00  0.00    -0.248 NA
ATOM     42  C   UNL A   1      44.313  25.392  26.865  1.00  0.00     0.031 C 
ATOM     43  C   UNL A   1      39.828  26.406  28.916  1.00  0.00     0.029 A 
ATOM     44  N   UNL A   1      41.316  28.071  28.812  1.00  0.00    -0.354 N 
ATOM     45  C   UNL A   1      45.265  27.446  27.212  1.00  0.00     0.074 A 
ATOM     46  C   UNL A   1      45.444  26.078  26.774  1.00  0.00     0.031 C 
ATOM     47  C   UNL A   1      39.271  27.479  29.498  1.00  0.00     0.029 A 
ATOM     48  C   UNL A   1      40.229  28.579  29.487  1.00  0.00     0.049 A 
ATOM     49  H   UNL A   1      42.120  28.602  28.608  1.00  0.00     0.167 HD
ATOM     50  C   UNL A   1      46.224  28.401  27.147  1.00  0.00     0.034 A 
ATOM     51  C   UNL A   1      40.031  29.786  30.054  1.00  0.00     0.034 A 
ATOM     52  C   UNL A   1      46.037  29.767  27.560  1.00  0.00     0.049 A 
ATOM     53  C   UNL A   1      41.109  30.830  29.959  1.00  0.00     0.074 A 
ATOM     54  C   UNL A   1      46.922  30.826  27.450  1.00  0.00     0.029 A 
ATOM     55  N   UNL A   1      44.900  30.262  28.178  1.00  0.00    -0.354 N 
ATOM     56  N   UNL A   1      42.283  30.753  29.380  1.00  0.00    -0.248 NA
ATOM     57  C   UNL A   1      40.824  32.139  30.566  1.00  0.00     0.031 C 
ATOM     58  C   UNL A   1      46.334  31.952  28.036  1.00  0.00     0.029 A 
ATOM     59  C   UNL A   1      45.068  31.605  28.477  1.00  0.00     0.049 A 
ATOM     60  H   UNL A   1      44.091  29.736  28.376  1.00  0.00     0.167 HD
ATOM     61  C   UNL A   1      42.863  32.008  29.529  1.00  0.00     0.074 A 
ATOM     62  C   UNL A   1      41.899  32.834  30.225  1.00  0.00     0.031 C 
ATOM     63  C   UNL A   1      44.089  32.433  29.135  1.00  0.00     0.034 A 
BRANCH  50  64
ATOM     64  C   UNL A   1      47.562  28.013  26.571  1.00  0.00     0.023 A 
ATOM     65  C   UNL A   1      48.635  27.714  27.436  1.00  0.00     0.012 A 
ATOM     66  C   UNL A   1      47.741  27.879  25.179  1.00  0.00     0.148 A 
ATOM     67  C   UNL A   1      49.872  27.323  26.926  1.00  0.00     0.002 A 
ATOM     68  C   UNL A   1      48.962  27.442  24.681  1.00  0.00     0.091 A 
ATOM     69  F   UNL A   1      46.715  28.182  24.371  1.00  0.00    -0.205 F 
ATOM     70  C   UNL A   1      50.033  27.177  25.551  1.00  0.00     0.022 A 
BRANCH  68  71
ATOM     71  S   UNL A   1      49.248  27.144  22.932  1.00  0.00     0.127 S 
ATOM     72  O   UNL A   1      48.415  25.967  22.695  1.00  0.00    -0.237 OA
ATOM     73  O   UNL A   1      48.747  28.378  22.326  1.00  0.00    -0.237 OA
ATOM     74  O   UNL A   1      50.681  26.934  22.789  1.00  0.00    -0.744 OA
ENDBRANCH  68  71
ENDBRANCH  50  64
BRANCH  51  75
ATOM     75  C   UNL A   1      38.737  30.087  30.732  1.00  0.00     0.023 A 
ATOM     76  C   UNL A   1      38.495  29.577  32.022  1.00  0.00     0.012 A 
ATOM     77  C   UNL A   1      37.757  30.888  30.115  1.00  0.00     0.148 A 
ATOM     78  C   UNL A   1      37.286  29.830  32.672  1.00  0.00     0.002 A 
ATOM     79  C   UNL A   1      36.580  31.186  30.792  1.00  0.00     0.091 A 
ATOM     80  F   UNL A   1      38.002  31.354  28.882  1.00  0.00    -0.205 F 
ATOM     81  C   UNL A   1      36.335  30.642  32.062  1.00  0.00     0.022 A 
BRANCH  79  82
ATOM     82  S   UNL A   1      35.357  32.328  30.141  1.00  0.00     0.127 S 
ATOM     83  O   UNL A   1      34.885  31.618  28.956  1.00  0.00    -0.237 OA
ATOM     84  O   UNL A   1      34.397  32.399  31.242  1.00  0.00    -0.237 OA
ATOM     85  O   UNL A   1      36.074  33.571  29.888  1.00  0.00    -0.744 OA
ENDBRANCH  79  82
ENDBRANCH  51  75
BRANCH  63  86
ATOM     86  C   UNL A   1      44.458  33.867  29.420  1.00  0.00     0.023 A 
ATOM     87  C   UNL A   1      44.180  34.867  28.467  1.00  0.00     0.012 A 
ATOM     88  C   UNL A   1      45.021  34.232  30.658  1.00  0.00     0.148 A 
ATOM     89  C   UNL A   1      44.492  36.202  28.726  1.00  0.00     0.002 A 
ATOM     90  C   UNL A   1      45.281  35.570  30.931  1.00  0.00     0.091 A 
ATOM     91  F   UNL A   1      45.293  33.266  31.547  1.00  0.00    -0.205 F 
ATOM     92  C   UNL A   1      45.030  36.554  29.961  1.00  0.00     0.022 A 
BRANCH  90  93
ATOM     93  S   UNL A   1      45.884  36.132  32.527  1.00  0.00     0.127 S 
ATOM     94  O   UNL A   1      46.057  37.565  32.292  1.00  0.00    -0.237 OA
ATOM     95  O   UNL A   1      44.773  35.789  33.415  1.00  0.00    -0.237 OA
ATOM     96  O   UNL A   1      47.112  35.390  32.779  1.00  0.00    -0.744 OA
ENDBRANCH  90  93
ENDBRANCH  63  86
ENDBRANCH  37  38
ENDBRANCH  29  32
ENDBRANCH  27  28
ENDBRANCH  26  27
ENDBRANCH   1  26
TORSDOF 19
ENDMDL
MODEL 3
REMARK VINA RESULT:     -10.5      2.265      3.685
REMARK SMILES O=C(C[C@H]([NH2+]Cc1ccccc1C1CC1)c1cccs1)NCCCNC(=O)c1ccc(-c2c3nc(c(-c4cccc(S(=O)(=O)[O-])c4F)c4ccc([nH]4)c(-c4cccc(S(=O)(=O)[O-])c4F)c4nc(c(-c5cccc(S(=O)(=O)[O-])c5F)c5ccc2[nH]5)C=C4)C=C3)cc1
REMARK SMILES IDX 22 1 21 2 1 3 2 4 3 6 4 7 16 8 17 9 20 10 18 11 19 12 5 13
REMARK SMILES IDX 6 16 7 17 8 18 12 19 9 20 11 21 10 22 13 23 14 24 15 25
REMARK SMILES IDX 23 26 24 27 25 28 26 29 27 31 28 32 29 33 90 34 30 35 89 36
REMARK SMILES IDX 31 37 32 38 33 39 83 40 34 41 88 42 82 43 84 44 35 45 87 46
REMARK SMILES IDX 81 47 80 48 36 50 68 51 48 52 67 53 49 54 52 55 66 56 85 57
REMARK SMILES IDX 50 58 51 59 65 61 86 62 53 63 37 64 38 65 46 66 39 67 41 68
REMARK SMILES IDX 47 69 40 70 42 71 43 72 44 73 45 74 69 75 70 76 78 77 71 78
REMARK SMILES IDX 73 79 79 80 72 81 74 82 75 83 76 84 77 85 54 86 55 87 63 88
REMARK SMILES IDX 56 89 58 90 64 91 57 92 59 93 60 94 61 95 62 96
REMARK H PARENT 21 5 5 14 5 15 25 30 84 49 52 60
REMARK Flexibility Score: inf
ROOT
ATOM      1  C   UNL A   1      34.656  23.195  25.677  1.00  0.00     0.117 C 
ENDROOT
BRANCH   1   2
ATOM      2  N   UNL A   1      34.498  24.580  25.252  1.00  0.00    -0.356 N 
ATOM      3  O   UNL A   1      32.625  24.994  26.513  1.00  0.00    -0.275 OA
ATOM      4  C   UNL A   1      33.502  25.395  25.754  1.00  0.00     0.226 C 
ATOM      5  H   UNL A   1      35.123  24.947  24.584  1.00  0.00     0.163 HD
BRANCH   4   6
ATOM      6  C   UNL A   1      33.590  26.855  25.347  1.00  0.00     0.171 C 
BRANCH   6   7
ATOM      7  C   UNL A   1      32.806  27.765  26.309  1.00  0.00     0.233 C 
BRANCH   7   8
ATOM      8  C   UNL A   1      33.637  28.949  26.768  1.00  0.00     0.062 A 
ATOM      9  C   UNL A   1      34.980  28.952  27.107  1.00  0.00     0.021 A 
ATOM     10  S   UNL A   1      32.937  30.500  27.005  1.00  0.00    -0.143 S 
ATOM     11  C   UNL A   1      35.409  30.207  27.625  1.00  0.00     0.012 A 
ATOM     12  C   UNL A   1      34.392  31.134  27.639  1.00  0.00     0.065 A 
ENDBRANCH   7   8
BRANCH   7  13
ATOM     13  N   UNL A   1      31.511  28.244  25.773  1.00  0.00    -0.335 N 
ATOM     14  H   UNL A   1      31.309  29.168  26.156  1.00  0.00     0.347 HD
ATOM     15  H   UNL A   1      30.777  27.588  26.041  1.00  0.00     0.347 HD
BRANCH  13  16
ATOM     16  C   UNL A   1      31.569  28.327  24.311  1.00  0.00     0.298 C 
BRANCH  16  17
ATOM     17  C   UNL A   1      30.253  28.657  23.642  1.00  0.00     0.010 A 
ATOM     18  C   UNL A   1      30.113  29.984  23.167  1.00  0.00     0.010 A 
ATOM     19  C   UNL A   1      29.155  27.765  23.564  1.00  0.00    -0.036 A 
ATOM     20  C   UNL A   1      28.898  30.469  22.692  1.00  0.00     0.001 A 
ATOM     21  C   UNL A   1      27.927  28.316  23.114  1.00  0.00     0.004 A 
ATOM     22  C   UNL A   1      27.792  29.639  22.693  1.00  0.00     0.000 A 
BRANCH  19  23
ATOM     23  C   UNL A   1      29.124  26.268  23.823  1.00  0.00     0.020 C 
ATOM     24  C   UNL A   1      30.279  25.327  23.957  1.00  0.00     0.009 C 
ATOM     25  C   UNL A   1      29.508  25.714  25.177  1.00  0.00     0.009 C 
ENDBRANCH  19  23
ENDBRANCH  16  17
ENDBRANCH  13  16
ENDBRANCH   7  13
ENDBRANCH   6   7
ENDBRANCH   4   6
ENDBRANCH   1   2
BRANCH   1  26
ATOM     26  C   UNL A   1      35.349  22.313  24.649  1.00  0.00     0.042 C 
BRANCH  26  27
ATOM     27  C   UNL A   1      36.862  22.492  24.565  1.00  0.00     0.118 C 
BRANCH  27  28
ATOM     28  N   UNL A   1      37.617  21.316  24.982  1.00  0.00    -0.352 N 
ATOM     29  C   UNL A   1      38.757  21.224  25.746  1.00  0.00     0.251 C 
ATOM     30  H   UNL A   1      37.255  20.457  24.668  1.00  0.00     0.163 HD
ATOM     31  O   UNL A   1      39.292  20.125  25.895  1.00  0.00    -0.269 OA
BRANCH  29  32
ATOM     32  C   UNL A   1      39.366  22.427  26.360  1.00  0.00     0.039 A 
ATOM     33  C   UNL A   1      40.394  22.257  27.293  1.00  0.00     0.014 A 
ATOM     34  C   UNL A   1      38.938  23.715  26.029  1.00  0.00     0.014 A 
ATOM     35  C   UNL A   1      41.048  23.373  27.823  1.00  0.00     0.010 A 
ATOM     36  C   UNL A   1      39.640  24.825  26.500  1.00  0.00     0.010 A 
ATOM     37  C   UNL A   1      40.711  24.667  27.392  1.00  0.00    -0.014 A 
BRANCH  37  38
ATOM     38  C   UNL A   1      41.504  25.854  27.814  1.00  0.00     0.031 A 
ATOM     39  C   UNL A   1      40.887  26.934  28.662  1.00  0.00     0.074 A 
ATOM     40  C   UNL A   1      42.761  26.008  27.349  1.00  0.00     0.049 A 
ATOM     41  N   UNL A   1      41.407  28.067  29.060  1.00  0.00    -0.248 NA
ATOM     42  C   UNL A   1      39.499  26.725  29.103  1.00  0.00     0.031 C 
ATOM     43  C   UNL A   1      43.452  25.072  26.460  1.00  0.00     0.029 A 
ATOM     44  N   UNL A   1      43.669  27.022  27.530  1.00  0.00    -0.354 N 
ATOM     45  C   UNL A   1      40.405  28.721  29.768  1.00  0.00     0.074 A 
ATOM     46  C   UNL A   1      39.236  27.867  29.722  1.00  0.00     0.031 C 
ATOM     47  C   UNL A   1      44.672  25.553  26.175  1.00  0.00     0.029 A 
ATOM     48  C   UNL A   1      44.837  26.849  26.823  1.00  0.00     0.049 A 
ATOM     49  H   UNL A   1      43.500  27.800  28.111  1.00  0.00     0.167 HD
ATOM     50  C   UNL A   1      40.457  29.910  30.414  1.00  0.00     0.034 A 
ATOM     51  C   UNL A   1      45.913  27.651  26.692  1.00  0.00     0.034 A 
ATOM     52  C   UNL A   1      41.628  30.746  30.480  1.00  0.00     0.049 A 
ATOM     53  C   UNL A   1      45.948  28.962  27.428  1.00  0.00     0.074 A 
ATOM     54  C   UNL A   1      41.802  31.925  31.184  1.00  0.00     0.029 A 
ATOM     55  N   UNL A   1      42.815  30.506  29.807  1.00  0.00    -0.354 N 
ATOM     56  N   UNL A   1      45.048  29.486  28.224  1.00  0.00    -0.248 NA
ATOM     57  C   UNL A   1      47.161  29.780  27.273  1.00  0.00     0.031 C 
ATOM     58  C   UNL A   1      43.081  32.417  30.906  1.00  0.00     0.029 A 
ATOM     59  C   UNL A   1      43.718  31.525  30.059  1.00  0.00     0.049 A 
ATOM     60  H   UNL A   1      42.990  29.725  29.232  1.00  0.00     0.167 HD
ATOM     61  C   UNL A   1      45.596  30.677  28.687  1.00  0.00     0.074 A 
ATOM     62  C   UNL A   1      46.918  30.782  28.105  1.00  0.00     0.031 C 
ATOM     63  C   UNL A   1      45.048  31.606  29.509  1.00  0.00     0.034 A 
BRANCH  50  64
ATOM     64  C   UNL A   1      39.219  30.370  31.140  1.00  0.00     0.023 A 
ATOM     65  C   UNL A   1      38.839  29.738  32.342  1.00  0.00     0.012 A 
ATOM     66  C   UNL A   1      38.470  31.468  30.673  1.00  0.00     0.148 A 
ATOM     67  C   UNL A   1      37.716  30.166  33.049  1.00  0.00     0.002 A 
ATOM     68  C   UNL A   1      37.379  31.920  31.407  1.00  0.00     0.091 A 
ATOM     69  F   UNL A   1      38.835  32.047  29.521  1.00  0.00    -0.205 F 
ATOM     70  C   UNL A   1      36.993  31.263  32.587  1.00  0.00     0.022 A 
BRANCH  68  71
ATOM     71  S   UNL A   1      36.430  33.373  30.942  1.00  0.00     0.127 S 
ATOM     72  O   UNL A   1      37.359  34.451  31.278  1.00  0.00    -0.237 OA
ATOM     73  O   UNL A   1      36.234  33.164  29.507  1.00  0.00    -0.237 OA
ATOM     74  O   UNL A   1      35.211  33.329  31.737  1.00  0.00    -0.744 OA
ENDBRANCH  68  71
ENDBRANCH  50  64
BRANCH  51  75
ATOM     75  C   UNL A   1      47.068  27.216  25.855  1.00  0.00     0.023 A 
ATOM     76  C   UNL A   1      48.028  26.340  26.399  1.00  0.00     0.012 A 
ATOM     77  C   UNL A   1      47.209  27.648  24.523  1.00  0.00     0.148 A 
ATOM     78  C   UNL A   1      49.127  25.931  25.642  1.00  0.00     0.002 A 
ATOM     79  C   UNL A   1      48.273  27.189  23.755  1.00  0.00     0.091 A 
ATOM     80  F   UNL A   1      46.291  28.490  24.028  1.00  0.00    -0.205 F 
ATOM     81  C   UNL A   1      49.243  26.346  24.319  1.00  0.00     0.022 A 
BRANCH  79  82
ATOM     82  S   UNL A   1      48.433  27.564  22.007  1.00  0.00     0.127 S 
ATOM     83  O   UNL A   1      47.156  28.213  21.722  1.00  0.00    -0.237 OA
ATOM     84  O   UNL A   1      49.594  28.455  21.995  1.00  0.00    -0.237 OA
ATOM     85  O   UNL A   1      48.652  26.284  21.347  1.00  0.00    -0.744 OA
ENDBRANCH  79  82
ENDBRANCH  51  75
BRANCH  63  86
ATOM     86  C   UNL A   1      45.883  32.811  29.857  1.00  0.00     0.023 A 
ATOM     87  C   UNL A   1      46.732  32.777  30.982  1.00  0.00     0.012 A 
ATOM     88  C   UNL A   1      45.873  33.955  29.035  1.00  0.00     0.148 A 
ATOM     89  C   UNL A   1      47.529  33.876  31.303  1.00  0.00     0.002 A 
ATOM     90  C   UNL A   1      46.710  35.025  29.331  1.00  0.00     0.091 A 
ATOM     91  F   UNL A   1      45.048  33.976  27.979  1.00  0.00    -0.205 F 
ATOM     92  C   UNL A   1      47.527  34.993  30.472  1.00  0.00     0.022 A 
BRANCH  90  93
ATOM     93  S   UNL A   1      46.847  36.467  28.269  1.00  0.00     0.127 S 
ATOM     94  O   UNL A   1      47.170  35.859  26.979  1.00  0.00    -0.237 OA
ATOM     95  O   UNL A   1      45.503  37.042  28.353  1.00  0.00    -0.237 OA
ATOM     96  O   UNL A   1      47.897  37.296  28.846  1.00  0.00    -0.744 OA
ENDBRANCH  90  93
ENDBRANCH  63  86
ENDBRANCH  37  38
ENDBRANCH  29  32
ENDBRANCH  27  28
ENDBRANCH  26  27
ENDBRANCH   1  26
TORSDOF 19
ENDMDL
