MODEL 1
REMARK VINA RESULT:     -11.8      0.000      0.000
REMARK SMILES CC[C@](C)(NC(=O)Cc1cccc(F)c1)C(=O)NCCCNC(=O)c1ccc(-c2c3nc(c(-c4cccc(S(=O)(=O)[O-])c4F)c4ccc([nH]4)c(-c4cccc(S(=O)(=O)[O-])c4F)c4nc(c(-c5cccc(S(=O)(=O)[O-])c5F)c5ccc2[nH]5)C=C4)C=C3)cc1
REMARK SMILES IDX 20 1 19 2 18 3 16 4 17 5 3 7 4 8 2 9 1 10 5 11 6 12 7 14
REMARK SMILES IDX 8 15 9 16 10 17 15 18 11 19 13 20 12 21 14 22 21 23 22 24
REMARK SMILES IDX 23 25 24 27 25 28 26 29 87 30 27 31 86 32 28 33 29 34 30 35
REMARK SMILES IDX 80 36 31 37 85 38 79 39 81 40 32 41 84 42 78 43 77 44 33 46
REMARK SMILES IDX 65 47 45 48 64 49 46 50 49 51 63 52 82 53 47 54 48 55 62 57
REMARK SMILES IDX 83 58 50 59 34 60 35 61 43 62 36 63 38 64 44 65 37 66 39 67
REMARK SMILES IDX 40 68 41 69 42 70 66 71 67 72 75 73 68 74 70 75 76 76 69 77
REMARK SMILES IDX 71 78 72 79 73 80 74 81 51 82 52 83 60 84 53 85 55 86 61 87
REMARK SMILES IDX 54 88 56 89 57 90 58 91 59 92
REMARK H PARENT 18 6 5 13 22 26 81 45 49 56
REMARK Flexibility Score: inf
ROOT
ATOM      1  C   UNL A   1      36.083  21.790  25.697  1.00  0.00     0.042 C 
ENDROOT
BRANCH   1   2
ATOM      2  C   UNL A   1      35.427  23.039  26.277  1.00  0.00     0.117 C 
BRANCH   2   3
ATOM      3  N   UNL A   1      34.265  22.797  27.122  1.00  0.00    -0.354 N 
ATOM      4  C   UNL A   1      32.954  23.169  27.011  1.00  0.00     0.245 C 
ATOM      5  O   UNL A   1      32.162  22.578  27.752  1.00  0.00    -0.272 OA
ATOM      6  H   UNL A   1      34.461  22.263  27.925  1.00  0.00     0.163 HD
BRANCH   4   7
ATOM      7  C   UNL A   1      32.456  24.153  25.911  1.00  0.00     0.116 C 
ATOM      8  C   UNL A   1      33.003  25.579  26.120  1.00  0.00     0.045 C 
BRANCH   7   9
ATOM      9  C   UNL A   1      30.896  24.222  26.024  1.00  0.00     0.035 C 
ATOM     10  C   UNL A   1      30.289  25.620  25.909  1.00  0.00     0.007 C 
ENDBRANCH   7   9
BRANCH   7  11
ATOM     11  N   UNL A   1      32.814  23.707  24.541  1.00  0.00    -0.342 N 
ATOM     12  C   UNL A   1      33.017  22.451  24.039  1.00  0.00     0.225 C 
ATOM     13  H   UNL A   1      32.922  24.434  23.887  1.00  0.00     0.164 HD
ATOM     14  O   UNL A   1      33.810  22.354  23.099  1.00  0.00    -0.275 OA
BRANCH  12  15
ATOM     15  C   UNL A   1      32.232  21.238  24.516  1.00  0.00     0.135 C 
BRANCH  15  16
ATOM     16  C   UNL A   1      32.702  19.900  24.015  1.00  0.00    -0.036 A 
ATOM     17  C   UNL A   1      32.153  19.356  22.842  1.00  0.00     0.004 A 
ATOM     18  C   UNL A   1      33.683  19.173  24.701  1.00  0.00     0.043 A 
ATOM     19  C   UNL A   1      32.509  18.079  22.409  1.00  0.00     0.003 A 
ATOM     20  C   UNL A   1      34.039  17.905  24.254  1.00  0.00     0.123 A 
ATOM     21  C   UNL A   1      33.450  17.346  23.125  1.00  0.00     0.039 A 
ATOM     22  F   UNL A   1      34.949  17.196  24.936  1.00  0.00    -0.207 F 
ENDBRANCH  15  16
ENDBRANCH  12  15
ENDBRANCH   7  11
ENDBRANCH   4   7
ENDBRANCH   2   3
ENDBRANCH   1   2
BRANCH   1  23
ATOM     23  C   UNL A   1      37.518  21.964  25.221  1.00  0.00     0.118 C 
BRANCH  23  24
ATOM     24  N   UNL A   1      38.435  21.022  25.842  1.00  0.00    -0.352 N 
ATOM     25  C   UNL A   1      39.621  21.241  26.497  1.00  0.00     0.251 C 
ATOM     26  H   UNL A   1      38.162  20.078  25.783  1.00  0.00     0.163 HD
ATOM     27  O   UNL A   1      40.333  20.280  26.780  1.00  0.00    -0.269 OA
BRANCH  25  28
ATOM     28  C   UNL A   1      40.062  22.612  26.848  1.00  0.00     0.039 A 
ATOM     29  C   UNL A   1      40.994  22.771  27.878  1.00  0.00     0.014 A 
ATOM     30  C   UNL A   1      39.533  23.739  26.213  1.00  0.00     0.014 A 
ATOM     31  C   UNL A   1      41.433  24.050  28.233  1.00  0.00     0.010 A 
ATOM     32  C   UNL A   1      40.026  25.009  26.517  1.00  0.00     0.010 A 
ATOM     33  C   UNL A   1      40.973  25.180  27.536  1.00  0.00    -0.014 A 
BRANCH  33  34
ATOM     34  C   UNL A   1      41.476  26.541  27.863  1.00  0.00     0.031 A 
ATOM     35  C   UNL A   1      42.889  26.938  27.526  1.00  0.00     0.074 A 
ATOM     36  C   UNL A   1      40.681  27.405  28.525  1.00  0.00     0.049 A 
ATOM     37  N   UNL A   1      43.508  28.065  27.767  1.00  0.00    -0.248 NA
ATOM     38  C   UNL A   1      43.725  25.932  26.849  1.00  0.00     0.031 C 
ATOM     39  C   UNL A   1      39.315  27.121  28.971  1.00  0.00     0.029 A 
ATOM     40  N   UNL A   1      40.909  28.689  28.955  1.00  0.00    -0.354 N 
ATOM     41  C   UNL A   1      44.807  27.895  27.303  1.00  0.00     0.074 A 
ATOM     42  C   UNL A   1      44.899  26.544  26.793  1.00  0.00     0.031 C 
ATOM     43  C   UNL A   1      38.825  28.199  29.603  1.00  0.00     0.029 A 
ATOM     44  C   UNL A   1      39.847  29.242  29.632  1.00  0.00     0.049 A 
ATOM     45  H   UNL A   1      41.753  29.169  28.795  1.00  0.00     0.167 HD
ATOM     46  C   UNL A   1      45.821  28.792  27.274  1.00  0.00     0.034 A 
ATOM     47  C   UNL A   1      39.706  30.450  30.215  1.00  0.00     0.034 A 
ATOM     48  C   UNL A   1      45.712  30.151  27.730  1.00  0.00     0.049 A 
ATOM     49  C   UNL A   1      40.836  31.442  30.134  1.00  0.00     0.074 A 
ATOM     50  C   UNL A   1      46.659  31.157  27.657  1.00  0.00     0.029 A 
ATOM     51  N   UNL A   1      44.595  30.696  28.343  1.00  0.00    -0.354 N 
ATOM     52  N   UNL A   1      42.006  31.311  29.556  1.00  0.00    -0.248 NA
ATOM     53  C   UNL A   1      40.618  32.758  30.753  1.00  0.00     0.031 C 
ATOM     54  C   UNL A   1      46.122  32.305  28.245  1.00  0.00     0.029 A 
ATOM     55  C   UNL A   1      44.832  32.022  28.662  1.00  0.00     0.049 A 
ATOM     56  H   UNL A   1      43.758  30.211  28.525  1.00  0.00     0.167 HD
ATOM     57  C   UNL A   1      42.649  32.533  29.715  1.00  0.00     0.074 A 
ATOM     58  C   UNL A   1      41.733  33.399  30.426  1.00  0.00     0.031 C 
ATOM     59  C   UNL A   1      43.894  32.895  29.320  1.00  0.00     0.034 A 
BRANCH  46  60
ATOM     60  C   UNL A   1      47.130  28.362  26.662  1.00  0.00     0.023 A 
ATOM     61  C   UNL A   1      48.209  28.031  27.505  1.00  0.00     0.012 A 
ATOM     62  C   UNL A   1      47.259  28.186  25.270  1.00  0.00     0.148 A 
ATOM     63  C   UNL A   1      49.406  27.554  26.973  1.00  0.00     0.002 A 
ATOM     64  C   UNL A   1      48.440  27.669  24.751  1.00  0.00     0.091 A 
ATOM     65  F   UNL A   1      46.227  28.524  24.484  1.00  0.00    -0.205 F 
ATOM     66  C   UNL A   1      49.517  27.361  25.599  1.00  0.00     0.022 A 
BRANCH  64  67
ATOM     67  S   UNL A   1      48.656  27.302  23.004  1.00  0.00     0.127 S 
ATOM     68  O   UNL A   1      48.278  25.891  22.951  1.00  0.00    -0.237 OA
ATOM     69  O   UNL A   1      47.697  28.213  22.378  1.00  0.00    -0.237 OA
ATOM     70  O   UNL A   1      50.052  27.586  22.703  1.00  0.00    -0.744 OA
ENDBRANCH  64  67
ENDBRANCH  46  60
BRANCH  47  71
ATOM     71  C   UNL A   1      38.408  30.811  30.853  1.00  0.00     0.023 A 
ATOM     72  C   UNL A   1      38.221  30.554  32.225  1.00  0.00     0.012 A 
ATOM     73  C   UNL A   1      37.391  31.466  30.131  1.00  0.00     0.148 A 
ATOM     74  C   UNL A   1      37.038  30.926  32.863  1.00  0.00     0.002 A 
ATOM     75  C   UNL A   1      36.239  31.885  30.787  1.00  0.00     0.091 A 
ATOM     76  F   UNL A   1      37.584  31.690  28.823  1.00  0.00    -0.205 F 
ATOM     77  C   UNL A   1      36.054  31.603  32.148  1.00  0.00     0.022 A 
BRANCH  75  78
ATOM     78  S   UNL A   1      34.981  32.887  29.985  1.00  0.00     0.127 S 
ATOM     79  O   UNL A   1      35.773  33.991  29.451  1.00  0.00    -0.237 OA
ATOM     80  O   UNL A   1      34.454  31.962  28.982  1.00  0.00    -0.237 OA
ATOM     81  O   UNL A   1      34.032  33.239  31.033  1.00  0.00    -0.744 OA
ENDBRANCH  75  78
ENDBRANCH  47  71
BRANCH  59  82
ATOM     82  C   UNL A   1      44.357  34.297  29.620  1.00  0.00     0.023 A 
ATOM     83  C   UNL A   1      45.062  34.556  30.812  1.00  0.00     0.012 A 
ATOM     84  C   UNL A   1      44.206  35.324  28.667  1.00  0.00     0.148 A 
ATOM     85  C   UNL A   1      45.596  35.820  31.058  1.00  0.00     0.002 A 
ATOM     86  C   UNL A   1      44.782  36.568  28.898  1.00  0.00     0.091 A 
ATOM     87  F   UNL A   1      43.517  35.061  27.547  1.00  0.00    -0.205 F 
ATOM     88  C   UNL A   1      45.470  36.820  30.096  1.00  0.00     0.022 A 
BRANCH  86  89
ATOM     89  S   UNL A   1      44.760  37.884  27.675  1.00  0.00     0.127 S 
ATOM     90  O   UNL A   1      45.132  39.047  28.481  1.00  0.00    -0.237 OA
ATOM     91  O   UNL A   1      45.786  37.445  26.728  1.00  0.00    -0.237 OA
ATOM     92  O   UNL A   1      43.408  37.909  27.134  1.00  0.00    -0.744 OA
ENDBRANCH  86  89
ENDBRANCH  59  82
ENDBRANCH  33  34
ENDBRANCH  25  28
ENDBRANCH  23  24
ENDBRANCH   1  23
TORSDOF 17
ENDMDL
MODEL 2
REMARK VINA RESULT:     -11.8      5.079      9.641
REMARK SMILES CC[C@](C)(NC(=O)Cc1cccc(F)c1)C(=O)NCCCNC(=O)c1ccc(-c2c3nc(c(-c4cccc(S(=O)(=O)[O-])c4F)c4ccc([nH]4)c(-c4cccc(S(=O)(=O)[O-])c4F)c4nc(c(-c5cccc(S(=O)(=O)[O-])c5F)c5ccc2[nH]5)C=C4)C=C3)cc1
REMARK SMILES IDX 20 1 19 2 18 3 16 4 17 5 3 7 4 8 2 9 1 10 5 11 6 12 7 14
REMARK SMILES IDX 8 15 9 16 10 17 15 18 11 19 13 20 12 21 14 22 21 23 22 24
REMARK SMILES IDX 23 25 24 27 25 28 26 29 87 30 27 31 86 32 28 33 29 34 30 35
REMARK SMILES IDX 80 36 31 37 85 38 79 39 81 40 32 41 84 42 78 43 77 44 33 46
REMARK SMILES IDX 65 47 45 48 64 49 46 50 49 51 63 52 82 53 47 54 48 55 62 57
REMARK SMILES IDX 83 58 50 59 34 60 35 61 43 62 36 63 38 64 44 65 37 66 39 67
REMARK SMILES IDX 40 68 41 69 42 70 66 71 67 72 75 73 68 74 70 75 76 76 69 77
REMARK SMILES IDX 71 78 72 79 73 80 74 81 51 82 52 83 60 84 53 85 55 86 61 87
REMARK SMILES IDX 54 88 56 89 57 90 58 91 59 92
REMARK H PARENT 18 6 5 13 22 26 81 45 49 56
REMARK Flexibility Score: inf
ROOT
ATOM      1  C   UNL A   1      33.701  28.727  24.468  1.00  0.00     0.042 C 
ENDROOT
BRANCH   1   2
ATOM      2  C   UNL A   1      32.359  28.137  24.047  1.00  0.00     0.117 C 
BRANCH   2   3
ATOM      3  N   UNL A   1      31.513  27.673  25.139  1.00  0.00    -0.354 N 
ATOM      4  C   UNL A   1      31.321  26.438  25.692  1.00  0.00     0.245 C 
ATOM      5  O   UNL A   1      30.740  26.421  26.783  1.00  0.00    -0.272 OA
ATOM      6  H   UNL A   1      30.978  28.385  25.558  1.00  0.00     0.163 HD
BRANCH   4   7
ATOM      7  C   UNL A   1      31.936  25.144  25.081  1.00  0.00     0.116 C 
ATOM      8  C   UNL A   1      31.033  23.915  25.300  1.00  0.00     0.045 C 
BRANCH   7   9
ATOM      9  C   UNL A   1      33.289  24.878  25.824  1.00  0.00     0.035 C 
ATOM     10  C   UNL A   1      33.307  23.654  26.738  1.00  0.00     0.007 C 
ENDBRANCH   7   9
BRANCH   7  11
ATOM     11  N   UNL A   1      32.211  25.274  23.627  1.00  0.00    -0.342 N 
ATOM     12  C   UNL A   1      32.836  24.420  22.761  1.00  0.00     0.225 C 
ATOM     13  H   UNL A   1      31.891  26.111  23.221  1.00  0.00     0.164 HD
ATOM     14  O   UNL A   1      33.425  24.935  21.807  1.00  0.00    -0.275 OA
BRANCH  12  15
ATOM     15  C   UNL A   1      32.729  22.906  22.876  1.00  0.00     0.135 C 
BRANCH  15  16
ATOM     16  C   UNL A   1      33.865  22.207  23.570  1.00  0.00    -0.036 A 
ATOM     17  C   UNL A   1      33.629  21.016  24.277  1.00  0.00     0.004 A 
ATOM     18  C   UNL A   1      35.166  22.724  23.532  1.00  0.00     0.043 A 
ATOM     19  C   UNL A   1      34.649  20.400  25.002  1.00  0.00     0.003 A 
ATOM     20  C   UNL A   1      36.178  22.095  24.249  1.00  0.00     0.123 A 
ATOM     21  C   UNL A   1      35.928  20.948  24.996  1.00  0.00     0.039 A 
ATOM     22  F   UNL A   1      37.413  22.614  24.243  1.00  0.00    -0.207 F 
ENDBRANCH  15  16
ENDBRANCH  12  15
ENDBRANCH   7  11
ENDBRANCH   4   7
ENDBRANCH   2   3
ENDBRANCH   1   2
BRANCH   1  23
ATOM     23  C   UNL A   1      33.940  28.808  25.969  1.00  0.00     0.118 C 
BRANCH  23  24
ATOM     24  N   UNL A   1      33.721  30.142  26.503  1.00  0.00    -0.352 N 
ATOM     25  C   UNL A   1      34.401  30.829  27.478  1.00  0.00     0.251 C 
ATOM     26  H   UNL A   1      32.966  30.630  26.101  1.00  0.00     0.163 HD
ATOM     27  O   UNL A   1      33.927  31.878  27.908  1.00  0.00    -0.269 OA
BRANCH  25  28
ATOM     28  C   UNL A   1      35.678  30.317  28.028  1.00  0.00     0.039 A 
ATOM     29  C   UNL A   1      35.667  29.710  29.288  1.00  0.00     0.014 A 
ATOM     30  C   UNL A   1      36.888  30.472  27.345  1.00  0.00     0.014 A 
ATOM     31  C   UNL A   1      36.854  29.213  29.835  1.00  0.00     0.010 A 
ATOM     32  C   UNL A   1      38.058  29.911  27.859  1.00  0.00     0.010 A 
ATOM     33  C   UNL A   1      38.057  29.285  29.113  1.00  0.00    -0.014 A 
BRANCH  33  34
ATOM     34  C   UNL A   1      39.315  28.708  29.658  1.00  0.00     0.031 A 
ATOM     35  C   UNL A   1      39.972  29.311  30.871  1.00  0.00     0.074 A 
ATOM     36  C   UNL A   1      39.906  27.677  29.022  1.00  0.00     0.049 A 
ATOM     37  N   UNL A   1      41.087  28.963  31.462  1.00  0.00    -0.248 NA
ATOM     38  C   UNL A   1      39.304  30.468  31.491  1.00  0.00     0.031 C 
ATOM     39  C   UNL A   1      39.410  27.046  27.797  1.00  0.00     0.029 A 
ATOM     40  N   UNL A   1      41.061  26.990  29.303  1.00  0.00    -0.354 N 
ATOM     41  C   UNL A   1      41.269  29.872  32.498  1.00  0.00     0.074 A 
ATOM     42  C   UNL A   1      40.168  30.808  32.437  1.00  0.00     0.031 C 
ATOM     43  C   UNL A   1      40.248  26.061  27.438  1.00  0.00     0.029 A 
ATOM     44  C   UNL A   1      41.356  26.005  28.389  1.00  0.00     0.049 A 
ATOM     45  H   UNL A   1      41.626  27.184  30.085  1.00  0.00     0.167 HD
ATOM     46  C   UNL A   1      42.248  29.906  33.434  1.00  0.00     0.034 A 
ATOM     47  C   UNL A   1      42.399  25.154  28.317  1.00  0.00     0.034 A 
ATOM     48  C   UNL A   1      43.311  28.943  33.525  1.00  0.00     0.049 A 
ATOM     49  C   UNL A   1      43.452  25.187  29.392  1.00  0.00     0.074 A 
ATOM     50  C   UNL A   1      44.296  28.845  34.493  1.00  0.00     0.029 A 
ATOM     51  N   UNL A   1      43.534  27.916  32.623  1.00  0.00    -0.354 N 
ATOM     52  N   UNL A   1      43.524  25.960  30.448  1.00  0.00    -0.248 NA
ATOM     53  C   UNL A   1      44.547  24.212  29.287  1.00  0.00     0.031 C 
ATOM     54  C   UNL A   1      45.126  27.770  34.165  1.00  0.00     0.029 A 
ATOM     55  C   UNL A   1      44.645  27.184  33.005  1.00  0.00     0.049 A 
ATOM     56  H   UNL A   1      42.984  27.734  31.828  1.00  0.00     0.167 HD
ATOM     57  C   UNL A   1      44.652  25.546  31.148  1.00  0.00     0.074 A 
ATOM     58  C   UNL A   1      45.223  24.441  30.406  1.00  0.00     0.031 C 
ATOM     59  C   UNL A   1      45.175  26.050  32.292  1.00  0.00     0.034 A 
BRANCH  46  60
ATOM     60  C   UNL A   1      42.182  30.980  34.489  1.00  0.00     0.023 A 
ATOM     61  C   UNL A   1      41.534  30.708  35.710  1.00  0.00     0.012 A 
ATOM     62  C   UNL A   1      42.845  32.211  34.315  1.00  0.00     0.148 A 
ATOM     63  C   UNL A   1      41.526  31.652  36.736  1.00  0.00     0.002 A 
ATOM     64  C   UNL A   1      42.870  33.130  35.358  1.00  0.00     0.091 A 
ATOM     65  F   UNL A   1      43.440  32.458  33.140  1.00  0.00    -0.205 F 
ATOM     66  C   UNL A   1      42.204  32.856  36.565  1.00  0.00     0.022 A 
BRANCH  64  67
ATOM     67  S   UNL A   1      43.785  34.674  35.272  1.00  0.00     0.127 S 
ATOM     68  O   UNL A   1      43.507  35.255  36.585  1.00  0.00    -0.237 OA
ATOM     69  O   UNL A   1      45.160  34.207  35.092  1.00  0.00    -0.237 OA
ATOM     70  O   UNL A   1      43.236  35.405  34.138  1.00  0.00    -0.744 OA
ENDBRANCH  64  67
ENDBRANCH  46  60
BRANCH  47  71
ATOM     71  C   UNL A   1      42.445  24.141  27.224  1.00  0.00     0.023 A 
ATOM     72  C   UNL A   1      43.149  24.437  26.040  1.00  0.00     0.012 A 
ATOM     73  C   UNL A   1      41.860  22.868  27.375  1.00  0.00     0.148 A 
ATOM     74  C   UNL A   1      43.255  23.492  25.020  1.00  0.00     0.002 A 
ATOM     75  C   UNL A   1      42.018  21.912  26.378  1.00  0.00     0.091 A 
ATOM     76  F   UNL A   1      41.183  22.610  28.503  1.00  0.00    -0.205 F 
ATOM     77  C   UNL A   1      42.702  22.227  25.194  1.00  0.00     0.022 A 
BRANCH  75  78
ATOM     78  S   UNL A   1      41.466  20.213  26.571  1.00  0.00     0.127 S 
ATOM     79  O   UNL A   1      40.014  20.368  26.570  1.00  0.00    -0.237 OA
ATOM     80  O   UNL A   1      42.021  19.579  25.376  1.00  0.00    -0.237 OA
ATOM     81  O   UNL A   1      42.051  19.750  27.823  1.00  0.00    -0.744 OA
ENDBRANCH  75  78
ENDBRANCH  47  71
BRANCH  59  82
ATOM     82  C   UNL A   1      46.421  25.412  32.848  1.00  0.00     0.023 A 
ATOM     83  C   UNL A   1      47.681  25.957  32.531  1.00  0.00     0.012 A 
ATOM     84  C   UNL A   1      46.336  24.358  33.781  1.00  0.00     0.148 A 
ATOM     85  C   UNL A   1      48.839  25.453  33.122  1.00  0.00     0.002 A 
ATOM     86  C   UNL A   1      47.490  23.893  34.400  1.00  0.00     0.091 A 
ATOM     87  F   UNL A   1      45.129  23.843  34.055  1.00  0.00    -0.205 F 
ATOM     88  C   UNL A   1      48.742  24.433  34.066  1.00  0.00     0.022 A 
BRANCH  86  89
ATOM     89  S   UNL A   1      47.454  22.655  35.703  1.00  0.00     0.127 S 
ATOM     90  O   UNL A   1      46.604  23.300  36.703  1.00  0.00    -0.237 OA
ATOM     91  O   UNL A   1      46.840  21.511  35.027  1.00  0.00    -0.237 OA
ATOM     92  O   UNL A   1      48.840  22.449  36.102  1.00  0.00    -0.744 OA
ENDBRANCH  86  89
ENDBRANCH  59  82
ENDBRANCH  33  34
ENDBRANCH  25  28
ENDBRANCH  23  24
ENDBRANCH   1  23
TORSDOF 17
ENDMDL
MODEL 3
REMARK VINA RESULT:     -11.8      2.123      3.441
REMARK SMILES CC[C@](C)(NC(=O)Cc1cccc(F)c1)C(=O)NCCCNC(=O)c1ccc(-c2c3nc(c(-c4cccc(S(=O)(=O)[O-])c4F)c4ccc([nH]4)c(-c4cccc(S(=O)(=O)[O-])c4F)c4nc(c(-c5cccc(S(=O)(=O)[O-])c5F)c5ccc2[nH]5)C=C4)C=C3)cc1
REMARK SMILES IDX 20 1 19 2 18 3 16 4 17 5 3 7 4 8 2 9 1 10 5 11 6 12 7 14
REMARK SMILES IDX 8 15 9 16 10 17 15 18 11 19 13 20 12 21 14 22 21 23 22 24
REMARK SMILES IDX 23 25 24 27 25 28 26 29 87 30 27 31 86 32 28 33 29 34 30 35
REMARK SMILES IDX 80 36 31 37 85 38 79 39 81 40 32 41 84 42 78 43 77 44 33 46
REMARK SMILES IDX 65 47 45 48 64 49 46 50 49 51 63 52 82 53 47 54 48 55 62 57
REMARK SMILES IDX 83 58 50 59 34 60 35 61 43 62 36 63 38 64 44 65 37 66 39 67
REMARK SMILES IDX 40 68 41 69 42 70 66 71 67 72 75 73 68 74 70 75 76 76 69 77
REMARK SMILES IDX 71 78 72 79 73 80 74 81 51 82 52 83 60 84 53 85 55 86 61 87
REMARK SMILES IDX 54 88 56 89 57 90 58 91 59 92
REMARK H PARENT 18 6 5 13 22 26 81 45 49 56
REMARK Flexibility Score: inf
ROOT
ATOM      1  C   UNL A   1      35.058  21.595  26.360  1.00  0.00     0.042 C 
ENDROOT
BRANCH   1   2
ATOM      2  C   UNL A   1      33.729  21.966  25.709  1.00  0.00     0.117 C 
BRANCH   2   3
ATOM      3  N   UNL A   1      32.790  22.671  26.571  1.00  0.00    -0.354 N 
ATOM      4  C   UNL A   1      32.296  23.945  26.543  1.00  0.00     0.245 C 
ATOM      5  O   UNL A   1      31.308  24.155  27.256  1.00  0.00    -0.272 OA
ATOM      6  H   UNL A   1      32.445  22.125  27.314  1.00  0.00     0.163 HD
BRANCH   4   7
ATOM      7  C   UNL A   1      32.829  25.026  25.557  1.00  0.00     0.116 C 
ATOM      8  C   UNL A   1      34.365  24.990  25.435  1.00  0.00     0.045 C 
BRANCH   7   9
ATOM      9  C   UNL A   1      32.432  26.423  26.143  1.00  0.00     0.035 C 
ATOM     10  C   UNL A   1      33.462  27.535  25.947  1.00  0.00     0.007 C 
ENDBRANCH   7   9
BRANCH   7  11
ATOM     11  N   UNL A   1      32.245  24.898  24.198  1.00  0.00    -0.342 N 
ATOM     12  C   UNL A   1      30.940  24.887  23.789  1.00  0.00     0.225 C 
ATOM     13  H   UNL A   1      32.905  24.807  23.474  1.00  0.00     0.164 HD
ATOM     14  O   UNL A   1      30.687  24.239  22.770  1.00  0.00    -0.275 OA
BRANCH  12  15
ATOM     15  C   UNL A   1      29.858  25.717  24.464  1.00  0.00     0.135 C 
BRANCH  15  16
ATOM     16  C   UNL A   1      29.489  27.009  23.789  1.00  0.00    -0.036 A 
ATOM     17  C   UNL A   1      28.142  27.406  23.721  1.00  0.00     0.004 A 
ATOM     18  C   UNL A   1      30.466  27.832  23.217  1.00  0.00     0.043 A 
ATOM     19  C   UNL A   1      27.769  28.554  23.022  1.00  0.00     0.003 A 
ATOM     20  C   UNL A   1      30.082  28.982  22.532  1.00  0.00     0.123 A 
ATOM     21  C   UNL A   1      28.743  29.340  22.416  1.00  0.00     0.039 A 
ATOM     22  F   UNL A   1      31.017  29.746  21.952  1.00  0.00    -0.207 F 
ENDBRANCH  15  16
ENDBRANCH  12  15
ENDBRANCH   7  11
ENDBRANCH   4   7
ENDBRANCH   2   3
ENDBRANCH   1   2
BRANCH   1  23
ATOM     23  C   UNL A   1      36.300  21.903  25.536  1.00  0.00     0.118 C 
BRANCH  23  24
ATOM     24  N   UNL A   1      37.324  20.879  25.656  1.00  0.00    -0.352 N 
ATOM     25  C   UNL A   1      38.670  20.995  25.899  1.00  0.00     0.251 C 
ATOM     26  H   UNL A   1      37.001  19.955  25.545  1.00  0.00     0.163 HD
ATOM     27  O   UNL A   1      39.387  20.005  25.771  1.00  0.00    -0.269 OA
BRANCH  25  28
ATOM     28  C   UNL A   1      39.269  22.292  26.292  1.00  0.00     0.039 A 
ATOM     29  C   UNL A   1      40.415  22.284  27.093  1.00  0.00     0.014 A 
ATOM     30  C   UNL A   1      38.690  23.511  25.925  1.00  0.00     0.014 A 
ATOM     31  C   UNL A   1      41.007  23.491  27.480  1.00  0.00     0.010 A 
ATOM     32  C   UNL A   1      39.323  24.711  26.248  1.00  0.00     0.010 A 
ATOM     33  C   UNL A   1      40.482  24.716  27.038  1.00  0.00    -0.014 A 
BRANCH  33  34
ATOM     34  C   UNL A   1      41.136  26.004  27.392  1.00  0.00     0.031 A 
ATOM     35  C   UNL A   1      42.555  26.284  26.974  1.00  0.00     0.074 A 
ATOM     36  C   UNL A   1      40.474  26.902  28.149  1.00  0.00     0.049 A 
ATOM     37  N   UNL A   1      43.295  27.334  27.223  1.00  0.00    -0.248 NA
ATOM     38  C   UNL A   1      43.243  25.242  26.192  1.00  0.00     0.031 C 
ATOM     39  C   UNL A   1      39.120  26.724  28.678  1.00  0.00     0.029 A 
ATOM     40  N   UNL A   1      40.854  28.134  28.622  1.00  0.00    -0.354 N 
ATOM     41  C   UNL A   1      44.538  27.068  26.659  1.00  0.00     0.074 A 
ATOM     42  C   UNL A   1      44.464  25.744  26.081  1.00  0.00     0.031 C 
ATOM     43  C   UNL A   1      38.780  27.807  29.393  1.00  0.00     0.029 A 
ATOM     44  C   UNL A   1      39.899  28.747  29.399  1.00  0.00     0.049 A 
ATOM     45  H   UNL A   1      41.729  28.540  28.424  1.00  0.00     0.167 HD
ATOM     46  C   UNL A   1      45.630  27.865  26.600  1.00  0.00     0.034 A 
ATOM     47  C   UNL A   1      39.916  29.930  30.046  1.00  0.00     0.034 A 
ATOM     48  C   UNL A   1      45.684  29.202  27.127  1.00  0.00     0.049 A 
ATOM     49  C   UNL A   1      41.129  30.814  29.932  1.00  0.00     0.074 A 
ATOM     50  C   UNL A   1      46.719  30.117  27.034  1.00  0.00     0.029 A 
ATOM     51  N   UNL A   1      44.670  29.816  27.843  1.00  0.00    -0.354 N 
ATOM     52  N   UNL A   1      42.239  30.605  29.266  1.00  0.00    -0.248 NA
ATOM     53  C   UNL A   1      41.082  32.109  30.626  1.00  0.00     0.031 C 
ATOM     54  C   UNL A   1      46.336  31.277  27.713  1.00  0.00     0.029 A 
ATOM     55  C   UNL A   1      45.055  31.095  28.207  1.00  0.00     0.049 A 
ATOM     56  H   UNL A   1      43.804  29.403  28.062  1.00  0.00     0.167 HD
ATOM     57  C   UNL A   1      43.008  31.751  29.436  1.00  0.00     0.074 A 
ATOM     58  C   UNL A   1      42.230  32.660  30.251  1.00  0.00     0.031 C 
ATOM     59  C   UNL A   1      44.253  32.015  28.971  1.00  0.00     0.034 A 
BRANCH  46  60
ATOM     60  C   UNL A   1      46.847  27.348  25.877  1.00  0.00     0.023 A 
ATOM     61  C   UNL A   1      47.670  26.394  26.507  1.00  0.00     0.012 A 
ATOM     62  C   UNL A   1      47.117  27.724  24.546  1.00  0.00     0.148 A 
ATOM     63  C   UNL A   1      48.757  25.837  25.834  1.00  0.00     0.002 A 
ATOM     64  C   UNL A   1      48.176  27.133  23.867  1.00  0.00     0.091 A 
ATOM     65  F   UNL A   1      46.334  28.647  23.970  1.00  0.00    -0.205 F 
ATOM     66  C   UNL A   1      49.002  26.196  24.512  1.00  0.00     0.022 A 
BRANCH  64  67
ATOM     67  S   UNL A   1      48.526  27.462  22.135  1.00  0.00     0.127 S 
ATOM     68  O   UNL A   1      49.777  28.214  22.225  1.00  0.00    -0.237 OA
ATOM     69  O   UNL A   1      48.665  26.113  21.588  1.00  0.00    -0.237 OA
ATOM     70  O   UNL A   1      47.383  28.210  21.629  1.00  0.00    -0.744 OA
ENDBRANCH  64  67
ENDBRANCH  46  60
BRANCH  47  71
ATOM     71  C   UNL A   1      38.705  30.376  30.791  1.00  0.00     0.023 A 
ATOM     72  C   UNL A   1      38.619  30.129  32.176  1.00  0.00     0.012 A 
ATOM     73  C   UNL A   1      37.676  31.099  30.157  1.00  0.00     0.148 A 
ATOM     74  C   UNL A   1      37.523  30.580  32.912  1.00  0.00     0.002 A 
ATOM     75  C   UNL A   1      36.615  31.594  30.907  1.00  0.00     0.091 A 
ATOM     76  F   UNL A   1      37.770  31.312  28.837  1.00  0.00    -0.205 F 
ATOM     77  C   UNL A   1      36.529  31.322  32.281  1.00  0.00     0.022 A 
BRANCH  75  78
ATOM     78  S   UNL A   1      35.362  32.679  30.213  1.00  0.00     0.127 S 
ATOM     79  O   UNL A   1      36.158  33.837  29.813  1.00  0.00    -0.237 OA
ATOM     80  O   UNL A   1      34.846  31.873  29.107  1.00  0.00    -0.237 OA
ATOM     81  O   UNL A   1      34.404  32.911  31.286  1.00  0.00    -0.744 OA
ENDBRANCH  75  78
ENDBRANCH  47  71
BRANCH  59  82
ATOM     82  C   UNL A   1      44.870  33.349  29.303  1.00  0.00     0.023 A 
ATOM     83  C   UNL A   1      45.708  33.466  30.429  1.00  0.00     0.012 A 
ATOM     84  C   UNL A   1      44.721  34.448  28.432  1.00  0.00     0.148 A 
ATOM     85  C   UNL A   1      46.378  34.661  30.691  1.00  0.00     0.002 A 
ATOM     86  C   UNL A   1      45.427  35.620  28.675  1.00  0.00     0.091 A 
ATOM     87  F   UNL A   1      43.904  34.320  27.377  1.00  0.00    -0.205 F 
ATOM     88  C   UNL A   1      46.249  35.730  29.808  1.00  0.00     0.022 A 
BRANCH  86  89
ATOM     89  S   UNL A   1      45.406  37.012  27.540  1.00  0.00     0.127 S 
ATOM     90  O   UNL A   1      45.935  38.088  28.379  1.00  0.00    -0.237 OA
ATOM     91  O   UNL A   1      46.312  36.564  26.481  1.00  0.00    -0.237 OA
ATOM     92  O   UNL A   1      44.020  37.171  27.123  1.00  0.00    -0.744 OA
ENDBRANCH  86  89
ENDBRANCH  59  82
ENDBRANCH  33  34
ENDBRANCH  25  28
ENDBRANCH  23  24
ENDBRANCH   1  23
TORSDOF 17
ENDMDL
