MODEL 1
REMARK VINA RESULT:     -12.7      0.000      0.000
REMARK SMILES CC(C)Cc1cc2c(cc1Cl)C=C(C(=O)NCCCNC(=O)c1ccc(-c3c4nc(c(-c5cccc(S(=O)(=O)[O-])c5F)c5ccc([nH]5)c(-c5cccc(S(=O)(=O)[O-])c5F)c5nc(c(-c6cccc(S(=O)(=O)[O-])c6F)c6ccc3[nH]6)C=C5)C=C4)cc1)[C@@H](C(F)(F)F)O2
REMARK SMILES IDX 18 1 17 2 16 3 14 4 15 5 13 7 5 8 6 9 10 10 7 11 9 12 11 13
REMARK SMILES IDX 8 14 91 15 12 16 86 17 4 18 2 19 1 20 3 21 87 22 88 23 89 24
REMARK SMILES IDX 90 25 19 26 20 27 21 28 22 30 23 31 24 32 85 33 25 34 84 35
REMARK SMILES IDX 26 36 27 37 28 38 78 39 29 40 83 41 77 42 79 43 30 44 82 45
REMARK SMILES IDX 76 46 75 47 31 49 63 50 43 51 62 52 44 53 47 54 61 55 80 56
REMARK SMILES IDX 45 57 46 58 60 60 81 61 48 62 32 63 33 64 41 65 34 66 36 67
REMARK SMILES IDX 42 68 35 69 37 70 38 71 39 72 40 73 64 74 65 75 73 76 66 77
REMARK SMILES IDX 68 78 74 79 67 80 69 81 70 82 71 83 72 84 49 85 50 86 58 87
REMARK SMILES IDX 51 88 53 89 59 90 52 91 54 92 55 93 56 94 57 95
REMARK H PARENT 16 6 20 29 79 48 47 59
REMARK Flexibility Score: inf
ROOT
ATOM      1  C   UNL A   1      31.603  32.145  26.651  1.00  0.00     0.042 C 
ENDROOT
BRANCH   1   2
ATOM      2  C   UNL A   1      31.740  30.650  26.410  1.00  0.00     0.118 C 
BRANCH   2   3
ATOM      3  N   UNL A   1      31.463  30.292  25.027  1.00  0.00    -0.352 N 
ATOM      4  C   UNL A   1      31.416  29.164  24.283  1.00  0.00     0.251 C 
ATOM      5  O   UNL A   1      31.142  29.334  23.091  1.00  0.00    -0.270 OA
ATOM      6  H   UNL A   1      31.250  31.087  24.486  1.00  0.00     0.163 HD
BRANCH   4   7
ATOM      7  C   UNL A   1      31.651  27.783  24.797  1.00  0.00     0.067 C 
ATOM      8  C   UNL A   1      33.844  23.441  26.162  1.00  0.00    -0.025 A 
ATOM      9  C   UNL A   1      32.527  23.934  26.188  1.00  0.00     0.052 A 
ATOM     10  C   UNL A   1      34.873  24.314  25.774  1.00  0.00     0.045 A 
ATOM     11  C   UNL A   1      32.249  25.242  25.798  1.00  0.00     0.128 A 
ATOM     12  C   UNL A   1      34.586  25.627  25.382  1.00  0.00     0.032 A 
ATOM     13  Cl  UNL A   1      36.532  23.829  25.749  1.00  0.00    -0.084 Cl
ATOM     14  C   UNL A   1      33.269  26.091  25.380  1.00  0.00     0.019 A 
ATOM     15  O   UNL A   1      30.947  25.640  25.883  1.00  0.00    -0.475 OA
ATOM     16  C   UNL A   1      32.943  27.445  24.960  1.00  0.00     0.025 C 
ATOM     17  C   UNL A   1      30.560  26.784  25.069  1.00  0.00     0.314 C 
BRANCH   8  18
ATOM     18  C   UNL A   1      34.066  21.986  26.516  1.00  0.00     0.040 C 
BRANCH  18  19
ATOM     19  C   UNL A   1      34.075  21.053  25.286  1.00  0.00    -0.013 C 
ATOM     20  C   UNL A   1      33.510  21.725  24.032  1.00  0.00     0.008 C 
ATOM     21  C   UNL A   1      35.501  20.574  25.010  1.00  0.00     0.008 C 
ENDBRANCH  18  19
ENDBRANCH   8  18
BRANCH  17  22
ATOM     22  C   UNL A   1      29.886  26.259  23.787  1.00  0.00     0.429 C 
ATOM     23  F   UNL A   1      30.757  26.291  22.748  1.00  0.00    -0.167 F 
ATOM     24  F   UNL A   1      29.468  24.976  23.897  1.00  0.00    -0.167 F 
ATOM     25  F   UNL A   1      28.807  26.992  23.432  1.00  0.00    -0.167 F 
ENDBRANCH  17  22
ENDBRANCH   4   7
ENDBRANCH   2   3
ENDBRANCH   1   2
BRANCH   1  26
ATOM     26  C   UNL A   1      32.761  32.711  27.463  1.00  0.00     0.118 C 
BRANCH  26  27
ATOM     27  N   UNL A   1      32.596  34.136  27.741  1.00  0.00    -0.352 N 
ATOM     28  C   UNL A   1      33.142  34.919  28.732  1.00  0.00     0.251 C 
ATOM     29  H   UNL A   1      31.997  34.612  27.121  1.00  0.00     0.163 HD
ATOM     30  O   UNL A   1      32.687  36.042  28.933  1.00  0.00    -0.269 OA
BRANCH  28  31
ATOM     31  C   UNL A   1      34.252  34.400  29.555  1.00  0.00     0.039 A 
ATOM     32  C   UNL A   1      35.566  34.498  29.100  1.00  0.00     0.014 A 
ATOM     33  C   UNL A   1      33.983  33.803  30.790  1.00  0.00     0.014 A 
ATOM     34  C   UNL A   1      36.576  33.819  29.765  1.00  0.00     0.010 A 
ATOM     35  C   UNL A   1      35.023  33.216  31.518  1.00  0.00     0.010 A 
ATOM     36  C   UNL A   1      36.320  33.168  30.983  1.00  0.00    -0.014 A 
BRANCH  36  37
ATOM     37  C   UNL A   1      37.432  32.459  31.667  1.00  0.00     0.031 A 
ATOM     38  C   UNL A   1      38.178  31.342  30.985  1.00  0.00     0.074 A 
ATOM     39  C   UNL A   1      37.809  32.870  32.896  1.00  0.00     0.049 A 
ATOM     40  N   UNL A   1      39.187  30.640  31.435  1.00  0.00    -0.248 NA
ATOM     41  C   UNL A   1      37.742  30.955  29.633  1.00  0.00     0.031 C 
ATOM     42  C   UNL A   1      37.148  33.924  33.671  1.00  0.00     0.029 A 
ATOM     43  N   UNL A   1      38.846  32.472  33.701  1.00  0.00    -0.354 N 
ATOM     44  C   UNL A   1      39.472  29.702  30.450  1.00  0.00     0.074 A 
ATOM     45  C   UNL A   1      38.536  29.923  29.371  1.00  0.00     0.031 C 
ATOM     46  C   UNL A   1      37.822  34.123  34.811  1.00  0.00     0.029 A 
ATOM     47  C   UNL A   1      38.925  33.171  34.882  1.00  0.00     0.049 A 
ATOM     48  H   UNL A   1      39.473  31.753  33.456  1.00  0.00     0.167 HD
ATOM     49  C   UNL A   1      40.439  28.757  30.439  1.00  0.00     0.034 A 
ATOM     50  C   UNL A   1      39.779  33.057  35.917  1.00  0.00     0.034 A 
ATOM     51  C   UNL A   1      41.416  28.586  31.478  1.00  0.00     0.049 A 
ATOM     52  C   UNL A   1      40.867  32.027  35.855  1.00  0.00     0.074 A 
ATOM     53  C   UNL A   1      42.465  27.683  31.525  1.00  0.00     0.029 A 
ATOM     54  N   UNL A   1      41.477  29.335  32.640  1.00  0.00    -0.354 N 
ATOM     55  N   UNL A   1      41.159  31.202  34.880  1.00  0.00    -0.248 NA
ATOM     56  C   UNL A   1      41.749  31.917  37.025  1.00  0.00     0.031 C 
ATOM     57  C   UNL A   1      43.164  27.890  32.717  1.00  0.00     0.029 A 
ATOM     58  C   UNL A   1      42.549  28.920  33.410  1.00  0.00     0.049 A 
ATOM     59  H   UNL A   1      40.852  30.056  32.883  1.00  0.00     0.167 HD
ATOM     60  C   UNL A   1      42.258  30.476  35.315  1.00  0.00     0.074 A 
ATOM     61  C   UNL A   1      42.601  30.978  36.630  1.00  0.00     0.031 C 
ATOM     62  C   UNL A   1      42.907  29.465  34.692  1.00  0.00     0.034 A 
BRANCH  49  63
ATOM     63  C   UNL A   1      40.547  27.851  29.244  1.00  0.00     0.023 A 
ATOM     64  C   UNL A   1      39.637  26.784  29.109  1.00  0.00     0.012 A 
ATOM     65  C   UNL A   1      41.439  28.145  28.195  1.00  0.00     0.148 A 
ATOM     66  C   UNL A   1      39.611  26.023  27.941  1.00  0.00     0.002 A 
ATOM     67  C   UNL A   1      41.389  27.398  27.023  1.00  0.00     0.091 A 
ATOM     68  F   UNL A   1      42.295  29.164  28.353  1.00  0.00    -0.205 F 
ATOM     69  C   UNL A   1      40.477  26.337  26.896  1.00  0.00     0.022 A 
BRANCH  67  70
ATOM     70  S   UNL A   1      42.419  27.751  25.594  1.00  0.00     0.127 S 
ATOM     71  O   UNL A   1      43.753  27.783  26.195  1.00  0.00    -0.237 OA
ATOM     72  O   UNL A   1      42.162  26.593  24.740  1.00  0.00    -0.237 OA
ATOM     73  O   UNL A   1      41.956  29.026  25.066  1.00  0.00    -0.744 OA
ENDBRANCH  67  70
ENDBRANCH  49  63
BRANCH  50  74
ATOM     74  C   UNL A   1      39.638  33.969  37.083  1.00  0.00     0.023 A 
ATOM     75  C   UNL A   1      40.004  35.321  36.955  1.00  0.00     0.012 A 
ATOM     76  C   UNL A   1      39.072  33.518  38.291  1.00  0.00     0.148 A 
ATOM     77  C   UNL A   1      39.815  36.209  38.015  1.00  0.00     0.002 A 
ATOM     78  C   UNL A   1      38.840  34.416  39.324  1.00  0.00     0.091 A 
ATOM     79  F   UNL A   1      38.747  32.221  38.393  1.00  0.00    -0.205 F 
ATOM     80  C   UNL A   1      39.221  35.760  39.193  1.00  0.00     0.022 A 
BRANCH  78  81
ATOM     81  S   UNL A   1      37.961  33.950  40.819  1.00  0.00     0.127 S 
ATOM     82  O   UNL A   1      37.717  35.248  41.440  1.00  0.00    -0.237 OA
ATOM     83  O   UNL A   1      36.771  33.291  40.279  1.00  0.00    -0.237 OA
ATOM     84  O   UNL A   1      38.862  33.059  41.539  1.00  0.00    -0.744 OA
ENDBRANCH  78  81
ENDBRANCH  50  74
BRANCH  62  85
ATOM     85  C   UNL A   1      44.059  28.823  35.407  1.00  0.00     0.023 A 
ATOM     86  C   UNL A   1      45.342  29.392  35.285  1.00  0.00     0.012 A 
ATOM     87  C   UNL A   1      43.851  27.748  36.292  1.00  0.00     0.148 A 
ATOM     88  C   UNL A   1      46.406  28.894  36.034  1.00  0.00     0.002 A 
ATOM     89  C   UNL A   1      44.909  27.278  37.058  1.00  0.00     0.091 A 
ATOM     90  F   UNL A   1      42.620  27.224  36.379  1.00  0.00    -0.205 F 
ATOM     91  C   UNL A   1      46.188  27.847  36.927  1.00  0.00     0.022 A 
BRANCH  89  92
ATOM     92  S   UNL A   1      44.713  25.986  38.289  1.00  0.00     0.127 S 
ATOM     93  O   UNL A   1      43.775  26.605  39.224  1.00  0.00    -0.237 OA
ATOM     94  O   UNL A   1      44.155  24.889  37.499  1.00  0.00    -0.237 OA
ATOM     95  O   UNL A   1      46.044  25.734  38.824  1.00  0.00    -0.744 OA
ENDBRANCH  89  92
ENDBRANCH  62  85
ENDBRANCH  36  37
ENDBRANCH  28  31
ENDBRANCH  26  27
ENDBRANCH   1  26
TORSDOF 16
ENDMDL
MODEL 2
REMARK VINA RESULT:     -12.6      2.320      7.966
REMARK SMILES CC(C)Cc1cc2c(cc1Cl)C=C(C(=O)NCCCNC(=O)c1ccc(-c3c4nc(c(-c5cccc(S(=O)(=O)[O-])c5F)c5ccc([nH]5)c(-c5cccc(S(=O)(=O)[O-])c5F)c5nc(c(-c6cccc(S(=O)(=O)[O-])c6F)c6ccc3[nH]6)C=C5)C=C4)cc1)[C@@H](C(F)(F)F)O2
REMARK SMILES IDX 18 1 17 2 16 3 14 4 15 5 13 7 5 8 6 9 10 10 7 11 9 12 11 13
REMARK SMILES IDX 8 14 91 15 12 16 86 17 4 18 2 19 1 20 3 21 87 22 88 23 89 24
REMARK SMILES IDX 90 25 19 26 20 27 21 28 22 30 23 31 24 32 85 33 25 34 84 35
REMARK SMILES IDX 26 36 27 37 28 38 78 39 29 40 83 41 77 42 79 43 30 44 82 45
REMARK SMILES IDX 76 46 75 47 31 49 63 50 43 51 62 52 44 53 47 54 61 55 80 56
REMARK SMILES IDX 45 57 46 58 60 60 81 61 48 62 32 63 33 64 41 65 34 66 36 67
REMARK SMILES IDX 42 68 35 69 37 70 38 71 39 72 40 73 64 74 65 75 73 76 66 77
REMARK SMILES IDX 68 78 74 79 67 80 69 81 70 82 71 83 72 84 49 85 50 86 58 87
REMARK SMILES IDX 51 88 53 89 59 90 52 91 54 92 55 93 56 94 57 95
REMARK H PARENT 16 6 20 29 79 48 47 59
REMARK Flexibility Score: inf
ROOT
ATOM      1  C   UNL A   1      31.392  31.316  26.243  1.00  0.00     0.042 C 
ENDROOT
BRANCH   1   2
ATOM      2  C   UNL A   1      31.629  30.089  25.378  1.00  0.00     0.118 C 
BRANCH   2   3
ATOM      3  N   UNL A   1      30.711  30.033  24.249  1.00  0.00    -0.352 N 
ATOM      4  C   UNL A   1      30.280  29.105  23.366  1.00  0.00     0.251 C 
ATOM      5  O   UNL A   1      29.473  29.516  22.526  1.00  0.00    -0.270 OA
ATOM      6  H   UNL A   1      30.289  30.907  24.086  1.00  0.00     0.163 HD
BRANCH   4   7
ATOM      7  C   UNL A   1      30.692  27.670  23.353  1.00  0.00     0.067 C 
ATOM      8  C   UNL A   1      31.467  22.852  24.660  1.00  0.00    -0.025 A 
ATOM      9  C   UNL A   1      31.761  23.627  23.525  1.00  0.00     0.052 A 
ATOM     10  C   UNL A   1      30.698  23.434  25.682  1.00  0.00     0.045 A 
ATOM     11  C   UNL A   1      31.336  24.952  23.437  1.00  0.00     0.128 A 
ATOM     12  C   UNL A   1      30.275  24.766  25.587  1.00  0.00     0.032 A 
ATOM     13  Cl  UNL A   1      30.239  22.560  27.100  1.00  0.00    -0.084 Cl
ATOM     14  C   UNL A   1      30.605  25.532  24.468  1.00  0.00     0.019 A 
ATOM     15  O   UNL A   1      31.644  25.616  22.286  1.00  0.00    -0.475 OA
ATOM     16  C   UNL A   1      30.193  26.924  24.355  1.00  0.00     0.025 C 
ATOM     17  C   UNL A   1      31.640  27.070  22.352  1.00  0.00     0.314 C 
BRANCH   8  18
ATOM     18  C   UNL A   1      32.031  21.449  24.729  1.00  0.00     0.040 C 
BRANCH  18  19
ATOM     19  C   UNL A   1      33.572  21.414  24.813  1.00  0.00    -0.013 C 
ATOM     20  C   UNL A   1      34.114  22.159  26.036  1.00  0.00     0.008 C 
ATOM     21  C   UNL A   1      34.056  19.963  24.844  1.00  0.00     0.008 C 
ENDBRANCH  18  19
ENDBRANCH   8  18
BRANCH  17  22
ATOM     22  C   UNL A   1      33.094  27.549  22.531  1.00  0.00     0.429 C 
ATOM     23  F   UNL A   1      33.941  26.767  21.818  1.00  0.00    -0.167 F 
ATOM     24  F   UNL A   1      33.289  28.818  22.101  1.00  0.00    -0.167 F 
ATOM     25  F   UNL A   1      33.496  27.509  23.822  1.00  0.00    -0.167 F 
ENDBRANCH  17  22
ENDBRANCH   4   7
ENDBRANCH   2   3
ENDBRANCH   1   2
BRANCH   1  26
ATOM     26  C   UNL A   1      32.557  31.594  27.187  1.00  0.00     0.118 C 
BRANCH  26  27
ATOM     27  N   UNL A   1      32.763  33.024  27.403  1.00  0.00    -0.352 N 
ATOM     28  C   UNL A   1      33.754  33.688  28.089  1.00  0.00     0.251 C 
ATOM     29  H   UNL A   1      32.083  33.607  26.993  1.00  0.00     0.163 HD
ATOM     30  O   UNL A   1      33.612  34.879  28.354  1.00  0.00    -0.269 OA
BRANCH  28  31
ATOM     31  C   UNL A   1      34.966  32.963  28.518  1.00  0.00     0.039 A 
ATOM     32  C   UNL A   1      34.853  31.749  29.194  1.00  0.00     0.014 A 
ATOM     33  C   UNL A   1      36.229  33.499  28.253  1.00  0.00     0.014 A 
ATOM     34  C   UNL A   1      35.973  31.184  29.785  1.00  0.00     0.010 A 
ATOM     35  C   UNL A   1      37.371  32.866  28.755  1.00  0.00     0.010 A 
ATOM     36  C   UNL A   1      37.248  31.733  29.575  1.00  0.00    -0.014 A 
BRANCH  36  37
ATOM     37  C   UNL A   1      38.423  31.093  30.221  1.00  0.00     0.031 A 
ATOM     38  C   UNL A   1      38.806  31.423  31.640  1.00  0.00     0.074 A 
ATOM     39  C   UNL A   1      39.115  30.159  29.536  1.00  0.00     0.049 A 
ATOM     40  N   UNL A   1      39.786  30.934  32.356  1.00  0.00    -0.248 NA
ATOM     41  C   UNL A   1      37.998  32.429  32.350  1.00  0.00     0.031 C 
ATOM     42  C   UNL A   1      38.857  29.772  28.146  1.00  0.00     0.029 A 
ATOM     43  N   UNL A   1      40.159  29.352  29.913  1.00  0.00    -0.354 N 
ATOM     44  C   UNL A   1      39.744  31.604  33.573  1.00  0.00     0.074 A 
ATOM     45  C   UNL A   1      38.639  32.532  33.508  1.00  0.00     0.031 C 
ATOM     46  C   UNL A   1      39.681  28.772  27.806  1.00  0.00     0.029 A 
ATOM     47  C   UNL A   1      40.569  28.487  28.927  1.00  0.00     0.049 A 
ATOM     48  H   UNL A   1      40.573  29.391  30.806  1.00  0.00     0.167 HD
ATOM     49  C   UNL A   1      40.543  31.443  34.652  1.00  0.00     0.034 A 
ATOM     50  C   UNL A   1      41.557  27.572  28.915  1.00  0.00     0.034 A 
ATOM     51  C   UNL A   1      41.594  30.468  34.744  1.00  0.00     0.049 A 
ATOM     52  C   UNL A   1      42.398  27.388  30.143  1.00  0.00     0.074 A 
ATOM     53  C   UNL A   1      42.422  30.203  35.822  1.00  0.00     0.029 A 
ATOM     54  N   UNL A   1      41.955  29.594  33.734  1.00  0.00    -0.354 N 
ATOM     55  N   UNL A   1      42.289  27.983  31.305  1.00  0.00    -0.248 NA
ATOM     56  C   UNL A   1      43.486  26.405  30.066  1.00  0.00     0.031 C 
ATOM     57  C   UNL A   1      43.283  29.163  35.464  1.00  0.00     0.029 A 
ATOM     58  C   UNL A   1      42.990  28.783  34.165  1.00  0.00     0.049 A 
ATOM     59  H   UNL A   1      41.538  29.553  32.843  1.00  0.00     0.167 HD
ATOM     60  C   UNL A   1      43.292  27.446  32.100  1.00  0.00     0.074 A 
ATOM     61  C   UNL A   1      43.980  26.456  31.298  1.00  0.00     0.031 C 
ATOM     62  C   UNL A   1      43.629  27.767  33.371  1.00  0.00     0.034 A 
BRANCH  49  63
ATOM     63  C   UNL A   1      40.294  32.296  35.866  1.00  0.00     0.023 A 
ATOM     64  C   UNL A   1      41.032  33.483  36.032  1.00  0.00     0.012 A 
ATOM     65  C   UNL A   1      39.236  32.001  36.748  1.00  0.00     0.148 A 
ATOM     66  C   UNL A   1      40.718  34.371  37.059  1.00  0.00     0.002 A 
ATOM     67  C   UNL A   1      38.913  32.905  37.755  1.00  0.00     0.091 A 
ATOM     68  F   UNL A   1      38.554  30.863  36.567  1.00  0.00    -0.205 F 
ATOM     69  C   UNL A   1      39.653  34.088  37.912  1.00  0.00     0.022 A 
BRANCH  67  70
ATOM     70  S   UNL A   1      37.527  32.667  38.873  1.00  0.00     0.127 S 
ATOM     71  O   UNL A   1      37.788  31.319  39.381  1.00  0.00    -0.237 OA
ATOM     72  O   UNL A   1      37.734  33.737  39.847  1.00  0.00    -0.237 OA
ATOM     73  O   UNL A   1      36.325  32.791  38.060  1.00  0.00    -0.744 OA
ENDBRANCH  67  70
ENDBRANCH  49  63
BRANCH  50  74
ATOM     74  C   UNL A   1      41.775  26.750  27.695  1.00  0.00     0.023 A 
ATOM     75  C   UNL A   1      42.433  27.314  26.586  1.00  0.00     0.012 A 
ATOM     76  C   UNL A   1      41.402  25.393  27.660  1.00  0.00     0.148 A 
ATOM     77  C   UNL A   1      42.710  26.540  25.459  1.00  0.00     0.002 A 
ATOM     78  C   UNL A   1      41.725  24.615  26.556  1.00  0.00     0.091 A 
ATOM     79  F   UNL A   1      40.762  24.884  28.723  1.00  0.00    -0.205 F 
ATOM     80  C   UNL A   1      42.369  25.189  25.449  1.00  0.00     0.022 A 
BRANCH  78  81
ATOM     81  S   UNL A   1      41.441  22.842  26.518  1.00  0.00     0.127 S 
ATOM     82  O   UNL A   1      39.985  22.774  26.449  1.00  0.00    -0.237 OA
ATOM     83  O   UNL A   1      42.136  22.449  25.291  1.00  0.00    -0.237 OA
ATOM     84  O   UNL A   1      42.045  22.324  27.738  1.00  0.00    -0.744 OA
ENDBRANCH  78  81
ENDBRANCH  50  74
BRANCH  62  85
ATOM     85  C   UNL A   1      44.789  27.047  33.993  1.00  0.00     0.023 A 
ATOM     86  C   UNL A   1      46.085  27.575  33.835  1.00  0.00     0.012 A 
ATOM     87  C   UNL A   1      44.584  25.936  34.832  1.00  0.00     0.148 A 
ATOM     88  C   UNL A   1      47.165  27.001  34.503  1.00  0.00     0.002 A 
ATOM     89  C   UNL A   1      45.659  25.389  35.519  1.00  0.00     0.091 A 
ATOM     90  F   UNL A   1      43.339  25.452  34.955  1.00  0.00    -0.205 F 
ATOM     91  C   UNL A   1      46.951  25.918  35.352  1.00  0.00     0.022 A 
BRANCH  89  92
ATOM     92  S   UNL A   1      45.474  24.042  36.692  1.00  0.00     0.127 S 
ATOM     93  O   UNL A   1      44.896  22.994  35.853  1.00  0.00    -0.237 OA
ATOM     94  O   UNL A   1      46.856  23.802  37.106  1.00  0.00    -0.237 OA
ATOM     95  O   UNL A   1      44.601  24.542  37.746  1.00  0.00    -0.744 OA
ENDBRANCH  89  92
ENDBRANCH  62  85
ENDBRANCH  36  37
ENDBRANCH  28  31
ENDBRANCH  26  27
ENDBRANCH   1  26
TORSDOF 16
ENDMDL
MODEL 3
REMARK VINA RESULT:     -12.6      0.405      7.693
REMARK SMILES CC(C)Cc1cc2c(cc1Cl)C=C(C(=O)NCCCNC(=O)c1ccc(-c3c4nc(c(-c5cccc(S(=O)(=O)[O-])c5F)c5ccc([nH]5)c(-c5cccc(S(=O)(=O)[O-])c5F)c5nc(c(-c6cccc(S(=O)(=O)[O-])c6F)c6ccc3[nH]6)C=C5)C=C4)cc1)[C@@H](C(F)(F)F)O2
REMARK SMILES IDX 18 1 17 2 16 3 14 4 15 5 13 7 5 8 6 9 10 10 7 11 9 12 11 13
REMARK SMILES IDX 8 14 91 15 12 16 86 17 4 18 2 19 1 20 3 21 87 22 88 23 89 24
REMARK SMILES IDX 90 25 19 26 20 27 21 28 22 30 23 31 24 32 85 33 25 34 84 35
REMARK SMILES IDX 26 36 27 37 28 38 78 39 29 40 83 41 77 42 79 43 30 44 82 45
REMARK SMILES IDX 76 46 75 47 31 49 63 50 43 51 62 52 44 53 47 54 61 55 80 56
REMARK SMILES IDX 45 57 46 58 60 60 81 61 48 62 32 63 33 64 41 65 34 66 36 67
REMARK SMILES IDX 42 68 35 69 37 70 38 71 39 72 40 73 64 74 65 75 73 76 66 77
REMARK SMILES IDX 68 78 74 79 67 80 69 81 70 82 71 83 72 84 49 85 50 86 58 87
REMARK SMILES IDX 51 88 53 89 59 90 52 91 54 92 55 93 56 94 57 95
REMARK H PARENT 16 6 20 29 79 48 47 59
REMARK Flexibility Score: inf
ROOT
ATOM      1  C   UNL A   1      31.710  31.901  26.745  1.00  0.00     0.042 C 
ENDROOT
BRANCH   1   2
ATOM      2  C   UNL A   1      31.951  30.419  26.509  1.00  0.00     0.118 C 
BRANCH   2   3
ATOM      3  N   UNL A   1      31.995  30.093  25.091  1.00  0.00    -0.352 N 
ATOM      4  C   UNL A   1      32.077  28.978  24.331  1.00  0.00     0.251 C 
ATOM      5  O   UNL A   1      32.101  29.175  23.112  1.00  0.00    -0.270 OA
ATOM      6  H   UNL A   1      31.951  30.904  24.534  1.00  0.00     0.163 HD
BRANCH   4   7
ATOM      7  C   UNL A   1      32.122  27.580  24.853  1.00  0.00     0.067 C 
ATOM      8  C   UNL A   1      33.711  22.998  26.268  1.00  0.00    -0.025 A 
ATOM      9  C   UNL A   1      32.470  23.658  26.270  1.00  0.00     0.052 A 
ATOM     10  C   UNL A   1      34.852  23.729  25.895  1.00  0.00     0.045 A 
ATOM     11  C   UNL A   1      32.369  24.989  25.871  1.00  0.00     0.128 A 
ATOM     12  C   UNL A   1      34.744  25.066  25.494  1.00  0.00     0.032 A 
ATOM     13  Cl  UNL A   1      36.434  23.033  25.900  1.00  0.00    -0.084 Cl
ATOM     14  C   UNL A   1      33.498  25.696  25.468  1.00  0.00     0.019 A 
ATOM     15  O   UNL A   1      31.128  25.552  25.932  1.00  0.00    -0.475 OA
ATOM     16  C   UNL A   1      33.357  27.079  25.038  1.00  0.00     0.025 C 
ATOM     17  C   UNL A   1      30.907  26.732  25.109  1.00  0.00     0.314 C 
BRANCH   8  18
ATOM     18  C   UNL A   1      33.738  21.529  26.630  1.00  0.00     0.040 C 
BRANCH  18  19
ATOM     19  C   UNL A   1      33.804  20.598  25.400  1.00  0.00    -0.013 C 
ATOM     20  C   UNL A   1      32.908  19.365  25.544  1.00  0.00     0.008 C 
ATOM     21  C   UNL A   1      33.407  21.373  24.141  1.00  0.00     0.008 C 
ENDBRANCH  18  19
ENDBRANCH   8  18
BRANCH  17  22
ATOM     22  C   UNL A   1      30.192  26.292  23.817  1.00  0.00     0.429 C 
ATOM     23  F   UNL A   1      29.678  25.046  23.962  1.00  0.00    -0.167 F 
ATOM     24  F   UNL A   1      29.156  27.098  23.485  1.00  0.00    -0.167 F 
ATOM     25  F   UNL A   1      31.022  26.265  22.749  1.00  0.00    -0.167 F 
ENDBRANCH  17  22
ENDBRANCH   4   7
ENDBRANCH   2   3
ENDBRANCH   1   2
BRANCH   1  26
ATOM     26  C   UNL A   1      32.914  32.593  27.374  1.00  0.00     0.118 C 
BRANCH  26  27
ATOM     27  N   UNL A   1      32.636  33.986  27.712  1.00  0.00    -0.352 N 
ATOM     28  C   UNL A   1      33.129  34.773  28.728  1.00  0.00     0.251 C 
ATOM     29  H   UNL A   1      31.991  34.436  27.118  1.00  0.00     0.163 HD
ATOM     30  O   UNL A   1      32.586  35.845  28.980  1.00  0.00    -0.269 OA
BRANCH  28  31
ATOM     31  C   UNL A   1      34.289  34.315  29.518  1.00  0.00     0.039 A 
ATOM     32  C   UNL A   1      35.584  34.563  29.068  1.00  0.00     0.014 A 
ATOM     33  C   UNL A   1      34.086  33.624  30.716  1.00  0.00     0.014 A 
ATOM     34  C   UNL A   1      36.659  33.945  29.692  1.00  0.00     0.010 A 
ATOM     35  C   UNL A   1      35.182  33.097  31.407  1.00  0.00     0.010 A 
ATOM     36  C   UNL A   1      36.474  33.204  30.870  1.00  0.00    -0.014 A 
BRANCH  36  37
ATOM     37  C   UNL A   1      37.653  32.565  31.510  1.00  0.00     0.031 A 
ATOM     38  C   UNL A   1      38.121  32.991  32.877  1.00  0.00     0.074 A 
ATOM     39  C   UNL A   1      38.270  31.549  30.872  1.00  0.00     0.049 A 
ATOM     40  N   UNL A   1      39.115  32.517  33.584  1.00  0.00    -0.248 NA
ATOM     41  C   UNL A   1      37.391  34.086  33.540  1.00  0.00     0.031 C 
ATOM     42  C   UNL A   1      37.926  31.064  29.533  1.00  0.00     0.029 A 
ATOM     43  N   UNL A   1      39.297  30.729  31.265  1.00  0.00    -0.354 N 
ATOM     44  C   UNL A   1      39.162  33.284  34.743  1.00  0.00     0.074 A 
ATOM     45  C   UNL A   1      38.094  34.252  34.653  1.00  0.00     0.031 C 
ATOM     46  C   UNL A   1      38.690  30.003  29.238  1.00  0.00     0.029 A 
ATOM     47  C   UNL A   1      39.621  29.769  30.336  1.00  0.00     0.049 A 
ATOM     48  H   UNL A   1      39.758  30.820  32.131  1.00  0.00     0.167 HD
ATOM     49  C   UNL A   1      40.008  33.174  35.792  1.00  0.00     0.034 A 
ATOM     50  C   UNL A   1      40.569  28.813  30.352  1.00  0.00     0.034 A 
ATOM     51  C   UNL A   1      41.021  32.163  35.915  1.00  0.00     0.049 A 
ATOM     52  C   UNL A   1      41.462  28.691  31.550  1.00  0.00     0.074 A 
ATOM     53  C   UNL A   1      41.891  31.948  36.970  1.00  0.00     0.029 A 
ATOM     54  N   UNL A   1      41.294  31.195  34.964  1.00  0.00    -0.354 N 
ATOM     55  N   UNL A   1      41.437  29.382  32.663  1.00  0.00    -0.248 NA
ATOM     56  C   UNL A   1      42.504  27.656  31.503  1.00  0.00     0.031 C 
ATOM     57  C   UNL A   1      42.689  30.845  36.658  1.00  0.00     0.029 A 
ATOM     58  C   UNL A   1      42.315  30.375  35.410  1.00  0.00     0.049 A 
ATOM     59  H   UNL A   1      40.830  31.102  34.100  1.00  0.00     0.167 HD
ATOM     60  C   UNL A   1      42.456  28.865  33.451  1.00  0.00     0.074 A 
ATOM     61  C   UNL A   1      43.061  27.783  32.702  1.00  0.00     0.031 C 
ATOM     62  C   UNL A   1      42.870  29.271  34.674  1.00  0.00     0.034 A 
BRANCH  49  63
ATOM     63  C   UNL A   1      39.855  34.132  36.942  1.00  0.00     0.023 A 
ATOM     64  C   UNL A   1      40.161  35.492  36.745  1.00  0.00     0.012 A 
ATOM     65  C   UNL A   1      39.273  33.715  38.155  1.00  0.00     0.148 A 
ATOM     66  C   UNL A   1      39.884  36.429  37.739  1.00  0.00     0.002 A 
ATOM     67  C   UNL A   1      38.976  34.659  39.131  1.00  0.00     0.091 A 
ATOM     68  F   UNL A   1      38.996  32.414  38.315  1.00  0.00    -0.205 F 
ATOM     69  C   UNL A   1      39.282  36.014  38.926  1.00  0.00     0.022 A 
BRANCH  67  70
ATOM     70  S   UNL A   1      38.151  34.244  40.673  1.00  0.00     0.127 S 
ATOM     71  O   UNL A   1      39.206  33.523  41.385  1.00  0.00    -0.237 OA
ATOM     72  O   UNL A   1      37.840  35.564  41.216  1.00  0.00    -0.237 OA
ATOM     73  O   UNL A   1      36.996  33.435  40.309  1.00  0.00    -0.744 OA
ENDBRANCH  67  70
ENDBRANCH  49  63
BRANCH  50  74
ATOM     74  C   UNL A   1      40.691  27.887  29.195  1.00  0.00     0.023 A 
ATOM     75  C   UNL A   1      39.837  26.772  29.105  1.00  0.00     0.012 A 
ATOM     76  C   UNL A   1      41.595  28.151  28.148  1.00  0.00     0.148 A 
ATOM     77  C   UNL A   1      39.888  25.929  27.994  1.00  0.00     0.002 A 
ATOM     78  C   UNL A   1      41.605  27.338  27.022  1.00  0.00     0.091 A 
ATOM     79  F   UNL A   1      42.408  29.210  28.265  1.00  0.00    -0.205 F 
ATOM     80  C   UNL A   1      40.761  26.220  26.948  1.00  0.00     0.022 A 
BRANCH  78  81
ATOM     81  S   UNL A   1      42.602  27.718  25.577  1.00  0.00     0.127 S 
ATOM     82  O   UNL A   1      43.935  27.844  26.158  1.00  0.00    -0.237 OA
ATOM     83  O   UNL A   1      42.399  26.529  24.748  1.00  0.00    -0.237 OA
ATOM     84  O   UNL A   1      42.032  28.938  25.020  1.00  0.00    -0.744 OA
ENDBRANCH  78  81
ENDBRANCH  50  74
BRANCH  62  85
ATOM     85  C   UNL A   1      44.030  28.552  35.297  1.00  0.00     0.023 A 
ATOM     86  C   UNL A   1      45.339  28.969  34.988  1.00  0.00     0.012 A 
ATOM     87  C   UNL A   1      43.824  27.564  36.278  1.00  0.00     0.148 A 
ATOM     88  C   UNL A   1      46.431  28.405  35.644  1.00  0.00     0.002 A 
ATOM     89  C   UNL A   1      44.914  27.029  36.951  1.00  0.00     0.091 A 
ATOM     90  F   UNL A   1      42.565  27.183  36.545  1.00  0.00    -0.205 F 
ATOM     91  C   UNL A   1      46.219  27.446  36.632  1.00  0.00     0.022 A 
BRANCH  89  92
ATOM     92  S   UNL A   1      44.740  25.845  38.289  1.00  0.00     0.127 S 
ATOM     93  O   UNL A   1      46.134  25.611  38.662  1.00  0.00    -0.237 OA
ATOM     94  O   UNL A   1      43.963  26.600  39.271  1.00  0.00    -0.237 OA
ATOM     95  O   UNL A   1      44.050  24.694  37.722  1.00  0.00    -0.744 OA
ENDBRANCH  89  92
ENDBRANCH  62  85
ENDBRANCH  36  37
ENDBRANCH  28  31
ENDBRANCH  26  27
ENDBRANCH   1  26
TORSDOF 16
ENDMDL
