MODEL 1
REMARK VINA RESULT:     -13.7      0.000      0.000
REMARK SMILES Cc1nccn1C1(C(=O)NCCCNC(=O)c2ccc(-c3c4nc(c(-c5cccc(S(=O)(=O)[O-])c5F)c5ccc([nH]5)c(-c5cccc(S(=O)(=O)[O-])c5F)c5nc(c(-c6cccc(S(=O)(=O)[O-])c6F)c6ccc3[nH]6)C=C5)C=C4)cc2)CCN(C(=O)[C@@H]2C[C@H]2c2ccccc2)CC1
REMARK SMILES IDX 12 1 11 2 10 3 8 4 9 5 7 7 80 8 95 9 81 10 94 11 82 12 83 13
REMARK SMILES IDX 84 14 6 15 1 16 2 17 3 18 4 19 5 20 85 21 86 22 87 23 88 24
REMARK SMILES IDX 89 25 93 26 90 27 92 28 91 29 13 30 14 31 15 32 16 34 17 35
REMARK SMILES IDX 18 36 79 37 19 38 78 39 20 40 21 41 22 42 72 43 23 44 77 45
REMARK SMILES IDX 71 46 73 47 24 48 76 49 70 50 69 51 25 53 57 54 37 55 56 56
REMARK SMILES IDX 38 57 41 58 55 59 74 60 39 61 40 62 54 64 75 65 42 66 26 67
REMARK SMILES IDX 27 68 35 69 28 70 30 71 36 72 29 73 31 74 32 75 33 76 34 77
REMARK SMILES IDX 58 78 59 79 67 80 60 81 62 82 68 83 61 84 63 85 64 86 65 87
REMARK SMILES IDX 66 88 43 89 44 90 52 91 45 92 47 93 53 94 46 95 48 96 49 97
REMARK SMILES IDX 50 98 51 99
REMARK H PARENT 10 6 14 33 73 52 41 63
REMARK Flexibility Score: inf
ROOT
ATOM      1  C   UNL A   1      31.540  31.349  26.483  1.00  0.00     0.042 C 
ENDROOT
BRANCH   1   2
ATOM      2  C   UNL A   1      31.961  30.060  25.770  1.00  0.00     0.117 C 
BRANCH   2   3
ATOM      3  N   UNL A   1      31.530  28.834  26.436  1.00  0.00    -0.354 N 
ATOM      4  C   UNL A   1      31.354  27.531  26.033  1.00  0.00     0.246 C 
ATOM      5  O   UNL A   1      31.154  26.774  26.984  1.00  0.00    -0.272 OA
ATOM      6  H   UNL A   1      31.319  28.970  27.387  1.00  0.00     0.163 HD
BRANCH   4   7
ATOM      7  C   UNL A   1      31.466  27.066  24.521  1.00  0.00     0.127 C 
ATOM      8  C   UNL A   1      32.976  27.099  24.184  1.00  0.00     0.061 C 
ATOM      9  C   UNL A   1      30.786  25.670  24.508  1.00  0.00     0.061 C 
ATOM     10  C   UNL A   1      33.565  25.893  23.458  1.00  0.00     0.122 C 
ATOM     11  C   UNL A   1      31.362  24.791  23.428  1.00  0.00     0.122 C 
ATOM     12  N   UNL A   1      32.804  24.654  23.595  1.00  0.00    -0.342 N 
ATOM     13  C   UNL A   1      33.553  23.469  23.660  1.00  0.00     0.226 C 
ATOM     14  O   UNL A   1      34.759  23.470  23.416  1.00  0.00    -0.275 OA
BRANCH   7  15
ATOM     15  N   UNL A   1      30.720  27.922  23.505  1.00  0.00    -0.320 N 
ATOM     16  C   UNL A   1      28.162  27.268  23.693  1.00  0.00     0.087 C 
ATOM     17  C   UNL A   1      29.334  28.109  23.314  1.00  0.00     0.106 A 
ATOM     18  N   UNL A   1      29.105  29.178  22.570  1.00  0.00    -0.242 NA
ATOM     19  C   UNL A   1      30.305  29.574  22.089  1.00  0.00     0.131 A 
ATOM     20  C   UNL A   1      31.304  28.816  22.632  1.00  0.00     0.108 A 
ENDBRANCH   7  15
BRANCH  13  21
ATOM     21  C   UNL A   1      32.985  22.154  24.098  1.00  0.00     0.087 C 
ATOM     22  C   UNL A   1      32.928  21.819  25.568  1.00  0.00     0.023 C 
ATOM     23  C   UNL A   1      33.748  20.982  24.622  1.00  0.00     0.032 C 
BRANCH  23  24
ATOM     24  C   UNL A   1      33.493  19.540  24.361  1.00  0.00    -0.044 A 
ATOM     25  C   UNL A   1      34.490  18.606  24.687  1.00  0.00     0.004 A 
ATOM     26  C   UNL A   1      32.506  19.171  23.434  1.00  0.00     0.004 A 
ATOM     27  C   UNL A   1      34.576  17.393  24.009  1.00  0.00     0.000 A 
ATOM     28  C   UNL A   1      32.593  17.958  22.754  1.00  0.00     0.000 A 
ATOM     29  C   UNL A   1      33.646  17.086  23.020  1.00  0.00     0.000 A 
ENDBRANCH  23  24
ENDBRANCH  13  21
ENDBRANCH   4   7
ENDBRANCH   2   3
ENDBRANCH   1   2
BRANCH   1  30
ATOM     30  C   UNL A   1      32.691  32.069  27.163  1.00  0.00     0.118 C 
BRANCH  30  31
ATOM     31  N   UNL A   1      32.400  33.465  27.509  1.00  0.00    -0.352 N 
ATOM     32  C   UNL A   1      33.039  34.246  28.467  1.00  0.00     0.251 C 
ATOM     33  H   UNL A   1      31.672  33.897  27.009  1.00  0.00     0.163 HD
ATOM     34  O   UNL A   1      32.525  35.264  28.895  1.00  0.00    -0.269 OA
BRANCH  32  35
ATOM     35  C   UNL A   1      34.366  33.804  28.942  1.00  0.00     0.039 A 
ATOM     36  C   UNL A   1      34.530  33.041  30.101  1.00  0.00     0.014 A 
ATOM     37  C   UNL A   1      35.457  34.128  28.143  1.00  0.00     0.014 A 
ATOM     38  C   UNL A   1      35.800  32.543  30.390  1.00  0.00     0.010 A 
ATOM     39  C   UNL A   1      36.634  33.454  28.302  1.00  0.00     0.010 A 
ATOM     40  C   UNL A   1      36.842  32.737  29.468  1.00  0.00    -0.014 A 
BRANCH  40  41
ATOM     41  C   UNL A   1      38.143  32.108  29.634  1.00  0.00     0.031 A 
ATOM     42  C   UNL A   1      38.216  30.739  29.070  1.00  0.00     0.074 A 
ATOM     43  C   UNL A   1      39.232  32.778  30.076  1.00  0.00     0.049 A 
ATOM     44  N   UNL A   1      38.225  29.635  29.739  1.00  0.00    -0.248 NA
ATOM     45  C   UNL A   1      38.060  30.553  27.619  1.00  0.00     0.031 C 
ATOM     46  C   UNL A   1      39.360  34.211  30.378  1.00  0.00     0.029 A 
ATOM     47  N   UNL A   1      40.511  32.337  30.215  1.00  0.00    -0.354 N 
ATOM     48  C   UNL A   1      38.374  28.630  28.790  1.00  0.00     0.074 A 
ATOM     49  C   UNL A   1      38.012  29.221  27.530  1.00  0.00     0.031 C 
ATOM     50  C   UNL A   1      40.665  34.556  30.396  1.00  0.00     0.029 A 
ATOM     51  C   UNL A   1      41.465  33.352  30.284  1.00  0.00     0.049 A 
ATOM     52  H   UNL A   1      40.744  31.382  30.264  1.00  0.00     0.167 HD
ATOM     53  C   UNL A   1      39.073  27.500  29.092  1.00  0.00     0.034 A 
ATOM     54  C   UNL A   1      42.812  33.207  30.203  1.00  0.00     0.034 A 
ATOM     55  C   UNL A   1      39.303  27.403  30.517  1.00  0.00     0.049 A 
ATOM     56  C   UNL A   1      43.115  31.803  30.564  1.00  0.00     0.074 A 
ATOM     57  C   UNL A   1      38.498  27.405  31.640  1.00  0.00     0.029 A 
ATOM     58  N   UNL A   1      40.566  27.724  30.960  1.00  0.00    -0.354 N 
ATOM     59  N   UNL A   1      42.917  31.320  31.758  1.00  0.00    -0.248 NA
ATOM     60  C   UNL A   1      43.181  30.824  29.493  1.00  0.00     0.031 C 
ATOM     61  C   UNL A   1      39.203  28.199  32.594  1.00  0.00     0.029 A 
ATOM     62  C   UNL A   1      40.434  28.554  32.042  1.00  0.00     0.049 A 
ATOM     63  H   UNL A   1      41.414  27.411  30.570  1.00  0.00     0.167 HD
ATOM     64  C   UNL A   1      42.331  30.083  31.525  1.00  0.00     0.074 A 
ATOM     65  C   UNL A   1      42.629  29.782  30.123  1.00  0.00     0.031 C 
ATOM     66  C   UNL A   1      41.403  29.572  32.387  1.00  0.00     0.034 A 
BRANCH  53  67
ATOM     67  C   UNL A   1      39.912  26.701  28.117  1.00  0.00     0.023 A 
ATOM     68  C   UNL A   1      39.859  25.293  28.242  1.00  0.00     0.012 A 
ATOM     69  C   UNL A   1      40.944  27.229  27.307  1.00  0.00     0.148 A 
ATOM     70  C   UNL A   1      40.828  24.465  27.668  1.00  0.00     0.002 A 
ATOM     71  C   UNL A   1      41.863  26.397  26.678  1.00  0.00     0.091 A 
ATOM     72  F   UNL A   1      41.135  28.546  27.232  1.00  0.00    -0.205 F 
ATOM     73  C   UNL A   1      41.832  25.017  26.885  1.00  0.00     0.022 A 
BRANCH  71  74
ATOM     74  S   UNL A   1      43.162  27.052  25.620  1.00  0.00     0.127 S 
ATOM     75  O   UNL A   1      42.391  27.850  24.674  1.00  0.00    -0.237 OA
ATOM     76  O   UNL A   1      43.963  27.819  26.576  1.00  0.00    -0.237 OA
ATOM     77  O   UNL A   1      43.846  25.889  25.068  1.00  0.00    -0.744 OA
ENDBRANCH  71  74
ENDBRANCH  53  67
BRANCH  54  78
ATOM     78  C   UNL A   1      43.827  34.088  29.574  1.00  0.00     0.023 A 
ATOM     79  C   UNL A   1      44.668  34.876  30.389  1.00  0.00     0.012 A 
ATOM     80  C   UNL A   1      44.185  33.921  28.219  1.00  0.00     0.148 A 
ATOM     81  C   UNL A   1      45.851  35.432  29.883  1.00  0.00     0.002 A 
ATOM     82  C   UNL A   1      45.361  34.474  27.722  1.00  0.00     0.091 A 
ATOM     83  F   UNL A   1      43.427  33.138  27.441  1.00  0.00    -0.205 F 
ATOM     84  C   UNL A   1      46.204  35.220  28.555  1.00  0.00     0.022 A 
BRANCH  82  85
ATOM     85  S   UNL A   1      45.903  34.194  26.031  1.00  0.00     0.127 S 
ATOM     86  O   UNL A   1      47.062  35.081  25.932  1.00  0.00    -0.237 OA
ATOM     87  O   UNL A   1      46.220  32.768  26.050  1.00  0.00    -0.237 OA
ATOM     88  O   UNL A   1      44.778  34.579  25.188  1.00  0.00    -0.744 OA
ENDBRANCH  82  85
ENDBRANCH  54  78
BRANCH  66  89
ATOM     89  C   UNL A   1      41.216  30.263  33.717  1.00  0.00     0.023 A 
ATOM     90  C   UNL A   1      42.082  30.067  34.814  1.00  0.00     0.012 A 
ATOM     91  C   UNL A   1      40.214  31.241  33.819  1.00  0.00     0.148 A 
ATOM     92  C   UNL A   1      41.928  30.801  35.996  1.00  0.00     0.002 A 
ATOM     93  C   UNL A   1      40.091  32.001  34.976  1.00  0.00     0.091 A 
ATOM     94  F   UNL A   1      39.399  31.426  32.768  1.00  0.00    -0.205 F 
ATOM     95  C   UNL A   1      40.938  31.776  36.072  1.00  0.00     0.022 A 
BRANCH  93  96
ATOM     96  S   UNL A   1      38.906  33.342  35.085  1.00  0.00     0.127 S 
ATOM     97  O   UNL A   1      39.250  33.948  36.369  1.00  0.00    -0.237 OA
ATOM     98  O   UNL A   1      39.240  34.156  33.915  1.00  0.00    -0.237 OA
ATOM     99  O   UNL A   1      37.591  32.716  35.016  1.00  0.00    -0.744 OA
ENDBRANCH  93  96
ENDBRANCH  66  89
ENDBRANCH  40  41
ENDBRANCH  32  35
ENDBRANCH  30  31
ENDBRANCH   1  30
TORSDOF 16
ENDMDL
MODEL 2
REMARK VINA RESULT:     -13.6      3.155      7.000
REMARK SMILES Cc1nccn1C1(C(=O)NCCCNC(=O)c2ccc(-c3c4nc(c(-c5cccc(S(=O)(=O)[O-])c5F)c5ccc([nH]5)c(-c5cccc(S(=O)(=O)[O-])c5F)c5nc(c(-c6cccc(S(=O)(=O)[O-])c6F)c6ccc3[nH]6)C=C5)C=C4)cc2)CCN(C(=O)[C@@H]2C[C@H]2c2ccccc2)CC1
REMARK SMILES IDX 12 1 11 2 10 3 8 4 9 5 7 7 80 8 95 9 81 10 94 11 82 12 83 13
REMARK SMILES IDX 84 14 6 15 1 16 2 17 3 18 4 19 5 20 85 21 86 22 87 23 88 24
REMARK SMILES IDX 89 25 93 26 90 27 92 28 91 29 13 30 14 31 15 32 16 34 17 35
REMARK SMILES IDX 18 36 79 37 19 38 78 39 20 40 21 41 22 42 72 43 23 44 77 45
REMARK SMILES IDX 71 46 73 47 24 48 76 49 70 50 69 51 25 53 57 54 37 55 56 56
REMARK SMILES IDX 38 57 41 58 55 59 74 60 39 61 40 62 54 64 75 65 42 66 26 67
REMARK SMILES IDX 27 68 35 69 28 70 30 71 36 72 29 73 31 74 32 75 33 76 34 77
REMARK SMILES IDX 58 78 59 79 67 80 60 81 62 82 68 83 61 84 63 85 64 86 65 87
REMARK SMILES IDX 66 88 43 89 44 90 52 91 45 92 47 93 53 94 46 95 48 96 49 97
REMARK SMILES IDX 50 98 51 99
REMARK H PARENT 10 6 14 33 73 52 41 63
REMARK Flexibility Score: inf
ROOT
ATOM      1  C   UNL A   1      32.879  29.986  27.277  1.00  0.00     0.042 C 
ENDROOT
BRANCH   1   2
ATOM      2  C   UNL A   1      33.362  28.558  27.005  1.00  0.00     0.117 C 
BRANCH   2   3
ATOM      3  N   UNL A   1      32.315  27.542  27.080  1.00  0.00    -0.354 N 
ATOM      4  C   UNL A   1      31.976  26.450  26.316  1.00  0.00     0.246 C 
ATOM      5  O   UNL A   1      31.121  25.751  26.860  1.00  0.00    -0.272 OA
ATOM      6  H   UNL A   1      31.718  27.666  27.853  1.00  0.00     0.163 HD
BRANCH   4   7
ATOM      7  C   UNL A   1      32.668  26.113  24.929  1.00  0.00     0.127 C 
ATOM      8  C   UNL A   1      34.150  25.814  25.262  1.00  0.00     0.061 C 
ATOM      9  C   UNL A   1      31.832  24.927  24.374  1.00  0.00     0.061 C 
ATOM     10  C   UNL A   1      34.779  24.574  24.634  1.00  0.00     0.122 C 
ATOM     11  C   UNL A   1      32.665  24.038  23.487  1.00  0.00     0.122 C 
ATOM     12  N   UNL A   1      33.833  23.545  24.210  1.00  0.00    -0.342 N 
ATOM     13  C   UNL A   1      34.254  22.214  24.357  1.00  0.00     0.226 C 
ATOM     14  O   UNL A   1      35.421  21.950  24.640  1.00  0.00    -0.275 OA
BRANCH   7  15
ATOM     15  N   UNL A   1      32.615  27.212  23.874  1.00  0.00    -0.320 N 
ATOM     16  C   UNL A   1      30.070  27.884  23.604  1.00  0.00     0.087 C 
ATOM     17  C   UNL A   1      31.548  28.045  23.481  1.00  0.00     0.106 A 
ATOM     18  N   UNL A   1      31.995  29.082  22.792  1.00  0.00    -0.242 NA
ATOM     19  C   UNL A   1      33.300  28.841  22.539  1.00  0.00     0.131 A 
ATOM     20  C   UNL A   1      33.700  27.699  23.176  1.00  0.00     0.108 A 
ENDBRANCH   7  15
BRANCH  13  21
ATOM     21  C   UNL A   1      33.330  21.040  24.265  1.00  0.00     0.087 C 
ATOM     22  C   UNL A   1      32.215  20.888  25.271  1.00  0.00     0.023 C 
ATOM     23  C   UNL A   1      33.305  19.852  25.169  1.00  0.00     0.032 C 
BRANCH  23  24
ATOM     24  C   UNL A   1      33.062  18.431  24.799  1.00  0.00    -0.044 A 
ATOM     25  C   UNL A   1      32.569  17.551  25.777  1.00  0.00     0.004 A 
ATOM     26  C   UNL A   1      33.705  17.892  23.675  1.00  0.00     0.004 A 
ATOM     27  C   UNL A   1      32.831  16.186  25.701  1.00  0.00     0.000 A 
ATOM     28  C   UNL A   1      33.969  16.526  23.599  1.00  0.00     0.000 A 
ATOM     29  C   UNL A   1      33.559  15.680  24.627  1.00  0.00     0.000 A 
ENDBRANCH  23  24
ENDBRANCH  13  21
ENDBRANCH   4   7
ENDBRANCH   2   3
ENDBRANCH   1   2
BRANCH   1  30
ATOM     30  C   UNL A   1      34.007  30.988  27.433  1.00  0.00     0.118 C 
BRANCH  30  31
ATOM     31  N   UNL A   1      33.916  31.807  28.647  1.00  0.00    -0.352 N 
ATOM     32  C   UNL A   1      34.817  31.845  29.707  1.00  0.00     0.251 C 
ATOM     33  H   UNL A   1      33.131  32.394  28.721  1.00  0.00     0.163 HD
ATOM     34  O   UNL A   1      34.497  32.304  30.789  1.00  0.00    -0.269 OA
BRANCH  32  35
ATOM     35  C   UNL A   1      36.177  31.319  29.474  1.00  0.00     0.039 A 
ATOM     36  C   UNL A   1      37.308  32.140  29.478  1.00  0.00     0.014 A 
ATOM     37  C   UNL A   1      36.298  29.944  29.313  1.00  0.00     0.014 A 
ATOM     38  C   UNL A   1      38.563  31.538  29.400  1.00  0.00     0.010 A 
ATOM     39  C   UNL A   1      37.517  29.350  29.469  1.00  0.00     0.010 A 
ATOM     40  C   UNL A   1      38.656  30.137  29.420  1.00  0.00    -0.014 A 
BRANCH  40  41
ATOM     41  C   UNL A   1      39.937  29.452  29.501  1.00  0.00     0.031 A 
ATOM     42  C   UNL A   1      40.393  29.213  30.892  1.00  0.00     0.074 A 
ATOM     43  C   UNL A   1      40.551  28.910  28.425  1.00  0.00     0.049 A 
ATOM     44  N   UNL A   1      41.331  29.849  31.510  1.00  0.00    -0.248 NA
ATOM     45  C   UNL A   1      39.607  28.323  31.760  1.00  0.00     0.031 C 
ATOM     46  C   UNL A   1      40.055  28.816  27.044  1.00  0.00     0.029 A 
ATOM     47  N   UNL A   1      41.705  28.193  28.368  1.00  0.00    -0.354 N 
ATOM     48  C   UNL A   1      41.443  29.229  32.750  1.00  0.00     0.074 A 
ATOM     49  C   UNL A   1      40.218  28.498  32.935  1.00  0.00     0.031 C 
ATOM     50  C   UNL A   1      40.754  27.874  26.375  1.00  0.00     0.029 A 
ATOM     51  C   UNL A   1      41.850  27.427  27.211  1.00  0.00     0.049 A 
ATOM     52  H   UNL A   1      42.382  28.213  29.082  1.00  0.00     0.167 HD
ATOM     53  C   UNL A   1      42.656  29.133  33.361  1.00  0.00     0.034 A 
ATOM     54  C   UNL A   1      42.778  26.463  26.987  1.00  0.00     0.034 A 
ATOM     55  C   UNL A   1      43.624  29.996  32.722  1.00  0.00     0.049 A 
ATOM     56  C   UNL A   1      43.901  26.724  27.915  1.00  0.00     0.074 A 
ATOM     57  C   UNL A   1      43.691  31.346  32.432  1.00  0.00     0.029 A 
ATOM     58  N   UNL A   1      44.536  29.389  31.889  1.00  0.00    -0.354 N 
ATOM     59  N   UNL A   1      44.662  27.779  27.829  1.00  0.00    -0.248 NA
ATOM     60  C   UNL A   1      43.878  26.070  29.213  1.00  0.00     0.031 C 
ATOM     61  C   UNL A   1      44.260  31.412  31.124  1.00  0.00     0.029 A 
ATOM     62  C   UNL A   1      44.598  30.117  30.730  1.00  0.00     0.049 A 
ATOM     63  H   UNL A   1      45.053  28.576  32.090  1.00  0.00     0.167 HD
ATOM     64  C   UNL A   1      44.789  28.207  29.143  1.00  0.00     0.074 A 
ATOM     65  C   UNL A   1      44.390  27.057  29.957  1.00  0.00     0.031 C 
ATOM     66  C   UNL A   1      44.900  29.536  29.440  1.00  0.00     0.034 A 
BRANCH  53  67
ATOM     67  C   UNL A   1      43.105  27.987  34.244  1.00  0.00     0.023 A 
ATOM     68  C   UNL A   1      43.509  28.321  35.558  1.00  0.00     0.012 A 
ATOM     69  C   UNL A   1      43.428  26.688  33.789  1.00  0.00     0.148 A 
ATOM     70  C   UNL A   1      44.268  27.444  36.340  1.00  0.00     0.002 A 
ATOM     71  C   UNL A   1      44.119  25.793  34.598  1.00  0.00     0.091 A 
ATOM     72  F   UNL A   1      43.188  26.336  32.526  1.00  0.00    -0.205 F 
ATOM     73  C   UNL A   1      44.573  26.179  35.860  1.00  0.00     0.022 A 
BRANCH  71  74
ATOM     74  S   UNL A   1      44.511  24.127  34.045  1.00  0.00     0.127 S 
ATOM     75  O   UNL A   1      45.301  23.627  35.166  1.00  0.00    -0.237 OA
ATOM     76  O   UNL A   1      43.178  23.538  33.911  1.00  0.00    -0.237 OA
ATOM     77  O   UNL A   1      45.222  24.286  32.783  1.00  0.00    -0.744 OA
ENDBRANCH  71  74
ENDBRANCH  53  67
BRANCH  54  78
ATOM     78  C   UNL A   1      42.658  25.182  26.247  1.00  0.00     0.023 A 
ATOM     79  C   UNL A   1      43.686  24.787  25.364  1.00  0.00     0.012 A 
ATOM     80  C   UNL A   1      41.711  24.210  26.636  1.00  0.00     0.148 A 
ATOM     81  C   UNL A   1      43.797  23.460  24.929  1.00  0.00     0.002 A 
ATOM     82  C   UNL A   1      41.827  22.893  26.204  1.00  0.00     0.091 A 
ATOM     83  F   UNL A   1      40.756  24.551  27.511  1.00  0.00    -0.205 F 
ATOM     84  C   UNL A   1      42.876  22.510  25.359  1.00  0.00     0.022 A 
BRANCH  82  85
ATOM     85  S   UNL A   1      40.703  21.606  26.764  1.00  0.00     0.127 S 
ATOM     86  O   UNL A   1      39.416  22.085  26.258  1.00  0.00    -0.237 OA
ATOM     87  O   UNL A   1      41.231  20.428  26.082  1.00  0.00    -0.237 OA
ATOM     88  O   UNL A   1      40.809  21.595  28.217  1.00  0.00    -0.744 OA
ENDBRANCH  82  85
ENDBRANCH  54  78
BRANCH  66  89
ATOM     89  C   UNL A   1      45.131  30.500  28.300  1.00  0.00     0.023 A 
ATOM     90  C   UNL A   1      44.081  31.043  27.527  1.00  0.00     0.012 A 
ATOM     91  C   UNL A   1      46.434  30.976  28.090  1.00  0.00     0.148 A 
ATOM     92  C   UNL A   1      44.332  32.006  26.544  1.00  0.00     0.002 A 
ATOM     93  C   UNL A   1      46.676  31.966  27.145  1.00  0.00     0.091 A 
ATOM     94  F   UNL A   1      47.425  30.460  28.834  1.00  0.00    -0.205 F 
ATOM     95  C   UNL A   1      45.630  32.476  26.361  1.00  0.00     0.022 A 
BRANCH  93  96
ATOM     96  S   UNL A   1      48.307  32.682  26.946  1.00  0.00     0.127 S 
ATOM     97  O   UNL A   1      49.100  31.526  26.535  1.00  0.00    -0.237 OA
ATOM     98  O   UNL A   1      48.088  33.680  25.896  1.00  0.00    -0.237 OA
ATOM     99  O   UNL A   1      48.650  33.254  28.243  1.00  0.00    -0.744 OA
ENDBRANCH  93  96
ENDBRANCH  66  89
ENDBRANCH  40  41
ENDBRANCH  32  35
ENDBRANCH  30  31
ENDBRANCH   1  30
TORSDOF 16
ENDMDL
MODEL 3
REMARK VINA RESULT:     -13.4      4.086      9.724
REMARK SMILES Cc1nccn1C1(C(=O)NCCCNC(=O)c2ccc(-c3c4nc(c(-c5cccc(S(=O)(=O)[O-])c5F)c5ccc([nH]5)c(-c5cccc(S(=O)(=O)[O-])c5F)c5nc(c(-c6cccc(S(=O)(=O)[O-])c6F)c6ccc3[nH]6)C=C5)C=C4)cc2)CCN(C(=O)[C@@H]2C[C@H]2c2ccccc2)CC1
REMARK SMILES IDX 12 1 11 2 10 3 8 4 9 5 7 7 80 8 95 9 81 10 94 11 82 12 83 13
REMARK SMILES IDX 84 14 6 15 1 16 2 17 3 18 4 19 5 20 85 21 86 22 87 23 88 24
REMARK SMILES IDX 89 25 93 26 90 27 92 28 91 29 13 30 14 31 15 32 16 34 17 35
REMARK SMILES IDX 18 36 79 37 19 38 78 39 20 40 21 41 22 42 72 43 23 44 77 45
REMARK SMILES IDX 71 46 73 47 24 48 76 49 70 50 69 51 25 53 57 54 37 55 56 56
REMARK SMILES IDX 38 57 41 58 55 59 74 60 39 61 40 62 54 64 75 65 42 66 26 67
REMARK SMILES IDX 27 68 35 69 28 70 30 71 36 72 29 73 31 74 32 75 33 76 34 77
REMARK SMILES IDX 58 78 59 79 67 80 60 81 62 82 68 83 61 84 63 85 64 86 65 87
REMARK SMILES IDX 66 88 43 89 44 90 52 91 45 92 47 93 53 94 46 95 48 96 49 97
REMARK SMILES IDX 50 98 51 99
REMARK H PARENT 10 6 14 33 73 52 41 63
REMARK Flexibility Score: inf
ROOT
ATOM      1  C   UNL A   1      36.774  21.273  25.767  1.00  0.00     0.042 C 
ENDROOT
BRANCH   1   2
ATOM      2  C   UNL A   1      35.768  21.136  24.619  1.00  0.00     0.117 C 
BRANCH   2   3
ATOM      3  N   UNL A   1      35.599  22.346  23.818  1.00  0.00    -0.354 N 
ATOM      4  C   UNL A   1      34.571  23.240  23.631  1.00  0.00     0.246 C 
ATOM      5  O   UNL A   1      34.932  24.236  23.002  1.00  0.00    -0.272 OA
ATOM      6  H   UNL A   1      36.400  22.573  23.295  1.00  0.00     0.163 HD
BRANCH   4   7
ATOM      7  C   UNL A   1      33.116  23.028  24.225  1.00  0.00     0.127 C 
ATOM      8  C   UNL A   1      33.145  23.656  25.640  1.00  0.00     0.061 C 
ATOM      9  C   UNL A   1      32.185  23.711  23.186  1.00  0.00     0.061 C 
ATOM     10  C   UNL A   1      31.987  24.569  26.031  1.00  0.00     0.122 C 
ATOM     11  C   UNL A   1      30.927  24.228  23.834  1.00  0.00     0.122 C 
ATOM     12  N   UNL A   1      31.252  25.154  24.913  1.00  0.00    -0.342 N 
ATOM     13  C   UNL A   1      30.769  26.458  25.101  1.00  0.00     0.226 C 
ATOM     14  O   UNL A   1      30.798  26.988  26.210  1.00  0.00    -0.275 OA
BRANCH   7  15
ATOM     15  N   UNL A   1      32.650  21.582  24.342  1.00  0.00    -0.320 N 
ATOM     16  C   UNL A   1      31.932  20.817  21.912  1.00  0.00     0.087 C 
ATOM     17  C   UNL A   1      32.336  20.643  23.337  1.00  0.00     0.106 A 
ATOM     18  N   UNL A   1      32.308  19.418  23.836  1.00  0.00    -0.242 NA
ATOM     19  C   UNL A   1      32.383  19.549  25.178  1.00  0.00     0.131 A 
ATOM     20  C   UNL A   1      32.576  20.860  25.514  1.00  0.00     0.108 A 
ENDBRANCH   7  15
BRANCH  13  21
ATOM     21  C   UNL A   1      30.267  27.322  23.986  1.00  0.00     0.087 C 
ATOM     22  C   UNL A   1      31.253  27.991  23.059  1.00  0.00     0.023 C 
ATOM     23  C   UNL A   1      30.326  28.813  23.916  1.00  0.00     0.032 C 
BRANCH  23  24
ATOM     24  C   UNL A   1      29.299  29.740  23.369  1.00  0.00    -0.044 A 
ATOM     25  C   UNL A   1      28.645  29.397  22.174  1.00  0.00     0.004 A 
ATOM     26  C   UNL A   1      29.300  31.084  23.771  1.00  0.00     0.004 A 
ATOM     27  C   UNL A   1      28.126  30.383  21.340  1.00  0.00     0.000 A 
ATOM     28  C   UNL A   1      28.782  32.072  22.936  1.00  0.00     0.000 A 
ATOM     29  C   UNL A   1      28.225  31.722  21.707  1.00  0.00     0.000 A 
ENDBRANCH  23  24
ENDBRANCH  13  21
ENDBRANCH   4   7
ENDBRANCH   2   3
ENDBRANCH   1   2
BRANCH   1  30
ATOM     30  C   UNL A   1      38.217  21.346  25.303  1.00  0.00     0.118 C 
BRANCH  30  31
ATOM     31  N   UNL A   1      38.963  20.094  25.475  1.00  0.00    -0.352 N 
ATOM     32  C   UNL A   1      40.300  19.952  25.833  1.00  0.00     0.251 C 
ATOM     33  H   UNL A   1      38.463  19.262  25.319  1.00  0.00     0.163 HD
ATOM     34  O   UNL A   1      40.897  18.908  25.640  1.00  0.00    -0.269 OA
BRANCH  32  35
ATOM     35  C   UNL A   1      40.970  21.108  26.465  1.00  0.00     0.039 A 
ATOM     36  C   UNL A   1      41.664  22.068  25.724  1.00  0.00     0.014 A 
ATOM     37  C   UNL A   1      40.825  21.240  27.841  1.00  0.00     0.014 A 
ATOM     38  C   UNL A   1      42.134  23.201  26.386  1.00  0.00     0.010 A 
ATOM     39  C   UNL A   1      41.079  22.443  28.435  1.00  0.00     0.010 A 
ATOM     40  C   UNL A   1      41.814  23.389  27.741  1.00  0.00    -0.014 A 
BRANCH  40  41
ATOM     41  C   UNL A   1      42.138  24.621  28.443  1.00  0.00     0.031 A 
ATOM     42  C   UNL A   1      41.141  25.699  28.238  1.00  0.00     0.074 A 
ATOM     43  C   UNL A   1      43.136  24.709  29.352  1.00  0.00     0.049 A 
ATOM     44  N   UNL A   1      41.288  26.746  27.497  1.00  0.00    -0.248 NA
ATOM     45  C   UNL A   1      39.769  25.511  28.733  1.00  0.00     0.031 C 
ATOM     46  C   UNL A   1      43.998  23.634  29.866  1.00  0.00     0.029 A 
ATOM     47  N   UNL A   1      43.502  25.768  30.123  1.00  0.00    -0.354 N 
ATOM     48  C   UNL A   1      40.128  27.491  27.676  1.00  0.00     0.074 A 
ATOM     49  C   UNL A   1      39.157  26.581  28.220  1.00  0.00     0.031 C 
ATOM     50  C   UNL A   1      44.575  24.029  31.021  1.00  0.00     0.029 A 
ATOM     51  C   UNL A   1      44.269  25.430  31.237  1.00  0.00     0.049 A 
ATOM     52  H   UNL A   1      43.247  26.695  29.912  1.00  0.00     0.167 HD
ATOM     53  C   UNL A   1      40.176  28.852  27.644  1.00  0.00     0.034 A 
ATOM     54  C   UNL A   1      44.584  26.237  32.281  1.00  0.00     0.034 A 
ATOM     55  C   UNL A   1      41.439  29.311  27.109  1.00  0.00     0.049 A 
ATOM     56  C   UNL A   1      44.446  27.632  31.803  1.00  0.00     0.074 A 
ATOM     57  C   UNL A   1      42.142  29.093  25.940  1.00  0.00     0.029 A 
ATOM     58  N   UNL A   1      42.359  29.781  28.018  1.00  0.00    -0.354 N 
ATOM     59  N   UNL A   1      45.219  28.148  30.890  1.00  0.00    -0.248 NA
ATOM     60  C   UNL A   1      43.163  28.290  31.985  1.00  0.00     0.031 C 
ATOM     61  C   UNL A   1      43.505  28.970  26.350  1.00  0.00     0.029 A 
ATOM     62  C   UNL A   1      43.570  29.215  27.722  1.00  0.00     0.049 A 
ATOM     63  H   UNL A   1      42.178  30.412  28.751  1.00  0.00     0.167 HD
ATOM     64  C   UNL A   1      44.344  28.833  30.059  1.00  0.00     0.074 A 
ATOM     65  C   UNL A   1      43.117  28.986  30.844  1.00  0.00     0.031 C 
ATOM     66  C   UNL A   1      44.582  28.932  28.717  1.00  0.00     0.034 A 
BRANCH  53  67
ATOM     67  C   UNL A   1      39.299  29.780  28.460  1.00  0.00     0.023 A 
ATOM     68  C   UNL A   1      39.640  29.937  29.823  1.00  0.00     0.012 A 
ATOM     69  C   UNL A   1      38.030  30.260  28.061  1.00  0.00     0.148 A 
ATOM     70  C   UNL A   1      38.735  30.459  30.753  1.00  0.00     0.002 A 
ATOM     71  C   UNL A   1      37.162  30.846  28.976  1.00  0.00     0.091 A 
ATOM     72  F   UNL A   1      37.586  30.046  26.822  1.00  0.00    -0.205 F 
ATOM     73  C   UNL A   1      37.495  30.914  30.330  1.00  0.00     0.022 A 
BRANCH  71  74
ATOM     74  S   UNL A   1      35.557  31.488  28.479  1.00  0.00     0.127 S 
ATOM     75  O   UNL A   1      34.986  31.870  29.767  1.00  0.00    -0.237 OA
ATOM     76  O   UNL A   1      35.941  32.604  27.612  1.00  0.00    -0.237 OA
ATOM     77  O   UNL A   1      34.892  30.394  27.783  1.00  0.00    -0.744 OA
ENDBRANCH  71  74
ENDBRANCH  53  67
BRANCH  54  78
ATOM     78  C   UNL A   1      44.719  25.917  33.724  1.00  0.00     0.023 A 
ATOM     79  C   UNL A   1      46.004  25.833  34.303  1.00  0.00     0.012 A 
ATOM     80  C   UNL A   1      43.608  26.008  34.589  1.00  0.00     0.148 A 
ATOM     81  C   UNL A   1      46.176  25.893  35.692  1.00  0.00     0.002 A 
ATOM     82  C   UNL A   1      43.785  26.069  35.968  1.00  0.00     0.091 A 
ATOM     83  F   UNL A   1      42.385  26.137  34.060  1.00  0.00    -0.205 F 
ATOM     84  C   UNL A   1      45.069  26.024  36.524  1.00  0.00     0.022 A 
BRANCH  82  85
ATOM     85  S   UNL A   1      42.401  26.292  37.095  1.00  0.00     0.127 S 
ATOM     86  O   UNL A   1      43.065  26.280  38.398  1.00  0.00    -0.237 OA
ATOM     87  O   UNL A   1      41.885  27.594  36.681  1.00  0.00    -0.237 OA
ATOM     88  O   UNL A   1      41.516  25.159  36.862  1.00  0.00    -0.744 OA
ENDBRANCH  82  85
ENDBRANCH  54  78
BRANCH  66  89
ATOM     89  C   UNL A   1      45.936  28.499  28.204  1.00  0.00     0.023 A 
ATOM     90  C   UNL A   1      47.088  29.310  28.293  1.00  0.00     0.012 A 
ATOM     91  C   UNL A   1      46.076  27.181  27.742  1.00  0.00     0.148 A 
ATOM     92  C   UNL A   1      48.340  28.830  27.894  1.00  0.00     0.002 A 
ATOM     93  C   UNL A   1      47.328  26.692  27.388  1.00  0.00     0.091 A 
ATOM     94  F   UNL A   1      44.977  26.415  27.667  1.00  0.00    -0.205 F 
ATOM     95  C   UNL A   1      48.461  27.517  27.451  1.00  0.00     0.022 A 
BRANCH  93  96
ATOM     96  S   UNL A   1      47.556  24.977  26.917  1.00  0.00     0.127 S 
ATOM     97  O   UNL A   1      47.068  24.971  25.541  1.00  0.00    -0.237 OA
ATOM     98  O   UNL A   1      49.004  24.801  27.055  1.00  0.00    -0.237 OA
ATOM     99  O   UNL A   1      46.773  24.197  27.868  1.00  0.00    -0.744 OA
ENDBRANCH  93  96
ENDBRANCH  66  89
ENDBRANCH  40  41
ENDBRANCH  32  35
ENDBRANCH  30  31
ENDBRANCH   1  30
TORSDOF 16
ENDMDL
