MODEL 1
REMARK VINA RESULT:     -11.4      0.000      0.000
REMARK SMILES C[C@H](Sc1ccc(N)c(Cl)c1)C(=O)NCCCNC(=O)c1ccc(-c2c3nc(c(-c4cccc(S(=O)(=O)[O-])c4F)c4ccc([nH]4)c(-c4cccc(S(=O)(=O)[O-])c4F)c4nc(c(-c5cccc(S(=O)(=O)[O-])c5F)c5ccc2[nH]5)C=C4)C=C3)cc1
REMARK SMILES IDX 16 1 15 2 14 3 12 4 13 5 2 7 1 8 3 9 4 10 5 11 11 12 6 13
REMARK SMILES IDX 9 14 7 15 10 16 8 17 17 20 18 21 19 22 20 24 21 25 22 26
REMARK SMILES IDX 83 27 23 28 82 29 24 30 25 31 26 32 76 33 27 34 81 35 75 36
REMARK SMILES IDX 77 37 28 38 80 39 74 40 73 41 29 43 61 44 41 45 60 46 42 47
REMARK SMILES IDX 45 48 59 49 78 50 43 51 44 52 58 54 79 55 46 56 30 57 31 58
REMARK SMILES IDX 39 59 32 60 34 61 40 62 33 63 35 64 36 65 37 66 38 67 62 68
REMARK SMILES IDX 63 69 71 70 64 71 66 72 72 73 65 74 67 75 68 76 69 77 70 78
REMARK SMILES IDX 47 79 48 80 56 81 49 82 51 83 57 84 50 85 52 86 53 87 54 88
REMARK SMILES IDX 55 89
REMARK H PARENT 14 6 8 18 8 19 18 23 77 42 45 53
REMARK Flexibility Score: inf
ROOT
ATOM      1  C   UNL A   1      31.454  31.817  26.543  1.00  0.00     0.042 C 
ENDROOT
BRANCH   1   2
ATOM      2  C   UNL A   1      31.706  30.448  25.924  1.00  0.00     0.117 C 
BRANCH   2   3
ATOM      3  N   UNL A   1      33.077  30.029  26.140  1.00  0.00    -0.355 N 
ATOM      4  C   UNL A   1      33.705  28.830  26.037  1.00  0.00     0.233 C 
ATOM      5  O   UNL A   1      34.866  28.803  26.469  1.00  0.00    -0.274 OA
ATOM      6  H   UNL A   1      33.673  30.762  26.417  1.00  0.00     0.163 HD
BRANCH   4   7
ATOM      7  C   UNL A   1      33.118  27.588  25.360  1.00  0.00     0.137 C 
ATOM      8  C   UNL A   1      33.688  26.256  25.815  1.00  0.00     0.030 C 
BRANCH   7   9
ATOM      9  S   UNL A   1      32.661  27.816  23.593  1.00  0.00    -0.113 SA
BRANCH   9  10
ATOM     10  C   UNL A   1      30.898  28.003  23.477  1.00  0.00     0.010 A 
ATOM     11  C   UNL A   1      29.972  27.036  23.866  1.00  0.00     0.017 A 
ATOM     12  C   UNL A   1      30.409  29.240  23.032  1.00  0.00     0.037 A 
ATOM     13  C   UNL A   1      28.598  27.227  23.661  1.00  0.00     0.028 A 
ATOM     14  C   UNL A   1      29.035  29.443  22.853  1.00  0.00     0.065 A 
ATOM     15  C   UNL A   1      28.116  28.410  23.097  1.00  0.00     0.050 A 
ATOM     16  Cl  UNL A   1      28.501  30.959  22.223  1.00  0.00    -0.082 Cl
BRANCH  15  17
ATOM     17  N   UNL A   1      26.750  28.565  22.892  1.00  0.00    -0.398 N 
ATOM     18  H   UNL A   1      26.387  29.443  22.633  1.00  0.00     0.156 HD
ATOM     19  H   UNL A   1      26.145  27.796  23.005  1.00  0.00     0.156 HD
ENDBRANCH  15  17
ENDBRANCH   9  10
ENDBRANCH   7   9
ENDBRANCH   4   7
ENDBRANCH   2   3
ENDBRANCH   1   2
BRANCH   1  20
ATOM     20  C   UNL A   1      32.663  32.475  27.190  1.00  0.00     0.118 C 
BRANCH  20  21
ATOM     21  N   UNL A   1      32.431  33.855  27.596  1.00  0.00    -0.352 N 
ATOM     22  C   UNL A   1      33.054  34.670  28.512  1.00  0.00     0.251 C 
ATOM     23  H   UNL A   1      31.684  34.288  27.123  1.00  0.00     0.163 HD
ATOM     24  O   UNL A   1      32.557  35.778  28.723  1.00  0.00    -0.269 OA
BRANCH  22  25
ATOM     25  C   UNL A   1      34.263  34.260  29.274  1.00  0.00     0.039 A 
ATOM     26  C   UNL A   1      34.085  33.533  30.460  1.00  0.00     0.014 A 
ATOM     27  C   UNL A   1      35.559  34.596  28.884  1.00  0.00     0.014 A 
ATOM     28  C   UNL A   1      35.189  33.068  31.184  1.00  0.00     0.010 A 
ATOM     29  C   UNL A   1      36.658  34.047  29.544  1.00  0.00     0.010 A 
ATOM     30  C   UNL A   1      36.489  33.275  30.701  1.00  0.00    -0.014 A 
BRANCH  30  31
ATOM     31  C   UNL A   1      37.684  32.689  31.366  1.00  0.00     0.031 A 
ATOM     32  C   UNL A   1      38.411  31.528  30.738  1.00  0.00     0.074 A 
ATOM     33  C   UNL A   1      38.040  33.115  32.594  1.00  0.00     0.049 A 
ATOM     34  N   UNL A   1      39.377  30.795  31.228  1.00  0.00    -0.248 NA
ATOM     35  C   UNL A   1      37.973  31.117  29.393  1.00  0.00     0.031 C 
ATOM     36  C   UNL A   1      37.370  34.179  33.346  1.00  0.00     0.029 A 
ATOM     37  N   UNL A   1      39.024  32.680  33.447  1.00  0.00    -0.354 N 
ATOM     38  C   UNL A   1      39.626  29.809  30.281  1.00  0.00     0.074 A 
ATOM     39  C   UNL A   1      38.694  30.022  29.195  1.00  0.00     0.031 C 
ATOM     40  C   UNL A   1      37.952  34.305  34.549  1.00  0.00     0.029 A 
ATOM     41  C   UNL A   1      39.015  33.315  34.669  1.00  0.00     0.049 A 
ATOM     42  H   UNL A   1      39.673  31.979  33.208  1.00  0.00     0.167 HD
ATOM     43  C   UNL A   1      40.566  28.833  30.296  1.00  0.00     0.034 A 
ATOM     44  C   UNL A   1      39.769  33.113  35.768  1.00  0.00     0.034 A 
ATOM     45  C   UNL A   1      41.534  28.664  31.345  1.00  0.00     0.049 A 
ATOM     46  C   UNL A   1      40.838  32.056  35.738  1.00  0.00     0.074 A 
ATOM     47  C   UNL A   1      42.594  27.775  31.402  1.00  0.00     0.029 A 
ATOM     48  N   UNL A   1      41.564  29.397  32.521  1.00  0.00    -0.354 N 
ATOM     49  N   UNL A   1      41.164  31.241  34.765  1.00  0.00    -0.248 NA
ATOM     50  C   UNL A   1      41.664  31.911  36.946  1.00  0.00     0.031 C 
ATOM     51  C   UNL A   1      43.258  27.965  32.619  1.00  0.00     0.029 A 
ATOM     52  C   UNL A   1      42.618  28.978  33.314  1.00  0.00     0.049 A 
ATOM     53  H   UNL A   1      40.928  30.111  32.757  1.00  0.00     0.167 HD
ATOM     54  C   UNL A   1      42.250  30.507  35.230  1.00  0.00     0.074 A 
ATOM     55  C   UNL A   1      42.542  30.993  36.563  1.00  0.00     0.031 C 
ATOM     56  C   UNL A   1      42.931  29.508  34.616  1.00  0.00     0.034 A 
BRANCH  43  57
ATOM     57  C   UNL A   1      40.636  27.913  29.105  1.00  0.00     0.023 A 
ATOM     58  C   UNL A   1      39.754  26.815  29.028  1.00  0.00     0.012 A 
ATOM     59  C   UNL A   1      41.529  28.158  28.044  1.00  0.00     0.148 A 
ATOM     60  C   UNL A   1      39.783  25.956  27.932  1.00  0.00     0.002 A 
ATOM     61  C   UNL A   1      41.525  27.318  26.936  1.00  0.00     0.091 A 
ATOM     62  F   UNL A   1      42.375  29.193  28.144  1.00  0.00    -0.205 F 
ATOM     63  C   UNL A   1      40.661  26.211  26.882  1.00  0.00     0.022 A 
BRANCH  61  64
ATOM     64  S   UNL A   1      42.569  27.604  25.501  1.00  0.00     0.127 S 
ATOM     65  O   UNL A   1      42.298  26.413  24.697  1.00  0.00    -0.237 OA
ATOM     66  O   UNL A   1      42.015  28.845  24.958  1.00  0.00    -0.237 OA
ATOM     67  O   UNL A   1      43.927  27.721  26.013  1.00  0.00    -0.744 OA
ENDBRANCH  61  64
ENDBRANCH  43  57
BRANCH  44  68
ATOM     68  C   UNL A   1      39.586  33.983  36.965  1.00  0.00     0.023 A 
ATOM     69  C   UNL A   1      40.022  35.321  36.910  1.00  0.00     0.012 A 
ATOM     70  C   UNL A   1      38.961  33.511  38.136  1.00  0.00     0.148 A 
ATOM     71  C   UNL A   1      39.866  36.167  38.009  1.00  0.00     0.002 A 
ATOM     72  C   UNL A   1      38.765  34.373  39.211  1.00  0.00     0.091 A 
ATOM     73  F   UNL A   1      38.566  32.231  38.175  1.00  0.00    -0.205 F 
ATOM     74  C   UNL A   1      39.230  35.697  39.153  1.00  0.00     0.022 A 
BRANCH  72  75
ATOM     75  S   UNL A   1      37.855  33.890  40.682  1.00  0.00     0.127 S 
ATOM     76  O   UNL A   1      36.661  33.276  40.106  1.00  0.00    -0.237 OA
ATOM     77  O   UNL A   1      38.782  32.952  41.318  1.00  0.00    -0.237 OA
ATOM     78  O   UNL A   1      37.638  35.120  41.430  1.00  0.00    -0.744 OA
ENDBRANCH  72  75
ENDBRANCH  44  68
BRANCH  56  79
ATOM     79  C   UNL A   1      44.073  28.879  35.369  1.00  0.00     0.023 A 
ATOM     80  C   UNL A   1      45.359  29.444  35.279  1.00  0.00     0.012 A 
ATOM     81  C   UNL A   1      43.856  27.781  36.225  1.00  0.00     0.148 A 
ATOM     82  C   UNL A   1      46.421  28.911  36.009  1.00  0.00     0.002 A 
ATOM     83  C   UNL A   1      44.909  27.283  36.983  1.00  0.00     0.091 A 
ATOM     84  F   UNL A   1      42.629  27.243  36.280  1.00  0.00    -0.205 F 
ATOM     85  C   UNL A   1      46.193  27.840  36.870  1.00  0.00     0.022 A 
BRANCH  83  86
ATOM     86  S   UNL A   1      44.686  25.966  38.187  1.00  0.00     0.127 S 
ATOM     87  O   UNL A   1      45.974  25.973  38.879  1.00  0.00    -0.237 OA
ATOM     88  O   UNL A   1      43.563  26.458  38.985  1.00  0.00    -0.237 OA
ATOM     89  O   UNL A   1      44.395  24.766  37.414  1.00  0.00    -0.744 OA
ENDBRANCH  83  86
ENDBRANCH  56  79
ENDBRANCH  30  31
ENDBRANCH  22  25
ENDBRANCH  20  21
ENDBRANCH   1  20
TORSDOF 16
ENDMDL
MODEL 2
REMARK VINA RESULT:     -11.3      5.805     10.765
REMARK SMILES C[C@H](Sc1ccc(N)c(Cl)c1)C(=O)NCCCNC(=O)c1ccc(-c2c3nc(c(-c4cccc(S(=O)(=O)[O-])c4F)c4ccc([nH]4)c(-c4cccc(S(=O)(=O)[O-])c4F)c4nc(c(-c5cccc(S(=O)(=O)[O-])c5F)c5ccc2[nH]5)C=C4)C=C3)cc1
REMARK SMILES IDX 16 1 15 2 14 3 12 4 13 5 2 7 1 8 3 9 4 10 5 11 11 12 6 13
REMARK SMILES IDX 9 14 7 15 10 16 8 17 17 20 18 21 19 22 20 24 21 25 22 26
REMARK SMILES IDX 83 27 23 28 82 29 24 30 25 31 26 32 76 33 27 34 81 35 75 36
REMARK SMILES IDX 77 37 28 38 80 39 74 40 73 41 29 43 61 44 41 45 60 46 42 47
REMARK SMILES IDX 45 48 59 49 78 50 43 51 44 52 58 54 79 55 46 56 30 57 31 58
REMARK SMILES IDX 39 59 32 60 34 61 40 62 33 63 35 64 36 65 37 66 38 67 62 68
REMARK SMILES IDX 63 69 71 70 64 71 66 72 72 73 65 74 67 75 68 76 69 77 70 78
REMARK SMILES IDX 47 79 48 80 56 81 49 82 51 83 57 84 50 85 52 86 53 87 54 88
REMARK SMILES IDX 55 89
REMARK H PARENT 14 6 8 18 8 19 18 23 77 42 45 53
REMARK Flexibility Score: inf
ROOT
ATOM      1  C   UNL A   1      34.916  21.944  26.422  1.00  0.00     0.042 C 
ENDROOT
BRANCH   1   2
ATOM      2  C   UNL A   1      33.559  21.417  25.975  1.00  0.00     0.117 C 
BRANCH   2   3
ATOM      3  N   UNL A   1      32.485  22.101  26.670  1.00  0.00    -0.355 N 
ATOM      4  C   UNL A   1      31.868  23.294  26.474  1.00  0.00     0.233 C 
ATOM      5  O   UNL A   1      31.095  23.644  27.377  1.00  0.00    -0.274 OA
ATOM      6  H   UNL A   1      32.133  21.598  27.440  1.00  0.00     0.163 HD
BRANCH   4   7
ATOM      7  C   UNL A   1      31.997  24.150  25.211  1.00  0.00     0.137 C 
ATOM      8  C   UNL A   1      31.476  23.521  23.930  1.00  0.00     0.030 C 
BRANCH   7   9
ATOM      9  S   UNL A   1      33.500  25.210  25.147  1.00  0.00    -0.113 SA
BRANCH   9  10
ATOM     10  C   UNL A   1      33.004  26.913  25.259  1.00  0.00     0.010 A 
ATOM     11  C   UNL A   1      33.668  27.883  26.009  1.00  0.00     0.017 A 
ATOM     12  C   UNL A   1      31.913  27.318  24.477  1.00  0.00     0.037 A 
ATOM     13  C   UNL A   1      33.161  29.186  26.114  1.00  0.00     0.028 A 
ATOM     14  C   UNL A   1      31.423  28.628  24.559  1.00  0.00     0.065 A 
ATOM     15  C   UNL A   1      31.999  29.559  25.436  1.00  0.00     0.050 A 
ATOM     16  Cl  UNL A   1      30.025  29.043  23.634  1.00  0.00    -0.082 Cl
BRANCH  15  17
ATOM     17  N   UNL A   1      31.512  30.855  25.572  1.00  0.00    -0.398 N 
ATOM     18  H   UNL A   1      31.954  31.598  25.101  1.00  0.00     0.156 HD
ATOM     19  H   UNL A   1      30.726  31.029  26.138  1.00  0.00     0.156 HD
ENDBRANCH  15  17
ENDBRANCH   9  10
ENDBRANCH   7   9
ENDBRANCH   4   7
ENDBRANCH   2   3
ENDBRANCH   1   2
BRANCH   1  20
ATOM     20  C   UNL A   1      35.938  22.144  25.312  1.00  0.00     0.118 C 
BRANCH  20  21
ATOM     21  N   UNL A   1      37.001  21.147  25.310  1.00  0.00    -0.352 N 
ATOM     22  C   UNL A   1      38.328  21.206  25.665  1.00  0.00     0.251 C 
ATOM     23  H   UNL A   1      36.714  20.261  24.992  1.00  0.00     0.163 HD
ATOM     24  O   UNL A   1      39.024  20.212  25.447  1.00  0.00    -0.269 OA
BRANCH  22  25
ATOM     25  C   UNL A   1      38.957  22.415  26.260  1.00  0.00     0.039 A 
ATOM     26  C   UNL A   1      40.057  22.238  27.113  1.00  0.00     0.014 A 
ATOM     27  C   UNL A   1      38.482  23.707  26.040  1.00  0.00     0.014 A 
ATOM     28  C   UNL A   1      40.726  23.344  27.651  1.00  0.00     0.010 A 
ATOM     29  C   UNL A   1      39.208  24.810  26.490  1.00  0.00     0.010 A 
ATOM     30  C   UNL A   1      40.339  24.644  27.299  1.00  0.00    -0.014 A 
BRANCH  30  31
ATOM     31  C   UNL A   1      41.100  25.845  27.741  1.00  0.00     0.031 A 
ATOM     32  C   UNL A   1      40.409  26.944  28.505  1.00  0.00     0.074 A 
ATOM     33  C   UNL A   1      42.379  26.006  27.347  1.00  0.00     0.049 A 
ATOM     34  N   UNL A   1      40.861  28.121  28.850  1.00  0.00    -0.248 NA
ATOM     35  C   UNL A   1      39.013  26.699  28.908  1.00  0.00     0.031 C 
ATOM     36  C   UNL A   1      43.140  25.052  26.537  1.00  0.00     0.029 A 
ATOM     37  N   UNL A   1      43.253  27.048  27.535  1.00  0.00    -0.354 N 
ATOM     38  C   UNL A   1      39.798  28.775  29.460  1.00  0.00     0.074 A 
ATOM     39  C   UNL A   1      38.668  27.873  29.418  1.00  0.00     0.031 C 
ATOM     40  C   UNL A   1      44.359  25.556  26.288  1.00  0.00     0.029 A 
ATOM     41  C   UNL A   1      44.459  26.879  26.892  1.00  0.00     0.049 A 
ATOM     42  H   UNL A   1      43.037  27.841  28.076  1.00  0.00     0.167 HD
ATOM     43  C   UNL A   1      39.770  30.003  30.033  1.00  0.00     0.034 A 
ATOM     44  C   UNL A   1      45.521  27.702  26.788  1.00  0.00     0.034 A 
ATOM     45  C   UNL A   1      40.911  30.871  30.132  1.00  0.00     0.049 A 
ATOM     46  C   UNL A   1      45.480  29.039  27.476  1.00  0.00     0.074 A 
ATOM     47  C   UNL A   1      41.013  32.086  30.788  1.00  0.00     0.029 A 
ATOM     48  N   UNL A   1      42.150  30.619  29.563  1.00  0.00    -0.354 N 
ATOM     49  N   UNL A   1      44.517  29.570  28.189  1.00  0.00    -0.248 NA
ATOM     50  C   UNL A   1      46.683  29.877  27.372  1.00  0.00     0.031 C 
ATOM     51  C   UNL A   1      42.312  32.574  30.604  1.00  0.00     0.029 A 
ATOM     52  C   UNL A   1      43.021  31.657  29.844  1.00  0.00     0.049 A 
ATOM     53  H   UNL A   1      42.376  29.819  29.036  1.00  0.00     0.167 HD
ATOM     54  C   UNL A   1      45.008  30.789  28.643  1.00  0.00     0.074 A 
ATOM     55  C   UNL A   1      46.363  30.907  28.145  1.00  0.00     0.031 C 
ATOM     56  C   UNL A   1      44.385  31.735  29.388  1.00  0.00     0.034 A 
BRANCH  43  57
ATOM     57  C   UNL A   1      38.475  30.451  30.660  1.00  0.00     0.023 A 
ATOM     58  C   UNL A   1      38.214  30.133  32.008  1.00  0.00     0.012 A 
ATOM     59  C   UNL A   1      37.545  31.226  29.940  1.00  0.00     0.148 A 
ATOM     60  C   UNL A   1      37.034  30.548  32.621  1.00  0.00     0.002 A 
ATOM     61  C   UNL A   1      36.387  31.668  30.570  1.00  0.00     0.091 A 
ATOM     62  F   UNL A   1      37.799  31.501  28.652  1.00  0.00    -0.205 F 
ATOM     63  C   UNL A   1      36.124  31.322  31.906  1.00  0.00     0.022 A 
BRANCH  61  64
ATOM     64  S   UNL A   1      35.187  32.730  29.755  1.00  0.00     0.127 S 
ATOM     65  O   UNL A   1      34.645  31.833  28.735  1.00  0.00    -0.237 OA
ATOM     66  O   UNL A   1      34.261  33.043  30.844  1.00  0.00    -0.237 OA
ATOM     67  O   UNL A   1      35.939  33.871  29.254  1.00  0.00    -0.744 OA
ENDBRANCH  61  64
ENDBRANCH  43  57
BRANCH  44  68
ATOM     68  C   UNL A   1      46.742  27.252  26.061  1.00  0.00     0.023 A 
ATOM     69  C   UNL A   1      46.841  27.492  24.677  1.00  0.00     0.012 A 
ATOM     70  C   UNL A   1      47.811  26.622  26.728  1.00  0.00     0.148 A 
ATOM     71  C   UNL A   1      47.970  27.088  23.963  1.00  0.00     0.002 A 
ATOM     72  C   UNL A   1      48.954  26.265  26.019  1.00  0.00     0.091 A 
ATOM     73  F   UNL A   1      47.693  26.389  28.042  1.00  0.00    -0.205 F 
ATOM     74  C   UNL A   1      49.028  26.485  24.634  1.00  0.00     0.022 A 
BRANCH  72  75
ATOM     75  S   UNL A   1      50.413  25.587  26.818  1.00  0.00     0.127 S 
ATOM     76  O   UNL A   1      51.302  25.367  25.678  1.00  0.00    -0.237 OA
ATOM     77  O   UNL A   1      50.812  26.682  27.704  1.00  0.00    -0.237 OA
ATOM     78  O   UNL A   1      49.960  24.389  27.509  1.00  0.00    -0.744 OA
ENDBRANCH  72  75
ENDBRANCH  44  68
BRANCH  56  79
ATOM     79  C   UNL A   1      45.163  32.978  29.730  1.00  0.00     0.023 A 
ATOM     80  C   UNL A   1      45.965  32.999  30.887  1.00  0.00     0.012 A 
ATOM     81  C   UNL A   1      45.165  34.091  28.865  1.00  0.00     0.148 A 
ATOM     82  C   UNL A   1      46.738  34.118  31.194  1.00  0.00     0.002 A 
ATOM     83  C   UNL A   1      45.971  35.185  29.155  1.00  0.00     0.091 A 
ATOM     84  F   UNL A   1      44.379  34.060  27.780  1.00  0.00    -0.205 F 
ATOM     85  C   UNL A   1      46.750  35.204  30.323  1.00  0.00     0.022 A 
BRANCH  83  86
ATOM     86  S   UNL A   1      46.121  36.588  28.041  1.00  0.00     0.127 S 
ATOM     87  O   UNL A   1      46.476  35.934  26.783  1.00  0.00    -0.237 OA
ATOM     88  O   UNL A   1      44.773  37.158  28.073  1.00  0.00    -0.237 OA
ATOM     89  O   UNL A   1      47.149  37.445  28.617  1.00  0.00    -0.744 OA
ENDBRANCH  83  86
ENDBRANCH  56  79
ENDBRANCH  30  31
ENDBRANCH  22  25
ENDBRANCH  20  21
ENDBRANCH   1  20
TORSDOF 16
ENDMDL
MODEL 3
REMARK VINA RESULT:     -11.3      3.432      4.462
REMARK SMILES C[C@H](Sc1ccc(N)c(Cl)c1)C(=O)NCCCNC(=O)c1ccc(-c2c3nc(c(-c4cccc(S(=O)(=O)[O-])c4F)c4ccc([nH]4)c(-c4cccc(S(=O)(=O)[O-])c4F)c4nc(c(-c5cccc(S(=O)(=O)[O-])c5F)c5ccc2[nH]5)C=C4)C=C3)cc1
REMARK SMILES IDX 16 1 15 2 14 3 12 4 13 5 2 7 1 8 3 9 4 10 5 11 11 12 6 13
REMARK SMILES IDX 9 14 7 15 10 16 8 17 17 20 18 21 19 22 20 24 21 25 22 26
REMARK SMILES IDX 83 27 23 28 82 29 24 30 25 31 26 32 76 33 27 34 81 35 75 36
REMARK SMILES IDX 77 37 28 38 80 39 74 40 73 41 29 43 61 44 41 45 60 46 42 47
REMARK SMILES IDX 45 48 59 49 78 50 43 51 44 52 58 54 79 55 46 56 30 57 31 58
REMARK SMILES IDX 39 59 32 60 34 61 40 62 33 63 35 64 36 65 37 66 38 67 62 68
REMARK SMILES IDX 63 69 71 70 64 71 66 72 72 73 65 74 67 75 68 76 69 77 70 78
REMARK SMILES IDX 47 79 48 80 56 81 49 82 51 83 57 84 50 85 52 86 53 87 54 88
REMARK SMILES IDX 55 89
REMARK H PARENT 14 6 8 18 8 19 18 23 77 42 45 53
REMARK Flexibility Score: inf
ROOT
ATOM      1  C   UNL A   1      33.242  29.123  24.807  1.00  0.00     0.042 C 
ENDROOT
BRANCH   1   2
ATOM      2  C   UNL A   1      33.624  27.667  24.570  1.00  0.00     0.117 C 
BRANCH   2   3
ATOM      3  N   UNL A   1      33.538  27.335  23.161  1.00  0.00    -0.355 N 
ATOM      4  C   UNL A   1      33.427  26.158  22.493  1.00  0.00     0.233 C 
ATOM      5  O   UNL A   1      33.555  26.234  21.263  1.00  0.00    -0.274 OA
ATOM      6  H   UNL A   1      33.568  28.121  22.569  1.00  0.00     0.163 HD
BRANCH   4   7
ATOM      7  C   UNL A   1      33.073  24.815  23.138  1.00  0.00     0.137 C 
ATOM      8  C   UNL A   1      31.949  24.847  24.158  1.00  0.00     0.030 C 
BRANCH   7   9
ATOM      9  S   UNL A   1      34.502  23.689  23.408  1.00  0.00    -0.113 SA
BRANCH   9  10
ATOM     10  C   UNL A   1      33.960  22.297  24.370  1.00  0.00     0.010 A 
ATOM     11  C   UNL A   1      34.009  22.230  25.762  1.00  0.00     0.017 A 
ATOM     12  C   UNL A   1      33.376  21.225  23.680  1.00  0.00     0.037 A 
ATOM     13  C   UNL A   1      33.642  21.059  26.441  1.00  0.00     0.028 A 
ATOM     14  C   UNL A   1      32.983  20.066  24.360  1.00  0.00     0.065 A 
ATOM     15  C   UNL A   1      33.179  19.941  25.744  1.00  0.00     0.050 A 
ATOM     16  Cl  UNL A   1      32.347  18.748  23.444  1.00  0.00    -0.082 Cl
BRANCH  15  17
ATOM     17  N   UNL A   1      32.837  18.790  26.445  1.00  0.00    -0.398 N 
ATOM     18  H   UNL A   1      32.430  18.859  27.338  1.00  0.00     0.156 HD
ATOM     19  H   UNL A   1      33.002  17.904  26.047  1.00  0.00     0.156 HD
ENDBRANCH  15  17
ENDBRANCH   9  10
ENDBRANCH   7   9
ENDBRANCH   4   7
ENDBRANCH   2   3
ENDBRANCH   1   2
BRANCH   1  20
ATOM     20  C   UNL A   1      32.374  29.380  26.030  1.00  0.00     0.118 C 
BRANCH  20  21
ATOM     21  N   UNL A   1      32.231  30.792  26.360  1.00  0.00    -0.352 N 
ATOM     22  C   UNL A   1      33.016  31.660  27.082  1.00  0.00     0.251 C 
ATOM     23  H   UNL A   1      31.416  31.205  25.995  1.00  0.00     0.163 HD
ATOM     24  O   UNL A   1      32.577  32.792  27.290  1.00  0.00    -0.269 OA
BRANCH  22  25
ATOM     25  C   UNL A   1      34.339  31.281  27.645  1.00  0.00     0.039 A 
ATOM     26  C   UNL A   1      35.302  32.288  27.814  1.00  0.00     0.014 A 
ATOM     27  C   UNL A   1      34.678  29.970  27.977  1.00  0.00     0.014 A 
ATOM     28  C   UNL A   1      36.541  32.000  28.397  1.00  0.00     0.010 A 
ATOM     29  C   UNL A   1      35.869  29.700  28.651  1.00  0.00     0.010 A 
ATOM     30  C   UNL A   1      36.815  30.709  28.872  1.00  0.00    -0.014 A 
BRANCH  30  31
ATOM     31  C   UNL A   1      38.064  30.387  29.614  1.00  0.00     0.031 A 
ATOM     32  C   UNL A   1      39.060  29.413  29.041  1.00  0.00     0.074 A 
ATOM     33  C   UNL A   1      38.242  30.871  30.860  1.00  0.00     0.049 A 
ATOM     34  N   UNL A   1      40.127  28.899  29.595  1.00  0.00    -0.248 NA
ATOM     35  C   UNL A   1      38.805  28.928  27.673  1.00  0.00     0.031 C 
ATOM     36  C   UNL A   1      37.315  31.761  31.562  1.00  0.00     0.029 A 
ATOM     37  N   UNL A   1      39.242  30.649  31.776  1.00  0.00    -0.354 N 
ATOM     38  C   UNL A   1      40.640  27.998  28.671  1.00  0.00     0.074 A 
ATOM     39  C   UNL A   1      39.754  28.014  27.528  1.00  0.00     0.031 C 
ATOM     40  C   UNL A   1      37.780  31.999  32.798  1.00  0.00     0.029 A 
ATOM     41  C   UNL A   1      39.021  31.259  32.990  1.00  0.00     0.049 A 
ATOM     42  H   UNL A   1      40.039  30.105  31.582  1.00  0.00     0.167 HD
ATOM     43  C   UNL A   1      41.765  27.244  28.751  1.00  0.00     0.034 A 
ATOM     44  C   UNL A   1      39.730  31.214  34.136  1.00  0.00     0.034 A 
ATOM     45  C   UNL A   1      42.679  27.279  29.860  1.00  0.00     0.049 A 
ATOM     46  C   UNL A   1      41.000  30.410  34.179  1.00  0.00     0.074 A 
ATOM     47  C   UNL A   1      43.899  26.637  29.988  1.00  0.00     0.029 A 
ATOM     48  N   UNL A   1      42.478  27.993  31.030  1.00  0.00    -0.354 N 
ATOM     49  N   UNL A   1      41.553  29.691  33.234  1.00  0.00    -0.248 NA
ATOM     50  C   UNL A   1      41.760  30.436  35.437  1.00  0.00     0.031 C 
ATOM     51  C   UNL A   1      44.429  26.955  31.244  1.00  0.00     0.029 A 
ATOM     52  C   UNL A   1      43.545  27.803  31.891  1.00  0.00     0.049 A 
ATOM     53  H   UNL A   1      41.690  28.552  31.222  1.00  0.00     0.167 HD
ATOM     54  C   UNL A   1      42.740  29.203  33.771  1.00  0.00     0.074 A 
ATOM     55  C   UNL A   1      42.837  29.730  35.117  1.00  0.00     0.031 C 
ATOM     56  C   UNL A   1      43.655  28.378  33.207  1.00  0.00     0.034 A 
BRANCH  43  57
ATOM     57  C   UNL A   1      42.104  26.369  27.573  1.00  0.00     0.023 A 
ATOM     58  C   UNL A   1      42.782  26.928  26.470  1.00  0.00     0.012 A 
ATOM     59  C   UNL A   1      41.802  24.994  27.573  1.00  0.00     0.148 A 
ATOM     60  C   UNL A   1      43.124  26.141  25.372  1.00  0.00     0.002 A 
ATOM     61  C   UNL A   1      42.181  24.207  26.491  1.00  0.00     0.091 A 
ATOM     62  F   UNL A   1      41.137  24.483  28.620  1.00  0.00    -0.205 F 
ATOM     63  C   UNL A   1      42.832  24.780  25.386  1.00  0.00     0.022 A 
BRANCH  61  64
ATOM     64  S   UNL A   1      41.912  22.430  26.445  1.00  0.00     0.127 S 
ATOM     65  O   UNL A   1      42.556  22.068  25.183  1.00  0.00    -0.237 OA
ATOM     66  O   UNL A   1      42.621  21.979  27.643  1.00  0.00    -0.237 OA
ATOM     67  O   UNL A   1      40.469  22.244  26.490  1.00  0.00    -0.744 OA
ENDBRANCH  61  64
ENDBRANCH  43  57
BRANCH  44  68
ATOM     68  C   UNL A   1      39.291  32.016  35.314  1.00  0.00     0.023 A 
ATOM     69  C   UNL A   1      38.433  31.426  36.261  1.00  0.00     0.012 A 
ATOM     70  C   UNL A   1      39.736  33.337  35.519  1.00  0.00     0.148 A 
ATOM     71  C   UNL A   1      38.003  32.143  37.378  1.00  0.00     0.002 A 
ATOM     72  C   UNL A   1      39.342  34.031  36.659  1.00  0.00     0.091 A 
ATOM     73  F   UNL A   1      40.540  33.888  34.598  1.00  0.00    -0.205 F 
ATOM     74  C   UNL A   1      38.464  33.440  37.581  1.00  0.00     0.022 A 
BRANCH  72  75
ATOM     75  S   UNL A   1      39.975  35.662  37.063  1.00  0.00     0.127 S 
ATOM     76  O   UNL A   1      39.274  35.953  38.312  1.00  0.00    -0.237 OA
ATOM     77  O   UNL A   1      41.409  35.405  37.210  1.00  0.00    -0.237 OA
ATOM     78  O   UNL A   1      39.629  36.509  35.930  1.00  0.00    -0.744 OA
ENDBRANCH  72  75
ENDBRANCH  44  68
BRANCH  56  79
ATOM     79  C   UNL A   1      44.856  28.001  34.033  1.00  0.00     0.023 A 
ATOM     80  C   UNL A   1      45.995  28.829  34.020  1.00  0.00     0.012 A 
ATOM     81  C   UNL A   1      44.826  26.876  34.881  1.00  0.00     0.148 A 
ATOM     82  C   UNL A   1      47.098  28.530  34.819  1.00  0.00     0.002 A 
ATOM     83  C   UNL A   1      45.912  26.610  35.707  1.00  0.00     0.091 A 
ATOM     84  F   UNL A   1      43.741  26.089  34.863  1.00  0.00    -0.205 F 
ATOM     85  C   UNL A   1      47.051  27.429  35.670  1.00  0.00     0.022 A 
BRANCH  83  86
ATOM     86  S   UNL A   1      45.901  25.267  36.903  1.00  0.00     0.127 S 
ATOM     87  O   UNL A   1      44.721  25.591  37.704  1.00  0.00    -0.237 OA
ATOM     88  O   UNL A   1      45.753  24.088  36.049  1.00  0.00    -0.237 OA
ATOM     89  O   UNL A   1      47.176  25.347  37.602  1.00  0.00    -0.744 OA
ENDBRANCH  83  86
ENDBRANCH  56  79
ENDBRANCH  30  31
ENDBRANCH  22  25
ENDBRANCH  20  21
ENDBRANCH   1  20
TORSDOF 16
ENDMDL
