MODEL 1
REMARK VINA RESULT:     -10.8      0.000      0.000
REMARK SMILES COc1ccc2cc([C@H](C)C(=O)NCCCNC(=O)c3ccc(-c4c5nc(c(-c6cccc(S(=O)(=O)[O-])c6F)c6ccc([nH]6)c(-c6cccc(S(=O)(=O)[O-])c6F)c6nc(c(-c7cccc(S(=O)(=O)[O-])c7F)c7ccc4[nH]7)C=C6)C=C5)cc3)ccc2c1
REMARK SMILES IDX 15 1 14 2 13 3 11 4 12 5 9 7 10 8 8 9 3 10 4 11 86 12 5 13
REMARK SMILES IDX 85 14 6 15 84 16 7 17 83 18 2 19 1 20 16 21 17 22 18 23
REMARK SMILES IDX 19 25 20 26 21 27 82 28 22 29 81 30 23 31 24 32 25 33 75 34
REMARK SMILES IDX 26 35 80 36 74 37 76 38 27 39 79 40 73 41 72 42 28 44 60 45
REMARK SMILES IDX 40 46 59 47 41 48 44 49 58 50 77 51 42 52 43 53 57 55 78 56
REMARK SMILES IDX 45 57 29 58 30 59 38 60 31 61 33 62 39 63 32 64 34 65 35 66
REMARK SMILES IDX 36 67 37 68 61 69 62 70 70 71 63 72 65 73 71 74 64 75 66 76
REMARK SMILES IDX 67 77 68 78 69 79 46 80 47 81 55 82 48 83 50 84 56 85 49 86
REMARK SMILES IDX 51 87 52 88 53 89 54 90
REMARK H PARENT 13 6 17 24 76 43 44 54
REMARK Flexibility Score: inf
ROOT
ATOM      1  C   UNL A   1      33.289  35.602  28.760  1.00  0.00     0.042 C 
ENDROOT
BRANCH   1   2
ATOM      2  C   UNL A   1      33.374  35.576  30.275  1.00  0.00     0.117 C 
BRANCH   2   3
ATOM      3  N   UNL A   1      33.687  34.252  30.791  1.00  0.00    -0.356 N 
ATOM      4  C   UNL A   1      34.420  33.891  31.882  1.00  0.00     0.227 C 
ATOM      5  O   UNL A   1      34.399  32.701  32.211  1.00  0.00    -0.274 OA
ATOM      6  H   UNL A   1      33.313  33.503  30.274  1.00  0.00     0.163 HD
BRANCH   4   7
ATOM      7  C   UNL A   1      35.250  34.906  32.670  1.00  0.00     0.105 C 
ATOM      8  C   UNL A   1      34.690  35.056  34.093  1.00  0.00     0.023 C 
BRANCH   7   9
ATOM      9  C   UNL A   1      36.766  34.726  32.604  1.00  0.00    -0.035 A 
ATOM     10  C   UNL A   1      41.595  34.212  31.063  1.00  0.00     0.119 A 
ATOM     11  C   UNL A   1      40.812  34.135  29.913  1.00  0.00     0.047 A 
ATOM     12  C   UNL A   1      40.978  34.368  32.304  1.00  0.00     0.055 A 
ATOM     13  C   UNL A   1      39.420  34.254  30.002  1.00  0.00     0.012 A 
ATOM     14  C   UNL A   1      39.584  34.470  32.408  1.00  0.00    -0.015 A 
ATOM     15  C   UNL A   1      38.791  34.435  31.243  1.00  0.00    -0.018 A 
ATOM     16  C   UNL A   1      38.963  34.586  33.653  1.00  0.00     0.009 A 
ATOM     17  C   UNL A   1      37.394  34.576  31.355  1.00  0.00     0.013 A 
ATOM     18  C   UNL A   1      37.574  34.670  33.749  1.00  0.00     0.005 A 
BRANCH  10  19
ATOM     19  O   UNL A   1      42.958  34.104  31.107  1.00  0.00    -0.497 OA
ATOM     20  C   UNL A   1      43.555  34.334  32.376  1.00  0.00     0.278 C 
ENDBRANCH  10  19
ENDBRANCH   7   9
ENDBRANCH   4   7
ENDBRANCH   2   3
ENDBRANCH   1   2
BRANCH   1  21
ATOM     21  C   UNL A   1      34.043  34.462  28.089  1.00  0.00     0.118 C 
BRANCH  21  22
ATOM     22  N   UNL A   1      33.165  33.396  27.614  1.00  0.00    -0.352 N 
ATOM     23  C   UNL A   1      33.418  32.054  27.463  1.00  0.00     0.251 C 
ATOM     24  H   UNL A   1      32.257  33.681  27.365  1.00  0.00     0.163 HD
ATOM     25  O   UNL A   1      32.603  31.337  26.887  1.00  0.00    -0.269 OA
BRANCH  23  26
ATOM     26  C   UNL A   1      34.680  31.483  27.977  1.00  0.00     0.039 A 
ATOM     27  C   UNL A   1      35.729  32.341  28.318  1.00  0.00     0.014 A 
ATOM     28  C   UNL A   1      34.816  30.104  28.146  1.00  0.00     0.014 A 
ATOM     29  C   UNL A   1      36.882  31.817  28.906  1.00  0.00     0.010 A 
ATOM     30  C   UNL A   1      35.918  29.598  28.821  1.00  0.00     0.010 A 
ATOM     31  C   UNL A   1      36.967  30.446  29.202  1.00  0.00    -0.014 A 
BRANCH  31  32
ATOM     32  C   UNL A   1      38.137  29.875  29.916  1.00  0.00     0.031 A 
ATOM     33  C   UNL A   1      38.381  30.218  31.361  1.00  0.00     0.074 A 
ATOM     34  C   UNL A   1      39.035  29.133  29.235  1.00  0.00     0.049 A 
ATOM     35  N   UNL A   1      39.383  29.882  32.131  1.00  0.00    -0.248 NA
ATOM     36  C   UNL A   1      37.386  31.083  32.020  1.00  0.00     0.031 C 
ATOM     37  C   UNL A   1      38.962  28.811  27.809  1.00  0.00     0.029 A 
ATOM     38  N   UNL A   1      40.203  28.542  29.647  1.00  0.00    -0.354 N 
ATOM     39  C   UNL A   1      39.163  30.526  33.343  1.00  0.00     0.074 A 
ATOM     40  C   UNL A   1      37.955  31.306  33.195  1.00  0.00     0.031 C 
ATOM     41  C   UNL A   1      40.031  28.074  27.467  1.00  0.00     0.029 A 
ATOM     42  C   UNL A   1      40.881  27.895  28.639  1.00  0.00     0.049 A 
ATOM     43  H   UNL A   1      40.526  28.576  30.576  1.00  0.00     0.167 HD
ATOM     44  C   UNL A   1      39.881  30.448  34.488  1.00  0.00     0.034 A 
ATOM     45  C   UNL A   1      42.055  27.235  28.658  1.00  0.00     0.034 A 
ATOM     46  C   UNL A   1      41.048  29.624  34.647  1.00  0.00     0.049 A 
ATOM     47  C   UNL A   1      42.800  27.111  29.959  1.00  0.00     0.074 A 
ATOM     48  C   UNL A   1      41.788  29.393  35.793  1.00  0.00     0.029 A 
ATOM     49  N   UNL A   1      41.647  28.897  33.631  1.00  0.00    -0.354 N 
ATOM     50  N   UNL A   1      42.484  27.587  31.139  1.00  0.00    -0.248 NA
ATOM     51  C   UNL A   1      44.045  26.327  29.942  1.00  0.00     0.031 C 
ATOM     52  C   UNL A   1      42.846  28.539  35.464  1.00  0.00     0.029 A 
ATOM     53  C   UNL A   1      42.751  28.222  34.119  1.00  0.00     0.049 A 
ATOM     54  H   UNL A   1      41.332  28.866  32.697  1.00  0.00     0.167 HD
ATOM     55  C   UNL A   1      43.468  27.133  32.010  1.00  0.00     0.074 A 
ATOM     56  C   UNL A   1      44.380  26.326  31.225  1.00  0.00     0.031 C 
ATOM     57  C   UNL A   1      43.615  27.377  33.335  1.00  0.00     0.034 A 
BRANCH  44  58
ATOM     58  C   UNL A   1      39.385  31.225  35.679  1.00  0.00     0.023 A 
ATOM     59  C   UNL A   1      38.268  30.754  36.399  1.00  0.00     0.012 A 
ATOM     60  C   UNL A   1      40.050  32.386  36.119  1.00  0.00     0.148 A 
ATOM     61  C   UNL A   1      37.797  31.444  37.515  1.00  0.00     0.002 A 
ATOM     62  C   UNL A   1      39.602  33.044  37.259  1.00  0.00     0.091 A 
ATOM     63  F   UNL A   1      41.096  32.833  35.409  1.00  0.00    -0.205 F 
ATOM     64  C   UNL A   1      38.470  32.582  37.950  1.00  0.00     0.022 A 
BRANCH  62  65
ATOM     65  S   UNL A   1      40.447  34.471  37.948  1.00  0.00     0.127 S 
ATOM     66  O   UNL A   1      40.270  35.460  36.886  1.00  0.00    -0.237 OA
ATOM     67  O   UNL A   1      39.670  34.734  39.160  1.00  0.00    -0.237 OA
ATOM     68  O   UNL A   1      41.820  34.049  38.188  1.00  0.00    -0.744 OA
ENDBRANCH  62  65
ENDBRANCH  44  58
BRANCH  45  69
ATOM     69  C   UNL A   1      42.558  26.575  27.420  1.00  0.00     0.023 A 
ATOM     70  C   UNL A   1      43.244  27.344  26.459  1.00  0.00     0.012 A 
ATOM     71  C   UNL A   1      42.393  25.194  27.202  1.00  0.00     0.148 A 
ATOM     72  C   UNL A   1      43.726  26.757  25.288  1.00  0.00     0.002 A 
ATOM     73  C   UNL A   1      42.924  24.605  26.060  1.00  0.00     0.091 A 
ATOM     74  F   UNL A   1      41.729  24.480  28.122  1.00  0.00    -0.205 F 
ATOM     75  C   UNL A   1      43.575  25.387  25.093  1.00  0.00     0.022 A 
BRANCH  73  76
ATOM     76  S   UNL A   1      42.892  22.828  25.790  1.00  0.00     0.127 S 
ATOM     77  O   UNL A   1      43.760  22.347  26.862  1.00  0.00    -0.237 OA
ATOM     78  O   UNL A   1      41.472  22.521  25.962  1.00  0.00    -0.237 OA
ATOM     79  O   UNL A   1      43.387  22.629  24.435  1.00  0.00    -0.744 OA
ENDBRANCH  73  76
ENDBRANCH  45  69
BRANCH  57  80
ATOM     80  C   UNL A   1      44.784  26.737  34.038  1.00  0.00     0.023 A 
ATOM     81  C   UNL A   1      46.061  27.322  33.944  1.00  0.00     0.012 A 
ATOM     82  C   UNL A   1      44.597  25.605  34.856  1.00  0.00     0.148 A 
ATOM     83  C   UNL A   1      47.143  26.774  34.630  1.00  0.00     0.002 A 
ATOM     84  C   UNL A   1      45.671  25.093  35.575  1.00  0.00     0.091 A 
ATOM     85  F   UNL A   1      43.378  25.053  34.917  1.00  0.00    -0.205 F 
ATOM     86  C   UNL A   1      46.946  25.668  35.455  1.00  0.00     0.022 A 
BRANCH  84  87
ATOM     87  S   UNL A   1      45.488  23.734  36.735  1.00  0.00     0.127 S 
ATOM     88  O   UNL A   1      44.489  24.264  37.661  1.00  0.00    -0.237 OA
ATOM     89  O   UNL A   1      45.008  22.652  35.873  1.00  0.00    -0.237 OA
ATOM     90  O   UNL A   1      46.811  23.510  37.303  1.00  0.00    -0.744 OA
ENDBRANCH  84  87
ENDBRANCH  57  80
ENDBRANCH  31  32
ENDBRANCH  23  26
ENDBRANCH  21  22
ENDBRANCH   1  21
TORSDOF 15
ENDMDL
MODEL 2
REMARK VINA RESULT:     -10.6      3.419      6.476
REMARK SMILES COc1ccc2cc([C@H](C)C(=O)NCCCNC(=O)c3ccc(-c4c5nc(c(-c6cccc(S(=O)(=O)[O-])c6F)c6ccc([nH]6)c(-c6cccc(S(=O)(=O)[O-])c6F)c6nc(c(-c7cccc(S(=O)(=O)[O-])c7F)c7ccc4[nH]7)C=C6)C=C5)cc3)ccc2c1
REMARK SMILES IDX 15 1 14 2 13 3 11 4 12 5 9 7 10 8 8 9 3 10 4 11 86 12 5 13
REMARK SMILES IDX 85 14 6 15 84 16 7 17 83 18 2 19 1 20 16 21 17 22 18 23
REMARK SMILES IDX 19 25 20 26 21 27 82 28 22 29 81 30 23 31 24 32 25 33 75 34
REMARK SMILES IDX 26 35 80 36 74 37 76 38 27 39 79 40 73 41 72 42 28 44 60 45
REMARK SMILES IDX 40 46 59 47 41 48 44 49 58 50 77 51 42 52 43 53 57 55 78 56
REMARK SMILES IDX 45 57 29 58 30 59 38 60 31 61 33 62 39 63 32 64 34 65 35 66
REMARK SMILES IDX 36 67 37 68 61 69 62 70 70 71 63 72 65 73 71 74 64 75 66 76
REMARK SMILES IDX 67 77 68 78 69 79 46 80 47 81 55 82 48 83 50 84 56 85 49 86
REMARK SMILES IDX 51 87 52 88 53 89 54 90
REMARK H PARENT 13 6 17 24 76 43 44 54
REMARK Flexibility Score: inf
ROOT
ATOM      1  C   UNL A   1      32.377  29.782  25.452  1.00  0.00     0.042 C 
ENDROOT
BRANCH   1   2
ATOM      2  C   UNL A   1      30.987  29.966  24.872  1.00  0.00     0.117 C 
BRANCH   2   3
ATOM      3  N   UNL A   1      30.886  29.476  23.505  1.00  0.00    -0.356 N 
ATOM      4  C   UNL A   1      30.414  28.286  23.037  1.00  0.00     0.227 C 
ATOM      5  O   UNL A   1      30.273  28.173  21.815  1.00  0.00    -0.274 OA
ATOM      6  H   UNL A   1      31.206  30.099  22.814  1.00  0.00     0.163 HD
BRANCH   4   7
ATOM      7  C   UNL A   1      30.081  27.124  23.974  1.00  0.00     0.105 C 
ATOM      8  C   UNL A   1      28.593  26.760  23.855  1.00  0.00     0.023 C 
BRANCH   7   9
ATOM      9  C   UNL A   1      31.029  25.927  23.920  1.00  0.00    -0.035 A 
ATOM     10  C   UNL A   1      34.982  22.758  24.455  1.00  0.00     0.119 A 
ATOM     11  C   UNL A   1      35.417  23.999  24.916  1.00  0.00     0.047 A 
ATOM     12  C   UNL A   1      33.687  22.628  23.952  1.00  0.00     0.055 A 
ATOM     13  C   UNL A   1      34.545  25.094  24.912  1.00  0.00     0.012 A 
ATOM     14  C   UNL A   1      32.811  23.721  23.925  1.00  0.00    -0.015 A 
ATOM     15  C   UNL A   1      33.233  24.968  24.430  1.00  0.00    -0.018 A 
ATOM     16  C   UNL A   1      31.530  23.601  23.385  1.00  0.00     0.009 A 
ATOM     17  C   UNL A   1      32.332  26.051  24.433  1.00  0.00     0.013 A 
ATOM     18  C   UNL A   1      30.670  24.699  23.347  1.00  0.00     0.005 A 
BRANCH  10  19
ATOM     19  O   UNL A   1      35.737  21.619  24.403  1.00  0.00    -0.497 OA
ATOM     20  C   UNL A   1      37.133  21.792  24.607  1.00  0.00     0.278 C 
ENDBRANCH  10  19
ENDBRANCH   7   9
ENDBRANCH   4   7
ENDBRANCH   2   3
ENDBRANCH   1   2
BRANCH   1  21
ATOM     21  C   UNL A   1      32.506  30.270  26.888  1.00  0.00     0.118 C 
BRANCH  21  22
ATOM     22  N   UNL A   1      32.594  31.724  26.993  1.00  0.00    -0.352 N 
ATOM     23  C   UNL A   1      33.558  32.505  27.585  1.00  0.00     0.251 C 
ATOM     24  H   UNL A   1      31.851  32.219  26.578  1.00  0.00     0.163 HD
ATOM     25  O   UNL A   1      33.372  33.711  27.720  1.00  0.00    -0.269 OA
BRANCH  23  26
ATOM     26  C   UNL A   1      34.805  31.883  28.076  1.00  0.00     0.039 A 
ATOM     27  C   UNL A   1      35.949  32.670  28.225  1.00  0.00     0.014 A 
ATOM     28  C   UNL A   1      34.834  30.528  28.414  1.00  0.00     0.014 A 
ATOM     29  C   UNL A   1      37.098  32.114  28.791  1.00  0.00     0.010 A 
ATOM     30  C   UNL A   1      35.941  30.006  29.068  1.00  0.00     0.010 A 
ATOM     31  C   UNL A   1      37.089  30.789  29.257  1.00  0.00    -0.014 A 
BRANCH  31  32
ATOM     32  C   UNL A   1      38.261  30.199  29.952  1.00  0.00     0.031 A 
ATOM     33  C   UNL A   1      38.614  30.645  31.346  1.00  0.00     0.074 A 
ATOM     34  C   UNL A   1      39.066  29.343  29.291  1.00  0.00     0.049 A 
ATOM     35  N   UNL A   1      39.637  30.307  32.086  1.00  0.00    -0.248 NA
ATOM     36  C   UNL A   1      37.719  31.629  31.980  1.00  0.00     0.031 C 
ATOM     37  C   UNL A   1      38.885  28.907  27.905  1.00  0.00     0.029 A 
ATOM     38  N   UNL A   1      40.217  28.708  29.688  1.00  0.00    -0.354 N 
ATOM     39  C   UNL A   1      39.535  31.064  33.246  1.00  0.00     0.074 A 
ATOM     40  C   UNL A   1      38.372  31.910  33.098  1.00  0.00     0.031 C 
ATOM     41  C   UNL A   1      39.881  28.071  27.570  1.00  0.00     0.029 A 
ATOM     42  C   UNL A   1      40.788  27.933  28.705  1.00  0.00     0.049 A 
ATOM     43  H   UNL A   1      40.597  28.798  30.591  1.00  0.00     0.167 HD
ATOM     44  C   UNL A   1      40.314  31.033  34.352  1.00  0.00     0.034 A 
ATOM     45  C   UNL A   1      41.916  27.198  28.717  1.00  0.00     0.034 A 
ATOM     46  C   UNL A   1      41.433  30.146  34.519  1.00  0.00     0.049 A 
ATOM     47  C   UNL A   1      42.730  27.131  29.980  1.00  0.00     0.074 A 
ATOM     48  C   UNL A   1      42.225  29.961  35.638  1.00  0.00     0.029 A 
ATOM     49  N   UNL A   1      41.921  29.297  33.539  1.00  0.00    -0.354 N 
ATOM     50  N   UNL A   1      42.518  27.726  31.130  1.00  0.00    -0.248 NA
ATOM     51  C   UNL A   1      43.918  26.265  29.963  1.00  0.00     0.031 C 
ATOM     52  C   UNL A   1      43.204  29.011  35.327  1.00  0.00     0.029 A 
ATOM     53  C   UNL A   1      43.006  28.589  34.022  1.00  0.00     0.049 A 
ATOM     54  H   UNL A   1      41.548  29.209  32.630  1.00  0.00     0.167 HD
ATOM     55  C   UNL A   1      43.522  27.280  31.981  1.00  0.00     0.074 A 
ATOM     56  C   UNL A   1      44.330  26.348  31.221  1.00  0.00     0.031 C 
ATOM     57  C   UNL A   1      43.765  27.623  33.270  1.00  0.00     0.034 A 
BRANCH  44  58
ATOM     58  C   UNL A   1      39.944  31.940  35.496  1.00  0.00     0.023 A 
ATOM     59  C   UNL A   1      40.564  33.202  35.610  1.00  0.00     0.012 A 
ATOM     60  C   UNL A   1      38.950  31.574  36.425  1.00  0.00     0.148 A 
ATOM     61  C   UNL A   1      40.230  34.068  36.648  1.00  0.00     0.002 A 
ATOM     62  C   UNL A   1      38.589  32.463  37.431  1.00  0.00     0.091 A 
ATOM     63  F   UNL A   1      38.387  30.362  36.314  1.00  0.00    -0.205 F 
ATOM     64  C   UNL A   1      39.236  33.703  37.552  1.00  0.00     0.022 A 
BRANCH  62  65
ATOM     65  S   UNL A   1      37.265  32.121  38.596  1.00  0.00     0.127 S 
ATOM     66  O   UNL A   1      37.819  32.657  39.838  1.00  0.00    -0.237 OA
ATOM     67  O   UNL A   1      36.157  32.898  38.039  1.00  0.00    -0.237 OA
ATOM     68  O   UNL A   1      37.068  30.679  38.569  1.00  0.00    -0.744 OA
ENDBRANCH  62  65
ENDBRANCH  44  58
BRANCH  45  69
ATOM     69  C   UNL A   1      42.299  26.402  27.516  1.00  0.00     0.023 A 
ATOM     70  C   UNL A   1      43.038  27.019  26.487  1.00  0.00     0.012 A 
ATOM     71  C   UNL A   1      41.968  25.038  27.399  1.00  0.00     0.148 A 
ATOM     72  C   UNL A   1      43.410  26.304  25.349  1.00  0.00     0.002 A 
ATOM     73  C   UNL A   1      42.390  24.317  26.288  1.00  0.00     0.091 A 
ATOM     74  F   UNL A   1      41.256  24.470  28.382  1.00  0.00    -0.205 F 
ATOM     75  C   UNL A   1      43.095  24.952  25.253  1.00  0.00     0.022 A 
BRANCH  73  76
ATOM     76  S   UNL A   1      42.144  22.542  26.143  1.00  0.00     0.127 S 
ATOM     77  O   UNL A   1      42.821  22.247  24.883  1.00  0.00    -0.237 OA
ATOM     78  O   UNL A   1      42.825  22.044  27.340  1.00  0.00    -0.237 OA
ATOM     79  O   UNL A   1      40.701  22.345  26.151  1.00  0.00    -0.744 OA
ENDBRANCH  73  76
ENDBRANCH  45  69
BRANCH  57  80
ATOM     80  C   UNL A   1      44.931  26.965  33.961  1.00  0.00     0.023 A 
ATOM     81  C   UNL A   1      46.203  27.567  33.909  1.00  0.00     0.012 A 
ATOM     82  C   UNL A   1      44.745  25.798  34.727  1.00  0.00     0.148 A 
ATOM     83  C   UNL A   1      47.281  26.999  34.586  1.00  0.00     0.002 A 
ATOM     84  C   UNL A   1      45.814  25.266  35.438  1.00  0.00     0.091 A 
ATOM     85  F   UNL A   1      43.531  25.232  34.748  1.00  0.00    -0.205 F 
ATOM     86  C   UNL A   1      47.085  25.857  35.360  1.00  0.00     0.022 A 
BRANCH  84  87
ATOM     87  S   UNL A   1      45.630  23.856  36.536  1.00  0.00     0.127 S 
ATOM     88  O   UNL A   1      47.007  23.638  36.975  1.00  0.00    -0.237 OA
ATOM     89  O   UNL A   1      44.737  24.382  37.570  1.00  0.00    -0.237 OA
ATOM     90  O   UNL A   1      45.054  22.790  35.727  1.00  0.00    -0.744 OA
ENDBRANCH  84  87
ENDBRANCH  57  80
ENDBRANCH  31  32
ENDBRANCH  23  26
ENDBRANCH  21  22
ENDBRANCH   1  21
TORSDOF 15
ENDMDL
MODEL 3
REMARK VINA RESULT:     -10.5      5.407     11.971
REMARK SMILES COc1ccc2cc([C@H](C)C(=O)NCCCNC(=O)c3ccc(-c4c5nc(c(-c6cccc(S(=O)(=O)[O-])c6F)c6ccc([nH]6)c(-c6cccc(S(=O)(=O)[O-])c6F)c6nc(c(-c7cccc(S(=O)(=O)[O-])c7F)c7ccc4[nH]7)C=C6)C=C5)cc3)ccc2c1
REMARK SMILES IDX 15 1 14 2 13 3 11 4 12 5 9 7 10 8 8 9 3 10 4 11 86 12 5 13
REMARK SMILES IDX 85 14 6 15 84 16 7 17 83 18 2 19 1 20 16 21 17 22 18 23
REMARK SMILES IDX 19 25 20 26 21 27 82 28 22 29 81 30 23 31 24 32 25 33 75 34
REMARK SMILES IDX 26 35 80 36 74 37 76 38 27 39 79 40 73 41 72 42 28 44 60 45
REMARK SMILES IDX 40 46 59 47 41 48 44 49 58 50 77 51 42 52 43 53 57 55 78 56
REMARK SMILES IDX 45 57 29 58 30 59 38 60 31 61 33 62 39 63 32 64 34 65 35 66
REMARK SMILES IDX 36 67 37 68 61 69 62 70 70 71 63 72 65 73 71 74 64 75 66 76
REMARK SMILES IDX 67 77 68 78 69 79 46 80 47 81 55 82 48 83 50 84 56 85 49 86
REMARK SMILES IDX 51 87 52 88 53 89 54 90
REMARK H PARENT 13 6 17 24 76 43 44 54
REMARK Flexibility Score: inf
ROOT
ATOM      1  C   UNL A   1      36.193  21.283  24.988  1.00  0.00     0.042 C 
ENDROOT
BRANCH   1   2
ATOM      2  C   UNL A   1      35.250  21.442  26.166  1.00  0.00     0.117 C 
BRANCH   2   3
ATOM      3  N   UNL A   1      34.026  20.672  26.006  1.00  0.00    -0.356 N 
ATOM      4  C   UNL A   1      33.008  20.826  25.112  1.00  0.00     0.227 C 
ATOM      5  O   UNL A   1      32.153  19.936  25.067  1.00  0.00    -0.274 OA
ATOM      6  H   UNL A   1      33.915  19.927  26.638  1.00  0.00     0.163 HD
BRANCH   4   7
ATOM      7  C   UNL A   1      32.908  22.054  24.205  1.00  0.00     0.105 C 
ATOM      8  C   UNL A   1      32.131  21.703  22.926  1.00  0.00     0.023 C 
BRANCH   7   9
ATOM      9  C   UNL A   1      32.460  23.350  24.879  1.00  0.00    -0.035 A 
ATOM     10  C   UNL A   1      32.202  28.072  26.773  1.00  0.00     0.119 A 
ATOM     11  C   UNL A   1      33.532  27.875  26.407  1.00  0.00     0.047 A 
ATOM     12  C   UNL A   1      31.283  27.038  26.602  1.00  0.00     0.055 A 
ATOM     13  C   UNL A   1      33.930  26.661  25.835  1.00  0.00     0.012 A 
ATOM     14  C   UNL A   1      31.673  25.811  26.048  1.00  0.00    -0.015 A 
ATOM     15  C   UNL A   1      33.008  25.622  25.637  1.00  0.00    -0.018 A 
ATOM     16  C   UNL A   1      30.762  24.762  25.913  1.00  0.00     0.009 A 
ATOM     17  C   UNL A   1      33.381  24.399  25.046  1.00  0.00     0.013 A 
ATOM     18  C   UNL A   1      31.163  23.538  25.376  1.00  0.00     0.005 A 
BRANCH  10  19
ATOM     19  O   UNL A   1      31.693  29.206  27.344  1.00  0.00    -0.497 OA
ATOM     20  C   UNL A   1      31.925  30.415  26.633  1.00  0.00     0.278 C 
ENDBRANCH  10  19
ENDBRANCH   7   9
ENDBRANCH   4   7
ENDBRANCH   2   3
ENDBRANCH   1   2
BRANCH   1  21
ATOM     21  C   UNL A   1      37.568  21.892  25.223  1.00  0.00     0.118 C 
BRANCH  21  22
ATOM     22  N   UNL A   1      38.550  20.923  25.704  1.00  0.00    -0.352 N 
ATOM     23  C   UNL A   1      39.742  21.131  26.355  1.00  0.00     0.251 C 
ATOM     24  H   UNL A   1      38.323  19.980  25.535  1.00  0.00     0.163 HD
ATOM     25  O   UNL A   1      40.516  20.194  26.531  1.00  0.00    -0.269 OA
BRANCH  23  26
ATOM     26  C   UNL A   1      40.095  22.487  26.822  1.00  0.00     0.039 A 
ATOM     27  C   UNL A   1      40.998  22.633  27.878  1.00  0.00     0.014 A 
ATOM     28  C   UNL A   1      39.554  23.613  26.198  1.00  0.00     0.014 A 
ATOM     29  C   UNL A   1      41.420  23.911  28.251  1.00  0.00     0.010 A 
ATOM     30  C   UNL A   1      40.050  24.873  26.502  1.00  0.00     0.010 A 
ATOM     31  C   UNL A   1      40.982  25.039  27.536  1.00  0.00    -0.014 A 
BRANCH  31  32
ATOM     32  C   UNL A   1      41.487  26.400  27.845  1.00  0.00     0.031 A 
ATOM     33  C   UNL A   1      42.907  26.772  27.510  1.00  0.00     0.074 A 
ATOM     34  C   UNL A   1      40.702  27.266  28.519  1.00  0.00     0.049 A 
ATOM     35  N   UNL A   1      43.553  27.879  27.768  1.00  0.00    -0.248 NA
ATOM     36  C   UNL A   1      43.722  25.751  26.826  1.00  0.00     0.031 C 
ATOM     37  C   UNL A   1      39.341  26.991  28.984  1.00  0.00     0.029 A 
ATOM     38  N   UNL A   1      40.948  28.543  28.957  1.00  0.00    -0.354 N 
ATOM     39  C   UNL A   1      44.853  27.673  27.322  1.00  0.00     0.074 A 
ATOM     40  C   UNL A   1      44.917  26.321  26.813  1.00  0.00     0.031 C 
ATOM     41  C   UNL A   1      38.870  28.067  29.633  1.00  0.00     0.029 A 
ATOM     42  C   UNL A   1      39.902  29.098  29.657  1.00  0.00     0.049 A 
ATOM     43  H   UNL A   1      41.793  29.017  28.786  1.00  0.00     0.167 HD
ATOM     44  C   UNL A   1      45.891  28.541  27.302  1.00  0.00     0.034 A 
ATOM     45  C   UNL A   1      39.789  30.301  30.253  1.00  0.00     0.034 A 
ATOM     46  C   UNL A   1      45.805  29.903  27.754  1.00  0.00     0.049 A 
ATOM     47  C   UNL A   1      40.936  31.270  30.161  1.00  0.00     0.074 A 
ATOM     48  C   UNL A   1      46.766  30.896  27.683  1.00  0.00     0.029 A 
ATOM     49  N   UNL A   1      44.694  30.465  28.363  1.00  0.00    -0.354 N 
ATOM     50  N   UNL A   1      42.102  31.115  29.581  1.00  0.00    -0.248 NA
ATOM     51  C   UNL A   1      40.741  32.593  30.772  1.00  0.00     0.031 C 
ATOM     52  C   UNL A   1      46.241  32.054  28.265  1.00  0.00     0.029 A 
ATOM     53  C   UNL A   1      44.945  31.788  28.679  1.00  0.00     0.049 A 
ATOM     54  H   UNL A   1      43.849  29.992  28.543  1.00  0.00     0.167 HD
ATOM     55  C   UNL A   1      42.765  32.329  29.726  1.00  0.00     0.074 A 
ATOM     56  C   UNL A   1      41.861  33.216  30.430  1.00  0.00     0.031 C 
ATOM     57  C   UNL A   1      44.014  32.674  29.329  1.00  0.00     0.034 A 
BRANCH  44  58
ATOM     58  C   UNL A   1      47.192  28.064  26.714  1.00  0.00     0.023 A 
ATOM     59  C   UNL A   1      48.241  27.675  27.573  1.00  0.00     0.012 A 
ATOM     60  C   UNL A   1      47.364  27.947  25.321  1.00  0.00     0.148 A 
ATOM     61  C   UNL A   1      49.451  27.214  27.057  1.00  0.00     0.002 A 
ATOM     62  C   UNL A   1      48.556  27.443  24.814  1.00  0.00     0.091 A 
ATOM     63  F   UNL A   1      46.364  28.342  24.518  1.00  0.00    -0.205 F 
ATOM     64  C   UNL A   1      49.604  27.089  25.679  1.00  0.00     0.022 A 
BRANCH  62  65
ATOM     65  S   UNL A   1      48.824  27.166  23.060  1.00  0.00     0.127 S 
ATOM     66  O   UNL A   1      48.128  28.310  22.472  1.00  0.00    -0.237 OA
ATOM     67  O   UNL A   1      50.283  27.223  22.958  1.00  0.00    -0.237 OA
ATOM     68  O   UNL A   1      48.245  25.863  22.766  1.00  0.00    -0.744 OA
ENDBRANCH  62  65
ENDBRANCH  44  58
BRANCH  45  69
ATOM     69  C   UNL A   1      38.513  30.685  30.921  1.00  0.00     0.023 A 
ATOM     70  C   UNL A   1      38.342  30.405  32.291  1.00  0.00     0.012 A 
ATOM     71  C   UNL A   1      37.487  31.349  30.223  1.00  0.00     0.148 A 
ATOM     72  C   UNL A   1      37.159  30.748  32.946  1.00  0.00     0.002 A 
ATOM     73  C   UNL A   1      36.333  31.738  30.895  1.00  0.00     0.091 A 
ATOM     74  F   UNL A   1      37.663  31.597  28.918  1.00  0.00    -0.205 F 
ATOM     75  C   UNL A   1      36.159  31.423  32.252  1.00  0.00     0.022 A 
BRANCH  73  76
ATOM     76  S   UNL A   1      35.052  32.727  30.113  1.00  0.00     0.127 S 
ATOM     77  O   UNL A   1      34.145  32.981  31.229  1.00  0.00    -0.237 OA
ATOM     78  O   UNL A   1      35.808  33.894  29.655  1.00  0.00    -0.237 OA
ATOM     79  O   UNL A   1      34.521  31.901  29.037  1.00  0.00    -0.744 OA
ENDBRANCH  73  76
ENDBRANCH  45  69
BRANCH  57  80
ATOM     80  C   UNL A   1      44.474  34.080  29.611  1.00  0.00     0.023 A 
ATOM     81  C   UNL A   1      45.078  34.383  30.846  1.00  0.00     0.012 A 
ATOM     82  C   UNL A   1      44.382  35.077  28.620  1.00  0.00     0.148 A 
ATOM     83  C   UNL A   1      45.557  35.666  31.103  1.00  0.00     0.002 A 
ATOM     84  C   UNL A   1      44.905  36.341  28.866  1.00  0.00     0.091 A 
ATOM     85  F   UNL A   1      43.787  34.773  27.458  1.00  0.00    -0.205 F 
ATOM     86  C   UNL A   1      45.482  36.641  30.111  1.00  0.00     0.022 A 
BRANCH  84  87
ATOM     87  S   UNL A   1      44.940  37.627  27.612  1.00  0.00     0.127 S 
ATOM     88  O   UNL A   1      45.804  37.029  26.597  1.00  0.00    -0.237 OA
ATOM     89  O   UNL A   1      43.530  37.727  27.231  1.00  0.00    -0.237 OA
ATOM     90  O   UNL A   1      45.472  38.814  28.269  1.00  0.00    -0.744 OA
ENDBRANCH  84  87
ENDBRANCH  57  80
ENDBRANCH  31  32
ENDBRANCH  23  26
ENDBRANCH  21  22
ENDBRANCH   1  21
TORSDOF 15
ENDMDL
