MODEL 1
REMARK VINA RESULT:     -14.3      0.000      0.000
REMARK SMILES N#Cc1cc2c(nc1N1CC[NH+]([C@H](C(=O)NCCCNC(=O)c3ccc(-c4c5nc(c(-c6cccc(S(=O)(=O)[O-])c6F)c6ccc([nH]6)c(-c6cccc(S(=O)(=O)[O-])c6F)c6nc(c(-c7cccc(S(=O)(=O)[O-])c7F)c7ccc4[nH]7)C=C6)C=C5)cc3)c3c[nH]c4cc(Cl)ccc34)CC1)CCCC2
REMARK SMILES IDX 18 1 17 2 16 3 14 4 15 5 13 7 12 8 9 9 10 10 97 11 11 12
REMARK SMILES IDX 96 13 8 15 3 16 4 17 5 18 7 19 6 20 101 21 98 22 100 23
REMARK SMILES IDX 99 24 2 25 1 26 86 27 87 28 95 29 88 30 89 31 94 32 90 34
REMARK SMILES IDX 93 35 91 36 92 37 19 38 20 39 21 40 22 42 23 43 24 44 85 45
REMARK SMILES IDX 25 46 84 47 26 48 27 49 28 50 78 51 29 52 83 53 77 54 79 55
REMARK SMILES IDX 30 56 82 57 76 58 75 59 31 61 63 62 43 63 62 64 44 65 47 66
REMARK SMILES IDX 61 67 80 68 45 69 46 70 60 72 81 73 48 74 32 75 33 76 41 77
REMARK SMILES IDX 34 78 36 79 42 80 35 81 37 82 38 83 39 84 40 85 64 86 65 87
REMARK SMILES IDX 73 88 66 89 68 90 74 91 67 92 69 93 70 94 71 95 72 96 49 97
REMARK SMILES IDX 50 98 58 99 51 100 53 101 59 102 52 103 54 104 55 105 56 106
REMARK SMILES IDX 57 107
REMARK H PARENT 16 6 12 14 88 33 20 41 79 60 47 71
REMARK Flexibility Score: inf
ROOT
ATOM      1  C   UNL A   1      38.350  21.194  25.882  1.00  0.00     0.042 C 
ENDROOT
BRANCH   1   2
ATOM      2  C   UNL A   1      36.975  21.788  25.480  1.00  0.00     0.118 C 
BRANCH   2   3
ATOM      3  N   UNL A   1      35.970  21.972  26.531  1.00  0.00    -0.351 N 
ATOM      4  C   UNL A   1      34.589  21.949  26.556  1.00  0.00     0.283 C 
ATOM      5  O   UNL A   1      34.118  21.920  27.703  1.00  0.00    -0.268 OA
ATOM      6  H   UNL A   1      36.367  22.149  27.415  1.00  0.00     0.163 HD
BRANCH   4   7
ATOM      7  C   UNL A   1      33.676  21.972  25.250  1.00  0.00     0.307 C 
BRANCH   7   8
ATOM      8  N   UNL A   1      33.862  23.273  24.537  1.00  0.00    -0.318 N 
ATOM      9  N   UNL A   1      32.726  25.769  23.639  1.00  0.00    -0.344 N 
ATOM     10  C   UNL A   1      33.668  25.832  24.737  1.00  0.00     0.179 C 
ATOM     11  C   UNL A   1      33.040  24.791  22.608  1.00  0.00     0.179 C 
ATOM     12  C   UNL A   1      33.792  24.447  25.421  1.00  0.00     0.284 C 
ATOM     13  C   UNL A   1      33.198  23.385  23.227  1.00  0.00     0.284 C 
ATOM     14  H   UNL A   1      34.838  23.268  24.241  1.00  0.00     0.349 HD
BRANCH   9  15
ATOM     15  C   UNL A   1      31.503  26.380  23.673  1.00  0.00     0.147 A 
ATOM     16  C   UNL A   1      30.397  25.901  24.377  1.00  0.00     0.095 A 
ATOM     17  C   UNL A   1      29.132  26.448  24.138  1.00  0.00     0.029 A 
ATOM     18  C   UNL A   1      29.024  27.604  23.378  1.00  0.00    -0.025 A 
ATOM     19  N   UNL A   1      31.401  27.510  22.941  1.00  0.00    -0.234 NA
ATOM     20  C   UNL A   1      30.200  28.133  22.850  1.00  0.00     0.046 A 
ATOM     21  C   UNL A   1      27.686  28.256  23.168  1.00  0.00     0.037 C 
ATOM     22  C   UNL A   1      30.232  29.532  22.296  1.00  0.00     0.056 C 
ATOM     23  C   UNL A   1      27.811  29.755  22.913  1.00  0.00     0.005 C 
ATOM     24  C   UNL A   1      28.863  30.029  21.843  1.00  0.00     0.007 C 
BRANCH  16  25
ATOM     25  C   UNL A   1      30.534  25.065  25.514  1.00  0.00     0.103 C 
ATOM     26  N   UNL A   1      30.454  24.411  26.481  1.00  0.00    -0.192 NA
ENDBRANCH  16  25
ENDBRANCH   9  15
ENDBRANCH   7   8
BRANCH   7  27
ATOM     27  C   UNL A   1      33.782  20.669  24.355  1.00  0.00     0.044 A 
ATOM     28  C   UNL A   1      32.683  20.370  23.547  1.00  0.00     0.094 A 
ATOM     29  C   UNL A   1      34.026  19.262  24.669  1.00  0.00     0.009 A 
ATOM     30  N   UNL A   1      31.949  19.725  24.579  1.00  0.00    -0.361 N 
ATOM     31  C   UNL A   1      32.806  18.851  25.195  1.00  0.00     0.047 A 
ATOM     32  C   UNL A   1      34.800  18.189  24.165  1.00  0.00     0.012 A 
ATOM     33  H   UNL A   1      31.004  19.877  24.808  1.00  0.00     0.166 HD
ATOM     34  C   UNL A   1      32.534  17.635  25.805  1.00  0.00     0.047 A 
ATOM     35  C   UNL A   1      34.480  16.873  24.554  1.00  0.00     0.021 A 
ATOM     36  C   UNL A   1      33.410  16.623  25.419  1.00  0.00     0.043 A 
ATOM     37  Cl  UNL A   1      33.020  15.002  25.853  1.00  0.00    -0.084 Cl
ENDBRANCH   7  27
ENDBRANCH   4   7
ENDBRANCH   2   3
ENDBRANCH   1   2
BRANCH   1  38
ATOM     38  C   UNL A   1      38.903  20.043  25.034  1.00  0.00     0.118 C 
BRANCH  38  39
ATOM     39  N   UNL A   1      39.825  19.217  25.778  1.00  0.00    -0.352 N 
ATOM     40  C   UNL A   1      41.026  19.559  26.348  1.00  0.00     0.251 C 
ATOM     41  H   UNL A   1      39.554  18.277  25.892  1.00  0.00     0.163 HD
ATOM     42  O   UNL A   1      41.822  18.667  26.631  1.00  0.00    -0.269 OA
BRANCH  40  43
ATOM     43  C   UNL A   1      41.378  20.976  26.612  1.00  0.00     0.039 A 
ATOM     44  C   UNL A   1      41.896  21.738  25.561  1.00  0.00     0.014 A 
ATOM     45  C   UNL A   1      41.295  21.533  27.893  1.00  0.00     0.014 A 
ATOM     46  C   UNL A   1      42.311  23.053  25.787  1.00  0.00     0.010 A 
ATOM     47  C   UNL A   1      41.649  22.871  28.103  1.00  0.00     0.010 A 
ATOM     48  C   UNL A   1      42.181  23.641  27.058  1.00  0.00    -0.014 A 
BRANCH  48  49
ATOM     49  C   UNL A   1      42.623  25.045  27.291  1.00  0.00     0.031 A 
ATOM     50  C   UNL A   1      41.704  26.041  27.949  1.00  0.00     0.074 A 
ATOM     51  C   UNL A   1      43.854  25.433  26.900  1.00  0.00     0.049 A 
ATOM     52  N   UNL A   1      41.929  27.295  28.253  1.00  0.00    -0.248 NA
ATOM     53  C   UNL A   1      40.352  25.577  28.303  1.00  0.00     0.031 C 
ATOM     54  C   UNL A   1      44.825  24.580  26.212  1.00  0.00     0.029 A 
ATOM     55  N   UNL A   1      44.498  26.640  27.017  1.00  0.00    -0.354 N 
ATOM     56  C   UNL A   1      40.749  27.772  28.813  1.00  0.00     0.074 A 
ATOM     57  C   UNL A   1      39.795  26.687  28.770  1.00  0.00     0.031 C 
ATOM     58  C   UNL A   1      45.948  25.281  25.991  1.00  0.00     0.029 A 
ATOM     59  C   UNL A   1      45.768  26.645  26.484  1.00  0.00     0.049 A 
ATOM     60  H   UNL A   1      44.091  27.429  27.443  1.00  0.00     0.167 HD
ATOM     61  C   UNL A   1      40.492  28.990  29.348  1.00  0.00     0.034 A 
ATOM     62  C   UNL A   1      46.684  27.630  26.399  1.00  0.00     0.034 A 
ATOM     63  C   UNL A   1      41.450  30.061  29.416  1.00  0.00     0.049 A 
ATOM     64  C   UNL A   1      46.368  28.979  26.987  1.00  0.00     0.074 A 
ATOM     65  C   UNL A   1      41.300  31.311  29.990  1.00  0.00     0.029 A 
ATOM     66  N   UNL A   1      42.731  30.017  28.886  1.00  0.00    -0.354 N 
ATOM     67  N   UNL A   1      45.295  29.368  27.631  1.00  0.00    -0.248 NA
ATOM     68  C   UNL A   1      47.402  30.019  26.866  1.00  0.00     0.031 C 
ATOM     69  C   UNL A   1      42.473  32.038  29.769  1.00  0.00     0.029 A 
ATOM     70  C   UNL A   1      43.373  31.225  29.102  1.00  0.00     0.049 A 
ATOM     71  H   UNL A   1      43.126  29.243  28.424  1.00  0.00     0.167 HD
ATOM     72  C   UNL A   1      45.534  30.682  28.018  1.00  0.00     0.074 A 
ATOM     73  C   UNL A   1      46.866  31.017  27.558  1.00  0.00     0.031 C 
ATOM     74  C   UNL A   1      44.717  31.538  28.680  1.00  0.00     0.034 A 
BRANCH  61  75
ATOM     75  C   UNL A   1      39.132  29.225  29.960  1.00  0.00     0.023 A 
ATOM     76  C   UNL A   1      38.852  28.719  31.247  1.00  0.00     0.012 A 
ATOM     77  C   UNL A   1      38.170  30.024  29.311  1.00  0.00     0.148 A 
ATOM     78  C   UNL A   1      37.630  28.979  31.865  1.00  0.00     0.002 A 
ATOM     79  C   UNL A   1      36.973  30.322  29.955  1.00  0.00     0.091 A 
ATOM     80  F   UNL A   1      38.445  30.486  28.083  1.00  0.00    -0.205 F 
ATOM     81  C   UNL A   1      36.698  29.790  31.225  1.00  0.00     0.022 A 
BRANCH  79  82
ATOM     82  S   UNL A   1      35.743  31.433  29.262  1.00  0.00     0.127 S 
ATOM     83  O   UNL A   1      35.063  30.560  28.306  1.00  0.00    -0.237 OA
ATOM     84  O   UNL A   1      34.950  31.783  30.439  1.00  0.00    -0.237 OA
ATOM     85  O   UNL A   1      36.483  32.540  28.672  1.00  0.00    -0.744 OA
ENDBRANCH  79  82
ENDBRANCH  61  75
BRANCH  62  86
ATOM     86  C   UNL A   1      48.016  27.353  25.785  1.00  0.00     0.023 A 
ATOM     87  C   UNL A   1      49.058  26.852  26.589  1.00  0.00     0.012 A 
ATOM     88  C   UNL A   1      48.242  27.536  24.407  1.00  0.00     0.148 A 
ATOM     89  C   UNL A   1      50.306  26.559  26.039  1.00  0.00     0.002 A 
ATOM     90  C   UNL A   1      49.468  27.185  23.853  1.00  0.00     0.091 A 
ATOM     91  F   UNL A   1      47.242  28.023  23.660  1.00  0.00    -0.205 F 
ATOM     92  C   UNL A   1      50.508  26.713  24.669  1.00  0.00     0.022 A 
BRANCH  90  93
ATOM     93  S   UNL A   1      49.777  27.219  22.083  1.00  0.00     0.127 S 
ATOM     94  O   UNL A   1      49.552  28.629  21.768  1.00  0.00    -0.237 OA
ATOM     95  O   UNL A   1      51.173  26.788  22.018  1.00  0.00    -0.237 OA
ATOM     96  O   UNL A   1      48.825  26.287  21.496  1.00  0.00    -0.744 OA
ENDBRANCH  90  93
ENDBRANCH  62  86
BRANCH  74  97
ATOM     97  C   UNL A   1      45.227  32.926  28.977  1.00  0.00     0.023 A 
ATOM     98  C   UNL A   1      46.000  33.157  30.132  1.00  0.00     0.012 A 
ATOM     99  C   UNL A   1      45.043  33.974  28.050  1.00  0.00     0.148 A 
ATOM    100  C   UNL A   1      46.559  34.412  30.374  1.00  0.00     0.002 A 
ATOM    101  C   UNL A   1      45.651  35.204  28.269  1.00  0.00     0.091 A 
ATOM    102  F   UNL A   1      44.294  33.740  26.962  1.00  0.00    -0.205 F 
ATOM    103  C   UNL A   1      46.398  35.429  29.437  1.00  0.00     0.022 A 
BRANCH 101 104
ATOM    104  S   UNL A   1      45.596  36.541  27.069  1.00  0.00     0.127 S 
ATOM    105  O   UNL A   1      46.394  37.570  27.733  1.00  0.00    -0.237 OA
ATOM    106  O   UNL A   1      46.235  35.933  25.902  1.00  0.00    -0.237 OA
ATOM    107  O   UNL A   1      44.188  36.868  26.891  1.00  0.00    -0.744 OA
ENDBRANCH 101 104
ENDBRANCH  74  97
ENDBRANCH  48  49
ENDBRANCH  40  43
ENDBRANCH  38  39
ENDBRANCH   1  38
TORSDOF 17
ENDMDL
MODEL 2
REMARK VINA RESULT:     -13.8      1.630      7.417
REMARK SMILES N#Cc1cc2c(nc1N1CC[NH+]([C@H](C(=O)NCCCNC(=O)c3ccc(-c4c5nc(c(-c6cccc(S(=O)(=O)[O-])c6F)c6ccc([nH]6)c(-c6cccc(S(=O)(=O)[O-])c6F)c6nc(c(-c7cccc(S(=O)(=O)[O-])c7F)c7ccc4[nH]7)C=C6)C=C5)cc3)c3c[nH]c4cc(Cl)ccc34)CC1)CCCC2
REMARK SMILES IDX 18 1 17 2 16 3 14 4 15 5 13 7 12 8 9 9 10 10 97 11 11 12
REMARK SMILES IDX 96 13 8 15 3 16 4 17 5 18 7 19 6 20 101 21 98 22 100 23
REMARK SMILES IDX 99 24 2 25 1 26 86 27 87 28 95 29 88 30 89 31 94 32 90 34
REMARK SMILES IDX 93 35 91 36 92 37 19 38 20 39 21 40 22 42 23 43 24 44 85 45
REMARK SMILES IDX 25 46 84 47 26 48 27 49 28 50 78 51 29 52 83 53 77 54 79 55
REMARK SMILES IDX 30 56 82 57 76 58 75 59 31 61 63 62 43 63 62 64 44 65 47 66
REMARK SMILES IDX 61 67 80 68 45 69 46 70 60 72 81 73 48 74 32 75 33 76 41 77
REMARK SMILES IDX 34 78 36 79 42 80 35 81 37 82 38 83 39 84 40 85 64 86 65 87
REMARK SMILES IDX 73 88 66 89 68 90 74 91 67 92 69 93 70 94 71 95 72 96 49 97
REMARK SMILES IDX 50 98 58 99 51 100 53 101 59 102 52 103 54 104 55 105 56 106
REMARK SMILES IDX 57 107
REMARK H PARENT 16 6 12 14 88 33 20 41 79 60 47 71
REMARK Flexibility Score: inf
ROOT
ATOM      1  C   UNL A   1      36.995  22.126  24.166  1.00  0.00     0.042 C 
ENDROOT
BRANCH   1   2
ATOM      2  C   UNL A   1      36.471  23.431  23.511  1.00  0.00     0.118 C 
BRANCH   2   3
ATOM      3  N   UNL A   1      35.222  23.363  22.747  1.00  0.00    -0.351 N 
ATOM      4  C   UNL A   1      33.896  23.178  23.087  1.00  0.00     0.283 C 
ATOM      5  O   UNL A   1      33.111  23.419  22.157  1.00  0.00    -0.268 OA
ATOM      6  H   UNL A   1      35.358  23.475  21.778  1.00  0.00     0.163 HD
BRANCH   4   7
ATOM      7  C   UNL A   1      33.405  22.691  24.522  1.00  0.00     0.307 C 
BRANCH   7   8
ATOM      8  N   UNL A   1      32.740  23.828  25.232  1.00  0.00    -0.318 N 
ATOM      9  N   UNL A   1      31.390  26.373  25.074  1.00  0.00    -0.344 N 
ATOM     10  C   UNL A   1      30.584  25.221  25.421  1.00  0.00     0.179 C 
ATOM     11  C   UNL A   1      32.731  26.384  25.640  1.00  0.00     0.179 C 
ATOM     12  C   UNL A   1      31.293  23.915  24.982  1.00  0.00     0.284 C 
ATOM     13  C   UNL A   1      33.490  25.095  25.255  1.00  0.00     0.284 C 
ATOM     14  H   UNL A   1      32.786  23.577  26.220  1.00  0.00     0.349 HD
BRANCH   9  15
ATOM     15  C   UNL A   1      31.038  27.258  24.094  1.00  0.00     0.147 A 
ATOM     16  C   UNL A   1      31.896  27.713  23.091  1.00  0.00     0.095 A 
ATOM     17  C   UNL A   1      31.523  28.806  22.302  1.00  0.00     0.029 A 
ATOM     18  C   UNL A   1      30.221  29.281  22.371  1.00  0.00    -0.025 A 
ATOM     19  N   UNL A   1      29.768  27.712  24.155  1.00  0.00    -0.234 NA
ATOM     20  C   UNL A   1      29.360  28.659  23.272  1.00  0.00     0.046 A 
ATOM     21  C   UNL A   1      29.772  30.405  21.479  1.00  0.00     0.037 C 
ATOM     22  C   UNL A   1      27.874  28.879  23.193  1.00  0.00     0.056 C 
ATOM     23  C   UNL A   1      28.271  30.359  21.208  1.00  0.00     0.005 C 
ATOM     24  C   UNL A   1      27.498  30.190  22.512  1.00  0.00     0.007 C 
BRANCH  16  25
ATOM     25  C   UNL A   1      33.014  26.957  22.658  1.00  0.00     0.103 C 
ATOM     26  N   UNL A   1      33.936  26.453  22.144  1.00  0.00    -0.192 NA
ENDBRANCH  16  25
ENDBRANCH   9  15
ENDBRANCH   7   8
BRANCH   7  27
ATOM     27  C   UNL A   1      32.611  21.320  24.512  1.00  0.00     0.044 A 
ATOM     28  C   UNL A   1      32.324  20.750  25.754  1.00  0.00     0.094 A 
ATOM     29  C   UNL A   1      32.874  20.021  23.895  1.00  0.00     0.009 A 
ATOM     30  N   UNL A   1      33.595  20.130  25.897  1.00  0.00    -0.361 N 
ATOM     31  C   UNL A   1      33.863  19.489  24.716  1.00  0.00     0.047 A 
ATOM     32  C   UNL A   1      32.160  19.032  23.177  1.00  0.00     0.012 A 
ATOM     33  H   UNL A   1      34.173  20.156  26.693  1.00  0.00     0.166 HD
ATOM     34  C   UNL A   1      34.594  18.332  24.489  1.00  0.00     0.047 A 
ATOM     35  C   UNL A   1      32.712  17.741  23.060  1.00  0.00     0.021 A 
ATOM     36  C   UNL A   1      33.943  17.432  23.647  1.00  0.00     0.043 A 
ATOM     37  Cl  UNL A   1      34.580  15.837  23.514  1.00  0.00    -0.084 Cl
ENDBRANCH   7  27
ENDBRANCH   4   7
ENDBRANCH   2   3
ENDBRANCH   1   2
BRANCH   1  38
ATOM     38  C   UNL A   1      37.197  22.124  25.685  1.00  0.00     0.118 C 
BRANCH  38  39
ATOM     39  N   UNL A   1      38.163  21.135  26.101  1.00  0.00    -0.352 N 
ATOM     40  C   UNL A   1      39.490  21.300  26.412  1.00  0.00     0.251 C 
ATOM     41  H   UNL A   1      37.824  20.213  26.170  1.00  0.00     0.163 HD
ATOM     42  O   UNL A   1      40.227  20.317  26.404  1.00  0.00    -0.269 OA
BRANCH  40  43
ATOM     43  C   UNL A   1      40.044  22.637  26.742  1.00  0.00     0.039 A 
ATOM     44  C   UNL A   1      40.860  22.758  27.870  1.00  0.00     0.014 A 
ATOM     45  C   UNL A   1      39.696  23.782  26.015  1.00  0.00     0.014 A 
ATOM     46  C   UNL A   1      41.338  24.012  28.257  1.00  0.00     0.010 A 
ATOM     47  C   UNL A   1      40.230  25.026  26.366  1.00  0.00     0.010 A 
ATOM     48  C   UNL A   1      41.040  25.161  27.504  1.00  0.00    -0.014 A 
BRANCH  48  49
ATOM     49  C   UNL A   1      41.556  26.495  27.921  1.00  0.00     0.031 A 
ATOM     50  C   UNL A   1      42.984  26.889  27.642  1.00  0.00     0.074 A 
ATOM     51  C   UNL A   1      40.742  27.356  28.565  1.00  0.00     0.049 A 
ATOM     52  N   UNL A   1      43.596  28.016  27.910  1.00  0.00    -0.248 NA
ATOM     53  C   UNL A   1      43.842  25.888  26.987  1.00  0.00     0.031 C 
ATOM     54  C   UNL A   1      39.353  27.081  28.936  1.00  0.00     0.029 A 
ATOM     55  N   UNL A   1      40.963  28.630  29.028  1.00  0.00    -0.354 N 
ATOM     56  C   UNL A   1      44.907  27.853  27.477  1.00  0.00     0.074 A 
ATOM     57  C   UNL A   1      45.016  26.504  26.966  1.00  0.00     0.031 C 
ATOM     58  C   UNL A   1      38.838  28.161  29.545  1.00  0.00     0.029 A 
ATOM     59  C   UNL A   1      39.868  29.193  29.645  1.00  0.00     0.049 A 
ATOM     60  H   UNL A   1      41.823  29.099  28.927  1.00  0.00     0.167 HD
ATOM     61  C   UNL A   1      45.920  28.753  27.471  1.00  0.00     0.034 A 
ATOM     62  C   UNL A   1      39.708  30.398  30.227  1.00  0.00     0.034 A 
ATOM     63  C   UNL A   1      45.803  30.103  27.955  1.00  0.00     0.049 A 
ATOM     64  C   UNL A   1      40.853  31.375  30.222  1.00  0.00     0.074 A 
ATOM     65  C   UNL A   1      46.758  31.105  27.938  1.00  0.00     0.029 A 
ATOM     66  N   UNL A   1      44.672  30.640  28.551  1.00  0.00    -0.354 N 
ATOM     67  N   UNL A   1      42.043  31.247  29.687  1.00  0.00    -0.248 NA
ATOM     68  C   UNL A   1      40.626  32.675  30.871  1.00  0.00     0.031 C 
ATOM     69  C   UNL A   1      46.219  32.233  28.563  1.00  0.00     0.029 A 
ATOM     70  C   UNL A   1      44.912  31.952  28.924  1.00  0.00     0.049 A 
ATOM     71  H   UNL A   1      43.824  30.159  28.689  1.00  0.00     0.167 HD
ATOM     72  C   UNL A   1      42.694  32.456  29.907  1.00  0.00     0.074 A 
ATOM     73  C   UNL A   1      41.757  33.315  30.602  1.00  0.00     0.031 C 
ATOM     74  C   UNL A   1      43.960  32.816  29.576  1.00  0.00     0.034 A 
BRANCH  61  75
ATOM     75  C   UNL A   1      47.240  28.333  26.871  1.00  0.00     0.023 A 
ATOM     76  C   UNL A   1      48.331  28.052  27.721  1.00  0.00     0.012 A 
ATOM     77  C   UNL A   1      47.376  28.123  25.485  1.00  0.00     0.148 A 
ATOM     78  C   UNL A   1      49.541  27.597  27.200  1.00  0.00     0.002 A 
ATOM     79  C   UNL A   1      48.570  27.619  24.978  1.00  0.00     0.091 A 
ATOM     80  F   UNL A   1      46.335  28.408  24.689  1.00  0.00    -0.205 F 
ATOM     81  C   UNL A   1      49.656  27.368  25.832  1.00  0.00     0.022 A 
BRANCH  79  82
ATOM     82  S   UNL A   1      48.793  27.200  23.245  1.00  0.00     0.127 S 
ATOM     83  O   UNL A   1      48.136  25.896  23.171  1.00  0.00    -0.237 OA
ATOM     84  O   UNL A   1      48.076  28.283  22.574  1.00  0.00    -0.237 OA
ATOM     85  O   UNL A   1      50.231  27.183  23.015  1.00  0.00    -0.744 OA
ENDBRANCH  79  82
ENDBRANCH  61  75
BRANCH  62  86
ATOM     86  C   UNL A   1      38.384  30.771  30.808  1.00  0.00     0.023 A 
ATOM     87  C   UNL A   1      38.106  30.460  32.153  1.00  0.00     0.012 A 
ATOM     88  C   UNL A   1      37.422  31.470  30.053  1.00  0.00     0.148 A 
ATOM     89  C   UNL A   1      36.887  30.818  32.730  1.00  0.00     0.002 A 
ATOM     90  C   UNL A   1      36.235  31.877  30.651  1.00  0.00     0.091 A 
ATOM     91  F   UNL A   1      37.700  31.746  28.771  1.00  0.00    -0.205 F 
ATOM     92  C   UNL A   1      35.957  31.538  31.984  1.00  0.00     0.022 A 
BRANCH  90  93
ATOM     93  S   UNL A   1      35.037  32.922  29.813  1.00  0.00     0.127 S 
ATOM     94  O   UNL A   1      34.474  32.001  28.827  1.00  0.00    -0.237 OA
ATOM     95  O   UNL A   1      34.137  33.277  30.909  1.00  0.00    -0.237 OA
ATOM     96  O   UNL A   1      35.797  34.036  29.265  1.00  0.00    -0.744 OA
ENDBRANCH  90  93
ENDBRANCH  62  86
BRANCH  74  97
ATOM     97  C   UNL A   1      44.424  34.206  29.937  1.00  0.00     0.023 A 
ATOM     98  C   UNL A   1      45.130  34.419  31.138  1.00  0.00     0.012 A 
ATOM     99  C   UNL A   1      44.265  35.276  29.032  1.00  0.00     0.148 A 
ATOM    100  C   UNL A   1      45.647  35.678  31.444  1.00  0.00     0.002 A 
ATOM    101  C   UNL A   1      44.833  36.511  29.316  1.00  0.00     0.091 A 
ATOM    102  F   UNL A   1      43.578  35.057  27.900  1.00  0.00    -0.205 F 
ATOM    103  C   UNL A   1      45.513  36.718  30.527  1.00  0.00     0.022 A 
BRANCH 101 104
ATOM    104  S   UNL A   1      44.810  37.880  28.152  1.00  0.00     0.127 S 
ATOM    105  O   UNL A   1      43.379  38.166  28.057  1.00  0.00    -0.237 OA
ATOM    106  O   UNL A   1      45.588  38.897  28.859  1.00  0.00    -0.237 OA
ATOM    107  O   UNL A   1      45.424  37.383  26.929  1.00  0.00    -0.744 OA
ENDBRANCH 101 104
ENDBRANCH  74  97
ENDBRANCH  48  49
ENDBRANCH  40  43
ENDBRANCH  38  39
ENDBRANCH   1  38
TORSDOF 17
ENDMDL
MODEL 3
REMARK VINA RESULT:     -13.4      1.402      2.092
REMARK SMILES N#Cc1cc2c(nc1N1CC[NH+]([C@H](C(=O)NCCCNC(=O)c3ccc(-c4c5nc(c(-c6cccc(S(=O)(=O)[O-])c6F)c6ccc([nH]6)c(-c6cccc(S(=O)(=O)[O-])c6F)c6nc(c(-c7cccc(S(=O)(=O)[O-])c7F)c7ccc4[nH]7)C=C6)C=C5)cc3)c3c[nH]c4cc(Cl)ccc34)CC1)CCCC2
REMARK SMILES IDX 18 1 17 2 16 3 14 4 15 5 13 7 12 8 9 9 10 10 97 11 11 12
REMARK SMILES IDX 96 13 8 15 3 16 4 17 5 18 7 19 6 20 101 21 98 22 100 23
REMARK SMILES IDX 99 24 2 25 1 26 86 27 87 28 95 29 88 30 89 31 94 32 90 34
REMARK SMILES IDX 93 35 91 36 92 37 19 38 20 39 21 40 22 42 23 43 24 44 85 45
REMARK SMILES IDX 25 46 84 47 26 48 27 49 28 50 78 51 29 52 83 53 77 54 79 55
REMARK SMILES IDX 30 56 82 57 76 58 75 59 31 61 63 62 43 63 62 64 44 65 47 66
REMARK SMILES IDX 61 67 80 68 45 69 46 70 60 72 81 73 48 74 32 75 33 76 41 77
REMARK SMILES IDX 34 78 36 79 42 80 35 81 37 82 38 83 39 84 40 85 64 86 65 87
REMARK SMILES IDX 73 88 66 89 68 90 74 91 67 92 69 93 70 94 71 95 72 96 49 97
REMARK SMILES IDX 50 98 58 99 51 100 53 101 59 102 52 103 54 104 55 105 56 106
REMARK SMILES IDX 57 107
REMARK H PARENT 16 6 12 14 88 33 20 41 79 60 47 71
REMARK Flexibility Score: inf
ROOT
ATOM      1  C   UNL A   1      36.775  21.848  23.966  1.00  0.00     0.042 C 
ENDROOT
BRANCH   1   2
ATOM      2  C   UNL A   1      36.316  23.239  23.456  1.00  0.00     0.118 C 
BRANCH   2   3
ATOM      3  N   UNL A   1      35.040  23.322  22.739  1.00  0.00    -0.351 N 
ATOM      4  C   UNL A   1      33.715  23.233  23.122  1.00  0.00     0.283 C 
ATOM      5  O   UNL A   1      32.923  23.592  22.237  1.00  0.00    -0.268 OA
ATOM      6  H   UNL A   1      35.152  23.475  21.773  1.00  0.00     0.163 HD
BRANCH   4   7
ATOM      7  C   UNL A   1      33.234  22.711  24.548  1.00  0.00     0.307 C 
BRANCH   7   8
ATOM      8  N   UNL A   1      32.530  23.817  25.270  1.00  0.00    -0.318 N 
ATOM      9  N   UNL A   1      31.172  26.360  25.148  1.00  0.00    -0.344 N 
ATOM     10  C   UNL A   1      30.359  25.191  25.413  1.00  0.00     0.179 C 
ATOM     11  C   UNL A   1      32.486  26.355  25.774  1.00  0.00     0.179 C 
ATOM     12  C   UNL A   1      31.095  23.907  24.957  1.00  0.00     0.284 C 
ATOM     13  C   UNL A   1      33.270  25.085  25.375  1.00  0.00     0.284 C 
ATOM     14  H   UNL A   1      32.532  23.528  26.248  1.00  0.00     0.349 HD
BRANCH   9  15
ATOM     15  C   UNL A   1      30.859  27.280  24.187  1.00  0.00     0.147 A 
ATOM     16  C   UNL A   1      31.770  27.815  23.274  1.00  0.00     0.095 A 
ATOM     17  C   UNL A   1      31.414  28.932  22.512  1.00  0.00     0.029 A 
ATOM     18  C   UNL A   1      30.093  29.358  22.506  1.00  0.00    -0.025 A 
ATOM     19  N   UNL A   1      29.571  27.687  24.175  1.00  0.00    -0.234 NA
ATOM     20  C   UNL A   1      29.194  28.661  23.310  1.00  0.00     0.046 A 
ATOM     21  C   UNL A   1      29.668  30.509  21.638  1.00  0.00     0.037 C 
ATOM     22  C   UNL A   1      27.709  28.833  23.130  1.00  0.00     0.056 C 
ATOM     23  C   UNL A   1      28.194  30.424  21.253  1.00  0.00     0.005 C 
ATOM     24  C   UNL A   1      27.334  30.163  22.485  1.00  0.00     0.007 C 
BRANCH  16  25
ATOM     25  C   UNL A   1      32.945  27.121  22.891  1.00  0.00     0.103 C 
ATOM     26  N   UNL A   1      33.820  26.516  22.404  1.00  0.00    -0.192 NA
ENDBRANCH  16  25
ENDBRANCH   9  15
ENDBRANCH   7   8
BRANCH   7  27
ATOM     27  C   UNL A   1      32.483  21.316  24.515  1.00  0.00     0.044 A 
ATOM     28  C   UNL A   1      32.154  20.750  25.748  1.00  0.00     0.094 A 
ATOM     29  C   UNL A   1      32.815  20.020  23.926  1.00  0.00     0.009 A 
ATOM     30  N   UNL A   1      33.435  20.171  25.958  1.00  0.00    -0.361 N 
ATOM     31  C   UNL A   1      33.779  19.527  24.799  1.00  0.00     0.047 A 
ATOM     32  C   UNL A   1      32.167  19.002  23.185  1.00  0.00     0.012 A 
ATOM     33  H   UNL A   1      33.974  20.223  26.780  1.00  0.00     0.166 HD
ATOM     34  C   UNL A   1      34.555  18.391  24.620  1.00  0.00     0.047 A 
ATOM     35  C   UNL A   1      32.764  17.728  23.109  1.00  0.00     0.021 A 
ATOM     36  C   UNL A   1      33.974  17.464  23.757  1.00  0.00     0.043 A 
ATOM     37  Cl  UNL A   1      34.665  15.888  23.673  1.00  0.00    -0.084 Cl
ENDBRANCH   7  27
ENDBRANCH   4   7
ENDBRANCH   2   3
ENDBRANCH   1   2
BRANCH   1  38
ATOM     38  C   UNL A   1      36.889  21.647  25.481  1.00  0.00     0.118 C 
BRANCH  38  39
ATOM     39  N   UNL A   1      37.844  20.619  25.821  1.00  0.00    -0.352 N 
ATOM     40  C   UNL A   1      39.177  20.743  26.120  1.00  0.00     0.251 C 
ATOM     41  H   UNL A   1      37.489  19.700  25.839  1.00  0.00     0.163 HD
ATOM     42  O   UNL A   1      39.897  19.750  26.040  1.00  0.00    -0.269 OA
BRANCH  40  43
ATOM     43  C   UNL A   1      39.759  22.048  26.521  1.00  0.00     0.039 A 
ATOM     44  C   UNL A   1      39.343  23.197  25.843  1.00  0.00     0.014 A 
ATOM     45  C   UNL A   1      40.771  22.143  27.484  1.00  0.00     0.014 A 
ATOM     46  C   UNL A   1      39.923  24.433  26.138  1.00  0.00     0.010 A 
ATOM     47  C   UNL A   1      41.303  23.391  27.825  1.00  0.00     0.010 A 
ATOM     48  C   UNL A   1      40.901  24.549  27.142  1.00  0.00    -0.014 A 
BRANCH  48  49
ATOM     49  C   UNL A   1      41.512  25.872  27.453  1.00  0.00     0.031 A 
ATOM     50  C   UNL A   1      40.739  26.917  28.216  1.00  0.00     0.074 A 
ATOM     51  C   UNL A   1      42.767  26.143  27.041  1.00  0.00     0.049 A 
ATOM     52  N   UNL A   1      41.120  28.111  28.597  1.00  0.00    -0.248 NA
ATOM     53  C   UNL A   1      39.353  26.587  28.591  1.00  0.00     0.031 C 
ATOM     54  C   UNL A   1      43.608  25.237  26.257  1.00  0.00     0.029 A 
ATOM     55  N   UNL A   1      43.553  27.256  27.215  1.00  0.00    -0.354 N 
ATOM     56  C   UNL A   1      40.023  28.678  29.235  1.00  0.00     0.074 A 
ATOM     57  C   UNL A   1      38.946  27.716  29.155  1.00  0.00     0.031 C 
ATOM     58  C   UNL A   1      44.799  25.818  26.040  1.00  0.00     0.029 A 
ATOM     59  C   UNL A   1      44.796  27.154  26.633  1.00  0.00     0.049 A 
ATOM     60  H   UNL A   1      43.255  28.054  27.711  1.00  0.00     0.167 HD
ATOM     61  C   UNL A   1      39.928  29.875  29.863  1.00  0.00     0.034 A 
ATOM     62  C   UNL A   1      45.819  28.030  26.580  1.00  0.00     0.034 A 
ATOM     63  C   UNL A   1      41.008  30.820  29.966  1.00  0.00     0.049 A 
ATOM     64  C   UNL A   1      45.684  29.360  27.272  1.00  0.00     0.074 A 
ATOM     65  C   UNL A   1      41.023  32.034  30.631  1.00  0.00     0.029 A 
ATOM     66  N   UNL A   1      42.257  30.668  29.383  1.00  0.00    -0.354 N 
ATOM     67  N   UNL A   1      44.684  29.821  27.984  1.00  0.00    -0.248 NA
ATOM     68  C   UNL A   1      46.828  30.280  27.182  1.00  0.00     0.031 C 
ATOM     69  C   UNL A   1      42.267  32.635  30.414  1.00  0.00     0.029 A 
ATOM     70  C   UNL A   1      43.043  31.775  29.656  1.00  0.00     0.049 A 
ATOM     71  H   UNL A   1      42.542  29.889  28.853  1.00  0.00     0.167 HD
ATOM     72  C   UNL A   1      45.089  31.067  28.451  1.00  0.00     0.074 A 
ATOM     73  C   UNL A   1      46.436  31.279  27.962  1.00  0.00     0.031 C 
ATOM     74  C   UNL A   1      44.400  31.961  29.204  1.00  0.00     0.034 A 
BRANCH  61  75
ATOM     75  C   UNL A   1      38.625  30.219  30.544  1.00  0.00     0.023 A 
ATOM     76  C   UNL A   1      38.424  29.844  31.889  1.00  0.00     0.012 A 
ATOM     77  C   UNL A   1      37.646  30.994  29.892  1.00  0.00     0.148 A 
ATOM     78  C   UNL A   1      37.260  30.208  32.564  1.00  0.00     0.002 A 
ATOM     79  C   UNL A   1      36.511  31.398  30.588  1.00  0.00     0.091 A 
ATOM     80  F   UNL A   1      37.845  31.331  28.610  1.00  0.00    -0.205 F 
ATOM     81  C   UNL A   1      36.311  30.995  31.918  1.00  0.00     0.022 A 
BRANCH  79  82
ATOM     82  S   UNL A   1      35.271  32.490  29.882  1.00  0.00     0.127 S 
ATOM     83  O   UNL A   1      36.089  33.619  29.442  1.00  0.00    -0.237 OA
ATOM     84  O   UNL A   1      34.727  31.673  28.797  1.00  0.00    -0.237 OA
ATOM     85  O   UNL A   1      34.332  32.785  30.955  1.00  0.00    -0.744 OA
ENDBRANCH  79  82
ENDBRANCH  61  75
BRANCH  62  86
ATOM     86  C   UNL A   1      47.089  27.647  25.895  1.00  0.00     0.023 A 
ATOM     87  C   UNL A   1      48.107  27.011  26.631  1.00  0.00     0.012 A 
ATOM     88  C   UNL A   1      47.274  27.864  24.515  1.00  0.00     0.148 A 
ATOM     89  C   UNL A   1      49.295  26.618  26.012  1.00  0.00     0.002 A 
ATOM     90  C   UNL A   1      48.433  27.416  23.893  1.00  0.00     0.091 A 
ATOM     91  F   UNL A   1      46.298  28.481  23.834  1.00  0.00    -0.205 F 
ATOM     92  C   UNL A   1      49.453  26.809  24.641  1.00  0.00     0.022 A 
BRANCH  90  93
ATOM     93  S   UNL A   1      48.669  27.494  22.113  1.00  0.00     0.127 S 
ATOM     94  O   UNL A   1      48.651  26.079  21.747  1.00  0.00    -0.237 OA
ATOM     95  O   UNL A   1      47.493  28.255  21.692  1.00  0.00    -0.237 OA
ATOM     96  O   UNL A   1      49.939  28.177  21.911  1.00  0.00    -0.744 OA
ENDBRANCH  90  93
ENDBRANCH  62  86
BRANCH  74  97
ATOM     97  C   UNL A   1      45.080  33.255  29.575  1.00  0.00     0.023 A 
ATOM     98  C   UNL A   1      45.894  33.315  30.724  1.00  0.00     0.012 A 
ATOM     99  C   UNL A   1      45.009  34.376  28.721  1.00  0.00     0.148 A 
ATOM    100  C   UNL A   1      46.605  34.475  31.031  1.00  0.00     0.002 A 
ATOM    101  C   UNL A   1      45.765  35.508  29.002  1.00  0.00     0.091 A 
ATOM    102  F   UNL A   1      44.219  34.305  27.639  1.00  0.00    -0.205 F 
ATOM    103  C   UNL A   1      46.552  35.564  30.164  1.00  0.00     0.022 A 
BRANCH 101 104
ATOM    104  S   UNL A   1      45.851  36.917  27.891  1.00  0.00     0.127 S 
ATOM    105  O   UNL A   1      46.794  37.790  28.591  1.00  0.00    -0.237 OA
ATOM    106  O   UNL A   1      46.376  36.312  26.667  1.00  0.00    -0.237 OA
ATOM    107  O   UNL A   1      44.494  37.432  27.783  1.00  0.00    -0.744 OA
ENDBRANCH 101 104
ENDBRANCH  74  97
ENDBRANCH  48  49
ENDBRANCH  40  43
ENDBRANCH  38  39
ENDBRANCH   1  38
TORSDOF 17
ENDMDL
