MODEL 1
REMARK VINA RESULT:     -12.2      0.000      0.000
REMARK SMILES CC(C)N1C(=O)C[C@@H]([N@@H+]2CC[C@H](C(=O)NCCCNC(=O)c3ccc(-c4c5nc(c(-c6cccc(S(=O)(=O)[O-])c6F)c6ccc([nH]6)c(-c6cccc(S(=O)(=O)[O-])c6F)c6nc(c(-c7cccc(S(=O)(=O)[O-])c7F)c7ccc4[nH]7)C=C6)C=C5)cc3)[C@@H]2C)C1=O
REMARK SMILES IDX 17 1 16 2 15 3 13 4 14 5 12 7 9 8 10 9 85 10 11 12 86 13
REMARK SMILES IDX 8 14 4 15 5 16 87 17 6 18 7 19 88 20 2 21 1 22 3 23 18 24
REMARK SMILES IDX 19 25 20 26 21 28 22 29 23 30 84 31 24 32 83 33 25 34 26 35
REMARK SMILES IDX 27 36 77 37 28 38 82 39 76 40 78 41 29 42 81 43 75 44 74 45
REMARK SMILES IDX 30 47 62 48 42 49 61 50 43 51 46 52 60 53 79 54 44 55 45 56
REMARK SMILES IDX 59 58 80 59 47 60 31 61 32 62 40 63 33 64 35 65 41 66 34 67
REMARK SMILES IDX 36 68 37 69 38 70 39 71 63 72 64 73 72 74 65 75 67 76 73 77
REMARK SMILES IDX 66 78 68 79 69 80 70 81 71 82 48 83 49 84 57 85 50 86 52 87
REMARK SMILES IDX 58 88 51 89 53 90 54 91 55 92 56 93
REMARK H PARENT 15 6 9 11 19 27 78 46 46 57
REMARK Flexibility Score: inf
ROOT
ATOM      1  C   UNL A   1      31.743  31.638  26.887  1.00  0.00     0.042 C 
ENDROOT
BRANCH   1   2
ATOM      2  C   UNL A   1      32.057  30.358  26.124  1.00  0.00     0.117 C 
BRANCH   2   3
ATOM      3  N   UNL A   1      31.689  29.166  26.868  1.00  0.00    -0.356 N 
ATOM      4  C   UNL A   1      31.737  27.851  26.521  1.00  0.00     0.229 C 
ATOM      5  O   UNL A   1      31.420  27.025  27.379  1.00  0.00    -0.275 OA
ATOM      6  H   UNL A   1      31.347  29.338  27.775  1.00  0.00     0.163 HD
BRANCH   4   7
ATOM      7  C   UNL A   1      32.181  27.439  25.125  1.00  0.00     0.142 C 
ATOM      8  N   UNL A   1      32.483  25.075  24.769  1.00  0.00    -0.321 N 
ATOM      9  C   UNL A   1      33.680  25.595  25.431  1.00  0.00     0.264 C 
ATOM     10  C   UNL A   1      31.501  26.160  24.605  1.00  0.00     0.194 C 
ATOM     11  H   UNL A   1      32.727  24.791  23.820  1.00  0.00     0.349 HD
ATOM     12  C   UNL A   1      33.664  27.083  25.142  1.00  0.00     0.081 C 
ATOM     13  C   UNL A   1      30.059  25.959  25.070  1.00  0.00     0.076 C 
BRANCH   8  14
ATOM     14  C   UNL A   1      32.018  23.757  25.218  1.00  0.00     0.284 C 
ATOM     15  N   UNL A   1      33.534  22.003  25.641  1.00  0.00    -0.275 N 
ATOM     16  C   UNL A   1      33.086  22.392  26.871  1.00  0.00     0.236 C 
ATOM     17  C   UNL A   1      32.886  22.650  24.623  1.00  0.00     0.288 C 
ATOM     18  O   UNL A   1      33.419  21.914  27.946  1.00  0.00    -0.274 OA
ATOM     19  C   UNL A   1      32.072  23.481  26.718  1.00  0.00     0.176 C 
ATOM     20  O   UNL A   1      32.994  22.404  23.427  1.00  0.00    -0.267 OA
BRANCH  15  21
ATOM     21  C   UNL A   1      34.526  20.946  25.462  1.00  0.00     0.087 C 
ATOM     22  C   UNL A   1      33.917  19.712  24.801  1.00  0.00     0.031 C 
ATOM     23  C   UNL A   1      35.757  21.439  24.699  1.00  0.00     0.031 C 
ENDBRANCH  15  21
ENDBRANCH   8  14
ENDBRANCH   4   7
ENDBRANCH   2   3
ENDBRANCH   1   2
BRANCH   1  24
ATOM     24  C   UNL A   1      32.972  32.471  27.237  1.00  0.00     0.118 C 
BRANCH  24  25
ATOM     25  N   UNL A   1      32.641  33.846  27.595  1.00  0.00    -0.352 N 
ATOM     26  C   UNL A   1      33.139  34.644  28.596  1.00  0.00     0.251 C 
ATOM     27  H   UNL A   1      31.954  34.267  27.031  1.00  0.00     0.163 HD
ATOM     28  O   UNL A   1      32.591  35.714  28.848  1.00  0.00    -0.269 OA
BRANCH  26  29
ATOM     29  C   UNL A   1      34.313  34.209  29.381  1.00  0.00     0.039 A 
ATOM     30  C   UNL A   1      34.113  33.491  30.563  1.00  0.00     0.014 A 
ATOM     31  C   UNL A   1      35.608  34.511  28.955  1.00  0.00     0.014 A 
ATOM     32  C   UNL A   1      35.214  33.008  31.274  1.00  0.00     0.010 A 
ATOM     33  C   UNL A   1      36.700  33.958  29.616  1.00  0.00     0.010 A 
ATOM     34  C   UNL A   1      36.515  33.201  30.783  1.00  0.00    -0.014 A 
BRANCH  34  35
ATOM     35  C   UNL A   1      37.701  32.609  31.455  1.00  0.00     0.031 A 
ATOM     36  C   UNL A   1      38.430  31.456  30.821  1.00  0.00     0.074 A 
ATOM     37  C   UNL A   1      38.049  33.033  32.687  1.00  0.00     0.049 A 
ATOM     38  N   UNL A   1      39.407  30.732  31.303  1.00  0.00    -0.248 NA
ATOM     39  C   UNL A   1      37.984  31.043  29.480  1.00  0.00     0.031 C 
ATOM     40  C   UNL A   1      37.379  34.097  33.438  1.00  0.00     0.029 A 
ATOM     41  N   UNL A   1      39.032  32.596  33.541  1.00  0.00    -0.354 N 
ATOM     42  C   UNL A   1      39.664  29.756  30.349  1.00  0.00     0.074 A 
ATOM     43  C   UNL A   1      38.720  29.961  29.271  1.00  0.00     0.031 C 
ATOM     44  C   UNL A   1      37.965  34.227  34.638  1.00  0.00     0.029 A 
ATOM     45  C   UNL A   1      39.025  33.231  34.761  1.00  0.00     0.049 A 
ATOM     46  H   UNL A   1      39.682  31.895  33.301  1.00  0.00     0.167 HD
ATOM     47  C   UNL A   1      40.614  28.791  30.356  1.00  0.00     0.034 A 
ATOM     48  C   UNL A   1      39.773  33.023  35.863  1.00  0.00     0.034 A 
ATOM     49  C   UNL A   1      41.574  28.616  31.411  1.00  0.00     0.049 A 
ATOM     50  C   UNL A   1      40.835  31.958  35.837  1.00  0.00     0.074 A 
ATOM     51  C   UNL A   1      42.631  27.726  31.471  1.00  0.00     0.029 A 
ATOM     52  N   UNL A   1      41.588  29.335  32.596  1.00  0.00    -0.354 N 
ATOM     53  N   UNL A   1      41.160  31.142  34.863  1.00  0.00    -0.248 NA
ATOM     54  C   UNL A   1      41.655  31.803  37.048  1.00  0.00     0.031 C 
ATOM     55  C   UNL A   1      43.264  27.882  32.707  1.00  0.00     0.029 A 
ATOM     56  C   UNL A   1      42.626  28.899  33.401  1.00  0.00     0.049 A 
ATOM     57  H   UNL A   1      40.953  30.049  32.831  1.00  0.00     0.167 HD
ATOM     58  C   UNL A   1      42.245  30.407  35.328  1.00  0.00     0.074 A 
ATOM     59  C   UNL A   1      42.532  30.885  36.665  1.00  0.00     0.031 C 
ATOM     60  C   UNL A   1      42.936  29.420  34.707  1.00  0.00     0.034 A 
BRANCH  47  61
ATOM     61  C   UNL A   1      40.690  27.872  29.164  1.00  0.00     0.023 A 
ATOM     62  C   UNL A   1      39.826  26.762  29.080  1.00  0.00     0.012 A 
ATOM     63  C   UNL A   1      41.573  28.141  28.099  1.00  0.00     0.148 A 
ATOM     64  C   UNL A   1      39.862  25.913  27.975  1.00  0.00     0.002 A 
ATOM     65  C   UNL A   1      41.570  27.319  26.978  1.00  0.00     0.091 A 
ATOM     66  F   UNL A   1      42.401  29.190  28.205  1.00  0.00    -0.205 F 
ATOM     67  C   UNL A   1      40.726  26.198  26.920  1.00  0.00     0.022 A 
BRANCH  65  68
ATOM     68  S   UNL A   1      42.584  27.647  25.533  1.00  0.00     0.127 S 
ATOM     69  O   UNL A   1      43.924  27.682  26.115  1.00  0.00    -0.237 OA
ATOM     70  O   UNL A   1      42.312  26.477  24.696  1.00  0.00    -0.237 OA
ATOM     71  O   UNL A   1      42.108  28.910  24.985  1.00  0.00    -0.744 OA
ENDBRANCH  65  68
ENDBRANCH  47  61
BRANCH  48  72
ATOM     72  C   UNL A   1      39.574  33.874  37.071  1.00  0.00     0.023 A 
ATOM     73  C   UNL A   1      40.037  35.205  37.064  1.00  0.00     0.012 A 
ATOM     74  C   UNL A   1      38.910  33.385  38.212  1.00  0.00     0.148 A 
ATOM     75  C   UNL A   1      39.876  36.021  38.184  1.00  0.00     0.002 A 
ATOM     76  C   UNL A   1      38.701  34.220  39.303  1.00  0.00     0.091 A 
ATOM     77  F   UNL A   1      38.484  32.114  38.202  1.00  0.00    -0.205 F 
ATOM     78  C   UNL A   1      39.200  35.532  39.298  1.00  0.00     0.022 A 
BRANCH  76  79
ATOM     79  S   UNL A   1      37.726  33.721  40.727  1.00  0.00     0.127 S 
ATOM     80  O   UNL A   1      37.561  34.988  41.435  1.00  0.00    -0.237 OA
ATOM     81  O   UNL A   1      36.512  33.204  40.094  1.00  0.00    -0.237 OA
ATOM     82  O   UNL A   1      38.521  32.712  41.413  1.00  0.00    -0.744 OA
ENDBRANCH  76  79
ENDBRANCH  48  72
BRANCH  60  83
ATOM     83  C   UNL A   1      44.108  28.814  35.433  1.00  0.00     0.023 A 
ATOM     84  C   UNL A   1      45.392  29.374  35.292  1.00  0.00     0.012 A 
ATOM     85  C   UNL A   1      43.912  27.747  36.333  1.00  0.00     0.148 A 
ATOM     86  C   UNL A   1      46.470  28.864  36.017  1.00  0.00     0.002 A 
ATOM     87  C   UNL A   1      44.979  27.278  37.089  1.00  0.00     0.091 A 
ATOM     88  F   UNL A   1      42.684  27.219  36.439  1.00  0.00    -0.205 F 
ATOM     89  C   UNL A   1      46.261  27.827  36.924  1.00  0.00     0.022 A 
BRANCH  87  90
ATOM     90  S   UNL A   1      44.785  26.017  38.354  1.00  0.00     0.127 S 
ATOM     91  O   UNL A   1      43.811  26.641  39.249  1.00  0.00    -0.237 OA
ATOM     92  O   UNL A   1      44.268  24.887  37.583  1.00  0.00    -0.237 OA
ATOM     93  O   UNL A   1      46.108  25.808  38.924  1.00  0.00    -0.744 OA
ENDBRANCH  87  90
ENDBRANCH  60  83
ENDBRANCH  34  35
ENDBRANCH  26  29
ENDBRANCH  24  25
ENDBRANCH   1  24
TORSDOF 15
ENDMDL
MODEL 2
REMARK VINA RESULT:     -12.1      2.186      3.195
REMARK SMILES CC(C)N1C(=O)C[C@@H]([N@@H+]2CC[C@H](C(=O)NCCCNC(=O)c3ccc(-c4c5nc(c(-c6cccc(S(=O)(=O)[O-])c6F)c6ccc([nH]6)c(-c6cccc(S(=O)(=O)[O-])c6F)c6nc(c(-c7cccc(S(=O)(=O)[O-])c7F)c7ccc4[nH]7)C=C6)C=C5)cc3)[C@@H]2C)C1=O
REMARK SMILES IDX 17 1 16 2 15 3 13 4 14 5 12 7 9 8 10 9 85 10 11 12 86 13
REMARK SMILES IDX 8 14 4 15 5 16 87 17 6 18 7 19 88 20 2 21 1 22 3 23 18 24
REMARK SMILES IDX 19 25 20 26 21 28 22 29 23 30 84 31 24 32 83 33 25 34 26 35
REMARK SMILES IDX 27 36 77 37 28 38 82 39 76 40 78 41 29 42 81 43 75 44 74 45
REMARK SMILES IDX 30 47 62 48 42 49 61 50 43 51 46 52 60 53 79 54 44 55 45 56
REMARK SMILES IDX 59 58 80 59 47 60 31 61 32 62 40 63 33 64 35 65 41 66 34 67
REMARK SMILES IDX 36 68 37 69 38 70 39 71 63 72 64 73 72 74 65 75 67 76 73 77
REMARK SMILES IDX 66 78 68 79 69 80 70 81 71 82 48 83 49 84 57 85 50 86 52 87
REMARK SMILES IDX 58 88 51 89 53 90 54 91 55 92 56 93
REMARK H PARENT 15 6 9 11 19 27 78 46 46 57
REMARK Flexibility Score: inf
ROOT
ATOM      1  C   UNL A   1      31.731  28.844  26.440  1.00  0.00     0.042 C 
ENDROOT
BRANCH   1   2
ATOM      2  C   UNL A   1      32.232  27.414  26.593  1.00  0.00     0.117 C 
BRANCH   2   3
ATOM      3  N   UNL A   1      31.785  26.553  25.511  1.00  0.00    -0.356 N 
ATOM      4  C   UNL A   1      31.958  25.219  25.307  1.00  0.00     0.229 C 
ATOM      5  O   UNL A   1      31.410  24.719  24.322  1.00  0.00    -0.275 OA
ATOM      6  H   UNL A   1      31.272  27.012  24.807  1.00  0.00     0.163 HD
BRANCH   4   7
ATOM      7  C   UNL A   1      32.788  24.393  26.279  1.00  0.00     0.142 C 
ATOM      8  N   UNL A   1      33.417  22.193  25.523  1.00  0.00    -0.321 N 
ATOM      9  C   UNL A   1      32.043  22.131  26.020  1.00  0.00     0.264 C 
ATOM     10  C   UNL A   1      33.908  23.579  25.608  1.00  0.00     0.194 C 
ATOM     11  H   UNL A   1      34.020  21.658  26.148  1.00  0.00     0.349 HD
ATOM     12  C   UNL A   1      31.908  23.333  26.934  1.00  0.00     0.081 C 
ATOM     13  C   UNL A   1      34.544  24.238  24.383  1.00  0.00     0.076 C 
BRANCH   8  14
ATOM     14  C   UNL A   1      33.703  21.410  24.314  1.00  0.00     0.284 C 
ATOM     15  N   UNL A   1      33.704  19.054  24.356  1.00  0.00    -0.275 N 
ATOM     16  C   UNL A   1      32.580  19.397  23.662  1.00  0.00     0.236 C 
ATOM     17  C   UNL A   1      34.476  20.141  24.668  1.00  0.00     0.288 C 
ATOM     18  O   UNL A   1      31.765  18.626  23.177  1.00  0.00    -0.274 OA
ATOM     19  C   UNL A   1      32.501  20.886  23.533  1.00  0.00     0.176 C 
ATOM     20  O   UNL A   1      35.594  20.112  25.168  1.00  0.00    -0.267 OA
BRANCH  15  21
ATOM     21  C   UNL A   1      34.064  17.666  24.636  1.00  0.00     0.087 C 
ATOM     22  C   UNL A   1      33.036  16.993  25.543  1.00  0.00     0.031 C 
ATOM     23  C   UNL A   1      34.291  16.863  23.354  1.00  0.00     0.031 C 
ENDBRANCH  15  21
ENDBRANCH   8  14
ENDBRANCH   4   7
ENDBRANCH   2   3
ENDBRANCH   1   2
BRANCH   1  24
ATOM     24  C   UNL A   1      32.799  29.831  25.979  1.00  0.00     0.118 C 
BRANCH  24  25
ATOM     25  N   UNL A   1      32.503  31.207  26.365  1.00  0.00    -0.352 N 
ATOM     26  C   UNL A   1      33.162  32.043  27.233  1.00  0.00     0.251 C 
ATOM     27  H   UNL A   1      31.707  31.595  25.937  1.00  0.00     0.163 HD
ATOM     28  O   UNL A   1      32.642  33.106  27.564  1.00  0.00    -0.269 OA
BRANCH  26  29
ATOM     29  C   UNL A   1      34.479  31.658  27.783  1.00  0.00     0.039 A 
ATOM     30  C   UNL A   1      35.480  32.627  27.891  1.00  0.00     0.014 A 
ATOM     31  C   UNL A   1      34.727  30.345  28.187  1.00  0.00     0.014 A 
ATOM     32  C   UNL A   1      36.703  32.296  28.480  1.00  0.00     0.010 A 
ATOM     33  C   UNL A   1      35.912  30.039  28.849  1.00  0.00     0.010 A 
ATOM     34  C   UNL A   1      36.913  31.010  29.002  1.00  0.00    -0.014 A 
BRANCH  34  35
ATOM     35  C   UNL A   1      38.159  30.656  29.729  1.00  0.00     0.031 A 
ATOM     36  C   UNL A   1      39.136  29.683  29.124  1.00  0.00     0.074 A 
ATOM     37  C   UNL A   1      38.356  31.119  30.980  1.00  0.00     0.049 A 
ATOM     38  N   UNL A   1      40.213  29.162  29.649  1.00  0.00    -0.248 NA
ATOM     39  C   UNL A   1      38.847  29.213  27.759  1.00  0.00     0.031 C 
ATOM     40  C   UNL A   1      37.449  32.014  31.704  1.00  0.00     0.029 A 
ATOM     41  N   UNL A   1      39.364  30.873  31.879  1.00  0.00    -0.354 N 
ATOM     42  C   UNL A   1      40.707  28.274  28.702  1.00  0.00     0.074 A 
ATOM     43  C   UNL A   1      39.795  28.305  27.580  1.00  0.00     0.031 C 
ATOM     44  C   UNL A   1      37.939  32.237  32.933  1.00  0.00     0.029 A 
ATOM     45  C   UNL A   1      39.171  31.473  33.102  1.00  0.00     0.049 A 
ATOM     46  H   UNL A   1      40.152  30.321  31.667  1.00  0.00     0.167 HD
ATOM     47  C   UNL A   1      41.830  27.519  28.750  1.00  0.00     0.034 A 
ATOM     48  C   UNL A   1      39.891  31.399  34.239  1.00  0.00     0.034 A 
ATOM     49  C   UNL A   1      42.754  27.521  29.851  1.00  0.00     0.049 A 
ATOM     50  C   UNL A   1      41.145  30.569  34.259  1.00  0.00     0.074 A 
ATOM     51  C   UNL A   1      43.964  26.861  29.958  1.00  0.00     0.029 A 
ATOM     52  N   UNL A   1      42.566  28.208  31.041  1.00  0.00    -0.354 N 
ATOM     53  N   UNL A   1      41.674  29.852  33.297  1.00  0.00    -0.248 NA
ATOM     54  C   UNL A   1      41.920  30.560  35.510  1.00  0.00     0.031 C 
ATOM     55  C   UNL A   1      44.492  27.119  31.226  1.00  0.00     0.029 A 
ATOM     56  C   UNL A   1      43.631  27.974  31.894  1.00  0.00     0.049 A 
ATOM     57  H   UNL A   1      41.790  28.776  31.249  1.00  0.00     0.167 HD
ATOM     58  C   UNL A   1      42.861  29.341  33.811  1.00  0.00     0.074 A 
ATOM     59  C   UNL A   1      42.981  29.843  35.165  1.00  0.00     0.031 C 
ATOM     60  C   UNL A   1      43.766  28.524  33.218  1.00  0.00     0.034 A 
BRANCH  47  61
ATOM     61  C   UNL A   1      42.148  26.655  27.557  1.00  0.00     0.023 A 
ATOM     62  C   UNL A   1      42.865  27.198  26.471  1.00  0.00     0.012 A 
ATOM     63  C   UNL A   1      41.792  25.292  27.536  1.00  0.00     0.148 A 
ATOM     64  C   UNL A   1      43.191  26.411  25.368  1.00  0.00     0.002 A 
ATOM     65  C   UNL A   1      42.163  24.500  26.455  1.00  0.00     0.091 A 
ATOM     66  F   UNL A   1      41.094  24.798  28.568  1.00  0.00    -0.205 F 
ATOM     67  C   UNL A   1      42.850  25.060  25.366  1.00  0.00     0.022 A 
BRANCH  65  68
ATOM     68  S   UNL A   1      41.844  22.735  26.393  1.00  0.00     0.127 S 
ATOM     69  O   UNL A   1      42.461  22.280  27.638  1.00  0.00    -0.237 OA
ATOM     70  O   UNL A   1      40.381  22.687  26.383  1.00  0.00    -0.237 OA
ATOM     71  O   UNL A   1      42.477  22.254  25.173  1.00  0.00    -0.744 OA
ENDBRANCH  65  68
ENDBRANCH  47  61
BRANCH  48  72
ATOM     72  C   UNL A   1      39.466  32.171  35.442  1.00  0.00     0.023 A 
ATOM     73  C   UNL A   1      39.815  33.532  35.548  1.00  0.00     0.012 A 
ATOM     74  C   UNL A   1      38.703  31.577  36.464  1.00  0.00     0.148 A 
ATOM     75  C   UNL A   1      39.442  34.277  36.668  1.00  0.00     0.002 A 
ATOM     76  C   UNL A   1      38.285  32.338  37.549  1.00  0.00     0.091 A 
ATOM     77  F   UNL A   1      38.389  30.279  36.348  1.00  0.00    -0.205 F 
ATOM     78  C   UNL A   1      38.670  33.683  37.662  1.00  0.00     0.022 A 
BRANCH  76  79
ATOM     79  S   UNL A   1      37.178  31.696  38.810  1.00  0.00     0.127 S 
ATOM     80  O   UNL A   1      38.003  31.796  40.011  1.00  0.00    -0.237 OA
ATOM     81  O   UNL A   1      36.065  32.643  38.743  1.00  0.00    -0.237 OA
ATOM     82  O   UNL A   1      36.841  30.343  38.385  1.00  0.00    -0.744 OA
ENDBRANCH  76  79
ENDBRANCH  48  72
BRANCH  60  83
ATOM     83  C   UNL A   1      44.999  28.152  33.998  1.00  0.00     0.023 A 
ATOM     84  C   UNL A   1      46.123  29.000  33.988  1.00  0.00     0.012 A 
ATOM     85  C   UNL A   1      45.002  27.007  34.820  1.00  0.00     0.148 A 
ATOM     86  C   UNL A   1      47.243  28.700  34.765  1.00  0.00     0.002 A 
ATOM     87  C   UNL A   1      46.100  26.743  35.630  1.00  0.00     0.091 A 
ATOM     88  F   UNL A   1      43.927  26.205  34.801  1.00  0.00    -0.205 F 
ATOM     89  C   UNL A   1      47.225  27.581  35.595  1.00  0.00     0.022 A 
BRANCH  87  90
ATOM     90  S   UNL A   1      46.127  25.384  36.805  1.00  0.00     0.127 S 
ATOM     91  O   UNL A   1      46.109  24.223  35.916  1.00  0.00    -0.237 OA
ATOM     92  O   UNL A   1      47.397  25.602  37.497  1.00  0.00    -0.237 OA
ATOM     93  O   UNL A   1      44.945  25.546  37.640  1.00  0.00    -0.744 OA
ENDBRANCH  87  90
ENDBRANCH  60  83
ENDBRANCH  34  35
ENDBRANCH  26  29
ENDBRANCH  24  25
ENDBRANCH   1  24
TORSDOF 15
ENDMDL
MODEL 3
REMARK VINA RESULT:     -12.1      5.799     11.000
REMARK SMILES CC(C)N1C(=O)C[C@@H]([N@@H+]2CC[C@H](C(=O)NCCCNC(=O)c3ccc(-c4c5nc(c(-c6cccc(S(=O)(=O)[O-])c6F)c6ccc([nH]6)c(-c6cccc(S(=O)(=O)[O-])c6F)c6nc(c(-c7cccc(S(=O)(=O)[O-])c7F)c7ccc4[nH]7)C=C6)C=C5)cc3)[C@@H]2C)C1=O
REMARK SMILES IDX 17 1 16 2 15 3 13 4 14 5 12 7 9 8 10 9 85 10 11 12 86 13
REMARK SMILES IDX 8 14 4 15 5 16 87 17 6 18 7 19 88 20 2 21 1 22 3 23 18 24
REMARK SMILES IDX 19 25 20 26 21 28 22 29 23 30 84 31 24 32 83 33 25 34 26 35
REMARK SMILES IDX 27 36 77 37 28 38 82 39 76 40 78 41 29 42 81 43 75 44 74 45
REMARK SMILES IDX 30 47 62 48 42 49 61 50 43 51 46 52 60 53 79 54 44 55 45 56
REMARK SMILES IDX 59 58 80 59 47 60 31 61 32 62 40 63 33 64 35 65 41 66 34 67
REMARK SMILES IDX 36 68 37 69 38 70 39 71 63 72 64 73 72 74 65 75 67 76 73 77
REMARK SMILES IDX 66 78 68 79 69 80 70 81 71 82 48 83 49 84 57 85 50 86 52 87
REMARK SMILES IDX 58 88 51 89 53 90 54 91 55 92 56 93
REMARK H PARENT 15 6 9 11 19 27 78 46 46 57
REMARK Flexibility Score: inf
ROOT
ATOM      1  C   UNL A   1      34.941  21.649  26.381  1.00  0.00     0.042 C 
ENDROOT
BRANCH   1   2
ATOM      2  C   UNL A   1      33.900  22.748  26.546  1.00  0.00     0.117 C 
BRANCH   2   3
ATOM      3  N   UNL A   1      34.165  23.893  25.692  1.00  0.00    -0.356 N 
ATOM      4  C   UNL A   1      33.438  25.022  25.467  1.00  0.00     0.229 C 
ATOM      5  O   UNL A   1      33.933  25.878  24.731  1.00  0.00    -0.275 OA
ATOM      6  H   UNL A   1      35.011  23.844  25.191  1.00  0.00     0.163 HD
BRANCH   4   7
ATOM      7  C   UNL A   1      32.077  25.204  26.122  1.00  0.00     0.142 C 
ATOM      8  N   UNL A   1      30.428  26.380  24.816  1.00  0.00    -0.321 N 
ATOM      9  C   UNL A   1      31.306  27.368  25.442  1.00  0.00     0.264 C 
ATOM     10  C   UNL A   1      30.892  25.024  25.157  1.00  0.00     0.194 C 
ATOM     11  H   UNL A   1      29.498  26.455  25.229  1.00  0.00     0.349 HD
ATOM     12  C   UNL A   1      31.932  26.639  26.616  1.00  0.00     0.081 C 
ATOM     13  C   UNL A   1      31.108  23.992  24.050  1.00  0.00     0.076 C 
BRANCH   8  14
ATOM     14  C   UNL A   1      30.016  26.665  23.436  1.00  0.00     0.284 C 
ATOM     15  N   UNL A   1      29.040  28.729  22.852  1.00  0.00    -0.275 N 
ATOM     16  C   UNL A   1      30.290  28.758  22.305  1.00  0.00     0.236 C 
ATOM     17  C   UNL A   1      28.749  27.517  23.420  1.00  0.00     0.288 C 
ATOM     18  O   UNL A   1      30.774  29.674  21.656  1.00  0.00    -0.274 OA
ATOM     19  C   UNL A   1      30.991  27.464  22.577  1.00  0.00     0.176 C 
ATOM     20  O   UNL A   1      27.660  27.172  23.863  1.00  0.00    -0.267 OA
BRANCH  15  21
ATOM     21  C   UNL A   1      28.107  29.847  22.745  1.00  0.00     0.087 C 
ATOM     22  C   UNL A   1      28.531  31.018  23.628  1.00  0.00     0.031 C 
ATOM     23  C   UNL A   1      27.902  30.285  21.294  1.00  0.00     0.031 C 
ENDBRANCH  15  21
ENDBRANCH   8  14
ENDBRANCH   4   7
ENDBRANCH   2   3
ENDBRANCH   1   2
BRANCH   1  24
ATOM     24  C   UNL A   1      36.248  22.120  25.749  1.00  0.00     0.118 C 
BRANCH  24  25
ATOM     25  N   UNL A   1      37.240  21.056  25.639  1.00  0.00    -0.352 N 
ATOM     26  C   UNL A   1      38.598  21.088  25.840  1.00  0.00     0.251 C 
ATOM     27  H   UNL A   1      36.878  20.178  25.380  1.00  0.00     0.163 HD
ATOM     28  O   UNL A   1      39.283  20.122  25.512  1.00  0.00    -0.269 OA
BRANCH  26  29
ATOM     29  C   UNL A   1      39.236  22.285  26.426  1.00  0.00     0.039 A 
ATOM     30  C   UNL A   1      40.320  22.122  27.293  1.00  0.00     0.014 A 
ATOM     31  C   UNL A   1      38.765  23.564  26.126  1.00  0.00     0.014 A 
ATOM     32  C   UNL A   1      40.980  23.246  27.795  1.00  0.00     0.010 A 
ATOM     33  C   UNL A   1      39.475  24.681  26.556  1.00  0.00     0.010 A 
ATOM     34  C   UNL A   1      40.589  24.535  27.396  1.00  0.00    -0.014 A 
BRANCH  34  35
ATOM     35  C   UNL A   1      41.336  25.746  27.823  1.00  0.00     0.031 A 
ATOM     36  C   UNL A   1      40.637  26.829  28.600  1.00  0.00     0.074 A 
ATOM     37  C   UNL A   1      42.609  25.922  27.416  1.00  0.00     0.049 A 
ATOM     38  N   UNL A   1      41.082  28.004  28.960  1.00  0.00    -0.248 NA
ATOM     39  C   UNL A   1      39.244  26.567  29.000  1.00  0.00     0.031 C 
ATOM     40  C   UNL A   1      43.377  24.977  26.601  1.00  0.00     0.029 A 
ATOM     41  N   UNL A   1      43.472  26.975  27.599  1.00  0.00    -0.354 N 
ATOM     42  C   UNL A   1      40.018  28.638  29.588  1.00  0.00     0.074 A 
ATOM     43  C   UNL A   1      38.894  27.728  29.534  1.00  0.00     0.031 C 
ATOM     44  C   UNL A   1      44.590  25.493  26.353  1.00  0.00     0.029 A 
ATOM     45  C   UNL A   1      44.676  26.820  26.953  1.00  0.00     0.049 A 
ATOM     46  H   UNL A   1      43.249  27.766  28.144  1.00  0.00     0.167 HD
ATOM     47  C   UNL A   1      39.983  29.857  30.177  1.00  0.00     0.034 A 
ATOM     48  C   UNL A   1      45.725  27.660  26.837  1.00  0.00     0.034 A 
ATOM     49  C   UNL A   1      41.113  30.742  30.261  1.00  0.00     0.049 A 
ATOM     50  C   UNL A   1      45.668  29.000  27.519  1.00  0.00     0.074 A 
ATOM     51  C   UNL A   1      41.205  31.957  30.914  1.00  0.00     0.029 A 
ATOM     52  N   UNL A   1      42.343  30.513  29.666  1.00  0.00    -0.354 N 
ATOM     53  N   UNL A   1      44.702  29.519  28.237  1.00  0.00    -0.248 NA
ATOM     54  C   UNL A   1      46.856  29.859  27.402  1.00  0.00     0.031 C 
ATOM     55  C   UNL A   1      42.479  32.481  30.684  1.00  0.00     0.029 A 
ATOM     56  C   UNL A   1      43.197  31.572  29.922  1.00  0.00     0.049 A 
ATOM     57  H   UNL A   1      42.576  29.715  29.137  1.00  0.00     0.167 HD
ATOM     58  C   UNL A   1      45.179  30.744  28.690  1.00  0.00     0.074 A 
ATOM     59  C   UNL A   1      46.527  30.883  28.178  1.00  0.00     0.031 C 
ATOM     60  C   UNL A   1      44.555  31.673  29.454  1.00  0.00     0.034 A 
BRANCH  47  61
ATOM     61  C   UNL A   1      38.690  30.291  30.817  1.00  0.00     0.023 A 
ATOM     62  C   UNL A   1      38.461  30.025  32.182  1.00  0.00     0.012 A 
ATOM     63  C   UNL A   1      37.729  31.018  30.085  1.00  0.00     0.148 A 
ATOM     64  C   UNL A   1      37.282  30.439  32.800  1.00  0.00     0.002 A 
ATOM     65  C   UNL A   1      36.579  31.471  30.720  1.00  0.00     0.091 A 
ATOM     66  F   UNL A   1      37.956  31.246  28.784  1.00  0.00    -0.205 F 
ATOM     67  C   UNL A   1      36.348  31.172  32.073  1.00  0.00     0.022 A 
BRANCH  65  68
ATOM     68  S   UNL A   1      35.354  32.491  29.894  1.00  0.00     0.127 S 
ATOM     69  O   UNL A   1      34.866  31.584  28.857  1.00  0.00    -0.237 OA
ATOM     70  O   UNL A   1      34.399  32.757  30.971  1.00  0.00    -0.237 OA
ATOM     71  O   UNL A   1      36.067  33.665  29.410  1.00  0.00    -0.744 OA
ENDBRANCH  65  68
ENDBRANCH  47  61
BRANCH  48  72
ATOM     72  C   UNL A   1      46.938  27.237  26.082  1.00  0.00     0.023 A 
ATOM     73  C   UNL A   1      47.868  26.373  26.693  1.00  0.00     0.012 A 
ATOM     74  C   UNL A   1      47.166  27.665  24.760  1.00  0.00     0.148 A 
ATOM     75  C   UNL A   1      49.019  25.970  26.014  1.00  0.00     0.002 A 
ATOM     76  C   UNL A   1      48.284  27.214  24.068  1.00  0.00     0.091 A 
ATOM     77  F   UNL A   1      46.274  28.494  24.199  1.00  0.00    -0.205 F 
ATOM     78  C   UNL A   1      49.222  26.383  24.700  1.00  0.00     0.022 A 
BRANCH  76  79
ATOM     79  S   UNL A   1      48.559  27.585  22.332  1.00  0.00     0.127 S 
ATOM     80  O   UNL A   1      49.836  28.292  22.376  1.00  0.00    -0.237 OA
ATOM     81  O   UNL A   1      48.613  26.246  21.744  1.00  0.00    -0.237 OA
ATOM     82  O   UNL A   1      47.411  28.378  21.913  1.00  0.00    -0.744 OA
ENDBRANCH  76  79
ENDBRANCH  48  72
BRANCH  60  83
ATOM     83  C   UNL A   1      45.327  32.908  29.836  1.00  0.00     0.023 A 
ATOM     84  C   UNL A   1      46.129  32.909  30.994  1.00  0.00     0.012 A 
ATOM     85  C   UNL A   1      45.331  34.035  28.989  1.00  0.00     0.148 A 
ATOM     86  C   UNL A   1      46.905  34.023  31.316  1.00  0.00     0.002 A 
ATOM     87  C   UNL A   1      46.146  35.120  29.290  1.00  0.00     0.091 A 
ATOM     88  F   UNL A   1      44.547  34.018  27.901  1.00  0.00    -0.205 F 
ATOM     89  C   UNL A   1      46.924  35.121  30.458  1.00  0.00     0.022 A 
BRANCH  87  90
ATOM     90  S   UNL A   1      46.313  36.534  28.194  1.00  0.00     0.127 S 
ATOM     91  O   UNL A   1      47.248  37.377  28.937  1.00  0.00    -0.237 OA
ATOM     92  O   UNL A   1      46.870  35.922  26.987  1.00  0.00    -0.237 OA
ATOM     93  O   UNL A   1      44.974  37.082  28.033  1.00  0.00    -0.744 OA
ENDBRANCH  87  90
ENDBRANCH  60  83
ENDBRANCH  34  35
ENDBRANCH  26  29
ENDBRANCH  24  25
ENDBRANCH   1  24
TORSDOF 15
ENDMDL
