MODEL 1
REMARK VINA RESULT:     -12.8      0.000      0.000
REMARK SMILES Cc1cc(Cl)cc2c1O[C@H](C(F)(F)F)C(C(=O)NCCCNC(=O)c1ccc(-c3c4nc(c(-c5cccc(S(=O)(=O)[O-])c5F)c5ccc([nH]5)c(-c5cccc(S(=O)(=O)[O-])c5F)c5nc(c(-c6cccc(S(=O)(=O)[O-])c6F)c6ccc3[nH]6)C=C5)C=C4)cc1)=C2
REMARK SMILES IDX 21 1 20 2 19 3 18 4 16 5 17 6 15 8 1 9 2 10 3 11 8 12 4 13
REMARK SMILES IDX 7 14 9 15 5 16 6 17 88 18 10 19 11 20 12 21 13 22 14 23
REMARK SMILES IDX 22 24 23 25 24 27 25 28 26 29 87 30 27 31 86 32 28 33 29 34
REMARK SMILES IDX 30 35 80 36 31 37 85 38 79 39 81 40 32 41 84 42 78 43 77 44
REMARK SMILES IDX 33 46 65 47 45 48 64 49 46 50 49 51 63 52 82 53 47 54 48 55
REMARK SMILES IDX 62 57 83 58 50 59 34 60 35 61 43 62 36 63 38 64 44 65 37 66
REMARK SMILES IDX 39 67 40 68 41 69 42 70 66 71 67 72 75 73 68 74 70 75 76 76
REMARK SMILES IDX 69 77 71 78 72 79 73 80 74 81 51 82 52 83 60 84 53 85 55 86
REMARK SMILES IDX 61 87 54 88 56 89 57 90 58 91 59 92
REMARK H PARENT 18 7 22 26 81 45 49 56
REMARK Flexibility Score: inf
ROOT
ATOM      1  C   UNL A   1      33.034  28.977  25.346  1.00  0.00     0.118 C 
ENDROOT
BRANCH   1   2
ATOM      2  C   UNL A   1      33.235  28.875  23.840  1.00  0.00     0.042 C 
BRANCH   2   3
ATOM      3  C   UNL A   1      32.084  28.155  23.157  1.00  0.00     0.118 C 
BRANCH   3   4
ATOM      4  N   UNL A   1      32.542  27.288  22.080  1.00  0.00    -0.352 N 
ATOM      5  C   UNL A   1      33.040  26.035  21.961  1.00  0.00     0.251 C 
ATOM      6  O   UNL A   1      33.278  25.669  20.804  1.00  0.00    -0.270 OA
ATOM      7  H   UNL A   1      32.468  27.731  21.205  1.00  0.00     0.163 HD
BRANCH   5   8
ATOM      8  C   UNL A   1      33.295  25.104  23.097  1.00  0.00     0.067 C 
ATOM      9  C   UNL A   1      33.297  22.542  27.525  1.00  0.00     0.048 C 
ATOM     10  C   UNL A   1      34.201  22.572  26.325  1.00  0.00    -0.007 A 
ATOM     11  C   UNL A   1      35.298  21.710  26.228  1.00  0.00     0.027 A 
ATOM     12  C   UNL A   1      33.944  23.455  25.267  1.00  0.00     0.131 A 
ATOM     13  C   UNL A   1      36.120  21.747  25.101  1.00  0.00     0.042 A 
ATOM     14  C   UNL A   1      34.763  23.493  24.135  1.00  0.00     0.019 A 
ATOM     15  O   UNL A   1      32.884  24.303  25.419  1.00  0.00    -0.475 OA
ATOM     16  Cl  UNL A   1      37.470  20.683  25.000  1.00  0.00    -0.084 Cl
ATOM     17  C   UNL A   1      35.861  22.634  24.055  1.00  0.00     0.032 A 
ATOM     18  C   UNL A   1      34.470  24.446  23.071  1.00  0.00     0.025 C 
ATOM     19  C   UNL A   1      32.315  24.853  24.206  1.00  0.00     0.314 C 
BRANCH  19  20
ATOM     20  C   UNL A   1      31.133  23.971  23.763  1.00  0.00     0.429 C 
ATOM     21  F   UNL A   1      31.515  23.120  22.777  1.00  0.00    -0.167 F 
ATOM     22  F   UNL A   1      30.645  23.200  24.765  1.00  0.00    -0.167 F 
ATOM     23  F   UNL A   1      30.091  24.692  23.289  1.00  0.00    -0.167 F 
ENDBRANCH  19  20
ENDBRANCH   5   8
ENDBRANCH   3   4
ENDBRANCH   2   3
ENDBRANCH   1   2
BRANCH   1  24
ATOM     24  N   UNL A   1      32.571  30.306  25.741  1.00  0.00    -0.352 N 
ATOM     25  C   UNL A   1      32.973  31.109  26.777  1.00  0.00     0.251 C 
ATOM     26  H   UNL A   1      31.860  30.684  25.174  1.00  0.00     0.163 HD
ATOM     27  O   UNL A   1      32.270  32.060  27.118  1.00  0.00    -0.269 OA
BRANCH  25  28
ATOM     28  C   UNL A   1      34.242  30.834  27.474  1.00  0.00     0.039 A 
ATOM     29  C   UNL A   1      35.180  31.856  27.632  1.00  0.00     0.014 A 
ATOM     30  C   UNL A   1      34.511  29.550  27.953  1.00  0.00     0.014 A 
ATOM     31  C   UNL A   1      36.363  31.601  28.328  1.00  0.00     0.010 A 
ATOM     32  C   UNL A   1      35.637  29.326  28.733  1.00  0.00     0.010 A 
ATOM     33  C   UNL A   1      36.585  30.342  28.910  1.00  0.00    -0.014 A 
BRANCH  33  34
ATOM     34  C   UNL A   1      37.812  30.049  29.688  1.00  0.00     0.031 A 
ATOM     35  C   UNL A   1      38.855  29.128  29.118  1.00  0.00     0.074 A 
ATOM     36  C   UNL A   1      37.944  30.547  30.933  1.00  0.00     0.049 A 
ATOM     37  N   UNL A   1      39.962  28.702  29.666  1.00  0.00    -0.248 NA
ATOM     38  C   UNL A   1      38.611  28.586  27.769  1.00  0.00     0.031 C 
ATOM     39  C   UNL A   1      36.959  31.388  31.616  1.00  0.00     0.029 A 
ATOM     40  N   UNL A   1      38.950  30.401  31.854  1.00  0.00    -0.354 N 
ATOM     41  C   UNL A   1      40.526  27.826  28.746  1.00  0.00     0.074 A 
ATOM     42  C   UNL A   1      39.617  27.737  27.627  1.00  0.00     0.031 C 
ATOM     43  C   UNL A   1      37.419  31.702  32.837  1.00  0.00     0.029 A 
ATOM     44  C   UNL A   1      38.713  31.057  33.039  1.00  0.00     0.049 A 
ATOM     45  H   UNL A   1      39.766  29.877  31.682  1.00  0.00     0.167 HD
ATOM     46  C   UNL A   1      41.716  27.185  28.809  1.00  0.00     0.034 A 
ATOM     47  C   UNL A   1      39.457  31.132  34.160  1.00  0.00     0.034 A 
ATOM     48  C   UNL A   1      42.638  27.323  29.902  1.00  0.00     0.049 A 
ATOM     49  C   UNL A   1      40.791  30.435  34.192  1.00  0.00     0.074 A 
ATOM     50  C   UNL A   1      43.906  26.785  30.026  1.00  0.00     0.029 A 
ATOM     51  N   UNL A   1      42.396  28.052  31.055  1.00  0.00    -0.354 N 
ATOM     52  N   UNL A   1      41.375  29.731  33.252  1.00  0.00    -0.248 NA
ATOM     53  C   UNL A   1      41.585  30.568  35.422  1.00  0.00     0.031 C 
ATOM     54  C   UNL A   1      44.419  27.167  31.267  1.00  0.00     0.029 A 
ATOM     55  C   UNL A   1      43.484  27.969  31.904  1.00  0.00     0.049 A 
ATOM     56  H   UNL A   1      41.570  28.555  31.243  1.00  0.00     0.167 HD
ATOM     57  C   UNL A   1      42.613  29.361  33.765  1.00  0.00     0.074 A 
ATOM     58  C   UNL A   1      42.705  29.941  35.089  1.00  0.00     0.031 C 
ATOM     59  C   UNL A   1      43.578  28.594  33.198  1.00  0.00     0.034 A 
BRANCH  46  60
ATOM     60  C   UNL A   1      42.125  26.335  27.634  1.00  0.00     0.023 A 
ATOM     61  C   UNL A   1      42.965  26.884  26.643  1.00  0.00     0.012 A 
ATOM     62  C   UNL A   1      41.753  24.980  27.551  1.00  0.00     0.148 A 
ATOM     63  C   UNL A   1      43.407  26.106  25.574  1.00  0.00     0.002 A 
ATOM     64  C   UNL A   1      42.238  24.197  26.509  1.00  0.00     0.091 A 
ATOM     65  F   UNL A   1      40.937  24.481  28.491  1.00  0.00    -0.205 F 
ATOM     66  C   UNL A   1      43.055  24.762  25.515  1.00  0.00     0.022 A 
BRANCH  64  67
ATOM     67  S   UNL A   1      41.918  22.434  26.386  1.00  0.00     0.127 S 
ATOM     68  O   UNL A   1      42.653  22.086  25.171  1.00  0.00    -0.237 OA
ATOM     69  O   UNL A   1      42.514  21.929  27.623  1.00  0.00    -0.237 OA
ATOM     70  O   UNL A   1      40.472  22.290  26.300  1.00  0.00    -0.744 OA
ENDBRANCH  64  67
ENDBRANCH  46  60
BRANCH  47  71
ATOM     71  C   UNL A   1      38.991  31.969  35.303  1.00  0.00     0.023 A 
ATOM     72  C   UNL A   1      39.070  33.371  35.205  1.00  0.00     0.012 A 
ATOM     73  C   UNL A   1      38.412  31.394  36.452  1.00  0.00     0.148 A 
ATOM     74  C   UNL A   1      38.605  34.186  36.238  1.00  0.00     0.002 A 
ATOM     75  C   UNL A   1      37.897  32.213  37.451  1.00  0.00     0.091 A 
ATOM     76  F   UNL A   1      38.354  30.057  36.531  1.00  0.00    -0.205 F 
ATOM     77  C   UNL A   1      38.007  33.608  37.354  1.00  0.00     0.022 A 
BRANCH  75  78
ATOM     78  S   UNL A   1      36.982  31.564  38.855  1.00  0.00     0.127 S 
ATOM     79  O   UNL A   1      37.926  31.769  39.949  1.00  0.00    -0.237 OA
ATOM     80  O   UNL A   1      35.810  32.440  38.878  1.00  0.00    -0.237 OA
ATOM     81  O   UNL A   1      36.686  30.176  38.527  1.00  0.00    -0.744 OA
ENDBRANCH  75  78
ENDBRANCH  47  71
BRANCH  59  82
ATOM     82  C   UNL A   1      44.832  28.334  33.992  1.00  0.00     0.023 A 
ATOM     83  C   UNL A   1      45.867  29.287  33.987  1.00  0.00     0.012 A 
ATOM     84  C   UNL A   1      44.926  27.212  34.840  1.00  0.00     0.148 A 
ATOM     85  C   UNL A   1      46.988  29.121  34.799  1.00  0.00     0.002 A 
ATOM     86  C   UNL A   1      46.020  27.080  35.687  1.00  0.00     0.091 A 
ATOM     87  F   UNL A   1      43.934  26.309  34.820  1.00  0.00    -0.205 F 
ATOM     88  C   UNL A   1      47.056  28.028  35.659  1.00  0.00     0.022 A 
BRANCH  86  89
ATOM     89  S   UNL A   1      46.145  25.768  36.908  1.00  0.00     0.127 S 
ATOM     90  O   UNL A   1      44.934  25.983  37.700  1.00  0.00    -0.237 OA
ATOM     91  O   UNL A   1      46.122  24.566  36.073  1.00  0.00    -0.237 OA
ATOM     92  O   UNL A   1      47.398  25.992  37.615  1.00  0.00    -0.744 OA
ENDBRANCH  86  89
ENDBRANCH  59  82
ENDBRANCH  33  34
ENDBRANCH  25  28
ENDBRANCH   1  24
TORSDOF 14
ENDMDL
MODEL 2
REMARK VINA RESULT:     -12.7      1.313      1.692
REMARK SMILES Cc1cc(Cl)cc2c1O[C@H](C(F)(F)F)C(C(=O)NCCCNC(=O)c1ccc(-c3c4nc(c(-c5cccc(S(=O)(=O)[O-])c5F)c5ccc([nH]5)c(-c5cccc(S(=O)(=O)[O-])c5F)c5nc(c(-c6cccc(S(=O)(=O)[O-])c6F)c6ccc3[nH]6)C=C5)C=C4)cc1)=C2
REMARK SMILES IDX 21 1 20 2 19 3 18 4 16 5 17 6 15 8 1 9 2 10 3 11 8 12 4 13
REMARK SMILES IDX 7 14 9 15 5 16 6 17 88 18 10 19 11 20 12 21 13 22 14 23
REMARK SMILES IDX 22 24 23 25 24 27 25 28 26 29 87 30 27 31 86 32 28 33 29 34
REMARK SMILES IDX 30 35 80 36 31 37 85 38 79 39 81 40 32 41 84 42 78 43 77 44
REMARK SMILES IDX 33 46 65 47 45 48 64 49 46 50 49 51 63 52 82 53 47 54 48 55
REMARK SMILES IDX 62 57 83 58 50 59 34 60 35 61 43 62 36 63 38 64 44 65 37 66
REMARK SMILES IDX 39 67 40 68 41 69 42 70 66 71 67 72 75 73 68 74 70 75 76 76
REMARK SMILES IDX 69 77 71 78 72 79 73 80 74 81 51 82 52 83 60 84 53 85 55 86
REMARK SMILES IDX 61 87 54 88 56 89 57 90 58 91 59 92
REMARK H PARENT 18 7 22 26 81 45 49 56
REMARK Flexibility Score: inf
ROOT
ATOM      1  C   UNL A   1      33.063  29.019  25.453  1.00  0.00     0.118 C 
ENDROOT
BRANCH   1   2
ATOM      2  C   UNL A   1      33.252  28.896  23.947  1.00  0.00     0.042 C 
BRANCH   2   3
ATOM      3  C   UNL A   1      32.100  28.160  23.284  1.00  0.00     0.118 C 
BRANCH   3   4
ATOM      4  N   UNL A   1      32.549  27.314  22.187  1.00  0.00    -0.352 N 
ATOM      5  C   UNL A   1      33.047  26.063  22.040  1.00  0.00     0.251 C 
ATOM      6  O   UNL A   1      33.275  25.719  20.875  1.00  0.00    -0.270 OA
ATOM      7  H   UNL A   1      32.468  27.773  21.321  1.00  0.00     0.163 HD
BRANCH   5   8
ATOM      8  C   UNL A   1      33.311  25.111  23.157  1.00  0.00     0.067 C 
ATOM      9  C   UNL A   1      33.328  22.445  27.523  1.00  0.00     0.048 C 
ATOM     10  C   UNL A   1      34.242  22.525  26.334  1.00  0.00    -0.007 A 
ATOM     11  C   UNL A   1      35.360  21.690  26.228  1.00  0.00     0.027 A 
ATOM     12  C   UNL A   1      33.976  23.426  25.294  1.00  0.00     0.131 A 
ATOM     13  C   UNL A   1      36.192  21.773  25.111  1.00  0.00     0.042 A 
ATOM     14  C   UNL A   1      34.805  23.510  24.172  1.00  0.00     0.019 A 
ATOM     15  O   UNL A   1      32.895  24.246  25.455  1.00  0.00    -0.475 OA
ATOM     16  Cl  UNL A   1      37.567  20.742  24.999  1.00  0.00    -0.084 Cl
ATOM     17  C   UNL A   1      35.923  22.678  24.084  1.00  0.00     0.032 A 
ATOM     18  C   UNL A   1      34.501  24.481  23.128  1.00  0.00     0.025 C 
ATOM     19  C   UNL A   1      32.326  24.812  24.250  1.00  0.00     0.314 C 
BRANCH  19  20
ATOM     20  C   UNL A   1      31.169  23.914  23.773  1.00  0.00     0.429 C 
ATOM     21  F   UNL A   1      30.651  23.212  24.812  1.00  0.00    -0.167 F 
ATOM     22  F   UNL A   1      30.142  24.617  23.237  1.00  0.00    -0.167 F 
ATOM     23  F   UNL A   1      31.554  23.019  22.836  1.00  0.00    -0.167 F 
ENDBRANCH  19  20
ENDBRANCH   5   8
ENDBRANCH   3   4
ENDBRANCH   2   3
ENDBRANCH   1   2
BRANCH   1  24
ATOM     24  N   UNL A   1      32.642  30.366  25.838  1.00  0.00    -0.352 N 
ATOM     25  C   UNL A   1      33.079  31.169  26.860  1.00  0.00     0.251 C 
ATOM     26  H   UNL A   1      31.937  30.757  25.274  1.00  0.00     0.163 HD
ATOM     27  O   UNL A   1      32.408  32.143  27.197  1.00  0.00    -0.269 OA
BRANCH  25  28
ATOM     28  C   UNL A   1      34.347  30.864  27.547  1.00  0.00     0.039 A 
ATOM     29  C   UNL A   1      35.312  31.863  27.690  1.00  0.00     0.014 A 
ATOM     30  C   UNL A   1      34.587  29.577  28.031  1.00  0.00     0.014 A 
ATOM     31  C   UNL A   1      36.495  31.581  28.377  1.00  0.00     0.010 A 
ATOM     32  C   UNL A   1      35.714  29.328  28.802  1.00  0.00     0.010 A 
ATOM     33  C   UNL A   1      36.689  30.320  28.964  1.00  0.00    -0.014 A 
BRANCH  33  34
ATOM     34  C   UNL A   1      37.915  30.001  29.732  1.00  0.00     0.031 A 
ATOM     35  C   UNL A   1      38.928  29.047  29.160  1.00  0.00     0.074 A 
ATOM     36  C   UNL A   1      38.074  30.505  30.972  1.00  0.00     0.049 A 
ATOM     37  N   UNL A   1      40.028  28.595  29.701  1.00  0.00    -0.248 NA
ATOM     38  C   UNL A   1      38.655  28.500  27.818  1.00  0.00     0.031 C 
ATOM     39  C   UNL A   1      37.119  31.378  31.657  1.00  0.00     0.029 A 
ATOM     40  N   UNL A   1      39.084  30.339  31.884  1.00  0.00    -0.354 N 
ATOM     41  C   UNL A   1      40.559  27.696  28.783  1.00  0.00     0.074 A 
ATOM     42  C   UNL A   1      39.637  27.623  27.674  1.00  0.00     0.031 C 
ATOM     43  C   UNL A   1      37.599  31.688  32.872  1.00  0.00     0.029 A 
ATOM     44  C   UNL A   1      38.877  31.010  33.066  1.00  0.00     0.049 A 
ATOM     45  H   UNL A   1      39.884  29.791  31.709  1.00  0.00     0.167 HD
ATOM     46  C   UNL A   1      41.731  27.023  28.839  1.00  0.00     0.034 A 
ATOM     47  C   UNL A   1      39.634  31.075  34.179  1.00  0.00     0.034 A 
ATOM     48  C   UNL A   1      42.668  27.145  29.922  1.00  0.00     0.049 A 
ATOM     49  C   UNL A   1      40.949  30.341  34.204  1.00  0.00     0.074 A 
ATOM     50  C   UNL A   1      43.921  26.573  30.039  1.00  0.00     0.029 A 
ATOM     51  N   UNL A   1      42.457  27.890  31.071  1.00  0.00    -0.354 N 
ATOM     52  N   UNL A   1      41.504  29.614  33.265  1.00  0.00    -0.248 NA
ATOM     53  C   UNL A   1      41.758  30.463  35.425  1.00  0.00     0.031 C 
ATOM     54  C   UNL A   1      44.457  26.951  31.272  1.00  0.00     0.029 A 
ATOM     55  C   UNL A   1      43.551  27.784  31.910  1.00  0.00     0.049 A 
ATOM     56  H   UNL A   1      41.647  28.417  31.263  1.00  0.00     0.167 HD
ATOM     57  C   UNL A   1      42.737  29.214  33.768  1.00  0.00     0.074 A 
ATOM     58  C   UNL A   1      42.858  29.802  35.086  1.00  0.00     0.031 C 
ATOM     59  C   UNL A   1      43.674  28.417  33.199  1.00  0.00     0.034 A 
BRANCH  46  60
ATOM     60  C   UNL A   1      42.105  26.154  27.668  1.00  0.00     0.023 A 
ATOM     61  C   UNL A   1      42.911  26.687  26.640  1.00  0.00     0.012 A 
ATOM     62  C   UNL A   1      41.736  24.795  27.622  1.00  0.00     0.148 A 
ATOM     63  C   UNL A   1      43.321  25.891  25.572  1.00  0.00     0.002 A 
ATOM     64  C   UNL A   1      42.190  23.995  26.580  1.00  0.00     0.091 A 
ATOM     65  F   UNL A   1      40.953  24.312  28.597  1.00  0.00    -0.205 F 
ATOM     66  C   UNL A   1      42.972  24.544  25.549  1.00  0.00     0.022 A 
BRANCH  64  67
ATOM     67  S   UNL A   1      41.873  22.229  26.500  1.00  0.00     0.127 S 
ATOM     68  O   UNL A   1      40.420  22.198  26.337  1.00  0.00    -0.237 OA
ATOM     69  O   UNL A   1      42.628  21.837  25.309  1.00  0.00    -0.237 OA
ATOM     70  O   UNL A   1      42.370  21.672  27.749  1.00  0.00    -0.744 OA
ENDBRANCH  64  67
ENDBRANCH  46  60
BRANCH  47  71
ATOM     71  C   UNL A   1      39.202  31.933  35.319  1.00  0.00     0.023 A 
ATOM     72  C   UNL A   1      38.359  31.389  36.307  1.00  0.00     0.012 A 
ATOM     73  C   UNL A   1      39.668  33.254  35.467  1.00  0.00     0.148 A 
ATOM     74  C   UNL A   1      37.968  32.151  37.409  1.00  0.00     0.002 A 
ATOM     75  C   UNL A   1      39.323  33.988  36.597  1.00  0.00     0.091 A 
ATOM     76  F   UNL A   1      40.462  33.758  34.511  1.00  0.00    -0.205 F 
ATOM     77  C   UNL A   1      38.460  33.444  37.561  1.00  0.00     0.022 A 
BRANCH  75  78
ATOM     78  S   UNL A   1      40.023  35.605  36.950  1.00  0.00     0.127 S 
ATOM     79  O   UNL A   1      39.387  35.936  38.222  1.00  0.00    -0.237 OA
ATOM     80  O   UNL A   1      41.452  35.301  37.035  1.00  0.00    -0.237 OA
ATOM     81  O   UNL A   1      39.655  36.450  35.822  1.00  0.00    -0.744 OA
ENDBRANCH  75  78
ENDBRANCH  47  71
BRANCH  59  82
ATOM     82  C   UNL A   1      44.928  28.129  33.983  1.00  0.00     0.023 A 
ATOM     83  C   UNL A   1      46.016  29.018  33.903  1.00  0.00     0.012 A 
ATOM     84  C   UNL A   1      44.977  27.053  34.892  1.00  0.00     0.148 A 
ATOM     85  C   UNL A   1      47.144  28.833  34.702  1.00  0.00     0.002 A 
ATOM     86  C   UNL A   1      46.080  26.905  35.724  1.00  0.00     0.091 A 
ATOM     87  F   UNL A   1      43.935  26.210  34.942  1.00  0.00    -0.205 F 
ATOM     88  C   UNL A   1      47.168  27.787  35.622  1.00  0.00     0.022 A 
BRANCH  86  89
ATOM     89  S   UNL A   1      46.157  25.659  37.015  1.00  0.00     0.127 S 
ATOM     90  O   UNL A   1      47.565  25.720  37.404  1.00  0.00    -0.237 OA
ATOM     91  O   UNL A   1      45.226  26.190  38.011  1.00  0.00    -0.237 OA
ATOM     92  O   UNL A   1      45.736  24.409  36.397  1.00  0.00    -0.744 OA
ENDBRANCH  86  89
ENDBRANCH  59  82
ENDBRANCH  33  34
ENDBRANCH  25  28
ENDBRANCH   1  24
TORSDOF 14
ENDMDL
MODEL 3
REMARK VINA RESULT:     -12.7      2.383      3.240
REMARK SMILES Cc1cc(Cl)cc2c1O[C@H](C(F)(F)F)C(C(=O)NCCCNC(=O)c1ccc(-c3c4nc(c(-c5cccc(S(=O)(=O)[O-])c5F)c5ccc([nH]5)c(-c5cccc(S(=O)(=O)[O-])c5F)c5nc(c(-c6cccc(S(=O)(=O)[O-])c6F)c6ccc3[nH]6)C=C5)C=C4)cc1)=C2
REMARK SMILES IDX 21 1 20 2 19 3 18 4 16 5 17 6 15 8 1 9 2 10 3 11 8 12 4 13
REMARK SMILES IDX 7 14 9 15 5 16 6 17 88 18 10 19 11 20 12 21 13 22 14 23
REMARK SMILES IDX 22 24 23 25 24 27 25 28 26 29 87 30 27 31 86 32 28 33 29 34
REMARK SMILES IDX 30 35 80 36 31 37 85 38 79 39 81 40 32 41 84 42 78 43 77 44
REMARK SMILES IDX 33 46 65 47 45 48 64 49 46 50 49 51 63 52 82 53 47 54 48 55
REMARK SMILES IDX 62 57 83 58 50 59 34 60 35 61 43 62 36 63 38 64 44 65 37 66
REMARK SMILES IDX 39 67 40 68 41 69 42 70 66 71 67 72 75 73 68 74 70 75 76 76
REMARK SMILES IDX 69 77 71 78 72 79 73 80 74 81 51 82 52 83 60 84 53 85 55 86
REMARK SMILES IDX 61 87 54 88 56 89 57 90 58 91 59 92
REMARK H PARENT 18 7 22 26 81 45 49 56
REMARK Flexibility Score: inf
ROOT
ATOM      1  C   UNL A   1      32.798  32.522  27.265  1.00  0.00     0.118 C 
ENDROOT
BRANCH   1   2
ATOM      2  C   UNL A   1      31.569  31.975  26.552  1.00  0.00     0.042 C 
BRANCH   2   3
ATOM      3  C   UNL A   1      31.647  30.471  26.350  1.00  0.00     0.118 C 
BRANCH   3   4
ATOM      4  N   UNL A   1      32.299  30.118  25.097  1.00  0.00    -0.352 N 
ATOM      5  C   UNL A   1      32.613  28.984  24.429  1.00  0.00     0.251 C 
ATOM      6  O   UNL A   1      33.165  29.151  23.335  1.00  0.00    -0.270 OA
ATOM      7  H   UNL A   1      32.590  30.919  24.604  1.00  0.00     0.163 HD
BRANCH   5   8
ATOM      8  C   UNL A   1      32.331  27.601  24.910  1.00  0.00     0.067 C 
ATOM      9  C   UNL A   1      30.270  23.306  26.775  1.00  0.00     0.048 C 
ATOM     10  C   UNL A   1      31.666  23.741  26.429  1.00  0.00    -0.007 A 
ATOM     11  C   UNL A   1      32.742  22.853  26.527  1.00  0.00     0.027 A 
ATOM     12  C   UNL A   1      31.910  25.045  25.978  1.00  0.00     0.131 A 
ATOM     13  C   UNL A   1      34.030  23.273  26.192  1.00  0.00     0.042 A 
ATOM     14  C   UNL A   1      33.199  25.469  25.638  1.00  0.00     0.019 A 
ATOM     15  O   UNL A   1      30.837  25.889  25.931  1.00  0.00    -0.475 OA
ATOM     16  Cl  UNL A   1      35.344  22.168  26.324  1.00  0.00    -0.084 Cl
ATOM     17  C   UNL A   1      34.265  24.575  25.751  1.00  0.00     0.032 A 
ATOM     18  C   UNL A   1      33.406  26.844  25.197  1.00  0.00     0.025 C 
ATOM     19  C   UNL A   1      30.950  27.031  25.046  1.00  0.00     0.314 C 
BRANCH  19  20
ATOM     20  C   UNL A   1      30.320  26.674  23.686  1.00  0.00     0.429 C 
ATOM     21  F   UNL A   1      29.577  27.708  23.218  1.00  0.00    -0.167 F 
ATOM     22  F   UNL A   1      31.244  26.403  22.732  1.00  0.00    -0.167 F 
ATOM     23  F   UNL A   1      29.508  25.594  23.754  1.00  0.00    -0.167 F 
ENDBRANCH  19  20
ENDBRANCH   5   8
ENDBRANCH   3   4
ENDBRANCH   2   3
ENDBRANCH   1   2
BRANCH   1  24
ATOM     24  N   UNL A   1      32.631  33.929  27.628  1.00  0.00    -0.352 N 
ATOM     25  C   UNL A   1      33.152  34.637  28.680  1.00  0.00     0.251 C 
ATOM     26  H   UNL A   1      32.056  34.449  27.021  1.00  0.00     0.163 HD
ATOM     27  O   UNL A   1      32.669  35.729  28.977  1.00  0.00    -0.269 OA
BRANCH  25  28
ATOM     28  C   UNL A   1      34.286  34.091  29.447  1.00  0.00     0.039 A 
ATOM     29  C   UNL A   1      34.043  33.308  30.577  1.00  0.00     0.014 A 
ATOM     30  C   UNL A   1      35.596  34.377  29.056  1.00  0.00     0.014 A 
ATOM     31  C   UNL A   1      35.119  32.760  31.277  1.00  0.00     0.010 A 
ATOM     32  C   UNL A   1      36.658  33.748  29.689  1.00  0.00     0.010 A 
ATOM     33  C   UNL A   1      36.433  32.952  30.819  1.00  0.00    -0.014 A 
BRANCH  33  34
ATOM     34  C   UNL A   1      37.595  32.352  31.516  1.00  0.00     0.031 A 
ATOM     35  C   UNL A   1      38.342  31.213  30.879  1.00  0.00     0.074 A 
ATOM     36  C   UNL A   1      37.922  32.780  32.751  1.00  0.00     0.049 A 
ATOM     37  N   UNL A   1      39.341  30.517  31.354  1.00  0.00    -0.248 NA
ATOM     38  C   UNL A   1      37.889  30.772  29.547  1.00  0.00     0.031 C 
ATOM     39  C   UNL A   1      37.219  33.825  33.498  1.00  0.00     0.029 A 
ATOM     40  N   UNL A   1      38.915  32.374  33.606  1.00  0.00    -0.354 N 
ATOM     41  C   UNL A   1      39.614  29.546  30.399  1.00  0.00     0.074 A 
ATOM     42  C   UNL A   1      38.644  29.704  29.340  1.00  0.00     0.031 C 
ATOM     43  C   UNL A   1      37.816  33.994  34.688  1.00  0.00     0.029 A 
ATOM     44  C   UNL A   1      38.921  33.047  34.805  1.00  0.00     0.049 A 
ATOM     45  H   UNL A   1      39.564  31.668  33.382  1.00  0.00     0.167 HD
ATOM     46  C   UNL A   1      40.610  28.631  30.384  1.00  0.00     0.034 A 
ATOM     47  C   UNL A   1      39.727  32.917  35.877  1.00  0.00     0.034 A 
ATOM     48  C   UNL A   1      41.603  28.518  31.416  1.00  0.00     0.049 A 
ATOM     49  C   UNL A   1      40.847  31.912  35.822  1.00  0.00     0.074 A 
ATOM     50  C   UNL A   1      42.704  27.682  31.458  1.00  0.00     0.029 A 
ATOM     51  N   UNL A   1      41.619  29.264  32.584  1.00  0.00    -0.354 N 
ATOM     52  N   UNL A   1      41.181  31.103  34.846  1.00  0.00    -0.248 NA
ATOM     53  C   UNL A   1      41.723  31.824  36.999  1.00  0.00     0.031 C 
ATOM     54  C   UNL A   1      43.371  27.904  32.665  1.00  0.00     0.029 A 
ATOM     55  C   UNL A   1      42.703  28.900  33.362  1.00  0.00     0.049 A 
ATOM     56  H   UNL A   1      40.956  29.951  32.825  1.00  0.00     0.167 HD
ATOM     57  C   UNL A   1      42.318  30.430  35.278  1.00  0.00     0.074 A 
ATOM     58  C   UNL A   1      42.632  30.946  36.594  1.00  0.00     0.031 C 
ATOM     59  C   UNL A   1      43.027  29.460  34.649  1.00  0.00     0.034 A 
BRANCH  46  60
ATOM     60  C   UNL A   1      40.724  27.728  29.184  1.00  0.00     0.023 A 
ATOM     61  C   UNL A   1      39.885  26.599  29.086  1.00  0.00     0.012 A 
ATOM     62  C   UNL A   1      41.593  28.037  28.119  1.00  0.00     0.148 A 
ATOM     63  C   UNL A   1      39.926  25.777  27.961  1.00  0.00     0.002 A 
ATOM     64  C   UNL A   1      41.593  27.241  26.980  1.00  0.00     0.091 A 
ATOM     65  F   UNL A   1      42.398  29.102  28.239  1.00  0.00    -0.205 F 
ATOM     66  C   UNL A   1      40.770  26.105  26.905  1.00  0.00     0.022 A 
BRANCH  64  67
ATOM     67  S   UNL A   1      42.576  27.624  25.526  1.00  0.00     0.127 S 
ATOM     68  O   UNL A   1      43.924  27.686  26.090  1.00  0.00    -0.237 OA
ATOM     69  O   UNL A   1      42.325  26.461  24.674  1.00  0.00    -0.237 OA
ATOM     70  O   UNL A   1      42.061  28.883  25.010  1.00  0.00    -0.744 OA
ENDBRANCH  64  67
ENDBRANCH  46  60
BRANCH  47  71
ATOM     71  C   UNL A   1      39.553  33.822  37.049  1.00  0.00     0.023 A 
ATOM     72  C   UNL A   1      39.941  35.171  36.939  1.00  0.00     0.012 A 
ATOM     73  C   UNL A   1      38.949  33.378  38.242  1.00  0.00     0.148 A 
ATOM     74  C   UNL A   1      39.754  36.056  38.001  1.00  0.00     0.002 A 
ATOM     75  C   UNL A   1      38.712  34.278  39.275  1.00  0.00     0.091 A 
ATOM     76  F   UNL A   1      38.595  32.088  38.332  1.00  0.00    -0.205 F 
ATOM     77  C   UNL A   1      39.129  35.614  39.164  1.00  0.00     0.022 A 
BRANCH  75  78
ATOM     78  S   UNL A   1      37.784  33.835  40.749  1.00  0.00     0.127 S 
ATOM     79  O   UNL A   1      38.709  32.930  41.425  1.00  0.00    -0.237 OA
ATOM     80  O   UNL A   1      37.610  35.137  41.395  1.00  0.00    -0.237 OA
ATOM     81  O   UNL A   1      36.547  33.233  40.271  1.00  0.00    -0.744 OA
ENDBRANCH  75  78
ENDBRANCH  47  71
BRANCH  59  82
ATOM     82  C   UNL A   1      44.224  28.885  35.361  1.00  0.00     0.023 A 
ATOM     83  C   UNL A   1      45.487  29.483  35.189  1.00  0.00     0.012 A 
ATOM     84  C   UNL A   1      44.073  27.840  36.294  1.00  0.00     0.148 A 
ATOM     85  C   UNL A   1      46.587  29.038  35.922  1.00  0.00     0.002 A 
ATOM     86  C   UNL A   1      45.160  27.438  37.060  1.00  0.00     0.091 A 
ATOM     87  F   UNL A   1      42.863  27.276  36.432  1.00  0.00    -0.205 F 
ATOM     88  C   UNL A   1      46.420  28.028  36.866  1.00  0.00     0.022 A 
BRANCH  86  89
ATOM     89  S   UNL A   1      45.020  26.225  38.378  1.00  0.00     0.127 S 
ATOM     90  O   UNL A   1      46.355  26.278  38.973  1.00  0.00    -0.237 OA
ATOM     91  O   UNL A   1      43.958  26.795  39.209  1.00  0.00    -0.237 OA
ATOM     92  O   UNL A   1      44.676  24.965  37.734  1.00  0.00    -0.744 OA
ENDBRANCH  86  89
ENDBRANCH  59  82
ENDBRANCH  33  34
ENDBRANCH  25  28
ENDBRANCH   1  24
TORSDOF 14
ENDMDL
