MODEL 1
REMARK VINA RESULT:     -13.1      0.000      0.000
REMARK SMILES Cc1nn(C)cc1C[NH+]1CCN(C(=O)Cn2ccc(C(=O)NCCCNC(=O)c3ccc(-c4c5nc(c(-c6cccc(S(=O)(=O)[O-])c6F)c6ccc([nH]6)c(-c6cccc(S(=O)(=O)[O-])c6F)c6nc(c(-c7cccc(S(=O)(=O)[O-])c7F)c7ccc4[nH]7)C=C6)C=C5)cc3)n2)CC1
REMARK SMILES IDX 23 1 22 2 20 3 21 4 19 6 16 7 17 8 92 9 18 10 15 11 13 12
REMARK SMILES IDX 9 13 10 14 94 15 11 17 93 18 12 19 14 20 8 21 7 22 1 23 2 24
REMARK SMILES IDX 3 25 4 26 6 27 5 28 24 29 25 30 26 31 27 32 28 34 29 35
REMARK SMILES IDX 30 36 91 37 31 38 90 39 32 40 33 41 34 42 84 43 35 44 89 45
REMARK SMILES IDX 83 46 85 47 36 48 88 49 82 50 81 51 37 53 69 54 49 55 68 56
REMARK SMILES IDX 50 57 53 58 67 59 86 60 51 61 52 62 66 64 87 65 54 66 38 67
REMARK SMILES IDX 39 68 47 69 40 70 42 71 48 72 41 73 43 74 44 75 45 76 46 77
REMARK SMILES IDX 70 78 71 79 79 80 72 81 74 82 80 83 73 84 75 85 76 86 77 87
REMARK SMILES IDX 78 88 55 89 56 90 64 91 57 92 59 93 65 94 58 95 60 96 61 97
REMARK SMILES IDX 62 98 63 99
REMARK H PARENT 22 5 9 16 26 33 85 52 53 63
REMARK Flexibility Score: inf
ROOT
ATOM      1  C   UNL A   1      36.764  20.429  24.762  1.00  0.00     0.118 C 
ENDROOT
BRANCH   1   2
ATOM      2  N   UNL A   1      35.473  19.900  25.153  1.00  0.00    -0.351 N 
ATOM      3  C   UNL A   1      34.206  20.414  24.985  1.00  0.00     0.271 C 
ATOM      4  O   UNL A   1      33.264  19.655  25.212  1.00  0.00    -0.267 OA
ATOM      5  H   UNL A   1      35.507  19.030  25.615  1.00  0.00     0.163 HD
BRANCH   3   6
ATOM      6  C   UNL A   1      34.002  21.802  24.525  1.00  0.00     0.150 A 
ATOM      7  N   UNL A   1      34.014  23.942  24.643  1.00  0.00    -0.263 N 
ATOM      8  C   UNL A   1      33.538  23.675  23.396  1.00  0.00     0.110 A 
ATOM      9  N   UNL A   1      34.304  22.834  25.340  1.00  0.00    -0.167 NA
ATOM     10  C   UNL A   1      33.546  22.307  23.277  1.00  0.00     0.056 A 
BRANCH   7  11
ATOM     11  C   UNL A   1      34.371  25.222  25.241  1.00  0.00     0.244 C 
BRANCH  11  12
ATOM     12  C   UNL A   1      33.168  26.011  25.719  1.00  0.00     0.244 C 
ATOM     13  N   UNL A   1      31.721  29.512  23.555  1.00  0.00    -0.328 N 
ATOM     14  C   UNL A   1      31.140  29.060  24.823  1.00  0.00     0.284 C 
ATOM     15  C   UNL A   1      33.123  29.106  23.441  1.00  0.00     0.284 C 
ATOM     16  H   UNL A   1      31.722  30.531  23.602  1.00  0.00     0.348 HD
ATOM     17  C   UNL A   1      31.391  27.590  25.197  1.00  0.00     0.181 C 
ATOM     18  C   UNL A   1      33.476  27.657  23.828  1.00  0.00     0.181 C 
ATOM     19  N   UNL A   1      32.769  27.137  25.001  1.00  0.00    -0.330 N 
ATOM     20  O   UNL A   1      32.532  25.631  26.709  1.00  0.00    -0.273 OA
BRANCH  13  21
ATOM     21  C   UNL A   1      30.893  29.352  22.354  1.00  0.00     0.302 C 
BRANCH  21  22
ATOM     22  C   UNL A   1      29.428  29.345  22.611  1.00  0.00     0.047 A 
ATOM     23  C   UNL A   1      28.819  31.904  22.623  1.00  0.00     0.069 C 
ATOM     24  C   UNL A   1      28.542  30.453  22.762  1.00  0.00     0.068 A 
ATOM     25  N   UNL A   1      27.315  30.059  23.126  1.00  0.00    -0.178 NA
ATOM     26  N   UNL A   1      27.403  28.721  23.178  1.00  0.00    -0.275 N 
ATOM     27  C   UNL A   1      28.597  28.247  22.727  1.00  0.00     0.118 A 
ATOM     28  C   UNL A   1      26.351  27.949  23.795  1.00  0.00     0.173 C 
ENDBRANCH  21  22
ENDBRANCH  13  21
ENDBRANCH  11  12
ENDBRANCH   7  11
ENDBRANCH   3   6
ENDBRANCH   1   2
BRANCH   1  29
ATOM     29  C   UNL A   1      37.903  19.425  24.976  1.00  0.00     0.042 C 
BRANCH  29  30
ATOM     30  C   UNL A   1      39.092  20.064  25.673  1.00  0.00     0.118 C 
BRANCH  30  31
ATOM     31  N   UNL A   1      40.189  19.106  25.886  1.00  0.00    -0.352 N 
ATOM     32  C   UNL A   1      41.525  19.344  26.147  1.00  0.00     0.251 C 
ATOM     33  H   UNL A   1      39.934  18.156  25.835  1.00  0.00     0.163 HD
ATOM     34  O   UNL A   1      42.360  18.452  25.986  1.00  0.00    -0.269 OA
BRANCH  32  35
ATOM     35  C   UNL A   1      41.935  20.670  26.628  1.00  0.00     0.039 A 
ATOM     36  C   UNL A   1      42.610  21.592  25.819  1.00  0.00     0.014 A 
ATOM     37  C   UNL A   1      41.599  20.990  27.935  1.00  0.00     0.014 A 
ATOM     38  C   UNL A   1      42.882  22.860  26.332  1.00  0.00     0.010 A 
ATOM     39  C   UNL A   1      41.635  22.288  28.338  1.00  0.00     0.010 A 
ATOM     40  C   UNL A   1      42.382  23.191  27.595  1.00  0.00    -0.014 A 
BRANCH  40  41
ATOM     41  C   UNL A   1      42.531  24.507  28.192  1.00  0.00     0.031 A 
ATOM     42  C   UNL A   1      41.359  25.391  27.976  1.00  0.00     0.074 A 
ATOM     43  C   UNL A   1      43.478  24.715  29.138  1.00  0.00     0.049 A 
ATOM     44  N   UNL A   1      41.296  26.476  27.276  1.00  0.00    -0.248 NA
ATOM     45  C   UNL A   1      40.044  24.907  28.434  1.00  0.00     0.031 C 
ATOM     46  C   UNL A   1      44.426  23.729  29.687  1.00  0.00     0.029 A 
ATOM     47  N   UNL A   1      43.664  25.783  29.956  1.00  0.00    -0.354 N 
ATOM     48  C   UNL A   1      39.994  26.942  27.456  1.00  0.00     0.074 A 
ATOM     49  C   UNL A   1      39.227  25.810  27.892  1.00  0.00     0.031 C 
ATOM     50  C   UNL A   1      44.866  24.149  30.892  1.00  0.00     0.029 A 
ATOM     51  C   UNL A   1      44.369  25.490  31.124  1.00  0.00     0.049 A 
ATOM     52  H   UNL A   1      43.331  26.685  29.743  1.00  0.00     0.167 HD
ATOM     53  C   UNL A   1      39.734  28.275  27.579  1.00  0.00     0.034 A 
ATOM     54  C   UNL A   1      44.468  26.269  32.231  1.00  0.00     0.034 A 
ATOM     55  C   UNL A   1      40.874  29.058  27.163  1.00  0.00     0.049 A 
ATOM     56  C   UNL A   1      44.061  27.636  31.833  1.00  0.00     0.074 A 
ATOM     57  C   UNL A   1      41.640  29.140  26.016  1.00  0.00     0.029 A 
ATOM     58  N   UNL A   1      41.629  29.621  28.164  1.00  0.00    -0.354 N 
ATOM     59  N   UNL A   1      44.728  28.368  30.985  1.00  0.00    -0.248 NA
ATOM     60  C   UNL A   1      42.668  28.004  32.022  1.00  0.00     0.031 C 
ATOM     61  C   UNL A   1      42.979  29.301  26.483  1.00  0.00     0.029 A 
ATOM     62  C   UNL A   1      42.947  29.398  27.875  1.00  0.00     0.049 A 
ATOM     63  H   UNL A   1      41.283  30.101  28.950  1.00  0.00     0.167 HD
ATOM     64  C   UNL A   1      43.746  28.957  30.199  1.00  0.00     0.074 A 
ATOM     65  C   UNL A   1      42.504  28.791  30.955  1.00  0.00     0.031 C 
ATOM     66  C   UNL A   1      43.975  29.238  28.883  1.00  0.00     0.034 A 
BRANCH  53  67
ATOM     67  C   UNL A   1      38.650  28.883  28.456  1.00  0.00     0.023 A 
ATOM     68  C   UNL A   1      37.752  29.774  27.821  1.00  0.00     0.012 A 
ATOM     69  C   UNL A   1      38.620  28.863  29.870  1.00  0.00     0.148 A 
ATOM     70  C   UNL A   1      36.940  30.651  28.550  1.00  0.00     0.002 A 
ATOM     71  C   UNL A   1      37.756  29.680  30.590  1.00  0.00     0.091 A 
ATOM     72  F   UNL A   1      39.512  28.152  30.561  1.00  0.00    -0.205 F 
ATOM     73  C   UNL A   1      36.940  30.603  29.937  1.00  0.00     0.022 A 
BRANCH  71  74
ATOM     74  S   UNL A   1      37.685  29.624  32.388  1.00  0.00     0.127 S 
ATOM     75  O   UNL A   1      38.983  30.185  32.748  1.00  0.00    -0.237 OA
ATOM     76  O   UNL A   1      36.536  30.485  32.667  1.00  0.00    -0.237 OA
ATOM     77  O   UNL A   1      37.474  28.222  32.732  1.00  0.00    -0.744 OA
ENDBRANCH  71  74
ENDBRANCH  53  67
BRANCH  54  78
ATOM     78  C   UNL A   1      44.619  25.884  33.656  1.00  0.00     0.023 A 
ATOM     79  C   UNL A   1      45.904  25.647  34.186  1.00  0.00     0.012 A 
ATOM     80  C   UNL A   1      43.543  26.016  34.561  1.00  0.00     0.148 A 
ATOM     81  C   UNL A   1      46.115  25.571  35.569  1.00  0.00     0.002 A 
ATOM     82  C   UNL A   1      43.755  25.931  35.935  1.00  0.00     0.091 A 
ATOM     83  F   UNL A   1      42.331  26.318  34.078  1.00  0.00    -0.205 F 
ATOM     84  C   UNL A   1      45.043  25.720  36.444  1.00  0.00     0.022 A 
BRANCH  82  85
ATOM     85  S   UNL A   1      42.423  26.138  37.124  1.00  0.00     0.127 S 
ATOM     86  O   UNL A   1      41.850  27.421  36.716  1.00  0.00    -0.237 OA
ATOM     87  O   UNL A   1      41.584  24.976  36.841  1.00  0.00    -0.237 OA
ATOM     88  O   UNL A   1      43.065  26.152  38.431  1.00  0.00    -0.744 OA
ENDBRANCH  82  85
ENDBRANCH  54  78
BRANCH  66  89
ATOM     89  C   UNL A   1      45.390  29.138  28.367  1.00  0.00     0.023 A 
ATOM     90  C   UNL A   1      46.359  30.137  28.599  1.00  0.00     0.012 A 
ATOM     91  C   UNL A   1      45.797  27.914  27.813  1.00  0.00     0.148 A 
ATOM     92  C   UNL A   1      47.702  29.923  28.272  1.00  0.00     0.002 A 
ATOM     93  C   UNL A   1      47.138  27.686  27.537  1.00  0.00     0.091 A 
ATOM     94  F   UNL A   1      44.863  26.976  27.601  1.00  0.00    -0.205 F 
ATOM     95  C   UNL A   1      48.094  28.691  27.756  1.00  0.00     0.022 A 
BRANCH  93  96
ATOM     96  S   UNL A   1      47.718  26.075  27.002  1.00  0.00     0.127 S 
ATOM     97  O   UNL A   1      47.225  25.206  28.067  1.00  0.00    -0.237 OA
ATOM     98  O   UNL A   1      47.043  25.911  25.714  1.00  0.00    -0.237 OA
ATOM     99  O   UNL A   1      49.169  26.185  26.902  1.00  0.00    -0.744 OA
ENDBRANCH  93  96
ENDBRANCH  66  89
ENDBRANCH  40  41
ENDBRANCH  32  35
ENDBRANCH  30  31
ENDBRANCH  29  30
ENDBRANCH   1  29
TORSDOF 17
ENDMDL
MODEL 2
REMARK VINA RESULT:     -13.0      1.577      2.059
REMARK SMILES Cc1nn(C)cc1C[NH+]1CCN(C(=O)Cn2ccc(C(=O)NCCCNC(=O)c3ccc(-c4c5nc(c(-c6cccc(S(=O)(=O)[O-])c6F)c6ccc([nH]6)c(-c6cccc(S(=O)(=O)[O-])c6F)c6nc(c(-c7cccc(S(=O)(=O)[O-])c7F)c7ccc4[nH]7)C=C6)C=C5)cc3)n2)CC1
REMARK SMILES IDX 23 1 22 2 20 3 21 4 19 6 16 7 17 8 92 9 18 10 15 11 13 12
REMARK SMILES IDX 9 13 10 14 94 15 11 17 93 18 12 19 14 20 8 21 7 22 1 23 2 24
REMARK SMILES IDX 3 25 4 26 6 27 5 28 24 29 25 30 26 31 27 32 28 34 29 35
REMARK SMILES IDX 30 36 91 37 31 38 90 39 32 40 33 41 34 42 84 43 35 44 89 45
REMARK SMILES IDX 83 46 85 47 36 48 88 49 82 50 81 51 37 53 69 54 49 55 68 56
REMARK SMILES IDX 50 57 53 58 67 59 86 60 51 61 52 62 66 64 87 65 54 66 38 67
REMARK SMILES IDX 39 68 47 69 40 70 42 71 48 72 41 73 43 74 44 75 45 76 46 77
REMARK SMILES IDX 70 78 71 79 79 80 72 81 74 82 80 83 73 84 75 85 76 86 77 87
REMARK SMILES IDX 78 88 55 89 56 90 64 91 57 92 59 93 65 94 58 95 60 96 61 97
REMARK SMILES IDX 62 98 63 99
REMARK H PARENT 22 5 9 16 26 33 85 52 53 63
REMARK Flexibility Score: inf
ROOT
ATOM      1  C   UNL A   1      36.235  20.483  25.041  1.00  0.00     0.118 C 
ENDROOT
BRANCH   1   2
ATOM      2  N   UNL A   1      35.138  19.537  24.976  1.00  0.00    -0.351 N 
ATOM      3  C   UNL A   1      33.795  19.740  24.751  1.00  0.00     0.271 C 
ATOM      4  O   UNL A   1      33.112  18.740  24.525  1.00  0.00    -0.267 OA
ATOM      5  H   UNL A   1      35.396  18.597  25.117  1.00  0.00     0.163 HD
BRANCH   3   6
ATOM      6  C   UNL A   1      33.217  21.099  24.755  1.00  0.00     0.150 A 
ATOM      7  N   UNL A   1      32.923  23.120  24.105  1.00  0.00    -0.263 N 
ATOM      8  C   UNL A   1      32.065  22.973  25.152  1.00  0.00     0.110 A 
ATOM      9  N   UNL A   1      33.624  22.007  23.844  1.00  0.00    -0.167 NA
ATOM     10  C   UNL A   1      32.208  21.674  25.574  1.00  0.00     0.056 A 
BRANCH   7  11
ATOM     11  C   UNL A   1      33.068  24.235  23.180  1.00  0.00     0.244 C 
BRANCH  11  12
ATOM     12  C   UNL A   1      33.576  25.499  23.847  1.00  0.00     0.244 C 
ATOM     13  N   UNL A   1      31.538  29.325  23.351  1.00  0.00    -0.328 N 
ATOM     14  C   UNL A   1      32.790  29.178  24.098  1.00  0.00     0.284 C 
ATOM     15  C   UNL A   1      31.407  28.285  22.328  1.00  0.00     0.284 C 
ATOM     16  H   UNL A   1      31.620  30.209  22.849  1.00  0.00     0.348 HD
ATOM     17  C   UNL A   1      33.112  27.764  24.609  1.00  0.00     0.181 C 
ATOM     18  C   UNL A   1      31.742  26.838  22.739  1.00  0.00     0.181 C 
ATOM     19  N   UNL A   1      32.898  26.697  23.629  1.00  0.00    -0.330 N 
ATOM     20  O   UNL A   1      34.552  25.450  24.602  1.00  0.00    -0.273 OA
BRANCH  13  21
ATOM     21  C   UNL A   1      30.333  29.630  24.131  1.00  0.00     0.302 C 
BRANCH  21  22
ATOM     22  C   UNL A   1      29.246  30.287  23.355  1.00  0.00     0.047 A 
ATOM     23  C   UNL A   1      27.370  28.445  23.294  1.00  0.00     0.069 C 
ATOM     24  C   UNL A   1      27.981  29.757  22.965  1.00  0.00     0.068 A 
ATOM     25  N   UNL A   1      27.323  30.592  22.151  1.00  0.00    -0.178 NA
ATOM     26  N   UNL A   1      28.138  31.653  22.045  1.00  0.00    -0.275 N 
ATOM     27  C   UNL A   1      29.220  31.580  22.869  1.00  0.00     0.118 A 
ATOM     28  C   UNL A   1      27.895  32.655  21.034  1.00  0.00     0.173 C 
ENDBRANCH  21  22
ENDBRANCH  13  21
ENDBRANCH  11  12
ENDBRANCH   7  11
ENDBRANCH   3   6
ENDBRANCH   1   2
BRANCH   1  29
ATOM     29  C   UNL A   1      37.578  19.854  24.653  1.00  0.00     0.042 C 
BRANCH  29  30
ATOM     30  C   UNL A   1      38.692  20.282  25.594  1.00  0.00     0.118 C 
BRANCH  30  31
ATOM     31  N   UNL A   1      39.743  19.257  25.710  1.00  0.00    -0.352 N 
ATOM     32  C   UNL A   1      41.097  19.409  25.936  1.00  0.00     0.251 C 
ATOM     33  H   UNL A   1      39.436  18.326  25.610  1.00  0.00     0.163 HD
ATOM     34  O   UNL A   1      41.878  18.488  25.692  1.00  0.00    -0.269 OA
BRANCH  32  35
ATOM     35  C   UNL A   1      41.593  20.680  26.481  1.00  0.00     0.039 A 
ATOM     36  C   UNL A   1      42.303  21.608  25.708  1.00  0.00     0.014 A 
ATOM     37  C   UNL A   1      41.303  20.943  27.812  1.00  0.00     0.014 A 
ATOM     38  C   UNL A   1      42.658  22.827  26.285  1.00  0.00     0.010 A 
ATOM     39  C   UNL A   1      41.423  22.211  28.286  1.00  0.00     0.010 A 
ATOM     40  C   UNL A   1      42.204  23.112  27.577  1.00  0.00    -0.014 A 
BRANCH  40  41
ATOM     41  C   UNL A   1      42.442  24.381  28.243  1.00  0.00     0.031 A 
ATOM     42  C   UNL A   1      41.349  25.366  28.047  1.00  0.00     0.074 A 
ATOM     43  C   UNL A   1      43.378  24.466  29.219  1.00  0.00     0.049 A 
ATOM     44  N   UNL A   1      41.390  26.485  27.402  1.00  0.00    -0.248 NA
ATOM     45  C   UNL A   1      39.988  24.967  28.451  1.00  0.00     0.031 C 
ATOM     46  C   UNL A   1      44.230  23.381  29.738  1.00  0.00     0.029 A 
ATOM     47  N   UNL A   1      43.626  25.474  30.094  1.00  0.00    -0.354 N 
ATOM     48  C   UNL A   1      40.124  27.045  27.577  1.00  0.00     0.074 A 
ATOM     49  C   UNL A   1      39.260  25.958  27.938  1.00  0.00     0.031 C 
ATOM     50  C   UNL A   1      44.671  23.705  30.972  1.00  0.00     0.029 A 
ATOM     51  C   UNL A   1      44.276  25.069  31.261  1.00  0.00     0.049 A 
ATOM     52  H   UNL A   1      43.371  26.409  29.920  1.00  0.00     0.167 HD
ATOM     53  C   UNL A   1      39.968  28.387  27.762  1.00  0.00     0.034 A 
ATOM     54  C   UNL A   1      44.407  25.782  32.407  1.00  0.00     0.034 A 
ATOM     55  C   UNL A   1      41.176  29.095  27.411  1.00  0.00     0.049 A 
ATOM     56  C   UNL A   1      44.120  27.195  32.071  1.00  0.00     0.074 A 
ATOM     57  C   UNL A   1      41.975  29.172  26.287  1.00  0.00     0.029 A 
ATOM     58  N   UNL A   1      41.948  29.547  28.456  1.00  0.00    -0.354 N 
ATOM     59  N   UNL A   1      44.864  27.912  31.276  1.00  0.00    -0.248 NA
ATOM     60  C   UNL A   1      42.756  27.664  32.248  1.00  0.00     0.031 C 
ATOM     61  C   UNL A   1      43.310  29.202  26.791  1.00  0.00     0.029 A 
ATOM     62  C   UNL A   1      43.251  29.232  28.185  1.00  0.00     0.049 A 
ATOM     63  H   UNL A   1      41.620  30.013  29.258  1.00  0.00     0.167 HD
ATOM     64  C   UNL A   1      43.952  28.616  30.501  1.00  0.00     0.074 A 
ATOM     65  C   UNL A   1      42.682  28.513  31.219  1.00  0.00     0.031 C 
ATOM     66  C   UNL A   1      44.236  28.942  29.205  1.00  0.00     0.034 A 
BRANCH  53  67
ATOM     67  C   UNL A   1      38.912  29.037  28.645  1.00  0.00     0.023 A 
ATOM     68  C   UNL A   1      38.115  30.037  28.042  1.00  0.00     0.012 A 
ATOM     69  C   UNL A   1      38.837  28.937  30.054  1.00  0.00     0.148 A 
ATOM     70  C   UNL A   1      37.359  30.938  28.800  1.00  0.00     0.002 A 
ATOM     71  C   UNL A   1      38.024  29.785  30.799  1.00  0.00     0.091 A 
ATOM     72  F   UNL A   1      39.642  28.113  30.724  1.00  0.00    -0.205 F 
ATOM     73  C   UNL A   1      37.312  30.812  30.181  1.00  0.00     0.022 A 
BRANCH  71  74
ATOM     74  S   UNL A   1      37.891  29.631  32.587  1.00  0.00     0.127 S 
ATOM     75  O   UNL A   1      37.524  28.226  32.732  1.00  0.00    -0.237 OA
ATOM     76  O   UNL A   1      39.250  29.965  33.016  1.00  0.00    -0.237 OA
ATOM     77  O   UNL A   1      36.884  30.603  32.995  1.00  0.00    -0.744 OA
ENDBRANCH  71  74
ENDBRANCH  53  67
BRANCH  54  78
ATOM     78  C   UNL A   1      44.491  25.317  33.814  1.00  0.00     0.023 A 
ATOM     79  C   UNL A   1      43.310  25.110  34.556  1.00  0.00     0.012 A 
ATOM     80  C   UNL A   1      45.701  24.816  34.342  1.00  0.00     0.148 A 
ATOM     81  C   UNL A   1      43.330  24.404  35.767  1.00  0.00     0.002 A 
ATOM     82  C   UNL A   1      45.718  24.123  35.549  1.00  0.00     0.091 A 
ATOM     83  F   UNL A   1      46.818  24.937  33.613  1.00  0.00    -0.205 F 
ATOM     84  C   UNL A   1      44.531  23.905  36.260  1.00  0.00     0.022 A 
BRANCH  82  85
ATOM     85  S   UNL A   1      47.228  23.430  36.235  1.00  0.00     0.127 S 
ATOM     86  O   UNL A   1      46.767  22.921  37.527  1.00  0.00    -0.237 OA
ATOM     87  O   UNL A   1      47.559  22.399  35.254  1.00  0.00    -0.237 OA
ATOM     88  O   UNL A   1      48.164  24.543  36.323  1.00  0.00    -0.744 OA
ENDBRANCH  82  85
ENDBRANCH  54  78
BRANCH  66  89
ATOM     89  C   UNL A   1      45.652  28.754  28.716  1.00  0.00     0.023 A 
ATOM     90  C   UNL A   1      46.682  29.682  28.984  1.00  0.00     0.012 A 
ATOM     91  C   UNL A   1      45.987  27.515  28.149  1.00  0.00     0.148 A 
ATOM     92  C   UNL A   1      48.014  29.382  28.681  1.00  0.00     0.002 A 
ATOM     93  C   UNL A   1      47.315  27.201  27.895  1.00  0.00     0.091 A 
ATOM     94  F   UNL A   1      44.996  26.646  27.902  1.00  0.00    -0.205 F 
ATOM     95  C   UNL A   1      48.331  28.134  28.151  1.00  0.00     0.022 A 
BRANCH  93  96
ATOM     96  S   UNL A   1      47.795  25.563  27.344  1.00  0.00     0.127 S 
ATOM     97  O   UNL A   1      47.520  25.630  25.912  1.00  0.00    -0.237 OA
ATOM     98  O   UNL A   1      49.215  25.517  27.695  1.00  0.00    -0.237 OA
ATOM     99  O   UNL A   1      46.968  24.628  28.099  1.00  0.00    -0.744 OA
ENDBRANCH  93  96
ENDBRANCH  66  89
ENDBRANCH  40  41
ENDBRANCH  32  35
ENDBRANCH  30  31
ENDBRANCH  29  30
ENDBRANCH   1  29
TORSDOF 17
ENDMDL
MODEL 3
REMARK VINA RESULT:     -12.8      1.506      2.399
REMARK SMILES Cc1nn(C)cc1C[NH+]1CCN(C(=O)Cn2ccc(C(=O)NCCCNC(=O)c3ccc(-c4c5nc(c(-c6cccc(S(=O)(=O)[O-])c6F)c6ccc([nH]6)c(-c6cccc(S(=O)(=O)[O-])c6F)c6nc(c(-c7cccc(S(=O)(=O)[O-])c7F)c7ccc4[nH]7)C=C6)C=C5)cc3)n2)CC1
REMARK SMILES IDX 23 1 22 2 20 3 21 4 19 6 16 7 17 8 92 9 18 10 15 11 13 12
REMARK SMILES IDX 9 13 10 14 94 15 11 17 93 18 12 19 14 20 8 21 7 22 1 23 2 24
REMARK SMILES IDX 3 25 4 26 6 27 5 28 24 29 25 30 26 31 27 32 28 34 29 35
REMARK SMILES IDX 30 36 91 37 31 38 90 39 32 40 33 41 34 42 84 43 35 44 89 45
REMARK SMILES IDX 83 46 85 47 36 48 88 49 82 50 81 51 37 53 69 54 49 55 68 56
REMARK SMILES IDX 50 57 53 58 67 59 86 60 51 61 52 62 66 64 87 65 54 66 38 67
REMARK SMILES IDX 39 68 47 69 40 70 42 71 48 72 41 73 43 74 44 75 45 76 46 77
REMARK SMILES IDX 70 78 71 79 79 80 72 81 74 82 80 83 73 84 75 85 76 86 77 87
REMARK SMILES IDX 78 88 55 89 56 90 64 91 57 92 59 93 65 94 58 95 60 96 61 97
REMARK SMILES IDX 62 98 63 99
REMARK H PARENT 22 5 9 16 26 33 85 52 53 63
REMARK Flexibility Score: inf
ROOT
ATOM      1  C   UNL A   1      36.974  20.595  24.599  1.00  0.00     0.118 C 
ENDROOT
BRANCH   1   2
ATOM      2  N   UNL A   1      36.345  21.169  25.772  1.00  0.00    -0.351 N 
ATOM      3  C   UNL A   1      35.014  21.268  26.115  1.00  0.00     0.271 C 
ATOM      4  O   UNL A   1      34.763  21.602  27.274  1.00  0.00    -0.267 OA
ATOM      5  H   UNL A   1      36.970  21.551  26.430  1.00  0.00     0.163 HD
BRANCH   3   6
ATOM      6  C   UNL A   1      33.950  20.956  25.141  1.00  0.00     0.150 A 
ATOM      7  N   UNL A   1      32.602  21.306  23.511  1.00  0.00    -0.263 N 
ATOM      8  C   UNL A   1      32.343  20.026  23.896  1.00  0.00     0.110 A 
ATOM      9  N   UNL A   1      33.566  21.885  24.241  1.00  0.00    -0.167 NA
ATOM     10  C   UNL A   1      33.214  19.759  24.924  1.00  0.00     0.056 A 
BRANCH   7  11
ATOM     11  C   UNL A   1      32.092  22.047  22.365  1.00  0.00     0.244 C 
BRANCH  11  12
ATOM     12  C   UNL A   1      32.794  23.375  22.157  1.00  0.00     0.244 C 
ATOM     13  N   UNL A   1      31.424  27.019  24.125  1.00  0.00    -0.328 N 
ATOM     14  C   UNL A   1      32.531  26.998  23.165  1.00  0.00     0.284 C 
ATOM     15  C   UNL A   1      30.487  25.923  23.876  1.00  0.00     0.284 C 
ATOM     16  H   UNL A   1      30.912  27.881  23.934  1.00  0.00     0.348 HD
ATOM     17  C   UNL A   1      33.214  25.638  22.949  1.00  0.00     0.181 C 
ATOM     18  C   UNL A   1      31.082  24.525  23.615  1.00  0.00     0.181 C 
ATOM     19  N   UNL A   1      32.293  24.510  22.791  1.00  0.00    -0.330 N 
ATOM     20  O   UNL A   1      33.817  23.433  21.465  1.00  0.00    -0.273 OA
BRANCH  13  21
ATOM     21  C   UNL A   1      31.769  27.280  25.528  1.00  0.00     0.302 C 
BRANCH  21  22
ATOM     22  C   UNL A   1      32.081  28.702  25.832  1.00  0.00     0.047 A 
ATOM     23  C   UNL A   1      34.431  28.553  27.005  1.00  0.00     0.069 C 
ATOM     24  C   UNL A   1      33.217  29.244  26.503  1.00  0.00     0.068 A 
ATOM     25  N   UNL A   1      33.084  30.559  26.719  1.00  0.00    -0.178 NA
ATOM     26  N   UNL A   1      31.897  30.862  26.170  1.00  0.00    -0.275 N 
ATOM     27  C   UNL A   1      31.341  29.819  25.494  1.00  0.00     0.118 A 
ATOM     28  C   UNL A   1      31.281  32.139  26.437  1.00  0.00     0.173 C 
ENDBRANCH  21  22
ENDBRANCH  13  21
ENDBRANCH  11  12
ENDBRANCH   7  11
ENDBRANCH   3   6
ENDBRANCH   1   2
BRANCH   1  29
ATOM     29  C   UNL A   1      38.020  19.531  24.953  1.00  0.00     0.042 C 
BRANCH  29  30
ATOM     30  C   UNL A   1      39.143  20.107  25.800  1.00  0.00     0.118 C 
BRANCH  30  31
ATOM     31  N   UNL A   1      40.266  19.165  25.944  1.00  0.00    -0.352 N 
ATOM     32  C   UNL A   1      41.606  19.423  26.158  1.00  0.00     0.251 C 
ATOM     33  H   UNL A   1      40.026  18.212  25.878  1.00  0.00     0.163 HD
ATOM     34  O   UNL A   1      42.450  18.552  25.941  1.00  0.00    -0.269 OA
BRANCH  32  35
ATOM     35  C   UNL A   1      42.010  20.744  26.656  1.00  0.00     0.039 A 
ATOM     36  C   UNL A   1      42.723  21.662  25.874  1.00  0.00     0.014 A 
ATOM     37  C   UNL A   1      41.629  21.065  27.951  1.00  0.00     0.014 A 
ATOM     38  C   UNL A   1      42.987  22.926  26.399  1.00  0.00     0.010 A 
ATOM     39  C   UNL A   1      41.663  22.362  28.358  1.00  0.00     0.010 A 
ATOM     40  C   UNL A   1      42.444  23.259  27.645  1.00  0.00    -0.014 A 
BRANCH  40  41
ATOM     41  C   UNL A   1      42.584  24.573  28.249  1.00  0.00     0.031 A 
ATOM     42  C   UNL A   1      41.428  25.469  27.991  1.00  0.00     0.074 A 
ATOM     43  C   UNL A   1      43.497  24.771  29.229  1.00  0.00     0.049 A 
ATOM     44  N   UNL A   1      41.401  26.555  27.292  1.00  0.00    -0.248 NA
ATOM     45  C   UNL A   1      40.092  24.995  28.400  1.00  0.00     0.031 C 
ATOM     46  C   UNL A   1      44.415  23.775  29.811  1.00  0.00     0.029 A 
ATOM     47  N   UNL A   1      43.662  25.835  30.055  1.00  0.00    -0.354 N 
ATOM     48  C   UNL A   1      40.097  27.032  27.425  1.00  0.00     0.074 A 
ATOM     49  C   UNL A   1      39.305  25.907  27.830  1.00  0.00     0.031 C 
ATOM     50  C   UNL A   1      44.814  24.189  31.032  1.00  0.00     0.029 A 
ATOM     51  C   UNL A   1      44.322  25.534  31.248  1.00  0.00     0.049 A 
ATOM     52  H   UNL A   1      43.346  26.740  29.833  1.00  0.00     0.167 HD
ATOM     53  C   UNL A   1      39.846  28.368  27.541  1.00  0.00     0.034 A 
ATOM     54  C   UNL A   1      44.386  26.310  32.359  1.00  0.00     0.034 A 
ATOM     55  C   UNL A   1      41.007  29.141  27.169  1.00  0.00     0.049 A 
ATOM     56  C   UNL A   1      44.007  27.681  31.950  1.00  0.00     0.074 A 
ATOM     57  C   UNL A   1      41.815  29.218  26.051  1.00  0.00     0.029 A 
ATOM     58  N   UNL A   1      41.730  29.696  28.198  1.00  0.00    -0.354 N 
ATOM     59  N   UNL A   1      44.711  28.409  31.128  1.00  0.00    -0.248 NA
ATOM     60  C   UNL A   1      42.612  28.063  32.088  1.00  0.00     0.031 C 
ATOM     61  C   UNL A   1      43.138  29.365  26.567  1.00  0.00     0.029 A 
ATOM     62  C   UNL A   1      43.056  29.460  27.958  1.00  0.00     0.049 A 
ATOM     63  H   UNL A   1      41.360  30.177  28.972  1.00  0.00     0.167 HD
ATOM     64  C   UNL A   1      43.765  29.008  30.309  1.00  0.00     0.074 A 
ATOM     65  C   UNL A   1      42.494  28.852  31.017  1.00  0.00     0.031 C 
ATOM     66  C   UNL A   1      44.044  29.289  29.002  1.00  0.00     0.034 A 
BRANCH  53  67
ATOM     67  C   UNL A   1      38.735  28.985  28.378  1.00  0.00     0.023 A 
ATOM     68  C   UNL A   1      37.881  29.898  27.718  1.00  0.00     0.012 A 
ATOM     69  C   UNL A   1      38.645  28.949  29.790  1.00  0.00     0.148 A 
ATOM     70  C   UNL A   1      37.053  30.780  28.422  1.00  0.00     0.002 A 
ATOM     71  C   UNL A   1      37.765  29.773  30.483  1.00  0.00     0.091 A 
ATOM     72  F   UNL A   1      39.495  28.215  30.509  1.00  0.00    -0.205 F 
ATOM     73  C   UNL A   1      36.994  30.717  29.807  1.00  0.00     0.022 A 
BRANCH  71  74
ATOM     74  S   UNL A   1      37.617  29.697  32.275  1.00  0.00     0.127 S 
ATOM     75  O   UNL A   1      37.352  28.277  32.485  1.00  0.00    -0.237 OA
ATOM     76  O   UNL A   1      38.940  30.152  32.702  1.00  0.00    -0.237 OA
ATOM     77  O   UNL A   1      36.534  30.609  32.622  1.00  0.00    -0.744 OA
ENDBRANCH  71  74
ENDBRANCH  53  67
BRANCH  54  78
ATOM     78  C   UNL A   1      44.482  25.922  33.789  1.00  0.00     0.023 A 
ATOM     79  C   UNL A   1      45.747  25.723  34.379  1.00  0.00     0.012 A 
ATOM     80  C   UNL A   1      43.360  26.012  34.642  1.00  0.00     0.148 A 
ATOM     81  C   UNL A   1      45.893  25.646  35.770  1.00  0.00     0.002 A 
ATOM     82  C   UNL A   1      43.508  25.926  36.023  1.00  0.00     0.091 A 
ATOM     83  F   UNL A   1      42.163  26.277  34.102  1.00  0.00    -0.205 F 
ATOM     84  C   UNL A   1      44.776  25.754  36.593  1.00  0.00     0.022 A 
BRANCH  82  85
ATOM     85  S   UNL A   1      42.114  26.081  37.148  1.00  0.00     0.127 S 
ATOM     86  O   UNL A   1      42.782  26.154  38.448  1.00  0.00    -0.237 OA
ATOM     87  O   UNL A   1      41.505  27.331  36.701  1.00  0.00    -0.237 OA
ATOM     88  O   UNL A   1      41.315  24.880  36.947  1.00  0.00    -0.744 OA
ENDBRANCH  82  85
ENDBRANCH  54  78
BRANCH  66  89
ATOM     89  C   UNL A   1      45.476  29.177  28.538  1.00  0.00     0.023 A 
ATOM     90  C   UNL A   1      46.438  30.181  28.781  1.00  0.00     0.012 A 
ATOM     91  C   UNL A   1      45.901  27.941  28.026  1.00  0.00     0.148 A 
ATOM     92  C   UNL A   1      47.792  29.959  28.507  1.00  0.00     0.002 A 
ATOM     93  C   UNL A   1      47.251  27.706  27.802  1.00  0.00     0.091 A 
ATOM     94  F   UNL A   1      44.974  26.999  27.803  1.00  0.00    -0.205 F 
ATOM     95  C   UNL A   1      48.199  28.715  28.032  1.00  0.00     0.022 A 
BRANCH  93  96
ATOM     96  S   UNL A   1      47.847  26.083  27.325  1.00  0.00     0.127 S 
ATOM     97  O   UNL A   1      47.323  25.954  25.968  1.00  0.00    -0.237 OA
ATOM     98  O   UNL A   1      49.299  26.244  27.409  1.00  0.00    -0.237 OA
ATOM     99  O   UNL A   1      47.295  25.151  28.303  1.00  0.00    -0.744 OA
ENDBRANCH  93  96
ENDBRANCH  66  89
ENDBRANCH  40  41
ENDBRANCH  32  35
ENDBRANCH  30  31
ENDBRANCH  29  30
ENDBRANCH   1  29
TORSDOF 17
ENDMDL
