MODEL 1
REMARK VINA RESULT:     -11.3      0.000      0.000
REMARK SMILES CC[C@@H](C)[C@H](NC(=O)[C@H]1CCCN(S(=O)(=O)c2ccccc2)C1)C(=O)NCCCNC(=O)c1ccc(-c2c3nc(c(-c4cccc(S(=O)(=O)[O-])c4F)c4ccc([nH]4)c(-c4cccc(S(=O)(=O)[O-])c4F)c4nc(c(-c5cccc(S(=O)(=O)[O-])c5F)c5ccc2[nH]5)C=C4)C=C3)cc1
REMARK SMILES IDX 27 1 26 2 24 3 25 4 5 6 3 7 4 8 2 9 1 10 6 11 7 12 8 14 9 15
REMARK SMILES IDX 10 16 23 17 11 18 13 19 12 20 14 21 15 22 16 23 17 24 18 25
REMARK SMILES IDX 22 26 19 27 21 28 20 29 28 30 29 31 30 32 31 33 32 35 33 36
REMARK SMILES IDX 34 37 95 38 35 39 94 40 36 41 37 42 38 43 88 44 39 45 93 46
REMARK SMILES IDX 87 47 89 48 40 49 92 50 86 51 85 52 41 54 73 55 53 56 72 57
REMARK SMILES IDX 54 58 57 59 71 60 90 61 55 62 56 63 70 65 91 66 58 67 42 68
REMARK SMILES IDX 43 69 51 70 44 71 46 72 52 73 45 74 47 75 48 76 49 77 50 78
REMARK SMILES IDX 74 79 75 80 83 81 76 82 78 83 84 84 77 85 79 86 80 87 81 88
REMARK SMILES IDX 82 89 59 90 60 91 68 92 61 93 63 94 69 95 62 96 64 97 65 98
REMARK SMILES IDX 66 99 67 100
REMARK H PARENT 26 5 6 13 30 34 89 53 57 64
REMARK Flexibility Score: inf
ROOT
ATOM      1  C   UNL A   1      37.565  21.460  25.372  1.00  0.00     0.117 C 
ENDROOT
BRANCH   1   2
ATOM      2  N   UNL A   1      36.592  21.777  24.353  1.00  0.00    -0.354 N 
ATOM      3  C   UNL A   1      35.252  21.554  24.349  1.00  0.00     0.242 C 
ATOM      4  O   UNL A   1      34.580  22.327  23.653  1.00  0.00    -0.273 OA
ATOM      5  H   UNL A   1      36.951  22.215  23.548  1.00  0.00     0.163 HD
BRANCH   3   6
ATOM      6  C   UNL A   1      34.545  20.458  25.191  1.00  0.00     0.174 C 
BRANCH   6   7
ATOM      7  C   UNL A   1      33.624  19.484  24.349  1.00  0.00     0.018 C 
ATOM      8  C   UNL A   1      32.140  19.587  24.724  1.00  0.00     0.010 C 
BRANCH   7   9
ATOM      9  C   UNL A   1      34.136  18.020  24.170  1.00  0.00     0.002 C 
ATOM     10  C   UNL A   1      33.701  16.979  25.196  1.00  0.00     0.004 C 
ENDBRANCH   7   9
ENDBRANCH   6   7
BRANCH   6  11
ATOM     11  N   UNL A   1      33.901  20.882  26.451  1.00  0.00    -0.344 N 
ATOM     12  C   UNL A   1      33.481  22.092  26.915  1.00  0.00     0.225 C 
ATOM     13  H   UNL A   1      33.745  20.142  27.082  1.00  0.00     0.164 HD
ATOM     14  O   UNL A   1      33.634  22.275  28.127  1.00  0.00    -0.275 OA
BRANCH  12  15
ATOM     15  C   UNL A   1      32.756  23.144  26.079  1.00  0.00     0.094 C 
ATOM     16  C   UNL A   1      31.247  23.147  26.261  1.00  0.00     0.016 C 
ATOM     17  C   UNL A   1      33.497  24.474  26.204  1.00  0.00     0.116 C 
ATOM     18  C   UNL A   1      30.597  24.403  25.707  1.00  0.00     0.018 C 
ATOM     19  N   UNL A   1      32.711  25.697  25.905  1.00  0.00    -0.197 NA
ATOM     20  C   UNL A   1      31.269  25.670  26.185  1.00  0.00     0.102 C 
BRANCH  19  21
ATOM     21  S   UNL A   1      33.293  26.751  24.702  1.00  0.00     0.243 S 
ATOM     22  O   UNL A   1      34.117  27.746  25.373  1.00  0.00    -0.207 OA
ATOM     23  O   UNL A   1      33.784  25.952  23.620  1.00  0.00    -0.207 OA
BRANCH  21  24
ATOM     24  C   UNL A   1      31.869  27.657  24.098  1.00  0.00     0.082 A 
ATOM     25  C   UNL A   1      31.643  28.934  24.626  1.00  0.00     0.022 A 
ATOM     26  C   UNL A   1      30.952  27.111  23.194  1.00  0.00     0.022 A 
ATOM     27  C   UNL A   1      30.513  29.660  24.239  1.00  0.00     0.001 A 
ATOM     28  C   UNL A   1      29.833  27.848  22.798  1.00  0.00     0.001 A 
ATOM     29  C   UNL A   1      29.614  29.120  23.320  1.00  0.00     0.000 A 
ENDBRANCH  21  24
ENDBRANCH  19  21
ENDBRANCH  12  15
ENDBRANCH   6  11
ENDBRANCH   3   6
ENDBRANCH   1   2
BRANCH   1  30
ATOM     30  C   UNL A   1      38.662  20.461  25.010  1.00  0.00     0.042 C 
BRANCH  30  31
ATOM     31  C   UNL A   1      38.911  19.377  26.050  1.00  0.00     0.118 C 
BRANCH  31  32
ATOM     32  N   UNL A   1      40.256  18.830  25.986  1.00  0.00    -0.352 N 
ATOM     33  C   UNL A   1      41.541  19.290  26.124  1.00  0.00     0.251 C 
ATOM     34  H   UNL A   1      40.240  17.865  25.792  1.00  0.00     0.163 HD
ATOM     35  O   UNL A   1      42.413  18.427  25.966  1.00  0.00    -0.269 OA
BRANCH  33  36
ATOM     36  C   UNL A   1      41.978  20.686  26.440  1.00  0.00     0.039 A 
ATOM     37  C   UNL A   1      42.177  21.562  25.356  1.00  0.00     0.014 A 
ATOM     38  C   UNL A   1      42.238  21.190  27.708  1.00  0.00     0.014 A 
ATOM     39  C   UNL A   1      42.621  22.882  25.545  1.00  0.00     0.010 A 
ATOM     40  C   UNL A   1      42.670  22.511  27.909  1.00  0.00     0.010 A 
ATOM     41  C   UNL A   1      42.874  23.371  26.833  1.00  0.00    -0.014 A 
BRANCH  41  42
ATOM     42  C   UNL A   1      43.172  24.806  27.074  1.00  0.00     0.031 A 
ATOM     43  C   UNL A   1      42.155  25.765  27.631  1.00  0.00     0.074 A 
ATOM     44  C   UNL A   1      44.362  25.274  26.655  1.00  0.00     0.049 A 
ATOM     45  N   UNL A   1      42.322  27.000  28.032  1.00  0.00    -0.248 NA
ATOM     46  C   UNL A   1      40.765  25.294  27.722  1.00  0.00     0.031 C 
ATOM     47  C   UNL A   1      45.353  24.492  25.911  1.00  0.00     0.029 A 
ATOM     48  N   UNL A   1      44.926  26.519  26.757  1.00  0.00    -0.354 N 
ATOM     49  C   UNL A   1      41.068  27.456  28.428  1.00  0.00     0.074 A 
ATOM     50  C   UNL A   1      40.138  26.376  28.173  1.00  0.00     0.031 C 
ATOM     51  C   UNL A   1      46.400  25.278  25.618  1.00  0.00     0.029 A 
ATOM     52  C   UNL A   1      46.169  26.606  26.177  1.00  0.00     0.049 A 
ATOM     53  H   UNL A   1      44.484  27.278  27.202  1.00  0.00     0.167 HD
ATOM     54  C   UNL A   1      40.737  28.653  28.980  1.00  0.00     0.034 A 
ATOM     55  C   UNL A   1      47.044  27.629  26.134  1.00  0.00     0.034 A 
ATOM     56  C   UNL A   1      41.689  29.712  29.220  1.00  0.00     0.049 A 
ATOM     57  C   UNL A   1      46.715  28.885  26.890  1.00  0.00     0.074 A 
ATOM     58  C   UNL A   1      41.507  30.906  29.896  1.00  0.00     0.029 A 
ATOM     59  N   UNL A   1      43.001  29.711  28.768  1.00  0.00    -0.354 N 
ATOM     60  N   UNL A   1      45.611  29.201  27.522  1.00  0.00    -0.248 NA
ATOM     61  C   UNL A   1      47.779  29.893  26.995  1.00  0.00     0.031 C 
ATOM     62  C   UNL A   1      42.703  31.633  29.837  1.00  0.00     0.029 A 
ATOM     63  C   UNL A   1      43.639  30.881  29.146  1.00  0.00     0.049 A 
ATOM     64  H   UNL A   1      43.419  28.983  28.252  1.00  0.00     0.167 HD
ATOM     65  C   UNL A   1      45.852  30.431  28.121  1.00  0.00     0.074 A 
ATOM     66  C   UNL A   1      47.222  30.784  27.807  1.00  0.00     0.031 C 
ATOM     67  C   UNL A   1      45.012  31.207  28.851  1.00  0.00     0.034 A 
BRANCH  54  68
ATOM     68  C   UNL A   1      39.318  28.856  29.468  1.00  0.00     0.023 A 
ATOM     69  C   UNL A   1      38.970  28.389  30.753  1.00  0.00     0.012 A 
ATOM     70  C   UNL A   1      38.373  29.607  28.737  1.00  0.00     0.148 A 
ATOM     71  C   UNL A   1      37.705  28.635  31.290  1.00  0.00     0.002 A 
ATOM     72  C   UNL A   1      37.125  29.883  29.296  1.00  0.00     0.091 A 
ATOM     73  F   UNL A   1      38.710  30.048  27.517  1.00  0.00    -0.205 F 
ATOM     74  C   UNL A   1      36.789  29.389  30.566  1.00  0.00     0.022 A 
BRANCH  72  75
ATOM     75  S   UNL A   1      35.892  30.917  28.492  1.00  0.00     0.127 S 
ATOM     76  O   UNL A   1      34.928  31.122  29.574  1.00  0.00    -0.237 OA
ATOM     77  O   UNL A   1      36.669  32.105  28.139  1.00  0.00    -0.237 OA
ATOM     78  O   UNL A   1      35.397  30.150  27.358  1.00  0.00    -0.744 OA
ENDBRANCH  72  75
ENDBRANCH  54  68
BRANCH  55  79
ATOM     79  C   UNL A   1      48.368  27.429  25.482  1.00  0.00     0.023 A 
ATOM     80  C   UNL A   1      49.449  26.953  26.249  1.00  0.00     0.012 A 
ATOM     81  C   UNL A   1      48.539  27.624  24.098  1.00  0.00     0.148 A 
ATOM     82  C   UNL A   1      50.687  26.705  25.657  1.00  0.00     0.002 A 
ATOM     83  C   UNL A   1      49.761  27.323  23.505  1.00  0.00     0.091 A 
ATOM     84  F   UNL A   1      47.500  28.081  23.386  1.00  0.00    -0.205 F 
ATOM     85  C   UNL A   1      50.839  26.878  24.285  1.00  0.00     0.022 A 
BRANCH  83  86
ATOM     86  S   UNL A   1      49.999  27.375  21.725  1.00  0.00     0.127 S 
ATOM     87  O   UNL A   1      48.887  26.558  21.249  1.00  0.00    -0.237 OA
ATOM     88  O   UNL A   1      49.876  28.806  21.440  1.00  0.00    -0.237 OA
ATOM     89  O   UNL A   1      51.333  26.837  21.496  1.00  0.00    -0.744 OA
ENDBRANCH  83  86
ENDBRANCH  55  79
BRANCH  67  90
ATOM     90  C   UNL A   1      45.555  32.517  29.359  1.00  0.00     0.023 A 
ATOM     91  C   UNL A   1      46.270  32.551  30.574  1.00  0.00     0.012 A 
ATOM     92  C   UNL A   1      45.387  33.707  28.623  1.00  0.00     0.148 A 
ATOM     93  C   UNL A   1      46.768  33.754  31.071  1.00  0.00     0.002 A 
ATOM     94  C   UNL A   1      45.927  34.895  29.102  1.00  0.00     0.091 A 
ATOM     95  F   UNL A   1      44.688  33.661  27.480  1.00  0.00    -0.205 F 
ATOM     96  C   UNL A   1      46.605  34.923  30.333  1.00  0.00     0.022 A 
BRANCH  94  97
ATOM     97  S   UNL A   1      45.842  36.432  28.177  1.00  0.00     0.127 S 
ATOM     98  O   UNL A   1      46.490  37.369  29.093  1.00  0.00    -0.237 OA
ATOM     99  O   UNL A   1      46.617  36.118  26.976  1.00  0.00    -0.237 OA
ATOM    100  O   UNL A   1      44.425  36.673  27.933  1.00  0.00    -0.744 OA
ENDBRANCH  94  97
ENDBRANCH  67  90
ENDBRANCH  41  42
ENDBRANCH  33  36
ENDBRANCH  31  32
ENDBRANCH  30  31
ENDBRANCH   1  30
TORSDOF 19
ENDMDL
MODEL 2
REMARK VINA RESULT:     -10.2      9.546     16.101
REMARK SMILES CC[C@@H](C)[C@H](NC(=O)[C@H]1CCCN(S(=O)(=O)c2ccccc2)C1)C(=O)NCCCNC(=O)c1ccc(-c2c3nc(c(-c4cccc(S(=O)(=O)[O-])c4F)c4ccc([nH]4)c(-c4cccc(S(=O)(=O)[O-])c4F)c4nc(c(-c5cccc(S(=O)(=O)[O-])c5F)c5ccc2[nH]5)C=C4)C=C3)cc1
REMARK SMILES IDX 27 1 26 2 24 3 25 4 5 6 3 7 4 8 2 9 1 10 6 11 7 12 8 14 9 15
REMARK SMILES IDX 10 16 23 17 11 18 13 19 12 20 14 21 15 22 16 23 17 24 18 25
REMARK SMILES IDX 22 26 19 27 21 28 20 29 28 30 29 31 30 32 31 33 32 35 33 36
REMARK SMILES IDX 34 37 95 38 35 39 94 40 36 41 37 42 38 43 88 44 39 45 93 46
REMARK SMILES IDX 87 47 89 48 40 49 92 50 86 51 85 52 41 54 73 55 53 56 72 57
REMARK SMILES IDX 54 58 57 59 71 60 90 61 55 62 56 63 70 65 91 66 58 67 42 68
REMARK SMILES IDX 43 69 51 70 44 71 46 72 52 73 45 74 47 75 48 76 49 77 50 78
REMARK SMILES IDX 74 79 75 80 83 81 76 82 78 83 84 84 77 85 79 86 80 87 81 88
REMARK SMILES IDX 82 89 59 90 60 91 68 92 61 93 63 94 69 95 62 96 64 97 65 98
REMARK SMILES IDX 66 99 67 100
REMARK H PARENT 26 5 6 13 30 34 89 53 57 64
REMARK Flexibility Score: inf
ROOT
ATOM      1  C   UNL A   1      47.474  37.840  25.767  1.00  0.00     0.117 C 
ENDROOT
BRANCH   1   2
ATOM      2  N   UNL A   1      47.080  38.625  24.621  1.00  0.00    -0.354 N 
ATOM      3  C   UNL A   1      46.796  39.952  24.547  1.00  0.00     0.242 C 
ATOM      4  O   UNL A   1      46.982  40.481  23.444  1.00  0.00    -0.273 OA
ATOM      5  H   UNL A   1      47.006  38.129  23.774  1.00  0.00     0.163 HD
BRANCH   3   6
ATOM      6  C   UNL A   1      46.326  40.814  25.750  1.00  0.00     0.174 C 
BRANCH   6   7
ATOM      7  C   UNL A   1      44.759  40.818  25.975  1.00  0.00     0.018 C 
ATOM      8  C   UNL A   1      44.262  42.071  26.708  1.00  0.00     0.010 C 
BRANCH   7   9
ATOM      9  C   UNL A   1      44.122  39.487  26.484  1.00  0.00     0.002 C 
ATOM     10  C   UNL A   1      43.855  39.347  27.978  1.00  0.00     0.004 C 
ENDBRANCH   7   9
ENDBRANCH   6   7
BRANCH   6  11
ATOM     11  N   UNL A   1      46.911  42.163  25.886  1.00  0.00    -0.344 N 
ATOM     12  C   UNL A   1      47.146  43.164  24.993  1.00  0.00     0.225 C 
ATOM     13  H   UNL A   1      47.188  42.382  26.806  1.00  0.00     0.164 HD
ATOM     14  O   UNL A   1      48.180  43.813  25.187  1.00  0.00    -0.275 OA
BRANCH  12  15
ATOM     15  C   UNL A   1      46.187  43.589  23.884  1.00  0.00     0.094 C 
ATOM     16  C   UNL A   1      45.284  44.753  24.257  1.00  0.00     0.016 C 
ATOM     17  C   UNL A   1      46.956  43.671  22.567  1.00  0.00     0.116 C 
ATOM     18  C   UNL A   1      44.604  45.373  23.049  1.00  0.00     0.018 C 
ATOM     19  N   UNL A   1      46.361  44.524  21.508  1.00  0.00    -0.197 NA
ATOM     20  C   UNL A   1      45.571  45.689  21.930  1.00  0.00     0.102 C 
BRANCH  19  21
ATOM     21  S   UNL A   1      46.035  43.816  19.996  1.00  0.00     0.243 S 
ATOM     22  O   UNL A   1      46.376  44.803  18.982  1.00  0.00    -0.207 OA
ATOM     23  O   UNL A   1      46.591  42.498  20.000  1.00  0.00    -0.207 OA
BRANCH  21  24
ATOM     24  C   UNL A   1      44.252  43.647  19.897  1.00  0.00     0.082 A 
ATOM     25  C   UNL A   1      43.579  44.422  18.945  1.00  0.00     0.022 A 
ATOM     26  C   UNL A   1      43.519  42.841  20.775  1.00  0.00     0.022 A 
ATOM     27  C   UNL A   1      42.185  44.378  18.866  1.00  0.00     0.001 A 
ATOM     28  C   UNL A   1      42.126  42.788  20.681  1.00  0.00     0.001 A 
ATOM     29  C   UNL A   1      41.460  43.556  19.729  1.00  0.00     0.000 A 
ENDBRANCH  21  24
ENDBRANCH  19  21
ENDBRANCH  12  15
ENDBRANCH   6  11
ENDBRANCH   3   6
ENDBRANCH   1   2
BRANCH   1  30
ATOM     30  C   UNL A   1      46.578  36.667  26.157  1.00  0.00     0.042 C 
BRANCH  30  31
ATOM     31  C   UNL A   1      47.250  35.301  26.104  1.00  0.00     0.118 C 
BRANCH  31  32
ATOM     32  N   UNL A   1      46.387  34.266  25.561  1.00  0.00    -0.352 N 
ATOM     33  C   UNL A   1      45.239  33.612  25.930  1.00  0.00     0.251 C 
ATOM     34  H   UNL A   1      46.715  33.949  24.689  1.00  0.00     0.163 HD
ATOM     35  O   UNL A   1      44.854  32.757  25.122  1.00  0.00    -0.269 OA
BRANCH  33  36
ATOM     36  C   UNL A   1      44.431  33.824  27.171  1.00  0.00     0.039 A 
ATOM     37  C   UNL A   1      44.162  32.695  27.969  1.00  0.00     0.014 A 
ATOM     38  C   UNL A   1      43.890  35.031  27.594  1.00  0.00     0.014 A 
ATOM     39  C   UNL A   1      43.383  32.782  29.136  1.00  0.00     0.010 A 
ATOM     40  C   UNL A   1      43.120  35.133  28.764  1.00  0.00     0.010 A 
ATOM     41  C   UNL A   1      42.851  34.012  29.545  1.00  0.00    -0.014 A 
BRANCH  41  42
ATOM     42  C   UNL A   1      42.176  34.166  30.859  1.00  0.00     0.031 A 
ATOM     43  C   UNL A   1      40.679  34.229  31.003  1.00  0.00     0.074 A 
ATOM     44  C   UNL A   1      42.953  34.383  31.937  1.00  0.00     0.049 A 
ATOM     45  N   UNL A   1      39.956  34.210  32.094  1.00  0.00    -0.248 NA
ATOM     46  C   UNL A   1      39.891  34.364  29.769  1.00  0.00     0.031 C 
ATOM     47  C   UNL A   1      44.408  34.553  31.898  1.00  0.00     0.029 A 
ATOM     48  N   UNL A   1      42.634  34.535  33.261  1.00  0.00    -0.354 N 
ATOM     49  C   UNL A   1      38.630  34.324  31.686  1.00  0.00     0.074 A 
ATOM     50  C   UNL A   1      38.652  34.459  30.244  1.00  0.00     0.031 C 
ATOM     51  C   UNL A   1      44.854  34.792  33.140  1.00  0.00     0.029 A 
ATOM     52  C   UNL A   1      43.725  34.764  34.065  1.00  0.00     0.049 A 
ATOM     53  H   UNL A   1      41.712  34.486  33.604  1.00  0.00     0.167 HD
ATOM     54  C   UNL A   1      37.504  34.286  32.445  1.00  0.00     0.034 A 
ATOM     55  C   UNL A   1      43.814  34.895  35.402  1.00  0.00     0.034 A 
ATOM     56  C   UNL A   1      37.515  34.151  33.884  1.00  0.00     0.049 A 
ATOM     57  C   UNL A   1      42.574  34.690  36.225  1.00  0.00     0.074 A 
ATOM     58  C   UNL A   1      36.449  33.960  34.746  1.00  0.00     0.029 A 
ATOM     59  N   UNL A   1      38.654  34.218  34.674  1.00  0.00    -0.354 N 
ATOM     60  N   UNL A   1      41.339  34.505  35.825  1.00  0.00    -0.248 NA
ATOM     61  C   UNL A   1      42.749  34.633  37.683  1.00  0.00     0.031 C 
ATOM     62  C   UNL A   1      36.942  33.928  36.057  1.00  0.00     0.029 A 
ATOM     63  C   UNL A   1      38.319  34.075  36.010  1.00  0.00     0.049 A 
ATOM     64  H   UNL A   1      39.569  34.348  34.334  1.00  0.00     0.167 HD
ATOM     65  C   UNL A   1      40.593  34.284  36.975  1.00  0.00     0.074 A 
ATOM     66  C   UNL A   1      41.524  34.321  38.086  1.00  0.00     0.031 C 
ATOM     67  C   UNL A   1      39.258  34.085  37.104  1.00  0.00     0.034 A 
BRANCH  54  68
ATOM     68  C   UNL A   1      36.160  34.279  31.747  1.00  0.00     0.023 A 
ATOM     69  C   UNL A   1      35.851  33.206  30.884  1.00  0.00     0.012 A 
ATOM     70  C   UNL A   1      35.163  35.236  32.028  1.00  0.00     0.148 A 
ATOM     71  C   UNL A   1      34.592  33.101  30.290  1.00  0.00     0.002 A 
ATOM     72  C   UNL A   1      33.895  35.103  31.464  1.00  0.00     0.091 A 
ATOM     73  F   UNL A   1      35.463  36.252  32.850  1.00  0.00    -0.205 F 
ATOM     74  C   UNL A   1      33.613  34.042  30.588  1.00  0.00     0.022 A 
BRANCH  72  75
ATOM     75  S   UNL A   1      32.526  36.207  31.840  1.00  0.00     0.127 S 
ATOM     76  O   UNL A   1      33.175  37.202  32.694  1.00  0.00    -0.237 OA
ATOM     77  O   UNL A   1      32.153  36.698  30.513  1.00  0.00    -0.237 OA
ATOM     78  O   UNL A   1      31.515  35.391  32.496  1.00  0.00    -0.744 OA
ENDBRANCH  72  75
ENDBRANCH  54  68
BRANCH  55  79
ATOM     79  C   UNL A   1      45.152  35.078  36.029  1.00  0.00     0.023 A 
ATOM     80  C   UNL A   1      45.939  33.946  36.315  1.00  0.00     0.012 A 
ATOM     81  C   UNL A   1      45.681  36.362  36.264  1.00  0.00     0.148 A 
ATOM     82  C   UNL A   1      47.218  34.086  36.853  1.00  0.00     0.002 A 
ATOM     83  C   UNL A   1      46.978  36.495  36.750  1.00  0.00     0.091 A 
ATOM     84  F   UNL A   1      44.915  37.427  35.989  1.00  0.00    -0.205 F 
ATOM     85  C   UNL A   1      47.741  35.359  37.059  1.00  0.00     0.022 A 
BRANCH  83  86
ATOM     86  S   UNL A   1      47.783  38.094  36.904  1.00  0.00     0.127 S 
ATOM     87  O   UNL A   1      46.883  38.796  37.814  1.00  0.00    -0.237 OA
ATOM     88  O   UNL A   1      49.080  37.731  37.479  1.00  0.00    -0.237 OA
ATOM     89  O   UNL A   1      47.861  38.621  35.549  1.00  0.00    -0.744 OA
ENDBRANCH  83  86
ENDBRANCH  55  79
BRANCH  67  90
ATOM     90  C   UNL A   1      38.724  33.893  38.500  1.00  0.00     0.023 A 
ATOM     91  C   UNL A   1      38.857  34.930  39.445  1.00  0.00     0.012 A 
ATOM     92  C   UNL A   1      38.064  32.703  38.867  1.00  0.00     0.148 A 
ATOM     93  C   UNL A   1      38.385  34.768  40.747  1.00  0.00     0.002 A 
ATOM     94  C   UNL A   1      37.553  32.568  40.153  1.00  0.00     0.091 A 
ATOM     95  F   UNL A   1      37.962  31.720  37.961  1.00  0.00    -0.205 F 
ATOM     96  C   UNL A   1      37.726  33.593  41.099  1.00  0.00     0.022 A 
BRANCH  94  97
ATOM     97  S   UNL A   1      36.615  31.126  40.669  1.00  0.00     0.127 S 
ATOM     98  O   UNL A   1      37.614  30.065  40.557  1.00  0.00    -0.237 OA
ATOM     99  O   UNL A   1      36.241  31.470  42.041  1.00  0.00    -0.237 OA
ATOM    100  O   UNL A   1      35.492  31.030  39.745  1.00  0.00    -0.744 OA
ENDBRANCH  94  97
ENDBRANCH  67  90
ENDBRANCH  41  42
ENDBRANCH  33  36
ENDBRANCH  31  32
ENDBRANCH  30  31
ENDBRANCH   1  30
TORSDOF 19
ENDMDL
MODEL 3
REMARK VINA RESULT:     -10.2      3.013      8.137
REMARK SMILES CC[C@@H](C)[C@H](NC(=O)[C@H]1CCCN(S(=O)(=O)c2ccccc2)C1)C(=O)NCCCNC(=O)c1ccc(-c2c3nc(c(-c4cccc(S(=O)(=O)[O-])c4F)c4ccc([nH]4)c(-c4cccc(S(=O)(=O)[O-])c4F)c4nc(c(-c5cccc(S(=O)(=O)[O-])c5F)c5ccc2[nH]5)C=C4)C=C3)cc1
REMARK SMILES IDX 27 1 26 2 24 3 25 4 5 6 3 7 4 8 2 9 1 10 6 11 7 12 8 14 9 15
REMARK SMILES IDX 10 16 23 17 11 18 13 19 12 20 14 21 15 22 16 23 17 24 18 25
REMARK SMILES IDX 22 26 19 27 21 28 20 29 28 30 29 31 30 32 31 33 32 35 33 36
REMARK SMILES IDX 34 37 95 38 35 39 94 40 36 41 37 42 38 43 88 44 39 45 93 46
REMARK SMILES IDX 87 47 89 48 40 49 92 50 86 51 85 52 41 54 73 55 53 56 72 57
REMARK SMILES IDX 54 58 57 59 71 60 90 61 55 62 56 63 70 65 91 66 58 67 42 68
REMARK SMILES IDX 43 69 51 70 44 71 46 72 52 73 45 74 47 75 48 76 49 77 50 78
REMARK SMILES IDX 74 79 75 80 83 81 76 82 78 83 84 84 77 85 79 86 80 87 81 88
REMARK SMILES IDX 82 89 59 90 60 91 68 92 61 93 63 94 69 95 62 96 64 97 65 98
REMARK SMILES IDX 66 99 67 100
REMARK H PARENT 26 5 6 13 30 34 89 53 57 64
REMARK Flexibility Score: inf
ROOT
ATOM      1  C   UNL A   1      38.956  22.071  26.582  1.00  0.00     0.117 C 
ENDROOT
BRANCH   1   2
ATOM      2  N   UNL A   1      38.085  22.942  25.828  1.00  0.00    -0.354 N 
ATOM      3  C   UNL A   1      36.734  22.899  25.698  1.00  0.00     0.242 C 
ATOM      4  O   UNL A   1      36.182  23.980  25.450  1.00  0.00    -0.273 OA
ATOM      5  H   UNL A   1      38.534  23.668  25.339  1.00  0.00     0.163 HD
BRANCH   3   6
ATOM      6  C   UNL A   1      35.875  21.620  25.897  1.00  0.00     0.174 C 
BRANCH   6   7
ATOM      7  C   UNL A   1      35.243  21.047  24.564  1.00  0.00     0.018 C 
ATOM      8  C   UNL A   1      34.627  22.135  23.675  1.00  0.00     0.010 C 
BRANCH   7   9
ATOM      9  C   UNL A   1      34.363  19.765  24.703  1.00  0.00     0.002 C 
ATOM     10  C   UNL A   1      32.962  19.789  24.103  1.00  0.00     0.004 C 
ENDBRANCH   7   9
ENDBRANCH   6   7
BRANCH   6  11
ATOM     11  N   UNL A   1      34.912  21.618  27.016  1.00  0.00    -0.344 N 
ATOM     12  C   UNL A   1      33.935  22.488  27.398  1.00  0.00     0.225 C 
ATOM     13  H   UNL A   1      34.992  20.832  27.604  1.00  0.00     0.164 HD
ATOM     14  O   UNL A   1      33.788  22.615  28.618  1.00  0.00    -0.275 OA
BRANCH  12  15
ATOM     15  C   UNL A   1      32.972  23.194  26.446  1.00  0.00     0.094 C 
ATOM     16  C   UNL A   1      31.723  22.393  26.120  1.00  0.00     0.016 C 
ATOM     17  C   UNL A   1      32.800  24.642  26.900  1.00  0.00     0.116 C 
ATOM     18  C   UNL A   1      30.641  23.240  25.472  1.00  0.00     0.018 C 
ATOM     19  N   UNL A   1      31.567  25.333  26.444  1.00  0.00    -0.197 NA
ATOM     20  C   UNL A   1      30.364  24.517  26.231  1.00  0.00     0.102 C 
BRANCH  19  21
ATOM     21  S   UNL A   1      31.737  26.787  25.576  1.00  0.00     0.243 S 
ATOM     22  O   UNL A   1      30.422  27.409  25.530  1.00  0.00    -0.207 OA
ATOM     23  O   UNL A   1      32.889  27.467  26.083  1.00  0.00    -0.207 OA
BRANCH  21  24
ATOM     24  C   UNL A   1      32.090  26.320  23.881  1.00  0.00     0.082 A 
ATOM     25  C   UNL A   1      33.369  25.826  23.599  1.00  0.00     0.022 A 
ATOM     26  C   UNL A   1      31.174  26.503  22.839  1.00  0.00     0.022 A 
ATOM     27  C   UNL A   1      33.721  25.507  22.285  1.00  0.00     0.001 A 
ATOM     28  C   UNL A   1      31.525  26.166  21.530  1.00  0.00     0.001 A 
ATOM     29  C   UNL A   1      32.797  25.669  21.253  1.00  0.00     0.000 A 
ENDBRANCH  21  24
ENDBRANCH  19  21
ENDBRANCH  12  15
ENDBRANCH   6  11
ENDBRANCH   3   6
ENDBRANCH   1   2
BRANCH   1  30
ATOM     30  C   UNL A   1      40.093  21.388  25.827  1.00  0.00     0.042 C 
BRANCH  30  31
ATOM     31  C   UNL A   1      41.485  21.655  26.383  1.00  0.00     0.118 C 
BRANCH  31  32
ATOM     32  N   UNL A   1      42.451  21.995  25.353  1.00  0.00    -0.352 N 
ATOM     33  C   UNL A   1      43.188  23.091  24.981  1.00  0.00     0.251 C 
ATOM     34  H   UNL A   1      42.626  21.228  24.760  1.00  0.00     0.163 HD
ATOM     35  O   UNL A   1      43.902  22.914  23.986  1.00  0.00    -0.269 OA
BRANCH  33  36
ATOM     36  C   UNL A   1      43.216  24.434  25.641  1.00  0.00     0.039 A 
ATOM     37  C   UNL A   1      43.481  24.471  27.023  1.00  0.00     0.014 A 
ATOM     38  C   UNL A   1      42.969  25.651  25.018  1.00  0.00     0.014 A 
ATOM     39  C   UNL A   1      43.495  25.679  27.741  1.00  0.00     0.010 A 
ATOM     40  C   UNL A   1      42.992  26.865  25.723  1.00  0.00     0.010 A 
ATOM     41  C   UNL A   1      43.247  26.895  27.092  1.00  0.00    -0.014 A 
BRANCH  41  42
ATOM     42  C   UNL A   1      43.428  28.196  27.786  1.00  0.00     0.031 A 
ATOM     43  C   UNL A   1      44.768  28.870  27.914  1.00  0.00     0.074 A 
ATOM     44  C   UNL A   1      42.363  28.713  28.427  1.00  0.00     0.049 A 
ATOM     45  N   UNL A   1      45.045  30.071  28.357  1.00  0.00    -0.248 NA
ATOM     46  C   UNL A   1      45.952  28.091  27.527  1.00  0.00     0.031 C 
ATOM     47  C   UNL A   1      41.062  28.052  28.555  1.00  0.00     0.029 A 
ATOM     48  N   UNL A   1      42.212  29.886  29.120  1.00  0.00    -0.354 N 
ATOM     49  C   UNL A   1      46.430  30.199  28.299  1.00  0.00     0.074 A 
ATOM     50  C   UNL A   1      46.941  28.930  27.821  1.00  0.00     0.031 C 
ATOM     51  C   UNL A   1      40.248  28.827  29.287  1.00  0.00     0.029 A 
ATOM     52  C   UNL A   1      40.957  30.048  29.655  1.00  0.00     0.049 A 
ATOM     53  H   UNL A   1      42.933  30.549  29.224  1.00  0.00     0.167 HD
ATOM     54  C   UNL A   1      47.193  31.284  28.590  1.00  0.00     0.034 A 
ATOM     55  C   UNL A   1      40.422  31.082  30.332  1.00  0.00     0.034 A 
ATOM     56  C   UNL A   1      46.653  32.536  29.067  1.00  0.00     0.049 A 
ATOM     57  C   UNL A   1      41.242  32.331  30.497  1.00  0.00     0.074 A 
ATOM     58  C   UNL A   1      47.301  33.744  29.261  1.00  0.00     0.029 A 
ATOM     59  N   UNL A   1      45.333  32.731  29.449  1.00  0.00    -0.354 N 
ATOM     60  N   UNL A   1      42.493  32.545  30.171  1.00  0.00    -0.248 NA
ATOM     61  C   UNL A   1      40.555  33.505  31.052  1.00  0.00     0.031 C 
ATOM     62  C   UNL A   1      46.377  34.662  29.775  1.00  0.00     0.029 A 
ATOM     63  C   UNL A   1      45.146  34.034  29.879  1.00  0.00     0.049 A 
ATOM     64  H   UNL A   1      44.630  32.042  29.419  1.00  0.00     0.167 HD
ATOM     65  C   UNL A   1      42.740  33.881  30.456  1.00  0.00     0.074 A 
ATOM     66  C   UNL A   1      41.494  34.437  30.946  1.00  0.00     0.031 C 
ATOM     67  C   UNL A   1      43.895  34.583  30.338  1.00  0.00     0.034 A 
BRANCH  54  68
ATOM     68  C   UNL A   1      48.679  31.222  28.301  1.00  0.00     0.023 A 
ATOM     69  C   UNL A   1      49.147  31.681  27.052  1.00  0.00     0.012 A 
ATOM     70  C   UNL A   1      49.619  30.842  29.283  1.00  0.00     0.148 A 
ATOM     71  C   UNL A   1      50.512  31.735  26.770  1.00  0.00     0.002 A 
ATOM     72  C   UNL A   1      50.983  30.936  29.009  1.00  0.00     0.091 A 
ATOM     73  F   UNL A   1      49.168  30.407  30.468  1.00  0.00    -0.205 F 
ATOM     74  C   UNL A   1      51.429  31.373  27.751  1.00  0.00     0.022 A 
BRANCH  72  75
ATOM     75  S   UNL A   1      52.260  30.577  30.225  1.00  0.00     0.127 S 
ATOM     76  O   UNL A   1      53.469  30.997  29.515  1.00  0.00    -0.237 OA
ATOM     77  O   UNL A   1      51.878  31.447  31.338  1.00  0.00    -0.237 OA
ATOM     78  O   UNL A   1      52.166  29.152  30.502  1.00  0.00    -0.744 OA
ENDBRANCH  72  75
ENDBRANCH  54  68
BRANCH  55  79
ATOM     79  C   UNL A   1      38.994  31.019  30.750  1.00  0.00     0.023 A 
ATOM     80  C   UNL A   1      38.660  30.395  31.967  1.00  0.00     0.012 A 
ATOM     81  C   UNL A   1      37.982  31.644  29.996  1.00  0.00     0.148 A 
ATOM     82  C   UNL A   1      37.338  30.367  32.412  1.00  0.00     0.002 A 
ATOM     83  C   UNL A   1      36.676  31.658  30.473  1.00  0.00     0.091 A 
ATOM     84  F   UNL A   1      38.320  32.228  28.838  1.00  0.00    -0.205 F 
ATOM     85  C   UNL A   1      36.350  31.007  31.672  1.00  0.00     0.022 A 
BRANCH  83  86
ATOM     86  S   UNL A   1      35.370  32.586  29.659  1.00  0.00     0.127 S 
ATOM     87  O   UNL A   1      34.295  32.517  30.644  1.00  0.00    -0.237 OA
ATOM     88  O   UNL A   1      35.981  33.909  29.508  1.00  0.00    -0.237 OA
ATOM     89  O   UNL A   1      35.130  31.895  28.400  1.00  0.00    -0.744 OA
ENDBRANCH  83  86
ENDBRANCH  55  79
BRANCH  67  90
ATOM     90  C   UNL A   1      43.863  36.032  30.749  1.00  0.00     0.023 A 
ATOM     91  C   UNL A   1      44.049  36.375  32.103  1.00  0.00     0.012 A 
ATOM     92  C   UNL A   1      43.681  37.053  29.795  1.00  0.00     0.148 A 
ATOM     93  C   UNL A   1      44.008  37.708  32.509  1.00  0.00     0.002 A 
ATOM     94  C   UNL A   1      43.688  38.383  30.202  1.00  0.00     0.091 A 
ATOM     95  F   UNL A   1      43.486  36.708  28.515  1.00  0.00    -0.205 F 
ATOM     96  C   UNL A   1      43.837  38.712  31.559  1.00  0.00     0.022 A 
BRANCH  94  97
ATOM     97  S   UNL A   1      43.561  39.744  29.037  1.00  0.00     0.127 S 
ATOM     98  O   UNL A   1      42.215  39.554  28.501  1.00  0.00    -0.237 OA
ATOM     99  O   UNL A   1      43.713  40.913  29.904  1.00  0.00    -0.237 OA
ATOM    100  O   UNL A   1      44.648  39.557  28.084  1.00  0.00    -0.744 OA
ENDBRANCH  94  97
ENDBRANCH  67  90
ENDBRANCH  41  42
ENDBRANCH  33  36
ENDBRANCH  31  32
ENDBRANCH  30  31
ENDBRANCH   1  30
TORSDOF 19
ENDMDL
