MODEL 1
REMARK VINA RESULT:     -12.6      0.000      0.000
REMARK SMILES CNC(=O)c1ccc(Cl)cc1NC(=O)[C@H]1[C@@H](C(=O)NCCCNC(=O)c2ccc(-c3c4nc(c(-c5cccc(S(=O)(=O)[O-])c5F)c5ccc([nH]5)c(-c5cccc(S(=O)(=O)[O-])c5F)c5nc(c(-c6cccc(S(=O)(=O)[O-])c6F)c6ccc3[nH]6)C=C5)C=C4)cc2)[C@H]2C=C[C@@H]1C2
REMARK SMILES IDX 21 1 20 2 19 3 17 4 18 5 16 7 15 8 92 9 89 10 91 11 93 12
REMARK SMILES IDX 90 13 13 14 12 15 14 17 11 18 5 19 6 20 7 21 10 22 8 23 9 24
REMARK SMILES IDX 3 25 1 26 2 27 4 29 22 30 23 31 24 32 25 34 26 35 27 36
REMARK SMILES IDX 88 37 28 38 87 39 29 40 30 41 31 42 81 43 32 44 86 45 80 46
REMARK SMILES IDX 82 47 33 48 85 49 79 50 78 51 34 53 66 54 46 55 65 56 47 57
REMARK SMILES IDX 50 58 64 59 83 60 48 61 49 62 63 64 84 65 51 66 35 67 36 68
REMARK SMILES IDX 44 69 37 70 39 71 45 72 38 73 40 74 41 75 42 76 43 77 67 78
REMARK SMILES IDX 68 79 76 80 69 81 71 82 77 83 70 84 72 85 73 86 74 87 75 88
REMARK SMILES IDX 52 89 53 90 61 91 54 92 56 93 62 94 55 95 57 96 58 97 59 98
REMARK SMILES IDX 60 99
REMARK H PARENT 19 6 12 16 2 28 23 33 82 52 50 63
REMARK Flexibility Score: inf
ROOT
ATOM      1  C   UNL A   1      37.294  19.576  25.002  1.00  0.00     0.042 C 
ENDROOT
BRANCH   1   2
ATOM      2  C   UNL A   1      35.981  20.389  24.831  1.00  0.00     0.117 C 
BRANCH   2   3
ATOM      3  N   UNL A   1      34.647  19.748  24.765  1.00  0.00    -0.356 N 
ATOM      4  C   UNL A   1      33.351  20.123  25.088  1.00  0.00     0.224 C 
ATOM      5  O   UNL A   1      32.438  19.597  24.445  1.00  0.00    -0.275 OA
ATOM      6  H   UNL A   1      34.692  18.833  24.403  1.00  0.00     0.163 HD
BRANCH   4   7
ATOM      7  C   UNL A   1      33.043  21.205  26.121  1.00  0.00     0.098 C 
ATOM      8  C   UNL A   1      32.213  22.339  25.597  1.00  0.00     0.099 C 
ATOM      9  C   UNL A   1      32.243  23.351  26.806  1.00  0.00     0.025 C 
ATOM     10  C   UNL A   1      34.037  22.042  27.058  1.00  0.00     0.025 C 
ATOM     11  C   UNL A   1      33.373  24.265  26.514  1.00  0.00    -0.027 C 
ATOM     12  C   UNL A   1      32.939  22.595  27.977  1.00  0.00     0.017 C 
ATOM     13  C   UNL A   1      34.461  23.491  26.624  1.00  0.00    -0.027 C 
BRANCH   8  14
ATOM     14  C   UNL A   1      32.665  22.902  24.196  1.00  0.00     0.228 C 
ATOM     15  N   UNL A   1      32.541  24.172  23.665  1.00  0.00    -0.325 N 
ATOM     16  H   UNL A   1      33.341  24.370  23.126  1.00  0.00     0.169 HD
ATOM     17  O   UNL A   1      33.411  22.149  23.545  1.00  0.00    -0.274 OA
BRANCH  15  18
ATOM     18  C   UNL A   1      31.658  25.310  23.619  1.00  0.00     0.055 A 
ATOM     19  C   UNL A   1      32.023  26.510  22.960  1.00  0.00     0.063 A 
ATOM     20  C   UNL A   1      31.086  27.517  22.639  1.00  0.00     0.017 A 
ATOM     21  C   UNL A   1      29.775  27.415  23.065  1.00  0.00     0.021 A 
ATOM     22  C   UNL A   1      30.347  25.292  24.079  1.00  0.00     0.047 A 
ATOM     23  C   UNL A   1      29.422  26.316  23.823  1.00  0.00     0.043 A 
ATOM     24  Cl  UNL A   1      27.813  26.182  24.426  1.00  0.00    -0.084 Cl
BRANCH  19  25
ATOM     25  C   UNL A   1      33.408  26.859  22.627  1.00  0.00     0.253 C 
ATOM     26  C   UNL A   1      33.629  28.489  24.580  1.00  0.00     0.143 C 
ATOM     27  N   UNL A   1      34.106  27.731  23.436  1.00  0.00    -0.355 N 
ATOM     28  H   UNL A   1      35.055  27.858  23.208  1.00  0.00     0.163 HD
ATOM     29  O   UNL A   1      33.907  26.389  21.605  1.00  0.00    -0.269 OA
ENDBRANCH  19  25
ENDBRANCH  15  18
ENDBRANCH   8  14
ENDBRANCH   4   7
ENDBRANCH   2   3
ENDBRANCH   1   2
BRANCH   1  30
ATOM     30  C   UNL A   1      38.529  20.197  25.657  1.00  0.00     0.118 C 
BRANCH  30  31
ATOM     31  N   UNL A   1      39.627  19.269  25.864  1.00  0.00    -0.352 N 
ATOM     32  C   UNL A   1      40.944  19.546  26.160  1.00  0.00     0.251 C 
ATOM     33  H   UNL A   1      39.400  18.315  25.780  1.00  0.00     0.163 HD
ATOM     34  O   UNL A   1      41.767  18.633  26.166  1.00  0.00    -0.269 OA
BRANCH  32  35
ATOM     35  C   UNL A   1      41.386  20.926  26.477  1.00  0.00     0.039 A 
ATOM     36  C   UNL A   1      41.688  21.813  25.439  1.00  0.00     0.014 A 
ATOM     37  C   UNL A   1      41.590  21.321  27.802  1.00  0.00     0.014 A 
ATOM     38  C   UNL A   1      42.153  23.104  25.730  1.00  0.00     0.010 A 
ATOM     39  C   UNL A   1      42.023  22.621  28.091  1.00  0.00     0.010 A 
ATOM     40  C   UNL A   1      42.314  23.529  27.061  1.00  0.00    -0.014 A 
BRANCH  40  41
ATOM     41  C   UNL A   1      42.763  24.916  27.380  1.00  0.00     0.031 A 
ATOM     42  C   UNL A   1      41.812  25.916  27.989  1.00  0.00     0.074 A 
ATOM     43  C   UNL A   1      44.014  25.303  27.057  1.00  0.00     0.049 A 
ATOM     44  N   UNL A   1      42.024  27.167  28.313  1.00  0.00    -0.248 NA
ATOM     45  C   UNL A   1      40.441  25.457  28.255  1.00  0.00     0.031 C 
ATOM     46  C   UNL A   1      45.009  24.458  26.394  1.00  0.00     0.029 A 
ATOM     47  N   UNL A   1      44.654  26.509  27.211  1.00  0.00    -0.354 N 
ATOM     48  C   UNL A   1      40.810  27.655  28.782  1.00  0.00     0.074 A 
ATOM     49  C   UNL A   1      39.859  26.567  28.686  1.00  0.00     0.031 C 
ATOM     50  C   UNL A   1      46.128  25.172  26.190  1.00  0.00     0.029 A 
ATOM     51  C   UNL A   1      45.925  26.533  26.681  1.00  0.00     0.049 A 
ATOM     52  H   UNL A   1      44.244  27.284  27.657  1.00  0.00     0.167 HD
ATOM     53  C   UNL A   1      40.514  28.886  29.267  1.00  0.00     0.034 A 
ATOM     54  C   UNL A   1      46.820  27.536  26.582  1.00  0.00     0.034 A 
ATOM     55  C   UNL A   1      41.469  29.957  29.388  1.00  0.00     0.049 A 
ATOM     56  C   UNL A   1      46.477  28.886  27.156  1.00  0.00     0.074 A 
ATOM     57  C   UNL A   1      41.292  31.206  29.959  1.00  0.00     0.029 A 
ATOM     58  N   UNL A   1      42.769  29.918  28.911  1.00  0.00    -0.354 N 
ATOM     59  N   UNL A   1      45.379  29.271  27.760  1.00  0.00    -0.248 NA
ATOM     60  C   UNL A   1      47.509  29.930  27.069  1.00  0.00     0.031 C 
ATOM     61  C   UNL A   1      42.472  31.936  29.790  1.00  0.00     0.029 A 
ATOM     62  C   UNL A   1      43.400  31.127  29.153  1.00  0.00     0.049 A 
ATOM     63  H   UNL A   1      43.185  29.144  28.467  1.00  0.00     0.167 HD
ATOM     64  C   UNL A   1      45.598  30.587  28.149  1.00  0.00     0.074 A 
ATOM     65  C   UNL A   1      46.944  30.926  27.736  1.00  0.00     0.031 C 
ATOM     66  C   UNL A   1      44.755  31.442  28.780  1.00  0.00     0.034 A 
BRANCH  53  67
ATOM     67  C   UNL A   1      39.105  29.144  29.741  1.00  0.00     0.023 A 
ATOM     68  C   UNL A   1      38.733  28.798  31.056  1.00  0.00     0.012 A 
ATOM     69  C   UNL A   1      38.170  29.796  28.911  1.00  0.00     0.148 A 
ATOM     70  C   UNL A   1      37.448  29.063  31.527  1.00  0.00     0.002 A 
ATOM     71  C   UNL A   1      36.905  30.099  29.402  1.00  0.00     0.091 A 
ATOM     72  F   UNL A   1      38.534  30.108  27.659  1.00  0.00    -0.205 F 
ATOM     73  C   UNL A   1      36.538  29.721  30.705  1.00  0.00     0.022 A 
BRANCH  71  74
ATOM     74  S   UNL A   1      35.685  31.018  28.454  1.00  0.00     0.127 S 
ATOM     75  O   UNL A   1      35.213  30.001  27.517  1.00  0.00    -0.237 OA
ATOM     76  O   UNL A   1      34.716  31.394  29.485  1.00  0.00    -0.237 OA
ATOM     77  O   UNL A   1      36.400  32.136  27.853  1.00  0.00    -0.744 OA
ENDBRANCH  71  74
ENDBRANCH  53  67
BRANCH  54  78
ATOM     78  C   UNL A   1      48.149  27.293  25.947  1.00  0.00     0.023 A 
ATOM     79  C   UNL A   1      49.229  26.853  26.738  1.00  0.00     0.012 A 
ATOM     80  C   UNL A   1      48.342  27.480  24.565  1.00  0.00     0.148 A 
ATOM     81  C   UNL A   1      50.487  26.638  26.169  1.00  0.00     0.002 A 
ATOM     82  C   UNL A   1      49.581  27.208  23.995  1.00  0.00     0.091 A 
ATOM     83  F   UNL A   1      47.307  27.912  23.832  1.00  0.00    -0.205 F 
ATOM     84  C   UNL A   1      50.659  26.805  24.798  1.00  0.00     0.022 A 
BRANCH  82  85
ATOM     85  S   UNL A   1      49.864  27.273  22.222  1.00  0.00     0.127 S 
ATOM     86  O   UNL A   1      48.833  26.366  21.721  1.00  0.00    -0.237 OA
ATOM     87  O   UNL A   1      49.632  28.688  21.932  1.00  0.00    -0.237 OA
ATOM     88  O   UNL A   1      51.239  26.837  22.026  1.00  0.00    -0.744 OA
ENDBRANCH  82  85
ENDBRANCH  54  78
BRANCH  66  89
ATOM     89  C   UNL A   1      45.264  32.824  29.100  1.00  0.00     0.023 A 
ATOM     90  C   UNL A   1      45.978  33.053  30.293  1.00  0.00     0.012 A 
ATOM     91  C   UNL A   1      45.106  33.876  28.175  1.00  0.00     0.148 A 
ATOM     92  C   UNL A   1      46.499  34.316  30.575  1.00  0.00     0.002 A 
ATOM     93  C   UNL A   1      45.675  35.116  28.439  1.00  0.00     0.091 A 
ATOM     94  F   UNL A   1      44.411  33.642  27.053  1.00  0.00    -0.205 F 
ATOM     95  C   UNL A   1      46.360  35.342  29.643  1.00  0.00     0.022 A 
BRANCH  93  96
ATOM     96  S   UNL A   1      45.632  36.469  27.257  1.00  0.00     0.127 S 
ATOM     97  O   UNL A   1      46.380  37.507  27.965  1.00  0.00    -0.237 OA
ATOM     98  O   UNL A   1      46.329  35.894  26.105  1.00  0.00    -0.237 OA
ATOM     99  O   UNL A   1      44.224  36.763  27.028  1.00  0.00    -0.744 OA
ENDBRANCH  93  96
ENDBRANCH  66  89
ENDBRANCH  40  41
ENDBRANCH  32  35
ENDBRANCH  30  31
ENDBRANCH   1  30
TORSDOF 16
ENDMDL
MODEL 2
REMARK VINA RESULT:     -12.6      2.053      2.835
REMARK SMILES CNC(=O)c1ccc(Cl)cc1NC(=O)[C@H]1[C@@H](C(=O)NCCCNC(=O)c2ccc(-c3c4nc(c(-c5cccc(S(=O)(=O)[O-])c5F)c5ccc([nH]5)c(-c5cccc(S(=O)(=O)[O-])c5F)c5nc(c(-c6cccc(S(=O)(=O)[O-])c6F)c6ccc3[nH]6)C=C5)C=C4)cc2)[C@H]2C=C[C@@H]1C2
REMARK SMILES IDX 21 1 20 2 19 3 17 4 18 5 16 7 15 8 92 9 89 10 91 11 93 12
REMARK SMILES IDX 90 13 13 14 12 15 14 17 11 18 5 19 6 20 7 21 10 22 8 23 9 24
REMARK SMILES IDX 3 25 1 26 2 27 4 29 22 30 23 31 24 32 25 34 26 35 27 36
REMARK SMILES IDX 88 37 28 38 87 39 29 40 30 41 31 42 81 43 32 44 86 45 80 46
REMARK SMILES IDX 82 47 33 48 85 49 79 50 78 51 34 53 66 54 46 55 65 56 47 57
REMARK SMILES IDX 50 58 64 59 83 60 48 61 49 62 63 64 84 65 51 66 35 67 36 68
REMARK SMILES IDX 44 69 37 70 39 71 45 72 38 73 40 74 41 75 42 76 43 77 67 78
REMARK SMILES IDX 68 79 76 80 69 81 71 82 77 83 70 84 72 85 73 86 74 87 75 88
REMARK SMILES IDX 52 89 53 90 61 91 54 92 56 93 62 94 55 95 57 96 58 97 59 98
REMARK SMILES IDX 60 99
REMARK H PARENT 19 6 12 16 2 28 23 33 82 52 50 63
REMARK Flexibility Score: inf
ROOT
ATOM      1  C   UNL A   1      38.189  19.923  25.007  1.00  0.00     0.042 C 
ENDROOT
BRANCH   1   2
ATOM      2  C   UNL A   1      36.975  20.889  24.913  1.00  0.00     0.117 C 
BRANCH   2   3
ATOM      3  N   UNL A   1      35.601  20.484  25.287  1.00  0.00    -0.356 N 
ATOM      4  C   UNL A   1      34.340  20.622  24.725  1.00  0.00     0.224 C 
ATOM      5  O   UNL A   1      33.508  19.750  24.994  1.00  0.00    -0.275 OA
ATOM      6  H   UNL A   1      35.577  19.999  26.144  1.00  0.00     0.163 HD
BRANCH   4   7
ATOM      7  C   UNL A   1      33.999  21.737  23.739  1.00  0.00     0.098 C 
ATOM      8  C   UNL A   1      34.060  23.117  24.322  1.00  0.00     0.099 C 
ATOM      9  C   UNL A   1      33.477  23.994  23.149  1.00  0.00     0.025 C 
ATOM     10  C   UNL A   1      32.710  21.922  22.806  1.00  0.00     0.025 C 
ATOM     11  C   UNL A   1      32.029  24.116  23.443  1.00  0.00    -0.027 C 
ATOM     12  C   UNL A   1      33.320  23.030  21.935  1.00  0.00     0.017 C 
ATOM     13  C   UNL A   1      31.553  22.874  23.278  1.00  0.00    -0.027 C 
BRANCH   8  14
ATOM     14  C   UNL A   1      33.368  23.274  25.730  1.00  0.00     0.228 C 
ATOM     15  N   UNL A   1      32.606  24.311  26.237  1.00  0.00    -0.325 N 
ATOM     16  H   UNL A   1      31.893  23.934  26.801  1.00  0.00     0.169 HD
ATOM     17  O   UNL A   1      33.341  22.240  26.420  1.00  0.00    -0.274 OA
BRANCH  15  18
ATOM     18  C   UNL A   1      32.484  25.746  26.233  1.00  0.00     0.055 A 
ATOM     19  C   UNL A   1      31.221  26.386  26.294  1.00  0.00     0.063 A 
ATOM     20  C   UNL A   1      31.078  27.759  26.593  1.00  0.00     0.017 A 
ATOM     21  C   UNL A   1      32.192  28.567  26.727  1.00  0.00     0.021 A 
ATOM     22  C   UNL A   1      33.564  26.616  26.311  1.00  0.00     0.047 A 
ATOM     23  C   UNL A   1      33.435  27.995  26.543  1.00  0.00     0.043 A 
ATOM     24  Cl  UNL A   1      34.846  28.978  26.641  1.00  0.00    -0.084 Cl
BRANCH  19  25
ATOM     25  C   UNL A   1      29.958  25.713  25.972  1.00  0.00     0.253 C 
ATOM     26  C   UNL A   1      29.672  26.973  23.769  1.00  0.00     0.143 C 
ATOM     27  N   UNL A   1      29.324  25.987  24.778  1.00  0.00    -0.355 N 
ATOM     28  H   UNL A   1      28.528  25.441  24.583  1.00  0.00     0.163 HD
ATOM     29  O   UNL A   1      29.473  24.941  26.797  1.00  0.00    -0.269 OA
ENDBRANCH  19  25
ENDBRANCH  15  18
ENDBRANCH   8  14
ENDBRANCH   4   7
ENDBRANCH   2   3
ENDBRANCH   1   2
BRANCH   1  30
ATOM     30  C   UNL A   1      39.258  20.098  26.089  1.00  0.00     0.118 C 
BRANCH  30  31
ATOM     31  N   UNL A   1      40.362  19.161  25.995  1.00  0.00    -0.352 N 
ATOM     32  C   UNL A   1      41.716  19.420  26.023  1.00  0.00     0.251 C 
ATOM     33  H   UNL A   1      40.111  18.214  25.899  1.00  0.00     0.163 HD
ATOM     34  O   UNL A   1      42.509  18.510  25.793  1.00  0.00    -0.269 OA
BRANCH  32  35
ATOM     35  C   UNL A   1      42.231  20.776  26.329  1.00  0.00     0.039 A 
ATOM     36  C   UNL A   1      42.285  21.213  27.657  1.00  0.00     0.014 A 
ATOM     37  C   UNL A   1      42.577  21.655  25.300  1.00  0.00     0.014 A 
ATOM     38  C   UNL A   1      42.725  22.513  27.952  1.00  0.00     0.010 A 
ATOM     39  C   UNL A   1      43.046  22.941  25.598  1.00  0.00     0.010 A 
ATOM     40  C   UNL A   1      43.124  23.388  26.926  1.00  0.00    -0.014 A 
BRANCH  40  41
ATOM     41  C   UNL A   1      43.637  24.756  27.234  1.00  0.00     0.031 A 
ATOM     42  C   UNL A   1      42.712  25.832  27.745  1.00  0.00     0.074 A 
ATOM     43  C   UNL A   1      44.929  25.054  26.986  1.00  0.00     0.049 A 
ATOM     44  N   UNL A   1      42.982  27.079  28.045  1.00  0.00    -0.248 NA
ATOM     45  C   UNL A   1      41.300  25.467  27.930  1.00  0.00     0.031 C 
ATOM     46  C   UNL A   1      45.910  24.128  26.418  1.00  0.00     0.029 A 
ATOM     47  N   UNL A   1      45.632  26.224  27.146  1.00  0.00    -0.354 N 
ATOM     48  C   UNL A   1      41.771  27.656  28.414  1.00  0.00     0.074 A 
ATOM     49  C   UNL A   1      40.762  26.626  28.286  1.00  0.00     0.031 C 
ATOM     50  C   UNL A   1      47.083  24.765  26.271  1.00  0.00     0.029 A 
ATOM     51  C   UNL A   1      46.934  26.151  26.705  1.00  0.00     0.049 A 
ATOM     52  H   UNL A   1      45.242  27.037  27.540  1.00  0.00     0.167 HD
ATOM     53  C   UNL A   1      41.523  28.919  28.840  1.00  0.00     0.034 A 
ATOM     54  C   UNL A   1      47.896  27.094  26.638  1.00  0.00     0.034 A 
ATOM     55  C   UNL A   1      42.533  29.933  28.993  1.00  0.00     0.049 A 
ATOM     56  C   UNL A   1      47.602  28.481  27.145  1.00  0.00     0.074 A 
ATOM     57  C   UNL A   1      42.398  31.209  29.513  1.00  0.00     0.029 A 
ATOM     58  N   UNL A   1      43.857  29.798  28.609  1.00  0.00    -0.354 N 
ATOM     59  N   UNL A   1      46.492  28.953  27.660  1.00  0.00    -0.248 NA
ATOM     60  C   UNL A   1      48.701  29.457  27.098  1.00  0.00     0.031 C 
ATOM     61  C   UNL A   1      43.631  31.860  29.404  1.00  0.00     0.029 A 
ATOM     62  C   UNL A   1      44.546  30.974  28.857  1.00  0.00     0.049 A 
ATOM     63  H   UNL A   1      44.252  28.985  28.218  1.00  0.00     0.167 HD
ATOM     64  C   UNL A   1      46.767  30.266  28.024  1.00  0.00     0.074 A 
ATOM     65  C   UNL A   1      48.157  30.508  27.694  1.00  0.00     0.031 C 
ATOM     66  C   UNL A   1      45.940  31.192  28.569  1.00  0.00     0.034 A 
BRANCH  53  67
ATOM     67  C   UNL A   1      40.104  29.278  29.208  1.00  0.00     0.023 A 
ATOM     68  C   UNL A   1      39.178  29.603  28.194  1.00  0.00     0.012 A 
ATOM     69  C   UNL A   1      39.666  29.220  30.546  1.00  0.00     0.148 A 
ATOM     70  C   UNL A   1      37.853  29.899  28.509  1.00  0.00     0.002 A 
ATOM     71  C   UNL A   1      38.332  29.471  30.848  1.00  0.00     0.091 A 
ATOM     72  F   UNL A   1      40.560  28.921  31.500  1.00  0.00    -0.205 F 
ATOM     73  C   UNL A   1      37.427  29.824  29.832  1.00  0.00     0.022 A 
BRANCH  71  74
ATOM     74  S   UNL A   1      37.663  29.320  32.509  1.00  0.00     0.127 S 
ATOM     75  O   UNL A   1      38.535  30.220  33.261  1.00  0.00    -0.237 OA
ATOM     76  O   UNL A   1      36.293  29.806  32.333  1.00  0.00    -0.237 OA
ATOM     77  O   UNL A   1      37.769  27.911  32.860  1.00  0.00    -0.744 OA
ENDBRANCH  71  74
ENDBRANCH  53  67
BRANCH  54  78
ATOM     78  C   UNL A   1      49.246  26.748  26.103  1.00  0.00     0.023 A 
ATOM     79  C   UNL A   1      50.124  25.967  26.880  1.00  0.00     0.012 A 
ATOM     80  C   UNL A   1      49.657  27.177  24.826  1.00  0.00     0.148 A 
ATOM     81  C   UNL A   1      51.399  25.647  26.409  1.00  0.00     0.002 A 
ATOM     82  C   UNL A   1      50.906  26.807  24.339  1.00  0.00     0.091 A 
ATOM     83  F   UNL A   1      48.814  27.932  24.109  1.00  0.00    -0.205 F 
ATOM     84  C   UNL A   1      51.785  26.058  25.136  1.00  0.00     0.022 A 
BRANCH  82  85
ATOM     85  S   UNL A   1      51.440  27.181  22.666  1.00  0.00     0.127 S 
ATOM     86  O   UNL A   1      51.662  28.623  22.738  1.00  0.00    -0.237 OA
ATOM     87  O   UNL A   1      52.657  26.377  22.551  1.00  0.00    -0.237 OA
ATOM     88  O   UNL A   1      50.352  26.752  21.799  1.00  0.00    -0.744 OA
ENDBRANCH  82  85
ENDBRANCH  54  78
BRANCH  66  89
ATOM     89  C   UNL A   1      46.513  32.551  28.881  1.00  0.00     0.023 A 
ATOM     90  C   UNL A   1      47.126  32.788  30.127  1.00  0.00     0.012 A 
ATOM     91  C   UNL A   1      46.518  33.566  27.904  1.00  0.00     0.148 A 
ATOM     92  C   UNL A   1      47.706  34.025  30.408  1.00  0.00     0.002 A 
ATOM     93  C   UNL A   1      47.145  34.778  28.171  1.00  0.00     0.091 A 
ATOM     94  F   UNL A   1      45.916  33.328  26.730  1.00  0.00    -0.205 F 
ATOM     95  C   UNL A   1      47.728  35.014  29.426  1.00  0.00     0.022 A 
BRANCH  93  96
ATOM     96  S   UNL A   1      47.310  36.074  26.937  1.00  0.00     0.127 S 
ATOM     97  O   UNL A   1      45.915  36.448  26.710  1.00  0.00    -0.237 OA
ATOM     98  O   UNL A   1      48.103  37.077  27.648  1.00  0.00    -0.237 OA
ATOM     99  O   UNL A   1      47.983  35.464  25.798  1.00  0.00    -0.744 OA
ENDBRANCH  93  96
ENDBRANCH  66  89
ENDBRANCH  40  41
ENDBRANCH  32  35
ENDBRANCH  30  31
ENDBRANCH   1  30
TORSDOF 16
ENDMDL
MODEL 3
REMARK VINA RESULT:     -12.6      5.705     11.024
REMARK SMILES CNC(=O)c1ccc(Cl)cc1NC(=O)[C@H]1[C@@H](C(=O)NCCCNC(=O)c2ccc(-c3c4nc(c(-c5cccc(S(=O)(=O)[O-])c5F)c5ccc([nH]5)c(-c5cccc(S(=O)(=O)[O-])c5F)c5nc(c(-c6cccc(S(=O)(=O)[O-])c6F)c6ccc3[nH]6)C=C5)C=C4)cc2)[C@H]2C=C[C@@H]1C2
REMARK SMILES IDX 21 1 20 2 19 3 17 4 18 5 16 7 15 8 92 9 89 10 91 11 93 12
REMARK SMILES IDX 90 13 13 14 12 15 14 17 11 18 5 19 6 20 7 21 10 22 8 23 9 24
REMARK SMILES IDX 3 25 1 26 2 27 4 29 22 30 23 31 24 32 25 34 26 35 27 36
REMARK SMILES IDX 88 37 28 38 87 39 29 40 30 41 31 42 81 43 32 44 86 45 80 46
REMARK SMILES IDX 82 47 33 48 85 49 79 50 78 51 34 53 66 54 46 55 65 56 47 57
REMARK SMILES IDX 50 58 64 59 83 60 48 61 49 62 63 64 84 65 51 66 35 67 36 68
REMARK SMILES IDX 44 69 37 70 39 71 45 72 38 73 40 74 41 75 42 76 43 77 67 78
REMARK SMILES IDX 68 79 76 80 69 81 71 82 77 83 70 84 72 85 73 86 74 87 75 88
REMARK SMILES IDX 52 89 53 90 61 91 54 92 56 93 62 94 55 95 57 96 58 97 59 98
REMARK SMILES IDX 60 99
REMARK H PARENT 19 6 12 16 2 28 23 33 82 52 50 63
REMARK Flexibility Score: inf
ROOT
ATOM      1  C   UNL A   1      31.153  31.672  26.055  1.00  0.00     0.042 C 
ENDROOT
BRANCH   1   2
ATOM      2  C   UNL A   1      31.169  30.285  25.354  1.00  0.00     0.117 C 
BRANCH   2   3
ATOM      3  N   UNL A   1      30.413  30.010  24.110  1.00  0.00    -0.356 N 
ATOM      4  C   UNL A   1      30.534  29.118  23.055  1.00  0.00     0.224 C 
ATOM      5  O   UNL A   1      29.494  28.791  22.474  1.00  0.00    -0.275 OA
ATOM      6  H   UNL A   1      29.635  30.605  24.008  1.00  0.00     0.163 HD
BRANCH   4   7
ATOM      7  C   UNL A   1      31.866  28.479  22.669  1.00  0.00     0.098 C 
ATOM      8  C   UNL A   1      31.862  26.979  22.698  1.00  0.00     0.099 C 
ATOM      9  C   UNL A   1      33.384  26.644  22.460  1.00  0.00     0.025 C 
ATOM     10  C   UNL A   1      33.334  28.731  23.258  1.00  0.00     0.025 C 
ATOM     11  C   UNL A   1      33.964  26.501  23.816  1.00  0.00    -0.027 C 
ATOM     12  C   UNL A   1      34.071  28.001  22.126  1.00  0.00     0.017 C 
ATOM     13  C   UNL A   1      33.911  27.738  24.330  1.00  0.00    -0.027 C 
BRANCH   8  14
ATOM     14  C   UNL A   1      31.193  26.342  23.975  1.00  0.00     0.228 C 
ATOM     15  N   UNL A   1      31.462  25.149  24.620  1.00  0.00    -0.325 N 
ATOM     16  H   UNL A   1      31.351  25.280  25.589  1.00  0.00     0.169 HD
ATOM     17  O   UNL A   1      30.441  27.103  24.609  1.00  0.00    -0.274 OA
BRANCH  15  18
ATOM     18  C   UNL A   1      31.849  23.782  24.379  1.00  0.00     0.055 A 
ATOM     19  C   UNL A   1      32.156  22.897  25.442  1.00  0.00     0.063 A 
ATOM     20  C   UNL A   1      32.242  21.498  25.266  1.00  0.00     0.017 A 
ATOM     21  C   UNL A   1      32.139  20.943  24.004  1.00  0.00     0.021 A 
ATOM     22  C   UNL A   1      31.821  23.178  23.129  1.00  0.00     0.047 A 
ATOM     23  C   UNL A   1      31.969  21.796  22.932  1.00  0.00     0.043 A 
ATOM     24  Cl  UNL A   1      31.899  21.150  21.336  1.00  0.00    -0.084 Cl
BRANCH  19  25
ATOM     25  C   UNL A   1      32.496  23.347  26.796  1.00  0.00     0.253 C 
ATOM     26  C   UNL A   1      35.002  23.007  26.446  1.00  0.00     0.143 C 
ATOM     27  N   UNL A   1      33.819  23.424  27.178  1.00  0.00    -0.355 N 
ATOM     28  H   UNL A   1      33.984  23.814  28.067  1.00  0.00     0.163 HD
ATOM     29  O   UNL A   1      31.583  23.614  27.576  1.00  0.00    -0.269 OA
ENDBRANCH  19  25
ENDBRANCH  15  18
ENDBRANCH   8  14
ENDBRANCH   4   7
ENDBRANCH   2   3
ENDBRANCH   1   2
BRANCH   1  30
ATOM     30  C   UNL A   1      32.339  32.146  26.897  1.00  0.00     0.118 C 
BRANCH  30  31
ATOM     31  N   UNL A   1      32.315  33.561  27.220  1.00  0.00    -0.352 N 
ATOM     32  C   UNL A   1      33.122  34.259  28.094  1.00  0.00     0.251 C 
ATOM     33  H   UNL A   1      31.632  34.094  26.752  1.00  0.00     0.163 HD
ATOM     34  O   UNL A   1      32.866  35.435  28.343  1.00  0.00    -0.269 OA
BRANCH  32  35
ATOM     35  C   UNL A   1      34.294  33.616  28.736  1.00  0.00     0.039 A 
ATOM     36  C   UNL A   1      34.100  32.562  29.634  1.00  0.00     0.014 A 
ATOM     37  C   UNL A   1      35.582  34.112  28.523  1.00  0.00     0.014 A 
ATOM     38  C   UNL A   1      35.200  31.980  30.284  1.00  0.00     0.010 A 
ATOM     39  C   UNL A   1      36.682  33.510  29.147  1.00  0.00     0.010 A 
ATOM     40  C   UNL A   1      36.506  32.439  30.038  1.00  0.00    -0.014 A 
BRANCH  40  41
ATOM     41  C   UNL A   1      37.686  31.796  30.688  1.00  0.00     0.031 A 
ATOM     42  C   UNL A   1      38.474  30.725  29.974  1.00  0.00     0.074 A 
ATOM     43  C   UNL A   1      38.010  32.123  31.956  1.00  0.00     0.049 A 
ATOM     44  N   UNL A   1      39.512  30.045  30.394  1.00  0.00    -0.248 NA
ATOM     45  C   UNL A   1      38.031  30.360  28.621  1.00  0.00     0.031 C 
ATOM     46  C   UNL A   1      37.283  33.085  32.786  1.00  0.00     0.029 A 
ATOM     47  N   UNL A   1      39.010  31.664  32.779  1.00  0.00    -0.354 N 
ATOM     48  C   UNL A   1      39.822  29.149  29.377  1.00  0.00     0.074 A 
ATOM     49  C   UNL A   1      38.850  29.360  28.325  1.00  0.00     0.031 C 
ATOM     50  C   UNL A   1      37.854  33.139  34.000  1.00  0.00     0.029 A 
ATOM     51  C   UNL A   1      38.969  32.197  34.048  1.00  0.00     0.049 A 
ATOM     52  H   UNL A   1      39.691  31.016  32.490  1.00  0.00     0.167 HD
ATOM     53  C   UNL A   1      40.831  28.246  29.313  1.00  0.00     0.034 A 
ATOM     54  C   UNL A   1      39.727  31.947  35.134  1.00  0.00     0.034 A 
ATOM     55  C   UNL A   1      41.813  28.057  30.349  1.00  0.00     0.049 A 
ATOM     56  C   UNL A   1      40.861  30.961  35.027  1.00  0.00     0.074 A 
ATOM     57  C   UNL A   1      42.931  27.242  30.335  1.00  0.00     0.029 A 
ATOM     58  N   UNL A   1      41.784  28.673  31.590  1.00  0.00    -0.354 N 
ATOM     59  N   UNL A   1      41.245  30.255  33.991  1.00  0.00    -0.248 NA
ATOM     60  C   UNL A   1      41.690  30.763  36.225  1.00  0.00     0.031 C 
ATOM     61  C   UNL A   1      43.555  27.332  31.584  1.00  0.00     0.029 A 
ATOM     62  C   UNL A   1      42.850  28.238  32.361  1.00  0.00     0.049 A 
ATOM     63  H   UNL A   1      41.106  29.324  31.883  1.00  0.00     0.167 HD
ATOM     64  C   UNL A   1      42.373  29.555  34.402  1.00  0.00     0.074 A 
ATOM     65  C   UNL A   1      42.627  29.941  35.775  1.00  0.00     0.031 C 
ATOM     66  C   UNL A   1      43.123  28.661  33.709  1.00  0.00     0.034 A 
BRANCH  53  67
ATOM     67  C   UNL A   1      40.956  27.407  28.065  1.00  0.00     0.023 A 
ATOM     68  C   UNL A   1      41.587  27.940  26.922  1.00  0.00     0.012 A 
ATOM     69  C   UNL A   1      40.518  26.067  28.047  1.00  0.00     0.148 A 
ATOM     70  C   UNL A   1      41.747  27.168  25.772  1.00  0.00     0.002 A 
ATOM     71  C   UNL A   1      40.723  25.289  26.913  1.00  0.00     0.091 A 
ATOM     72  F   UNL A   1      39.909  25.578  29.137  1.00  0.00    -0.205 F 
ATOM     73  C   UNL A   1      41.325  25.842  25.770  1.00  0.00     0.022 A 
BRANCH  71  74
ATOM     74  S   UNL A   1      40.292  23.546  26.835  1.00  0.00     0.127 S 
ATOM     75  O   UNL A   1      38.885  23.607  26.444  1.00  0.00    -0.237 OA
ATOM     76  O   UNL A   1      41.193  23.053  25.793  1.00  0.00    -0.237 OA
ATOM     77  O   UNL A   1      40.545  23.008  28.164  1.00  0.00    -0.744 OA
ENDBRANCH  71  74
ENDBRANCH  53  67
BRANCH  54  78
ATOM     78  C   UNL A   1      39.466  32.672  36.413  1.00  0.00     0.023 A 
ATOM     79  C   UNL A   1      40.145  33.876  36.683  1.00  0.00     0.012 A 
ATOM     80  C   UNL A   1      38.539  32.181  37.353  1.00  0.00     0.148 A 
ATOM     81  C   UNL A   1      39.932  34.561  37.880  1.00  0.00     0.002 A 
ATOM     82  C   UNL A   1      38.288  32.899  38.517  1.00  0.00     0.091 A 
ATOM     83  F   UNL A   1      37.914  31.027  37.085  1.00  0.00    -0.205 F 
ATOM     84  C   UNL A   1      38.996  34.079  38.792  1.00  0.00     0.022 A 
BRANCH  82  85
ATOM     85  S   UNL A   1      37.012  32.423  39.689  1.00  0.00     0.127 S 
ATOM     86  O   UNL A   1      37.477  31.107  40.120  1.00  0.00    -0.237 OA
ATOM     87  O   UNL A   1      37.124  33.476  40.699  1.00  0.00    -0.237 OA
ATOM     88  O   UNL A   1      35.763  32.439  38.940  1.00  0.00    -0.744 OA
ENDBRANCH  82  85
ENDBRANCH  54  78
BRANCH  66  89
ATOM     89  C   UNL A   1      44.317  28.057  34.404  1.00  0.00     0.023 A 
ATOM     90  C   UNL A   1      45.561  28.716  34.368  1.00  0.00     0.012 A 
ATOM     91  C   UNL A   1      44.180  26.877  35.163  1.00  0.00     0.148 A 
ATOM     92  C   UNL A   1      46.659  28.193  35.050  1.00  0.00     0.002 A 
ATOM     93  C   UNL A   1      45.265  26.392  35.883  1.00  0.00     0.091 A 
ATOM     94  F   UNL A   1      42.992  26.256  35.172  1.00  0.00    -0.205 F 
ATOM     95  C   UNL A   1      46.509  27.040  35.818  1.00  0.00     0.022 A 
BRANCH  93  96
ATOM     96  S   UNL A   1      45.141  24.971  36.977  1.00  0.00     0.127 S 
ATOM     97  O   UNL A   1      44.111  25.409  37.917  1.00  0.00    -0.237 OA
ATOM     98  O   UNL A   1      44.720  23.912  36.060  1.00  0.00    -0.237 OA
ATOM     99  O   UNL A   1      46.467  24.785  37.550  1.00  0.00    -0.744 OA
ENDBRANCH  93  96
ENDBRANCH  66  89
ENDBRANCH  40  41
ENDBRANCH  32  35
ENDBRANCH  30  31
ENDBRANCH   1  30
TORSDOF 16
ENDMDL
