MODEL 1
REMARK VINA RESULT:     -12.0      0.000      0.000
REMARK SMILES CC(C)(C)OC(=O)N1CCC[C@H]1C(=O)N[C@@H](Cc1ccccc1)C(=O)NCCCNC(=O)c1ccc(-c2c3nc(c(-c4cccc(S(=O)(=O)[O-])c4F)c4ccc([nH]4)c(-c4cccc(S(=O)(=O)[O-])c4F)c4nc(c(-c5cccc(S(=O)(=O)[O-])c5F)c5ccc2[nH]5)C=C4)C=C3)cc1
REMARK SMILES IDX 27 1 26 2 24 3 25 4 16 6 15 7 13 8 14 9 12 11 8 12 9 13
REMARK SMILES IDX 10 14 11 15 6 16 7 17 5 18 2 19 1 20 3 21 4 22 17 23 18 24
REMARK SMILES IDX 19 25 23 26 20 27 22 28 21 29 28 30 29 31 30 32 31 33 32 35
REMARK SMILES IDX 33 36 34 37 95 38 35 39 94 40 36 41 37 42 38 43 88 44 39 45
REMARK SMILES IDX 93 46 87 47 89 48 40 49 92 50 86 51 85 52 41 54 73 55 53 56
REMARK SMILES IDX 72 57 54 58 57 59 71 60 90 61 55 62 56 63 70 65 91 66 58 67
REMARK SMILES IDX 42 68 43 69 51 70 44 71 46 72 52 73 45 74 47 75 48 76 49 77
REMARK SMILES IDX 50 78 74 79 75 80 83 81 76 82 78 83 84 84 77 85 79 86 80 87
REMARK SMILES IDX 81 88 82 89 59 90 60 91 68 92 61 93 63 94 69 95 62 96 64 97
REMARK SMILES IDX 65 98 66 99 67 100
REMARK H PARENT 26 5 15 10 30 34 89 53 57 64
REMARK Flexibility Score: inf
ROOT
ATOM      1  C   UNL A   1      31.520  30.079  25.378  1.00  0.00     0.117 C 
ENDROOT
BRANCH   1   2
ATOM      2  N   UNL A   1      32.761  29.831  24.709  1.00  0.00    -0.354 N 
ATOM      3  C   UNL A   1      33.013  28.769  23.893  1.00  0.00     0.242 C 
ATOM      4  O   UNL A   1      33.991  28.845  23.140  1.00  0.00    -0.273 OA
ATOM      5  H   UNL A   1      33.490  30.478  24.851  1.00  0.00     0.163 HD
BRANCH   3   6
ATOM      6  C   UNL A   1      32.112  27.500  23.874  1.00  0.00     0.175 C 
BRANCH   6   7
ATOM      7  N   UNL A   1      31.618  27.074  25.185  1.00  0.00    -0.342 N 
ATOM      8  C   UNL A   1      31.189  25.853  25.625  1.00  0.00     0.243 C 
ATOM      9  O   UNL A   1      30.459  25.881  26.620  1.00  0.00    -0.273 OA
ATOM     10  H   UNL A   1      31.589  27.786  25.864  1.00  0.00     0.164 HD
BRANCH   8  11
ATOM     11  C   UNL A   1      31.694  24.518  25.000  1.00  0.00     0.178 C 
ATOM     12  N   UNL A   1      32.748  23.898  25.814  1.00  0.00    -0.296 N 
ATOM     13  C   UNL A   1      32.306  22.654  26.405  1.00  0.00     0.124 C 
ATOM     14  C   UNL A   1      31.364  22.123  25.351  1.00  0.00     0.024 C 
ATOM     15  C   UNL A   1      30.656  23.388  24.892  1.00  0.00     0.037 C 
BRANCH  12  16
ATOM     16  C   UNL A   1      34.043  24.360  25.808  1.00  0.00     0.410 C 
ATOM     17  O   UNL A   1      34.344  25.532  25.683  1.00  0.00    -0.224 OA
BRANCH  16  18
ATOM     18  O   UNL A   1      34.921  23.326  25.879  1.00  0.00    -0.444 OA
BRANCH  18  19
ATOM     19  C   UNL A   1      35.585  22.765  24.719  1.00  0.00     0.106 C 
ATOM     20  C   UNL A   1      34.673  23.135  23.539  1.00  0.00     0.056 C 
ATOM     21  C   UNL A   1      35.615  21.245  24.884  1.00  0.00     0.056 C 
ATOM     22  C   UNL A   1      36.983  23.327  24.436  1.00  0.00     0.056 C 
ENDBRANCH  18  19
ENDBRANCH  16  18
ENDBRANCH  12  16
ENDBRANCH   8  11
ENDBRANCH   6   7
BRANCH   6  23
ATOM     23  C   UNL A   1      31.033  27.365  22.750  1.00  0.00     0.070 C 
BRANCH  23  24
ATOM     24  C   UNL A   1      29.844  28.306  22.641  1.00  0.00    -0.045 A 
ATOM     25  C   UNL A   1      30.018  29.566  22.046  1.00  0.00     0.004 A 
ATOM     26  C   UNL A   1      28.561  27.972  23.110  1.00  0.00     0.004 A 
ATOM     27  C   UNL A   1      28.986  30.509  22.046  1.00  0.00     0.000 A 
ATOM     28  C   UNL A   1      27.550  28.941  23.169  1.00  0.00     0.000 A 
ATOM     29  C   UNL A   1      27.769  30.213  22.650  1.00  0.00     0.000 A 
ENDBRANCH  23  24
ENDBRANCH   6  23
ENDBRANCH   3   6
ENDBRANCH   1   2
BRANCH   1  30
ATOM     30  C   UNL A   1      31.426  31.350  26.176  1.00  0.00     0.042 C 
BRANCH  30  31
ATOM     31  C   UNL A   1      32.603  31.581  27.092  1.00  0.00     0.118 C 
BRANCH  31  32
ATOM     32  N   UNL A   1      32.845  32.990  27.405  1.00  0.00    -0.352 N 
ATOM     33  C   UNL A   1      33.891  33.610  28.046  1.00  0.00     0.251 C 
ATOM     34  H   UNL A   1      32.134  33.601  27.103  1.00  0.00     0.163 HD
ATOM     35  O   UNL A   1      33.821  34.810  28.298  1.00  0.00    -0.269 OA
BRANCH  33  36
ATOM     36  C   UNL A   1      35.075  32.831  28.462  1.00  0.00     0.039 A 
ATOM     37  C   UNL A   1      36.348  33.393  28.327  1.00  0.00     0.014 A 
ATOM     38  C   UNL A   1      34.932  31.565  29.021  1.00  0.00     0.014 A 
ATOM     39  C   UNL A   1      37.455  32.720  28.846  1.00  0.00     0.010 A 
ATOM     40  C   UNL A   1      36.000  30.980  29.679  1.00  0.00     0.010 A 
ATOM     41  C   UNL A   1      37.281  31.533  29.576  1.00  0.00    -0.014 A 
BRANCH  41  42
ATOM     42  C   UNL A   1      38.413  30.832  30.230  1.00  0.00     0.031 A 
ATOM     43  C   UNL A   1      38.831  31.225  31.623  1.00  0.00     0.074 A 
ATOM     44  C   UNL A   1      39.129  29.929  29.533  1.00  0.00     0.049 A 
ATOM     45  N   UNL A   1      39.850  30.809  32.327  1.00  0.00    -0.248 NA
ATOM     46  C   UNL A   1      38.026  32.261  32.297  1.00  0.00     0.031 C 
ATOM     47  C   UNL A   1      38.882  29.536  28.143  1.00  0.00     0.029 A 
ATOM     48  N   UNL A   1      40.231  29.193  29.891  1.00  0.00    -0.354 N 
ATOM     49  C   UNL A   1      39.838  31.565  33.493  1.00  0.00     0.074 A 
ATOM     50  C   UNL A   1      38.747  32.504  33.380  1.00  0.00     0.031 C 
ATOM     51  C   UNL A   1      39.788  28.616  27.776  1.00  0.00     0.029 A 
ATOM     52  C   UNL A   1      40.705  28.384  28.886  1.00  0.00     0.049 A 
ATOM     53  H   UNL A   1      40.643  29.241  30.784  1.00  0.00     0.167 HD
ATOM     54  C   UNL A   1      40.636  31.462  34.581  1.00  0.00     0.034 A 
ATOM     55  C   UNL A   1      41.763  27.550  28.863  1.00  0.00     0.034 A 
ATOM     56  C   UNL A   1      41.679  30.484  34.709  1.00  0.00     0.049 A 
ATOM     57  C   UNL A   1      42.603  27.412  30.102  1.00  0.00     0.074 A 
ATOM     58  C   UNL A   1      42.480  30.217  35.805  1.00  0.00     0.029 A 
ATOM     59  N   UNL A   1      42.072  29.613  33.703  1.00  0.00    -0.354 N 
ATOM     60  N   UNL A   1      42.476  28.020  31.258  1.00  0.00    -0.248 NA
ATOM     61  C   UNL A   1      43.709  26.446  30.049  1.00  0.00     0.031 C 
ATOM     62  C   UNL A   1      43.377  29.205  35.450  1.00  0.00     0.029 A 
ATOM     63  C   UNL A   1      43.111  28.816  34.146  1.00  0.00     0.049 A 
ATOM     64  H   UNL A   1      41.669  29.570  32.806  1.00  0.00     0.167 HD
ATOM     65  C   UNL A   1      43.460  27.486  32.080  1.00  0.00     0.074 A 
ATOM     66  C   UNL A   1      44.164  26.491  31.294  1.00  0.00     0.031 C 
ATOM     67  C   UNL A   1      43.765  27.798  33.364  1.00  0.00     0.034 A 
BRANCH  54  68
ATOM     68  C   UNL A   1      40.370  32.397  35.732  1.00  0.00     0.023 A 
ATOM     69  C   UNL A   1      41.143  33.568  35.878  1.00  0.00     0.012 A 
ATOM     70  C   UNL A   1      39.340  32.133  36.656  1.00  0.00     0.148 A 
ATOM     71  C   UNL A   1      40.932  34.433  36.951  1.00  0.00     0.002 A 
ATOM     72  C   UNL A   1      39.100  33.028  37.692  1.00  0.00     0.091 A 
ATOM     73  F   UNL A   1      38.630  31.005  36.519  1.00  0.00    -0.205 F 
ATOM     74  C   UNL A   1      39.904  34.170  37.850  1.00  0.00     0.022 A 
BRANCH  72  75
ATOM     75  S   UNL A   1      37.746  32.823  38.854  1.00  0.00     0.127 S 
ATOM     76  O   UNL A   1      37.940  33.971  39.739  1.00  0.00    -0.237 OA
ATOM     77  O   UNL A   1      36.576  32.919  37.981  1.00  0.00    -0.237 OA
ATOM     78  O   UNL A   1      37.939  31.518  39.469  1.00  0.00    -0.744 OA
ENDBRANCH  72  75
ENDBRANCH  54  68
BRANCH  55  79
ATOM     79  C   UNL A   1      42.036  26.729  27.649  1.00  0.00     0.023 A 
ATOM     80  C   UNL A   1      42.650  27.332  26.535  1.00  0.00     0.012 A 
ATOM     81  C   UNL A   1      41.732  25.355  27.608  1.00  0.00     0.148 A 
ATOM     82  C   UNL A   1      42.929  26.589  25.387  1.00  0.00     0.002 A 
ATOM     83  C   UNL A   1      42.061  24.609  26.481  1.00  0.00     0.091 A 
ATOM     84  F   UNL A   1      41.145  24.802  28.678  1.00  0.00    -0.205 F 
ATOM     85  C   UNL A   1      42.644  25.226  25.364  1.00  0.00     0.022 A 
BRANCH  83  86
ATOM     86  S   UNL A   1      41.851  22.827  26.405  1.00  0.00     0.127 S 
ATOM     87  O   UNL A   1      40.396  22.697  26.407  1.00  0.00    -0.237 OA
ATOM     88  O   UNL A   1      42.498  22.503  25.133  1.00  0.00    -0.237 OA
ATOM     89  O   UNL A   1      42.532  22.299  27.581  1.00  0.00    -0.744 OA
ENDBRANCH  83  86
ENDBRANCH  55  79
BRANCH  67  90
ATOM     90  C   UNL A   1      44.879  27.030  34.023  1.00  0.00     0.023 A 
ATOM     91  C   UNL A   1      46.217  27.435  33.844  1.00  0.00     0.012 A 
ATOM     92  C   UNL A   1      44.590  25.951  34.883  1.00  0.00     0.148 A 
ATOM     93  C   UNL A   1      47.253  26.757  34.485  1.00  0.00     0.002 A 
ATOM     94  C   UNL A   1      45.622  25.316  35.561  1.00  0.00     0.091 A 
ATOM     95  F   UNL A   1      43.312  25.572  35.025  1.00  0.00    -0.205 F 
ATOM     96  C   UNL A   1      46.954  25.709  35.353  1.00  0.00     0.022 A 
BRANCH  94  97
ATOM     97  S   UNL A   1      45.326  24.026  36.774  1.00  0.00     0.127 S 
ATOM     98  O   UNL A   1      44.253  24.611  37.575  1.00  0.00    -0.237 OA
ATOM     99  O   UNL A   1      44.916  22.900  35.934  1.00  0.00    -0.237 OA
ATOM    100  O   UNL A   1      46.590  23.830  37.471  1.00  0.00    -0.744 OA
ENDBRANCH  94  97
ENDBRANCH  67  90
ENDBRANCH  41  42
ENDBRANCH  33  36
ENDBRANCH  31  32
ENDBRANCH  30  31
ENDBRANCH   1  30
TORSDOF 20
ENDMDL
MODEL 2
REMARK VINA RESULT:     -12.0      1.574      2.110
REMARK SMILES CC(C)(C)OC(=O)N1CCC[C@H]1C(=O)N[C@@H](Cc1ccccc1)C(=O)NCCCNC(=O)c1ccc(-c2c3nc(c(-c4cccc(S(=O)(=O)[O-])c4F)c4ccc([nH]4)c(-c4cccc(S(=O)(=O)[O-])c4F)c4nc(c(-c5cccc(S(=O)(=O)[O-])c5F)c5ccc2[nH]5)C=C4)C=C3)cc1
REMARK SMILES IDX 27 1 26 2 24 3 25 4 16 6 15 7 13 8 14 9 12 11 8 12 9 13
REMARK SMILES IDX 10 14 11 15 6 16 7 17 5 18 2 19 1 20 3 21 4 22 17 23 18 24
REMARK SMILES IDX 19 25 23 26 20 27 22 28 21 29 28 30 29 31 30 32 31 33 32 35
REMARK SMILES IDX 33 36 34 37 95 38 35 39 94 40 36 41 37 42 38 43 88 44 39 45
REMARK SMILES IDX 93 46 87 47 89 48 40 49 92 50 86 51 85 52 41 54 73 55 53 56
REMARK SMILES IDX 72 57 54 58 57 59 71 60 90 61 55 62 56 63 70 65 91 66 58 67
REMARK SMILES IDX 42 68 43 69 51 70 44 71 46 72 52 73 45 74 47 75 48 76 49 77
REMARK SMILES IDX 50 78 74 79 75 80 83 81 76 82 78 83 84 84 77 85 79 86 80 87
REMARK SMILES IDX 81 88 82 89 59 90 60 91 68 92 61 93 63 94 69 95 62 96 64 97
REMARK SMILES IDX 65 98 66 99 67 100
REMARK H PARENT 26 5 15 10 30 34 89 53 57 64
REMARK Flexibility Score: inf
ROOT
ATOM      1  C   UNL A   1      32.073  27.722  27.212  1.00  0.00     0.117 C 
ENDROOT
BRANCH   1   2
ATOM      2  N   UNL A   1      33.170  27.399  26.350  1.00  0.00    -0.354 N 
ATOM      3  C   UNL A   1      33.102  26.563  25.276  1.00  0.00     0.242 C 
ATOM      4  O   UNL A   1      34.016  26.623  24.445  1.00  0.00    -0.273 OA
ATOM      5  H   UNL A   1      34.040  27.812  26.549  1.00  0.00     0.163 HD
BRANCH   3   6
ATOM      6  C   UNL A   1      31.921  25.570  25.066  1.00  0.00     0.175 C 
BRANCH   6   7
ATOM      7  N   UNL A   1      31.997  24.344  25.863  1.00  0.00    -0.342 N 
ATOM      8  C   UNL A   1      32.066  23.033  25.482  1.00  0.00     0.243 C 
ATOM      9  O   UNL A   1      31.707  22.219  26.337  1.00  0.00    -0.273 OA
ATOM     10  H   UNL A   1      31.996  24.487  26.837  1.00  0.00     0.164 HD
BRANCH   8  11
ATOM     11  C   UNL A   1      32.682  22.592  24.120  1.00  0.00     0.178 C 
ATOM     12  N   UNL A   1      33.207  21.222  24.176  1.00  0.00    -0.296 N 
ATOM     13  C   UNL A   1      32.445  20.322  23.338  1.00  0.00     0.124 C 
ATOM     14  C   UNL A   1      32.029  21.227  22.202  1.00  0.00     0.024 C 
ATOM     15  C   UNL A   1      31.709  22.523  22.931  1.00  0.00     0.037 C 
BRANCH  12  16
ATOM     16  C   UNL A   1      34.404  20.922  24.783  1.00  0.00     0.410 C 
ATOM     17  O   UNL A   1      34.873  19.801  24.836  1.00  0.00    -0.224 OA
BRANCH  16  18
ATOM     18  O   UNL A   1      34.932  22.024  25.375  1.00  0.00    -0.444 OA
BRANCH  18  19
ATOM     19  C   UNL A   1      36.162  22.651  24.934  1.00  0.00     0.106 C 
ATOM     20  C   UNL A   1      37.274  21.754  25.500  1.00  0.00     0.056 C 
ATOM     21  C   UNL A   1      36.243  24.034  25.581  1.00  0.00     0.056 C 
ATOM     22  C   UNL A   1      36.342  22.731  23.414  1.00  0.00     0.056 C 
ENDBRANCH  18  19
ENDBRANCH  16  18
ENDBRANCH  12  16
ENDBRANCH   8  11
ENDBRANCH   6   7
BRANCH   6  23
ATOM     23  C   UNL A   1      30.469  26.142  24.975  1.00  0.00     0.070 C 
BRANCH  23  24
ATOM     24  C   UNL A   1      30.074  27.212  23.970  1.00  0.00    -0.045 A 
ATOM     25  C   UNL A   1      31.073  28.002  23.379  1.00  0.00     0.004 A 
ATOM     26  C   UNL A   1      28.739  27.453  23.597  1.00  0.00     0.004 A 
ATOM     27  C   UNL A   1      30.741  29.082  22.556  1.00  0.00     0.000 A 
ATOM     28  C   UNL A   1      28.407  28.575  22.826  1.00  0.00     0.000 A 
ATOM     29  C   UNL A   1      29.408  29.397  22.319  1.00  0.00     0.000 A 
ENDBRANCH  23  24
ENDBRANCH   6  23
ENDBRANCH   3   6
ENDBRANCH   1   2
BRANCH   1  30
ATOM     30  C   UNL A   1      31.656  29.166  27.260  1.00  0.00     0.042 C 
BRANCH  30  31
ATOM     31  C   UNL A   1      32.435  30.056  26.321  1.00  0.00     0.118 C 
BRANCH  31  32
ATOM     32  N   UNL A   1      32.390  31.475  26.673  1.00  0.00    -0.352 N 
ATOM     33  C   UNL A   1      33.257  32.257  27.399  1.00  0.00     0.251 C 
ATOM     34  H   UNL A   1      31.601  31.954  26.331  1.00  0.00     0.163 HD
ATOM     35  O   UNL A   1      32.948  33.416  27.665  1.00  0.00    -0.269 OA
BRANCH  33  36
ATOM     36  C   UNL A   1      34.533  31.696  27.888  1.00  0.00     0.039 A 
ATOM     37  C   UNL A   1      35.627  32.545  28.080  1.00  0.00     0.014 A 
ATOM     38  C   UNL A   1      34.643  30.343  28.196  1.00  0.00     0.014 A 
ATOM     39  C   UNL A   1      36.788  32.047  28.673  1.00  0.00     0.010 A 
ATOM     40  C   UNL A   1      35.726  29.892  28.929  1.00  0.00     0.010 A 
ATOM     41  C   UNL A   1      36.825  30.728  29.153  1.00  0.00    -0.014 A 
BRANCH  41  42
ATOM     42  C   UNL A   1      37.999  30.181  29.875  1.00  0.00     0.031 A 
ATOM     43  C   UNL A   1      38.282  30.626  31.287  1.00  0.00     0.074 A 
ATOM     44  C   UNL A   1      38.867  29.379  29.227  1.00  0.00     0.049 A 
ATOM     45  N   UNL A   1      39.304  30.346  32.051  1.00  0.00    -0.248 NA
ATOM     46  C   UNL A   1      37.311  31.547  31.907  1.00  0.00     0.031 C 
ATOM     47  C   UNL A   1      38.753  28.957  27.828  1.00  0.00     0.029 A 
ATOM     48  N   UNL A   1      40.033  28.794  29.654  1.00  0.00    -0.354 N 
ATOM     49  C   UNL A   1      39.127  31.094  33.209  1.00  0.00     0.074 A 
ATOM     50  C   UNL A   1      37.930  31.883  33.027  1.00  0.00     0.031 C 
ATOM     51  C   UNL A   1      39.792  28.164  27.521  1.00  0.00     0.029 A 
ATOM     52  C   UNL A   1      40.666  28.054  28.683  1.00  0.00     0.049 A 
ATOM     53  H   UNL A   1      40.383  28.896  30.569  1.00  0.00     0.167 HD
ATOM     54  C   UNL A   1      39.867  31.097  34.341  1.00  0.00     0.034 A 
ATOM     55  C   UNL A   1      41.823  27.366  28.727  1.00  0.00     0.034 A 
ATOM     56  C   UNL A   1      41.020  30.264  34.536  1.00  0.00     0.049 A 
ATOM     57  C   UNL A   1      42.601  27.339  30.013  1.00  0.00     0.074 A 
ATOM     58  C   UNL A   1      41.785  30.105  35.678  1.00  0.00     0.029 A 
ATOM     59  N   UNL A   1      41.581  29.452  33.561  1.00  0.00    -0.354 N 
ATOM     60  N   UNL A   1      42.330  27.926  31.155  1.00  0.00    -0.248 NA
ATOM     61  C   UNL A   1      43.825  26.526  30.030  1.00  0.00     0.031 C 
ATOM     62  C   UNL A   1      42.826  29.218  35.383  1.00  0.00     0.029 A 
ATOM     63  C   UNL A   1      42.687  28.798  34.069  1.00  0.00     0.049 A 
ATOM     64  H   UNL A   1      41.239  29.357  32.643  1.00  0.00     0.167 HD
ATOM     65  C   UNL A   1      43.326  27.525  32.036  1.00  0.00     0.074 A 
ATOM     66  C   UNL A   1      44.198  26.631  31.299  1.00  0.00     0.031 C 
ATOM     67  C   UNL A   1      43.513  27.875  33.333  1.00  0.00     0.034 A 
BRANCH  54  68
ATOM     68  C   UNL A   1      39.416  31.989  35.468  1.00  0.00     0.023 A 
ATOM     69  C   UNL A   1      38.530  31.491  36.447  1.00  0.00     0.012 A 
ATOM     70  C   UNL A   1      39.886  33.313  35.576  1.00  0.00     0.148 A 
ATOM     71  C   UNL A   1      38.080  32.307  37.484  1.00  0.00     0.002 A 
ATOM     72  C   UNL A   1      39.475  34.104  36.643  1.00  0.00     0.091 A 
ATOM     73  F   UNL A   1      40.708  33.780  34.626  1.00  0.00    -0.205 F 
ATOM     74  C   UNL A   1      38.560  33.609  37.587  1.00  0.00     0.022 A 
BRANCH  72  75
ATOM     75  S   UNL A   1      40.100  35.765  36.913  1.00  0.00     0.127 S 
ATOM     76  O   UNL A   1      39.442  36.128  38.168  1.00  0.00    -0.237 OA
ATOM     77  O   UNL A   1      41.541  35.535  37.027  1.00  0.00    -0.237 OA
ATOM     78  O   UNL A   1      39.700  36.540  35.748  1.00  0.00    -0.744 OA
ENDBRANCH  72  75
ENDBRANCH  54  68
BRANCH  55  79
ATOM     79  C   UNL A   1      42.270  26.587  27.537  1.00  0.00     0.023 A 
ATOM     80  C   UNL A   1      43.034  27.229  26.543  1.00  0.00     0.012 A 
ATOM     81  C   UNL A   1      41.982  25.216  27.405  1.00  0.00     0.148 A 
ATOM     82  C   UNL A   1      43.478  26.526  25.422  1.00  0.00     0.002 A 
ATOM     83  C   UNL A   1      42.472  24.509  26.312  1.00  0.00     0.091 A 
ATOM     84  F   UNL A   1      41.252  24.626  28.361  1.00  0.00    -0.205 F 
ATOM     85  C   UNL A   1      43.206  25.165  25.312  1.00  0.00     0.022 A 
BRANCH  83  86
ATOM     86  S   UNL A   1      42.285  22.731  26.146  1.00  0.00     0.127 S 
ATOM     87  O   UNL A   1      40.832  22.580  26.177  1.00  0.00    -0.237 OA
ATOM     88  O   UNL A   1      42.904  22.485  24.843  1.00  0.00    -0.237 OA
ATOM     89  O   UNL A   1      43.002  22.151  27.275  1.00  0.00    -0.744 OA
ENDBRANCH  83  86
ENDBRANCH  55  79
BRANCH  67  90
ATOM     90  C   UNL A   1      44.678  27.258  34.060  1.00  0.00     0.023 A 
ATOM     91  C   UNL A   1      45.945  27.875  34.012  1.00  0.00     0.012 A 
ATOM     92  C   UNL A   1      44.496  26.109  34.854  1.00  0.00     0.148 A 
ATOM     93  C   UNL A   1      47.020  27.337  34.718  1.00  0.00     0.002 A 
ATOM     94  C   UNL A   1      45.558  25.611  35.598  1.00  0.00     0.091 A 
ATOM     95  F   UNL A   1      43.287  25.529  34.872  1.00  0.00    -0.205 F 
ATOM     96  C   UNL A   1      46.823  26.215  35.520  1.00  0.00     0.022 A 
BRANCH  94  97
ATOM     97  S   UNL A   1      45.373  24.234  36.736  1.00  0.00     0.127 S 
ATOM     98  O   UNL A   1      46.723  24.119  37.285  1.00  0.00    -0.237 OA
ATOM     99  O   UNL A   1      44.373  24.742  37.676  1.00  0.00    -0.237 OA
ATOM    100  O   UNL A   1      44.928  23.104  35.933  1.00  0.00    -0.744 OA
ENDBRANCH  94  97
ENDBRANCH  67  90
ENDBRANCH  41  42
ENDBRANCH  33  36
ENDBRANCH  31  32
ENDBRANCH  30  31
ENDBRANCH   1  30
TORSDOF 20
ENDMDL
MODEL 3
REMARK VINA RESULT:     -11.8      1.868      8.007
REMARK SMILES CC(C)(C)OC(=O)N1CCC[C@H]1C(=O)N[C@@H](Cc1ccccc1)C(=O)NCCCNC(=O)c1ccc(-c2c3nc(c(-c4cccc(S(=O)(=O)[O-])c4F)c4ccc([nH]4)c(-c4cccc(S(=O)(=O)[O-])c4F)c4nc(c(-c5cccc(S(=O)(=O)[O-])c5F)c5ccc2[nH]5)C=C4)C=C3)cc1
REMARK SMILES IDX 27 1 26 2 24 3 25 4 16 6 15 7 13 8 14 9 12 11 8 12 9 13
REMARK SMILES IDX 10 14 11 15 6 16 7 17 5 18 2 19 1 20 3 21 4 22 17 23 18 24
REMARK SMILES IDX 19 25 23 26 20 27 22 28 21 29 28 30 29 31 30 32 31 33 32 35
REMARK SMILES IDX 33 36 34 37 95 38 35 39 94 40 36 41 37 42 38 43 88 44 39 45
REMARK SMILES IDX 93 46 87 47 89 48 40 49 92 50 86 51 85 52 41 54 73 55 53 56
REMARK SMILES IDX 72 57 54 58 57 59 71 60 90 61 55 62 56 63 70 65 91 66 58 67
REMARK SMILES IDX 42 68 43 69 51 70 44 71 46 72 52 73 45 74 47 75 48 76 49 77
REMARK SMILES IDX 50 78 74 79 75 80 83 81 76 82 78 83 84 84 77 85 79 86 80 87
REMARK SMILES IDX 81 88 82 89 59 90 60 91 68 92 61 93 63 94 69 95 62 96 64 97
REMARK SMILES IDX 65 98 66 99 67 100
REMARK H PARENT 26 5 15 10 30 34 89 53 57 64
REMARK Flexibility Score: inf
ROOT
ATOM      1  C   UNL A   1      33.273  28.170  24.651  1.00  0.00     0.117 C 
ENDROOT
BRANCH   1   2
ATOM      2  N   UNL A   1      33.647  27.876  23.301  1.00  0.00    -0.354 N 
ATOM      3  C   UNL A   1      33.581  26.646  22.719  1.00  0.00     0.242 C 
ATOM      4  O   UNL A   1      33.622  26.593  21.484  1.00  0.00    -0.273 OA
ATOM      5  H   UNL A   1      33.978  28.622  22.750  1.00  0.00     0.163 HD
BRANCH   3   6
ATOM      6  C   UNL A   1      33.440  25.337  23.551  1.00  0.00     0.175 C 
BRANCH   6   7
ATOM      7  N   UNL A   1      33.116  24.141  22.771  1.00  0.00    -0.342 N 
ATOM      8  C   UNL A   1      32.494  22.979  23.133  1.00  0.00     0.243 C 
ATOM      9  O   UNL A   1      32.724  22.011  22.403  1.00  0.00    -0.273 OA
ATOM     10  H   UNL A   1      33.393  24.179  21.827  1.00  0.00     0.164 HD
BRANCH   8  11
ATOM     11  C   UNL A   1      31.464  22.914  24.301  1.00  0.00     0.178 C 
ATOM     12  N   UNL A   1      32.119  22.677  25.594  1.00  0.00    -0.296 N 
ATOM     13  C   UNL A   1      32.004  23.821  26.471  1.00  0.00     0.124 C 
ATOM     14  C   UNL A   1      30.657  24.382  26.080  1.00  0.00     0.024 C 
ATOM     15  C   UNL A   1      30.666  24.201  24.569  1.00  0.00     0.037 C 
BRANCH  12  16
ATOM     16  C   UNL A   1      32.577  21.434  25.964  1.00  0.00     0.410 C 
ATOM     17  O   UNL A   1      33.417  21.251  26.825  1.00  0.00    -0.224 OA
BRANCH  16  18
ATOM     18  O   UNL A   1      32.025  20.467  25.186  1.00  0.00    -0.444 OA
BRANCH  18  19
ATOM     19  C   UNL A   1      32.779  19.352  24.647  1.00  0.00     0.106 C 
ATOM     20  C   UNL A   1      32.591  18.228  25.678  1.00  0.00     0.056 C 
ATOM     21  C   UNL A   1      34.251  19.760  24.600  1.00  0.00     0.056 C 
ATOM     22  C   UNL A   1      32.294  18.838  23.287  1.00  0.00     0.056 C 
ENDBRANCH  18  19
ENDBRANCH  16  18
ENDBRANCH  12  16
ENDBRANCH   8  11
ENDBRANCH   6   7
BRANCH   6  23
ATOM     23  C   UNL A   1      34.480  25.055  24.684  1.00  0.00     0.070 C 
BRANCH  23  24
ATOM     24  C   UNL A   1      35.444  23.881  24.634  1.00  0.00    -0.045 A 
ATOM     25  C   UNL A   1      35.877  23.297  25.836  1.00  0.00     0.004 A 
ATOM     26  C   UNL A   1      35.930  23.341  23.429  1.00  0.00     0.004 A 
ATOM     27  C   UNL A   1      36.863  22.306  25.839  1.00  0.00     0.000 A 
ATOM     28  C   UNL A   1      36.964  22.397  23.438  1.00  0.00     0.000 A 
ATOM     29  C   UNL A   1      37.440  21.891  24.644  1.00  0.00     0.000 A 
ENDBRANCH  23  24
ENDBRANCH   6  23
ENDBRANCH   3   6
ENDBRANCH   1   2
BRANCH   1  30
ATOM     30  C   UNL A   1      32.391  29.369  24.861  1.00  0.00     0.042 C 
BRANCH  30  31
ATOM     31  C   UNL A   1      32.215  29.748  26.312  1.00  0.00     0.118 C 
BRANCH  31  32
ATOM     32  N   UNL A   1      32.015  31.181  26.531  1.00  0.00    -0.352 N 
ATOM     33  C   UNL A   1      32.789  32.116  27.178  1.00  0.00     0.251 C 
ATOM     34  H   UNL A   1      31.181  31.538  26.148  1.00  0.00     0.163 HD
ATOM     35  O   UNL A   1      32.356  33.254  27.336  1.00  0.00    -0.269 OA
BRANCH  33  36
ATOM     36  C   UNL A   1      34.114  31.743  27.711  1.00  0.00     0.039 A 
ATOM     37  C   UNL A   1      35.061  32.742  27.956  1.00  0.00     0.014 A 
ATOM     38  C   UNL A   1      34.413  30.417  28.010  1.00  0.00     0.014 A 
ATOM     39  C   UNL A   1      36.260  32.412  28.589  1.00  0.00     0.010 A 
ATOM     40  C   UNL A   1      35.522  30.120  28.783  1.00  0.00     0.010 A 
ATOM     41  C   UNL A   1      36.476  31.107  29.058  1.00  0.00    -0.014 A 
BRANCH  41  42
ATOM     42  C   UNL A   1      37.690  30.729  29.821  1.00  0.00     0.031 A 
ATOM     43  C   UNL A   1      38.708  29.811  29.197  1.00  0.00     0.074 A 
ATOM     44  C   UNL A   1      37.818  31.117  31.105  1.00  0.00     0.049 A 
ATOM     45  N   UNL A   1      39.779  29.284  29.729  1.00  0.00    -0.248 NA
ATOM     46  C   UNL A   1      38.467  29.389  27.805  1.00  0.00     0.031 C 
ATOM     47  C   UNL A   1      36.849  31.926  31.851  1.00  0.00     0.029 A 
ATOM     48  N   UNL A   1      38.807  30.861  32.021  1.00  0.00    -0.354 N 
ATOM     49  C   UNL A   1      40.302  28.434  28.762  1.00  0.00     0.074 A 
ATOM     50  C   UNL A   1      39.404  28.470  27.632  1.00  0.00     0.031 C 
ATOM     51  C   UNL A   1      37.303  32.118  33.099  1.00  0.00     0.029 A 
ATOM     52  C   UNL A   1      38.571  31.415  33.258  1.00  0.00     0.049 A 
ATOM     53  H   UNL A   1      39.610  30.330  31.813  1.00  0.00     0.167 HD
ATOM     54  C   UNL A   1      41.449  27.717  28.791  1.00  0.00     0.034 A 
ATOM     55  C   UNL A   1      39.295  31.358  34.392  1.00  0.00     0.034 A 
ATOM     56  C   UNL A   1      42.368  27.735  29.895  1.00  0.00     0.049 A 
ATOM     57  C   UNL A   1      40.594  30.601  34.384  1.00  0.00     0.074 A 
ATOM     58  C   UNL A   1      43.609  27.133  29.992  1.00  0.00     0.029 A 
ATOM     59  N   UNL A   1      42.141  28.385  31.099  1.00  0.00    -0.354 N 
ATOM     60  N   UNL A   1      41.155  29.934  33.404  1.00  0.00    -0.248 NA
ATOM     61  C   UNL A   1      41.379  30.618  35.626  1.00  0.00     0.031 C 
ATOM     62  C   UNL A   1      44.120  27.396  31.267  1.00  0.00     0.029 A 
ATOM     63  C   UNL A   1      43.212  28.191  31.950  1.00  0.00     0.049 A 
ATOM     64  H   UNL A   1      41.335  28.907  31.314  1.00  0.00     0.167 HD
ATOM     65  C   UNL A   1      42.373  29.482  33.897  1.00  0.00     0.074 A 
ATOM     66  C   UNL A   1      42.476  29.969  35.258  1.00  0.00     0.031 C 
ATOM     67  C   UNL A   1      43.317  28.724  33.285  1.00  0.00     0.034 A 
BRANCH  54  68
ATOM     68  C   UNL A   1      41.793  26.901  27.572  1.00  0.00     0.023 A 
ATOM     69  C   UNL A   1      42.322  27.536  26.428  1.00  0.00     0.012 A 
ATOM     70  C   UNL A   1      41.619  25.503  27.564  1.00  0.00     0.148 A 
ATOM     71  C   UNL A   1      42.622  26.803  25.281  1.00  0.00     0.002 A 
ATOM     72  C   UNL A   1      41.972  24.772  26.435  1.00  0.00     0.091 A 
ATOM     73  F   UNL A   1      41.094  24.917  28.649  1.00  0.00    -0.205 F 
ATOM     74  C   UNL A   1      42.458  25.422  25.288  1.00  0.00     0.022 A 
BRANCH  72  75
ATOM     75  S   UNL A   1      41.878  22.980  26.374  1.00  0.00     0.127 S 
ATOM     76  O   UNL A   1      40.433  22.759  26.405  1.00  0.00    -0.237 OA
ATOM     77  O   UNL A   1      42.511  22.684  25.088  1.00  0.00    -0.237 OA
ATOM     78  O   UNL A   1      42.611  22.500  27.536  1.00  0.00    -0.744 OA
ENDBRANCH  72  75
ENDBRANCH  54  68
BRANCH  55  79
ATOM     79  C   UNL A   1      38.844  32.104  35.601  1.00  0.00     0.023 A 
ATOM     80  C   UNL A   1      39.019  33.500  35.653  1.00  0.00     0.012 A 
ATOM     81  C   UNL A   1      38.209  31.450  36.673  1.00  0.00     0.148 A 
ATOM     82  C   UNL A   1      38.598  34.229  36.765  1.00  0.00     0.002 A 
ATOM     83  C   UNL A   1      37.744  32.190  37.756  1.00  0.00     0.091 A 
ATOM     84  F   UNL A   1      38.055  30.121  36.605  1.00  0.00    -0.205 F 
ATOM     85  C   UNL A   1      37.952  33.576  37.811  1.00  0.00     0.022 A 
BRANCH  83  86
ATOM     86  S   UNL A   1      36.788  31.459  39.089  1.00  0.00     0.127 S 
ATOM     87  O   UNL A   1      37.758  31.452  40.182  1.00  0.00    -0.237 OA
ATOM     88  O   UNL A   1      35.698  32.422  39.238  1.00  0.00    -0.237 OA
ATOM     89  O   UNL A   1      36.375  30.148  38.606  1.00  0.00    -0.744 OA
ENDBRANCH  83  86
ENDBRANCH  55  79
BRANCH  67  90
ATOM     90  C   UNL A   1      44.566  28.405  34.062  1.00  0.00     0.023 A 
ATOM     91  C   UNL A   1      45.673  29.274  34.004  1.00  0.00     0.012 A 
ATOM     92  C   UNL A   1      44.610  27.282  34.911  1.00  0.00     0.148 A 
ATOM     93  C   UNL A   1      46.818  29.012  34.755  1.00  0.00     0.002 A 
ATOM     94  C   UNL A   1      45.732  27.057  35.697  1.00  0.00     0.091 A 
ATOM     95  F   UNL A   1      43.551  26.458  34.938  1.00  0.00    -0.205 F 
ATOM     96  C   UNL A   1      46.842  27.913  35.610  1.00  0.00     0.022 A 
BRANCH  94  97
ATOM     97  S   UNL A   1      45.813  25.727  36.902  1.00  0.00     0.127 S 
ATOM     98  O   UNL A   1      47.142  25.925  37.475  1.00  0.00    -0.237 OA
ATOM     99  O   UNL A   1      44.705  26.056  37.800  1.00  0.00    -0.237 OA
ATOM    100  O   UNL A   1      45.635  24.492  36.151  1.00  0.00    -0.744 OA
ENDBRANCH  94  97
ENDBRANCH  67  90
ENDBRANCH  41  42
ENDBRANCH  33  36
ENDBRANCH  31  32
ENDBRANCH  30  31
ENDBRANCH   1  30
TORSDOF 20
ENDMDL
