MODEL 1
REMARK VINA RESULT:     -11.5      0.000      0.000
REMARK SMILES CC[C@@]1(C(=O)NCCCNC(=O)c2ccc(-c3c4nc(c(-c5cccc(S(=O)(=O)[O-])c5F)c5ccc([nH]5)c(-c5cccc(S(=O)(=O)[O-])c5F)c5nc(c(-c6cccc(S(=O)(=O)[O-])c6F)c6ccc3[nH]6)C=C5)C=C4)cc2)CCN(C(=O)N(C)CCc2cccs2)C1
REMARK SMILES IDX 7 1 6 2 4 3 5 4 3 6 76 7 90 8 77 9 78 10 2 11 1 12 79 13
REMARK SMILES IDX 80 14 81 15 82 16 83 17 84 18 85 19 86 20 89 21 87 22 88 23
REMARK SMILES IDX 8 24 9 25 10 26 11 27 12 29 13 30 14 31 75 32 15 33 74 34
REMARK SMILES IDX 16 35 17 36 18 37 68 38 19 39 73 40 67 41 69 42 20 43 72 44
REMARK SMILES IDX 66 45 65 46 21 48 53 49 33 50 52 51 34 52 37 53 51 54 70 55
REMARK SMILES IDX 35 56 36 57 50 59 71 60 38 61 22 62 23 63 31 64 24 65 26 66
REMARK SMILES IDX 32 67 25 68 27 69 28 70 29 71 30 72 54 73 55 74 63 75 56 76
REMARK SMILES IDX 58 77 64 78 57 79 59 80 60 81 61 82 62 83 39 84 40 85 48 86
REMARK SMILES IDX 41 87 43 88 49 89 42 90 44 91 45 92 46 93 47 94
REMARK H PARENT 6 5 10 28 69 47 37 58
REMARK Flexibility Score: inf
ROOT
ATOM      1  C   UNL A   1      35.136  22.139  26.079  1.00  0.00     0.117 C 
ENDROOT
BRANCH   1   2
ATOM      2  N   UNL A   1      35.197  23.576  25.897  1.00  0.00    -0.355 N 
ATOM      3  C   UNL A   1      34.295  24.479  25.424  1.00  0.00     0.228 C 
ATOM      4  O   UNL A   1      34.656  25.658  25.482  1.00  0.00    -0.274 OA
ATOM      5  H   UNL A   1      36.057  23.975  26.167  1.00  0.00     0.163 HD
BRANCH   3   6
ATOM      6  C   UNL A   1      32.935  24.061  24.813  1.00  0.00     0.068 C 
ATOM      7  C   UNL A   1      33.182  23.155  23.592  1.00  0.00     0.040 C 
ATOM      8  C   UNL A   1      32.276  25.306  24.165  1.00  0.00     0.138 C 
ATOM      9  C   UNL A   1      33.323  24.098  22.402  1.00  0.00     0.122 C 
ATOM     10  N   UNL A   1      32.517  25.255  22.728  1.00  0.00    -0.324 N 
BRANCH   6  11
ATOM     11  C   UNL A   1      31.968  23.493  25.901  1.00  0.00     0.015 C 
ATOM     12  C   UNL A   1      30.694  24.292  26.179  1.00  0.00     0.005 C 
ENDBRANCH   6  11
BRANCH  10  13
ATOM     13  C   UNL A   1      31.935  26.239  21.966  1.00  0.00     0.319 C 
ATOM     14  O   UNL A   1      31.663  26.005  20.783  1.00  0.00    -0.248 OA
BRANCH  13  15
ATOM     15  N   UNL A   1      31.753  27.512  22.467  1.00  0.00    -0.327 N 
ATOM     16  C   UNL A   1      32.770  28.526  22.679  1.00  0.00     0.148 C 
BRANCH  15  17
ATOM     17  C   UNL A   1      30.371  27.904  22.792  1.00  0.00     0.126 C 
BRANCH  17  18
ATOM     18  C   UNL A   1      30.268  29.116  23.743  1.00  0.00     0.068 C 
BRANCH  18  19
ATOM     19  C   UNL A   1      29.440  30.244  23.189  1.00  0.00     0.006 A 
ATOM     20  C   UNL A   1      28.768  31.231  23.888  1.00  0.00     0.015 A 
ATOM     21  S   UNL A   1      29.211  30.414  21.499  1.00  0.00    -0.149 S 
ATOM     22  C   UNL A   1      27.975  32.053  23.039  1.00  0.00     0.012 A 
ATOM     23  C   UNL A   1      28.101  31.698  21.715  1.00  0.00     0.065 A 
ENDBRANCH  18  19
ENDBRANCH  17  18
ENDBRANCH  15  17
ENDBRANCH  13  15
ENDBRANCH  10  13
ENDBRANCH   3   6
ENDBRANCH   1   2
BRANCH   1  24
ATOM     24  C   UNL A   1      36.009  21.371  25.102  1.00  0.00     0.042 C 
BRANCH  24  25
ATOM     25  C   UNL A   1      37.455  21.844  25.049  1.00  0.00     0.118 C 
BRANCH  25  26
ATOM     26  N   UNL A   1      38.384  20.884  25.631  1.00  0.00    -0.352 N 
ATOM     27  C   UNL A   1      39.572  21.068  26.293  1.00  0.00     0.251 C 
ATOM     28  H   UNL A   1      38.113  19.942  25.533  1.00  0.00     0.163 HD
ATOM     29  O   UNL A   1      40.280  20.089  26.522  1.00  0.00    -0.269 OA
BRANCH  27  30
ATOM     30  C   UNL A   1      40.017  22.415  26.722  1.00  0.00     0.039 A 
ATOM     31  C   UNL A   1      41.014  22.511  27.697  1.00  0.00     0.014 A 
ATOM     32  C   UNL A   1      39.436  23.579  26.212  1.00  0.00     0.014 A 
ATOM     33  C   UNL A   1      41.463  23.767  28.113  1.00  0.00     0.010 A 
ATOM     34  C   UNL A   1      39.950  24.827  26.557  1.00  0.00     0.010 A 
ATOM     35  C   UNL A   1      40.960  24.937  27.521  1.00  0.00    -0.014 A 
BRANCH  35  36
ATOM     36  C   UNL A   1      41.500  26.271  27.892  1.00  0.00     0.031 A 
ATOM     37  C   UNL A   1      42.915  26.657  27.552  1.00  0.00     0.074 A 
ATOM     38  C   UNL A   1      40.727  27.116  28.602  1.00  0.00     0.049 A 
ATOM     39  N   UNL A   1      43.534  27.789  27.773  1.00  0.00    -0.248 NA
ATOM     40  C   UNL A   1      43.756  25.634  26.908  1.00  0.00     0.031 C 
ATOM     41  C   UNL A   1      39.381  26.817  29.096  1.00  0.00     0.029 A 
ATOM     42  N   UNL A   1      40.967  28.392  29.049  1.00  0.00    -0.354 N 
ATOM     43  C   UNL A   1      44.839  27.605  27.330  1.00  0.00     0.074 A 
ATOM     44  C   UNL A   1      44.935  26.239  26.864  1.00  0.00     0.031 C 
ATOM     45  C   UNL A   1      38.908  27.883  29.760  1.00  0.00     0.029 A 
ATOM     46  C   UNL A   1      39.919  28.935  29.756  1.00  0.00     0.049 A 
ATOM     47  H   UNL A   1      41.809  28.872  28.879  1.00  0.00     0.167 HD
ATOM     48  C   UNL A   1      45.856  28.498  27.284  1.00  0.00     0.034 A 
ATOM     49  C   UNL A   1      39.782  30.147  30.325  1.00  0.00     0.034 A 
ATOM     50  C   UNL A   1      45.742  29.870  27.703  1.00  0.00     0.049 A 
ATOM     51  C   UNL A   1      40.890  31.153  30.172  1.00  0.00     0.074 A 
ATOM     52  C   UNL A   1      46.678  30.884  27.598  1.00  0.00     0.029 A 
ATOM     53  N   UNL A   1      44.625  30.419  28.314  1.00  0.00    -0.354 N 
ATOM     54  N   UNL A   1      42.049  31.019  29.575  1.00  0.00    -0.248 NA
ATOM     55  C   UNL A   1      40.650  32.492  30.726  1.00  0.00     0.031 C 
ATOM     56  C   UNL A   1      46.132  32.043  28.163  1.00  0.00     0.029 A 
ATOM     57  C   UNL A   1      44.850  31.756  28.599  1.00  0.00     0.049 A 
ATOM     58  H   UNL A   1      43.795  29.932  28.516  1.00  0.00     0.167 HD
ATOM     59  C   UNL A   1      42.667  32.261  29.660  1.00  0.00     0.074 A 
ATOM     60  C   UNL A   1      41.736  33.143  30.333  1.00  0.00     0.031 C 
ATOM     61  C   UNL A   1      43.901  32.633  29.236  1.00  0.00     0.034 A 
BRANCH  48  62
ATOM     62  C   UNL A   1      47.169  28.036  26.702  1.00  0.00     0.023 A 
ATOM     63  C   UNL A   1      48.202  27.618  27.567  1.00  0.00     0.012 A 
ATOM     64  C   UNL A   1      47.363  27.960  25.309  1.00  0.00     0.148 A 
ATOM     65  C   UNL A   1      49.419  27.169  27.057  1.00  0.00     0.002 A 
ATOM     66  C   UNL A   1      48.564  27.469  24.808  1.00  0.00     0.091 A 
ATOM     67  F   UNL A   1      46.381  28.384  24.501  1.00  0.00    -0.205 F 
ATOM     68  C   UNL A   1      49.596  27.084  25.679  1.00  0.00     0.022 A 
BRANCH  66  69
ATOM     69  S   UNL A   1      48.860  27.246  23.050  1.00  0.00     0.127 S 
ATOM     70  O   UNL A   1      50.321  27.225  22.997  1.00  0.00    -0.237 OA
ATOM     71  O   UNL A   1      48.221  25.956  22.789  1.00  0.00    -0.237 OA
ATOM     72  O   UNL A   1      48.224  28.380  22.391  1.00  0.00    -0.744 OA
ENDBRANCH  66  69
ENDBRANCH  48  62
BRANCH  49  73
ATOM     73  C   UNL A   1      38.507  30.501  31.010  1.00  0.00     0.023 A 
ATOM     74  C   UNL A   1      38.321  30.140  32.358  1.00  0.00     0.012 A 
ATOM     75  C   UNL A   1      37.501  31.235  30.349  1.00  0.00     0.148 A 
ATOM     76  C   UNL A   1      37.145  30.476  33.029  1.00  0.00     0.002 A 
ATOM     77  C   UNL A   1      36.357  31.617  31.040  1.00  0.00     0.091 A 
ATOM     78  F   UNL A   1      37.693  31.559  29.063  1.00  0.00    -0.205 F 
ATOM     79  C   UNL A   1      36.169  31.224  32.375  1.00  0.00     0.022 A 
BRANCH  77  80
ATOM     80  S   UNL A   1      35.121  32.702  30.320  1.00  0.00     0.127 S 
ATOM     81  O   UNL A   1      34.568  31.865  29.259  1.00  0.00    -0.237 OA
ATOM     82  O   UNL A   1      34.224  32.935  31.452  1.00  0.00    -0.237 OA
ATOM     83  O   UNL A   1      35.848  33.887  29.882  1.00  0.00    -0.744 OA
ENDBRANCH  77  80
ENDBRANCH  49  73
BRANCH  61  84
ATOM     84  C   UNL A   1      44.309  34.064  29.477  1.00  0.00     0.023 A 
ATOM     85  C   UNL A   1      45.021  34.397  30.647  1.00  0.00     0.012 A 
ATOM     86  C   UNL A   1      44.024  35.068  28.533  1.00  0.00     0.148 A 
ATOM     87  C   UNL A   1      45.401  35.715  30.896  1.00  0.00     0.002 A 
ATOM     88  C   UNL A   1      44.450  36.372  28.764  1.00  0.00     0.091 A 
ATOM     89  F   UNL A   1      43.329  34.739  27.434  1.00  0.00    -0.205 F 
ATOM     90  C   UNL A   1      45.124  36.700  29.951  1.00  0.00     0.022 A 
BRANCH  88  91
ATOM     91  S   UNL A   1      44.215  37.676  27.552  1.00  0.00     0.127 S 
ATOM     92  O   UNL A   1      42.974  37.260  26.901  1.00  0.00    -0.237 OA
ATOM     93  O   UNL A   1      44.092  38.869  28.392  1.00  0.00    -0.237 OA
ATOM     94  O   UNL A   1      45.408  37.655  26.716  1.00  0.00    -0.744 OA
ENDBRANCH  88  91
ENDBRANCH  61  84
ENDBRANCH  35  36
ENDBRANCH  27  30
ENDBRANCH  25  26
ENDBRANCH  24  25
ENDBRANCH   1  24
TORSDOF 19
ENDMDL
MODEL 2
REMARK VINA RESULT:     -11.3      1.768      7.829
REMARK SMILES CC[C@@]1(C(=O)NCCCNC(=O)c2ccc(-c3c4nc(c(-c5cccc(S(=O)(=O)[O-])c5F)c5ccc([nH]5)c(-c5cccc(S(=O)(=O)[O-])c5F)c5nc(c(-c6cccc(S(=O)(=O)[O-])c6F)c6ccc3[nH]6)C=C5)C=C4)cc2)CCN(C(=O)N(C)CCc2cccs2)C1
REMARK SMILES IDX 7 1 6 2 4 3 5 4 3 6 76 7 90 8 77 9 78 10 2 11 1 12 79 13
REMARK SMILES IDX 80 14 81 15 82 16 83 17 84 18 85 19 86 20 89 21 87 22 88 23
REMARK SMILES IDX 8 24 9 25 10 26 11 27 12 29 13 30 14 31 75 32 15 33 74 34
REMARK SMILES IDX 16 35 17 36 18 37 68 38 19 39 73 40 67 41 69 42 20 43 72 44
REMARK SMILES IDX 66 45 65 46 21 48 53 49 33 50 52 51 34 52 37 53 51 54 70 55
REMARK SMILES IDX 35 56 36 57 50 59 71 60 38 61 22 62 23 63 31 64 24 65 26 66
REMARK SMILES IDX 32 67 25 68 27 69 28 70 29 71 30 72 54 73 55 74 63 75 56 76
REMARK SMILES IDX 58 77 64 78 57 79 59 80 60 81 61 82 62 83 39 84 40 85 48 86
REMARK SMILES IDX 41 87 43 88 49 89 42 90 44 91 45 92 46 93 47 94
REMARK H PARENT 6 5 10 28 69 47 37 58
REMARK Flexibility Score: inf
ROOT
ATOM      1  C   UNL A   1      36.596  20.298  24.632  1.00  0.00     0.117 C 
ENDROOT
BRANCH   1   2
ATOM      2  N   UNL A   1      35.858  20.764  25.789  1.00  0.00    -0.355 N 
ATOM      3  C   UNL A   1      34.656  21.390  25.917  1.00  0.00     0.228 C 
ATOM      4  O   UNL A   1      34.284  21.575  27.079  1.00  0.00    -0.274 OA
ATOM      5  H   UNL A   1      36.312  20.594  26.646  1.00  0.00     0.163 HD
BRANCH   3   6
ATOM      6  C   UNL A   1      33.835  21.881  24.700  1.00  0.00     0.068 C 
ATOM      7  C   UNL A   1      34.776  22.578  23.698  1.00  0.00     0.040 C 
ATOM      8  C   UNL A   1      32.922  23.050  25.153  1.00  0.00     0.138 C 
ATOM      9  C   UNL A   1      34.832  24.038  24.133  1.00  0.00     0.122 C 
ATOM     10  N   UNL A   1      33.555  24.303  24.762  1.00  0.00    -0.324 N 
BRANCH   6  11
ATOM     11  C   UNL A   1      32.937  20.743  24.117  1.00  0.00     0.015 C 
ATOM     12  C   UNL A   1      32.933  19.411  24.869  1.00  0.00     0.005 C 
ENDBRANCH   6  11
BRANCH  10  13
ATOM     13  C   UNL A   1      32.851  25.458  25.007  1.00  0.00     0.319 C 
ATOM     14  O   UNL A   1      33.039  26.066  26.068  1.00  0.00    -0.248 OA
BRANCH  13  15
ATOM     15  N   UNL A   1      31.864  25.885  24.143  1.00  0.00    -0.327 N 
ATOM     16  C   UNL A   1      31.843  25.750  22.698  1.00  0.00     0.148 C 
BRANCH  15  17
ATOM     17  C   UNL A   1      30.680  26.517  24.752  1.00  0.00     0.126 C 
BRANCH  17  18
ATOM     18  C   UNL A   1      29.456  26.591  23.815  1.00  0.00     0.068 C 
BRANCH  18  19
ATOM     19  C   UNL A   1      29.067  27.997  23.446  1.00  0.00     0.006 A 
ATOM     20  C   UNL A   1      27.818  28.469  23.086  1.00  0.00     0.015 A 
ATOM     21  S   UNL A   1      30.238  29.249  23.411  1.00  0.00    -0.149 S 
ATOM     22  C   UNL A   1      27.851  29.831  22.671  1.00  0.00     0.012 A 
ATOM     23  C   UNL A   1      29.114  30.368  22.771  1.00  0.00     0.065 A 
ENDBRANCH  18  19
ENDBRANCH  17  18
ENDBRANCH  15  17
ENDBRANCH  13  15
ENDBRANCH  10  13
ENDBRANCH   3   6
ENDBRANCH   1   2
BRANCH   1  24
ATOM     24  C   UNL A   1      37.752  19.379  24.986  1.00  0.00     0.042 C 
BRANCH  24  25
ATOM     25  C   UNL A   1      38.872  20.051  25.766  1.00  0.00     0.118 C 
BRANCH  25  26
ATOM     26  N   UNL A   1      39.997  19.160  26.018  1.00  0.00    -0.352 N 
ATOM     27  C   UNL A   1      41.322  19.428  26.260  1.00  0.00     0.251 C 
ATOM     28  H   UNL A   1      39.769  18.203  26.014  1.00  0.00     0.163 HD
ATOM     29  O   UNL A   1      42.125  18.498  26.250  1.00  0.00    -0.269 OA
BRANCH  27  30
ATOM     30  C   UNL A   1      41.795  20.808  26.520  1.00  0.00     0.039 A 
ATOM     31  C   UNL A   1      42.165  21.605  25.432  1.00  0.00     0.014 A 
ATOM     32  C   UNL A   1      41.924  21.311  27.817  1.00  0.00     0.014 A 
ATOM     33  C   UNL A   1      42.603  22.914  25.643  1.00  0.00     0.010 A 
ATOM     34  C   UNL A   1      42.269  22.645  28.020  1.00  0.00     0.010 A 
ATOM     35  C   UNL A   1      42.627  23.459  26.938  1.00  0.00    -0.014 A 
BRANCH  35  36
ATOM     36  C   UNL A   1      43.002  24.879  27.159  1.00  0.00     0.031 A 
ATOM     37  C   UNL A   1      42.048  25.842  27.815  1.00  0.00     0.074 A 
ATOM     38  C   UNL A   1      44.191  25.321  26.702  1.00  0.00     0.049 A 
ATOM     39  N   UNL A   1      42.228  27.103  28.112  1.00  0.00    -0.248 NA
ATOM     40  C   UNL A   1      40.708  25.335  28.156  1.00  0.00     0.031 C 
ATOM     41  C   UNL A   1      45.156  24.520  25.946  1.00  0.00     0.029 A 
ATOM     42  N   UNL A   1      44.784  26.556  26.789  1.00  0.00    -0.354 N 
ATOM     43  C   UNL A   1      41.021  27.548  28.640  1.00  0.00     0.074 A 
ATOM     44  C   UNL A   1      40.103  26.432  28.585  1.00  0.00     0.031 C 
ATOM     45  C   UNL A   1      46.226  25.276  25.655  1.00  0.00     0.029 A 
ATOM     46  C   UNL A   1      46.018  26.619  26.187  1.00  0.00     0.049 A 
ATOM     47  H   UNL A   1      44.365  27.324  27.241  1.00  0.00     0.167 HD
ATOM     48  C   UNL A   1      40.713  28.764  29.153  1.00  0.00     0.034 A 
ATOM     49  C   UNL A   1      46.892  27.638  26.084  1.00  0.00     0.034 A 
ATOM     50  C   UNL A   1      41.645  29.856  29.250  1.00  0.00     0.049 A 
ATOM     51  C   UNL A   1      46.565  28.947  26.750  1.00  0.00     0.074 A 
ATOM     52  C   UNL A   1      41.466  31.091  29.849  1.00  0.00     0.029 A 
ATOM     53  N   UNL A   1      42.929  29.848  28.728  1.00  0.00    -0.354 N 
ATOM     54  N   UNL A   1      45.489  29.287  27.416  1.00  0.00    -0.248 NA
ATOM     55  C   UNL A   1      47.594  29.995  26.692  1.00  0.00     0.031 C 
ATOM     56  C   UNL A   1      42.638  31.836  29.673  1.00  0.00     0.029 A 
ATOM     57  C   UNL A   1      43.553  31.058  28.984  1.00  0.00     0.049 A 
ATOM     58  H   UNL A   1      43.338  29.094  28.246  1.00  0.00     0.167 HD
ATOM     59  C   UNL A   1      45.719  30.577  27.879  1.00  0.00     0.074 A 
ATOM     60  C   UNL A   1      47.053  30.942  27.447  1.00  0.00     0.031 C 
ATOM     61  C   UNL A   1      44.895  31.394  28.581  1.00  0.00     0.034 A 
BRANCH  48  62
ATOM     62  C   UNL A   1      39.324  28.958  29.708  1.00  0.00     0.023 A 
ATOM     63  C   UNL A   1      39.031  28.515  31.014  1.00  0.00     0.012 A 
ATOM     64  C   UNL A   1      38.329  29.624  28.966  1.00  0.00     0.148 A 
ATOM     65  C   UNL A   1      37.760  28.697  31.559  1.00  0.00     0.002 A 
ATOM     66  C   UNL A   1      37.078  29.842  29.533  1.00  0.00     0.091 A 
ATOM     67  F   UNL A   1      38.616  30.018  27.717  1.00  0.00    -0.205 F 
ATOM     68  C   UNL A   1      36.788  29.370  30.824  1.00  0.00     0.022 A 
BRANCH  66  69
ATOM     69  S   UNL A   1      35.784  30.767  28.699  1.00  0.00     0.127 S 
ATOM     70  O   UNL A   1      35.004  29.695  28.083  1.00  0.00    -0.237 OA
ATOM     71  O   UNL A   1      35.119  31.444  29.812  1.00  0.00    -0.237 OA
ATOM     72  O   UNL A   1      36.467  31.660  27.770  1.00  0.00    -0.744 OA
ENDBRANCH  66  69
ENDBRANCH  48  62
BRANCH  49  73
ATOM     73  C   UNL A   1      48.199  27.425  25.400  1.00  0.00     0.023 A 
ATOM     74  C   UNL A   1      49.303  26.965  26.144  1.00  0.00     0.012 A 
ATOM     75  C   UNL A   1      48.340  27.627  24.014  1.00  0.00     0.148 A 
ATOM     76  C   UNL A   1      50.532  26.739  25.526  1.00  0.00     0.002 A 
ATOM     77  C   UNL A   1      49.552  27.343  23.394  1.00  0.00     0.091 A 
ATOM     78  F   UNL A   1      47.281  28.075  23.326  1.00  0.00    -0.205 F 
ATOM     79  C   UNL A   1      50.654  26.916  24.150  1.00  0.00     0.022 A 
BRANCH  77  80
ATOM     80  S   UNL A   1      49.752  27.404  21.609  1.00  0.00     0.127 S 
ATOM     81  O   UNL A   1      49.603  28.831  21.339  1.00  0.00    -0.237 OA
ATOM     82  O   UNL A   1      51.109  26.883  21.439  1.00  0.00    -0.237 OA
ATOM     83  O   UNL A   1      48.709  26.541  21.070  1.00  0.00    -0.744 OA
ENDBRANCH  77  80
ENDBRANCH  49  73
BRANCH  61  84
ATOM     84  C   UNL A   1      45.419  32.761  28.938  1.00  0.00     0.023 A 
ATOM     85  C   UNL A   1      46.246  32.917  30.070  1.00  0.00     0.012 A 
ATOM     86  C   UNL A   1      45.128  33.881  28.137  1.00  0.00     0.148 A 
ATOM     87  C   UNL A   1      46.734  34.174  30.424  1.00  0.00     0.002 A 
ATOM     88  C   UNL A   1      45.660  35.123  28.468  1.00  0.00     0.091 A 
ATOM     89  F   UNL A   1      44.324  33.721  27.075  1.00  0.00    -0.205 F 
ATOM     90  C   UNL A   1      46.450  35.274  29.619  1.00  0.00     0.022 A 
BRANCH  88  91
ATOM     91  S   UNL A   1      45.417  36.568  27.429  1.00  0.00     0.127 S 
ATOM     92  O   UNL A   1      45.739  37.656  28.350  1.00  0.00    -0.237 OA
ATOM     93  O   UNL A   1      46.399  36.359  26.364  1.00  0.00    -0.237 OA
ATOM     94  O   UNL A   1      44.031  36.503  26.985  1.00  0.00    -0.744 OA
ENDBRANCH  88  91
ENDBRANCH  61  84
ENDBRANCH  35  36
ENDBRANCH  27  30
ENDBRANCH  25  26
ENDBRANCH  24  25
ENDBRANCH   1  24
TORSDOF 19
ENDMDL
MODEL 3
REMARK VINA RESULT:     -11.0      2.500      8.198
REMARK SMILES CC[C@@]1(C(=O)NCCCNC(=O)c2ccc(-c3c4nc(c(-c5cccc(S(=O)(=O)[O-])c5F)c5ccc([nH]5)c(-c5cccc(S(=O)(=O)[O-])c5F)c5nc(c(-c6cccc(S(=O)(=O)[O-])c6F)c6ccc3[nH]6)C=C5)C=C4)cc2)CCN(C(=O)N(C)CCc2cccs2)C1
REMARK SMILES IDX 7 1 6 2 4 3 5 4 3 6 76 7 90 8 77 9 78 10 2 11 1 12 79 13
REMARK SMILES IDX 80 14 81 15 82 16 83 17 84 18 85 19 86 20 89 21 87 22 88 23
REMARK SMILES IDX 8 24 9 25 10 26 11 27 12 29 13 30 14 31 75 32 15 33 74 34
REMARK SMILES IDX 16 35 17 36 18 37 68 38 19 39 73 40 67 41 69 42 20 43 72 44
REMARK SMILES IDX 66 45 65 46 21 48 53 49 33 50 52 51 34 52 37 53 51 54 70 55
REMARK SMILES IDX 35 56 36 57 50 59 71 60 38 61 22 62 23 63 31 64 24 65 26 66
REMARK SMILES IDX 32 67 25 68 27 69 28 70 29 71 30 72 54 73 55 74 63 75 56 76
REMARK SMILES IDX 58 77 64 78 57 79 59 80 60 81 61 82 62 83 39 84 40 85 48 86
REMARK SMILES IDX 41 87 43 88 49 89 42 90 44 91 45 92 46 93 47 94
REMARK H PARENT 6 5 10 28 69 47 37 58
REMARK Flexibility Score: inf
ROOT
ATOM      1  C   UNL A   1      36.919  20.641  24.672  1.00  0.00     0.117 C 
ENDROOT
BRANCH   1   2
ATOM      2  N   UNL A   1      36.367  21.305  25.836  1.00  0.00    -0.355 N 
ATOM      3  C   UNL A   1      35.087  21.571  26.218  1.00  0.00     0.228 C 
ATOM      4  O   UNL A   1      34.971  22.094  27.329  1.00  0.00    -0.274 OA
ATOM      5  H   UNL A   1      37.047  21.626  26.472  1.00  0.00     0.163 HD
BRANCH   3   6
ATOM      6  C   UNL A   1      33.867  21.286  25.308  1.00  0.00     0.068 C 
ATOM      7  C   UNL A   1      34.033  22.047  23.979  1.00  0.00     0.040 C 
ATOM      8  C   UNL A   1      32.618  21.971  25.921  1.00  0.00     0.138 C 
ATOM      9  C   UNL A   1      33.420  23.423  24.214  1.00  0.00     0.122 C 
ATOM     10  N   UNL A   1      32.388  23.222  25.209  1.00  0.00    -0.324 N 
BRANCH   6  11
ATOM     11  C   UNL A   1      33.587  19.753  25.188  1.00  0.00     0.015 C 
ATOM     12  C   UNL A   1      32.938  19.268  23.891  1.00  0.00     0.005 C 
ENDBRANCH   6  11
BRANCH  10  13
ATOM     13  C   UNL A   1      31.268  23.938  25.557  1.00  0.00     0.319 C 
ATOM     14  O   UNL A   1      30.186  23.349  25.673  1.00  0.00    -0.248 OA
BRANCH  13  15
ATOM     15  N   UNL A   1      31.310  25.313  25.670  1.00  0.00    -0.327 N 
ATOM     16  C   UNL A   1      32.261  26.102  26.431  1.00  0.00     0.148 C 
BRANCH  15  17
ATOM     17  C   UNL A   1      30.304  26.070  24.906  1.00  0.00     0.126 C 
BRANCH  17  18
ATOM     18  C   UNL A   1      30.561  26.101  23.385  1.00  0.00     0.068 C 
BRANCH  18  19
ATOM     19  C   UNL A   1      31.688  27.015  22.985  1.00  0.00     0.006 A 
ATOM     20  C   UNL A   1      32.829  26.699  22.270  1.00  0.00     0.015 A 
ATOM     21  S   UNL A   1      31.675  28.669  23.436  1.00  0.00    -0.149 S 
ATOM     22  C   UNL A   1      33.742  27.789  22.196  1.00  0.00     0.012 A 
ATOM     23  C   UNL A   1      33.250  28.915  22.816  1.00  0.00     0.065 A 
ENDBRANCH  18  19
ENDBRANCH  17  18
ENDBRANCH  15  17
ENDBRANCH  13  15
ENDBRANCH  10  13
ENDBRANCH   3   6
ENDBRANCH   1   2
BRANCH   1  24
ATOM     24  C   UNL A   1      38.008  19.638  25.012  1.00  0.00     0.042 C 
BRANCH  24  25
ATOM     25  C   UNL A   1      39.163  20.215  25.818  1.00  0.00     0.118 C 
BRANCH  25  26
ATOM     26  N   UNL A   1      40.263  19.274  25.980  1.00  0.00    -0.352 N 
ATOM     27  C   UNL A   1      41.609  19.482  26.153  1.00  0.00     0.251 C 
ATOM     28  H   UNL A   1      39.996  18.326  25.964  1.00  0.00     0.163 HD
ATOM     29  O   UNL A   1      42.372  18.522  26.071  1.00  0.00    -0.269 OA
BRANCH  27  30
ATOM     30  C   UNL A   1      42.153  20.834  26.422  1.00  0.00     0.039 A 
ATOM     31  C   UNL A   1      42.528  21.632  25.337  1.00  0.00     0.014 A 
ATOM     32  C   UNL A   1      42.340  21.307  27.723  1.00  0.00     0.014 A 
ATOM     33  C   UNL A   1      43.032  22.916  25.558  1.00  0.00     0.010 A 
ATOM     34  C   UNL A   1      42.752  22.620  27.938  1.00  0.00     0.010 A 
ATOM     35  C   UNL A   1      43.117  23.436  26.860  1.00  0.00    -0.014 A 
BRANCH  35  36
ATOM     36  C   UNL A   1      43.563  24.834  27.094  1.00  0.00     0.031 A 
ATOM     37  C   UNL A   1      42.615  25.872  27.633  1.00  0.00     0.074 A 
ATOM     38  C   UNL A   1      44.819  25.186  26.753  1.00  0.00     0.049 A 
ATOM     39  N   UNL A   1      42.850  27.126  27.926  1.00  0.00    -0.248 NA
ATOM     40  C   UNL A   1      41.217  25.462  27.844  1.00  0.00     0.031 C 
ATOM     41  C   UNL A   1      45.798  24.305  26.113  1.00  0.00     0.029 A 
ATOM     42  N   UNL A   1      45.482  26.380  26.879  1.00  0.00    -0.354 N 
ATOM     43  C   UNL A   1      41.629  27.661  28.320  1.00  0.00     0.074 A 
ATOM     44  C   UNL A   1      40.647  26.607  28.192  1.00  0.00     0.031 C 
ATOM     45  C   UNL A   1      46.941  24.982  25.919  1.00  0.00     0.029 A 
ATOM     46  C   UNL A   1      46.773  26.348  26.404  1.00  0.00     0.049 A 
ATOM     47  H   UNL A   1      45.073  27.185  27.273  1.00  0.00     0.167 HD
ATOM     48  C   UNL A   1      41.353  28.906  28.778  1.00  0.00     0.034 A 
ATOM     49  C   UNL A   1      47.719  27.305  26.374  1.00  0.00     0.034 A 
ATOM     50  C   UNL A   1      42.343  29.937  28.951  1.00  0.00     0.049 A 
ATOM     51  C   UNL A   1      47.416  28.648  26.980  1.00  0.00     0.074 A 
ATOM     52  C   UNL A   1      42.188  31.194  29.508  1.00  0.00     0.029 A 
ATOM     53  N   UNL A   1      43.669  29.832  28.562  1.00  0.00    -0.354 N 
ATOM     54  N   UNL A   1      46.305  29.074  27.528  1.00  0.00    -0.248 NA
ATOM     55  C   UNL A   1      48.514  29.624  27.010  1.00  0.00     0.031 C 
ATOM     56  C   UNL A   1      43.420  31.857  29.440  1.00  0.00     0.029 A 
ATOM     57  C   UNL A   1      44.345  31.005  28.860  1.00  0.00     0.049 A 
ATOM     58  H   UNL A   1      44.072  29.042  28.138  1.00  0.00     0.167 HD
ATOM     59  C   UNL A   1      46.573  30.357  27.990  1.00  0.00     0.074 A 
ATOM     60  C   UNL A   1      47.965  30.622  27.689  1.00  0.00     0.031 C 
ATOM     61  C   UNL A   1      45.740  31.243  28.590  1.00  0.00     0.034 A 
BRANCH  48  62
ATOM     62  C   UNL A   1      39.932  29.204  29.186  1.00  0.00     0.023 A 
ATOM     63  C   UNL A   1      38.956  29.418  28.190  1.00  0.00     0.012 A 
ATOM     64  C   UNL A   1      39.550  29.219  30.541  1.00  0.00     0.148 A 
ATOM     65  C   UNL A   1      37.630  29.678  28.538  1.00  0.00     0.002 A 
ATOM     66  C   UNL A   1      38.218  29.434  30.877  1.00  0.00     0.091 A 
ATOM     67  F   UNL A   1      40.494  29.038  31.475  1.00  0.00    -0.205 F 
ATOM     68  C   UNL A   1      37.259  29.675  29.879  1.00  0.00     0.022 A 
BRANCH  66  69
ATOM     69  S   UNL A   1      37.625  29.371  32.572  1.00  0.00     0.127 S 
ATOM     70  O   UNL A   1      38.580  30.245  33.252  1.00  0.00    -0.237 OA
ATOM     71  O   UNL A   1      36.275  29.922  32.449  1.00  0.00    -0.237 OA
ATOM     72  O   UNL A   1      37.672  27.967  32.960  1.00  0.00    -0.744 OA
ENDBRANCH  66  69
ENDBRANCH  48  62
BRANCH  49  73
ATOM     73  C   UNL A   1      49.070  26.991  25.830  1.00  0.00     0.023 A 
ATOM     74  C   UNL A   1      49.975  26.246  26.611  1.00  0.00     0.012 A 
ATOM     75  C   UNL A   1      49.445  27.381  24.530  1.00  0.00     0.148 A 
ATOM     76  C   UNL A   1      51.239  25.921  26.120  1.00  0.00     0.002 A 
ATOM     77  C   UNL A   1      50.683  27.004  24.024  1.00  0.00     0.091 A 
ATOM     78  F   UNL A   1      48.574  28.099  23.807  1.00  0.00    -0.205 F 
ATOM     79  C   UNL A   1      51.589  26.289  24.823  1.00  0.00     0.022 A 
BRANCH  77  80
ATOM     80  S   UNL A   1      51.155  27.309  22.318  1.00  0.00     0.127 S 
ATOM     81  O   UNL A   1      50.102  26.610  21.586  1.00  0.00    -0.237 OA
ATOM     82  O   UNL A   1      51.094  28.768  22.242  1.00  0.00    -0.237 OA
ATOM     83  O   UNL A   1      52.498  26.760  22.180  1.00  0.00    -0.744 OA
ENDBRANCH  77  80
ENDBRANCH  49  73
BRANCH  61  84
ATOM     84  C   UNL A   1      46.317  32.580  28.975  1.00  0.00     0.023 A 
ATOM     85  C   UNL A   1      46.919  32.742  30.240  1.00  0.00     0.012 A 
ATOM     86  C   UNL A   1      46.299  33.664  28.077  1.00  0.00     0.148 A 
ATOM     87  C   UNL A   1      47.451  33.972  30.621  1.00  0.00     0.002 A 
ATOM     88  C   UNL A   1      46.875  34.874  28.445  1.00  0.00     0.091 A 
ATOM     89  F   UNL A   1      45.704  33.501  26.885  1.00  0.00    -0.205 F 
ATOM     90  C   UNL A   1      47.438  35.036  29.721  1.00  0.00     0.022 A 
BRANCH  88  91
ATOM     91  S   UNL A   1      46.982  36.260  27.307  1.00  0.00     0.127 S 
ATOM     92  O   UNL A   1      47.745  35.682  26.202  1.00  0.00    -0.237 OA
ATOM     93  O   UNL A   1      45.576  36.528  27.003  1.00  0.00    -0.237 OA
ATOM     94  O   UNL A   1      47.646  37.325  28.047  1.00  0.00    -0.744 OA
ENDBRANCH  88  91
ENDBRANCH  61  84
ENDBRANCH  35  36
ENDBRANCH  27  30
ENDBRANCH  25  26
ENDBRANCH  24  25
ENDBRANCH   1  24
TORSDOF 19
ENDMDL
