MODEL 1
REMARK VINA RESULT:     -13.3      0.000      0.000
REMARK SMILES Cc1c(NC(=O)c2ccc(Br)cc2N)cccc1C(=O)NCCCNC(=O)c1ccc(-c2c3nc(c(-c4cccc(S(=O)(=O)[O-])c4F)c4ccc([nH]4)c(-c4cccc(S(=O)(=O)[O-])c4F)c4nc(c(-c5cccc(S(=O)(=O)[O-])c5F)c5ccc2[nH]5)C=C4)C=C3)cc1
REMARK SMILES IDX 23 1 22 2 21 3 19 4 20 5 18 7 1 8 2 9 3 10 15 11 17 12 16 13
REMARK SMILES IDX 4 14 5 15 6 17 7 18 8 19 13 20 9 21 12 22 10 23 11 24 14 25
REMARK SMILES IDX 24 28 25 29 26 30 27 32 28 33 29 34 90 35 30 36 89 37 31 38
REMARK SMILES IDX 32 39 33 40 83 41 34 42 88 43 82 44 84 45 35 46 87 47 81 48
REMARK SMILES IDX 80 49 36 51 68 52 48 53 67 54 49 55 52 56 66 57 85 58 50 59
REMARK SMILES IDX 51 60 65 62 86 63 53 64 37 65 38 66 46 67 39 68 41 69 47 70
REMARK SMILES IDX 40 71 42 72 43 73 44 74 45 75 69 76 70 77 78 78 71 79 73 80
REMARK SMILES IDX 79 81 72 82 74 83 75 84 76 85 77 86 54 87 55 88 63 89 56 90
REMARK SMILES IDX 58 91 64 92 57 93 59 94 60 95 61 96 62 97
REMARK H PARENT 21 6 4 16 14 26 14 27 25 31 84 50 52 61
REMARK Flexibility Score: inf
ROOT
ATOM      1  C   UNL A   1      33.461  30.813  26.574  1.00  0.00     0.042 C 
ENDROOT
BRANCH   1   2
ATOM      2  C   UNL A   1      33.054  29.581  25.760  1.00  0.00     0.118 C 
BRANCH   2   3
ATOM      3  N   UNL A   1      31.974  29.873  24.833  1.00  0.00    -0.352 N 
ATOM      4  C   UNL A   1      31.088  29.129  24.096  1.00  0.00     0.251 C 
ATOM      5  O   UNL A   1      30.261  29.780  23.446  1.00  0.00    -0.269 OA
ATOM      6  H   UNL A   1      31.847  30.840  24.702  1.00  0.00     0.163 HD
BRANCH   4   7
ATOM      7  C   UNL A   1      30.975  27.628  24.030  1.00  0.00     0.044 A 
ATOM      8  C   UNL A   1      30.751  27.105  26.520  1.00  0.00     0.047 C 
ATOM      9  C   UNL A   1      30.779  26.707  25.079  1.00  0.00    -0.015 A 
ATOM     10  C   UNL A   1      30.790  25.312  24.817  1.00  0.00     0.045 A 
ATOM     11  C   UNL A   1      31.117  24.817  23.559  1.00  0.00     0.026 A 
ATOM     12  C   UNL A   1      31.278  27.091  22.757  1.00  0.00     0.014 A 
ATOM     13  C   UNL A   1      31.371  25.713  22.528  1.00  0.00     0.003 A 
BRANCH  10  14
ATOM     14  N   UNL A   1      30.456  24.457  25.879  1.00  0.00    -0.322 N 
ATOM     15  C   UNL A   1      31.164  23.471  26.517  1.00  0.00     0.257 C 
ATOM     16  H   UNL A   1      29.546  24.589  26.230  1.00  0.00     0.170 HD
ATOM     17  O   UNL A   1      30.584  22.796  27.369  1.00  0.00    -0.269 OA
BRANCH  15  18
ATOM     18  C   UNL A   1      32.602  23.211  26.263  1.00  0.00     0.063 A 
ATOM     19  C   UNL A   1      33.383  24.373  26.132  1.00  0.00     0.017 A 
ATOM     20  C   UNL A   1      33.189  21.941  26.073  1.00  0.00     0.045 A 
ATOM     21  C   UNL A   1      34.747  24.290  25.867  1.00  0.00     0.016 A 
ATOM     22  C   UNL A   1      34.571  21.879  25.834  1.00  0.00     0.042 A 
ATOM     23  C   UNL A   1      35.339  23.041  25.739  1.00  0.00     0.020 A 
ATOM     24  Br  UNL A   1      37.190  22.913  25.385  1.00  0.00    -0.051 Br
BRANCH  20  25
ATOM     25  N   UNL A   1      32.477  20.756  25.934  1.00  0.00    -0.398 N 
ATOM     26  H   UNL A   1      32.826  20.037  25.359  1.00  0.00     0.156 HD
ATOM     27  H   UNL A   1      31.624  20.636  26.410  1.00  0.00     0.156 HD
ENDBRANCH  20  25
ENDBRANCH  15  18
ENDBRANCH  10  14
ENDBRANCH   4   7
ENDBRANCH   2   3
ENDBRANCH   1   2
BRANCH   1  28
ATOM     28  C   UNL A   1      34.000  30.589  27.972  1.00  0.00     0.118 C 
BRANCH  28  29
ATOM     29  N   UNL A   1      35.057  31.576  28.247  1.00  0.00    -0.352 N 
ATOM     30  C   UNL A   1      36.416  31.397  28.449  1.00  0.00     0.251 C 
ATOM     31  H   UNL A   1      34.752  32.510  28.293  1.00  0.00     0.163 HD
ATOM     32  O   UNL A   1      37.155  32.334  28.674  1.00  0.00    -0.269 OA
BRANCH  30  33
ATOM     33  C   UNL A   1      36.913  30.019  28.303  1.00  0.00     0.039 A 
ATOM     34  C   UNL A   1      37.148  29.334  29.497  1.00  0.00     0.014 A 
ATOM     35  C   UNL A   1      37.580  29.706  27.120  1.00  0.00     0.014 A 
ATOM     36  C   UNL A   1      38.267  28.522  29.582  1.00  0.00     0.010 A 
ATOM     37  C   UNL A   1      38.724  28.942  27.225  1.00  0.00     0.010 A 
ATOM     38  C   UNL A   1      39.111  28.440  28.477  1.00  0.00    -0.014 A 
BRANCH  38  39
ATOM     39  C   UNL A   1      40.425  27.825  28.537  1.00  0.00     0.031 A 
ATOM     40  C   UNL A   1      40.511  26.369  28.377  1.00  0.00     0.074 A 
ATOM     41  C   UNL A   1      41.547  28.552  28.738  1.00  0.00     0.049 A 
ATOM     42  N   UNL A   1      41.489  25.648  28.799  1.00  0.00    -0.248 NA
ATOM     43  C   UNL A   1      39.424  25.606  27.784  1.00  0.00     0.031 C 
ATOM     44  C   UNL A   1      42.924  28.111  28.547  1.00  0.00     0.029 A 
ATOM     45  N   UNL A   1      41.665  29.773  29.405  1.00  0.00    -0.354 N 
ATOM     46  C   UNL A   1      41.306  24.383  28.292  1.00  0.00     0.074 A 
ATOM     47  C   UNL A   1      39.959  24.384  27.774  1.00  0.00     0.031 C 
ATOM     48  C   UNL A   1      43.728  28.869  29.307  1.00  0.00     0.029 A 
ATOM     49  C   UNL A   1      42.878  29.713  30.125  1.00  0.00     0.049 A 
ATOM     50  H   UNL A   1      41.030  30.526  29.379  1.00  0.00     0.167 HD
ATOM     51  C   UNL A   1      42.378  23.545  28.228  1.00  0.00     0.034 A 
ATOM     52  C   UNL A   1      42.976  29.877  31.478  1.00  0.00     0.034 A 
ATOM     53  C   UNL A   1      43.540  24.117  28.936  1.00  0.00     0.049 A 
ATOM     54  C   UNL A   1      43.630  28.698  32.190  1.00  0.00     0.074 A 
ATOM     55  C   UNL A   1      44.695  24.771  28.530  1.00  0.00     0.029 A 
ATOM     56  N   UNL A   1      43.467  24.300  30.311  1.00  0.00    -0.354 N 
ATOM     57  N   UNL A   1      44.098  27.630  31.604  1.00  0.00    -0.248 NA
ATOM     58  C   UNL A   1      43.664  28.590  33.646  1.00  0.00     0.031 C 
ATOM     59  C   UNL A   1      45.305  25.360  29.678  1.00  0.00     0.029 A 
ATOM     60  C   UNL A   1      44.536  25.047  30.785  1.00  0.00     0.049 A 
ATOM     61  H   UNL A   1      42.747  23.943  30.878  1.00  0.00     0.167 HD
ATOM     62  C   UNL A   1      44.309  26.647  32.546  1.00  0.00     0.074 A 
ATOM     63  C   UNL A   1      44.033  27.310  33.810  1.00  0.00     0.031 C 
ATOM     64  C   UNL A   1      44.606  25.348  32.213  1.00  0.00     0.034 A 
BRANCH  51  65
ATOM     65  C   UNL A   1      42.480  22.365  27.271  1.00  0.00     0.023 A 
ATOM     66  C   UNL A   1      41.555  21.311  27.443  1.00  0.00     0.012 A 
ATOM     67  C   UNL A   1      43.465  22.151  26.277  1.00  0.00     0.148 A 
ATOM     68  C   UNL A   1      41.669  20.089  26.768  1.00  0.00     0.002 A 
ATOM     69  C   UNL A   1      43.628  20.909  25.657  1.00  0.00     0.091 A 
ATOM     70  F   UNL A   1      44.202  23.169  25.836  1.00  0.00    -0.205 F 
ATOM     71  C   UNL A   1      42.732  19.871  25.905  1.00  0.00     0.022 A 
BRANCH  69  72
ATOM     72  S   UNL A   1      45.030  20.543  24.580  1.00  0.00     0.127 S 
ATOM     73  O   UNL A   1      44.882  19.102  24.366  1.00  0.00    -0.237 OA
ATOM     74  O   UNL A   1      44.745  21.364  23.406  1.00  0.00    -0.237 OA
ATOM     75  O   UNL A   1      46.227  20.913  25.328  1.00  0.00    -0.744 OA
ENDBRANCH  69  72
ENDBRANCH  51  65
BRANCH  52  76
ATOM     76  C   UNL A   1      41.862  30.696  32.050  1.00  0.00     0.023 A 
ATOM     77  C   UNL A   1      41.735  32.030  31.595  1.00  0.00     0.012 A 
ATOM     78  C   UNL A   1      40.757  30.082  32.660  1.00  0.00     0.148 A 
ATOM     79  C   UNL A   1      40.487  32.656  31.571  1.00  0.00     0.002 A 
ATOM     80  C   UNL A   1      39.523  30.720  32.648  1.00  0.00     0.091 A 
ATOM     81  F   UNL A   1      40.890  28.852  33.170  1.00  0.00    -0.205 F 
ATOM     82  C   UNL A   1      39.371  31.979  32.053  1.00  0.00     0.022 A 
BRANCH  80  83
ATOM     83  S   UNL A   1      38.078  29.874  33.293  1.00  0.00     0.127 S 
ATOM     84  O   UNL A   1      38.323  28.505  32.854  1.00  0.00    -0.237 OA
ATOM     85  O   UNL A   1      38.198  30.092  34.734  1.00  0.00    -0.237 OA
ATOM     86  O   UNL A   1      36.958  30.571  32.677  1.00  0.00    -0.744 OA
ENDBRANCH  80  83
ENDBRANCH  52  76
BRANCH  64  87
ATOM     87  C   UNL A   1      44.909  24.222  33.207  1.00  0.00     0.023 A 
ATOM     88  C   UNL A   1      43.930  23.298  33.621  1.00  0.00     0.012 A 
ATOM     89  C   UNL A   1      46.179  24.093  33.836  1.00  0.00     0.148 A 
ATOM     90  C   UNL A   1      44.220  22.220  34.467  1.00  0.00     0.002 A 
ATOM     91  C   UNL A   1      46.461  23.039  34.705  1.00  0.00     0.091 A 
ATOM     92  F   UNL A   1      47.117  25.027  33.648  1.00  0.00    -0.205 F 
ATOM     93  C   UNL A   1      45.493  22.078  34.992  1.00  0.00     0.022 A 
BRANCH  91  94
ATOM     94  S   UNL A   1      48.049  22.867  35.534  1.00  0.00     0.127 S 
ATOM     95  O   UNL A   1      47.831  21.661  36.333  1.00  0.00    -0.237 OA
ATOM     96  O   UNL A   1      48.964  22.693  34.405  1.00  0.00    -0.237 OA
ATOM     97  O   UNL A   1      48.246  24.092  36.295  1.00  0.00    -0.744 OA
ENDBRANCH  91  94
ENDBRANCH  64  87
ENDBRANCH  38  39
ENDBRANCH  30  33
ENDBRANCH  28  29
ENDBRANCH   1  28
TORSDOF 16
ENDMDL
MODEL 2
REMARK VINA RESULT:     -13.2      4.160     10.063
REMARK SMILES Cc1c(NC(=O)c2ccc(Br)cc2N)cccc1C(=O)NCCCNC(=O)c1ccc(-c2c3nc(c(-c4cccc(S(=O)(=O)[O-])c4F)c4ccc([nH]4)c(-c4cccc(S(=O)(=O)[O-])c4F)c4nc(c(-c5cccc(S(=O)(=O)[O-])c5F)c5ccc2[nH]5)C=C4)C=C3)cc1
REMARK SMILES IDX 23 1 22 2 21 3 19 4 20 5 18 7 1 8 2 9 3 10 15 11 17 12 16 13
REMARK SMILES IDX 4 14 5 15 6 17 7 18 8 19 13 20 9 21 12 22 10 23 11 24 14 25
REMARK SMILES IDX 24 28 25 29 26 30 27 32 28 33 29 34 90 35 30 36 89 37 31 38
REMARK SMILES IDX 32 39 33 40 83 41 34 42 88 43 82 44 84 45 35 46 87 47 81 48
REMARK SMILES IDX 80 49 36 51 68 52 48 53 67 54 49 55 52 56 66 57 85 58 50 59
REMARK SMILES IDX 51 60 65 62 86 63 53 64 37 65 38 66 46 67 39 68 41 69 47 70
REMARK SMILES IDX 40 71 42 72 43 73 44 74 45 75 69 76 70 77 78 78 71 79 73 80
REMARK SMILES IDX 79 81 72 82 74 83 75 84 76 85 77 86 54 87 55 88 63 89 56 90
REMARK SMILES IDX 58 91 64 92 57 93 59 94 60 95 61 96 62 97
REMARK H PARENT 21 6 4 16 14 26 14 27 25 31 84 50 52 61
REMARK Flexibility Score: inf
ROOT
ATOM      1  C   UNL A   1      37.734  21.076  25.442  1.00  0.00     0.042 C 
ENDROOT
BRANCH   1   2
ATOM      2  C   UNL A   1      36.210  20.941  25.366  1.00  0.00     0.118 C 
BRANCH   2   3
ATOM      3  N   UNL A   1      35.557  21.463  26.553  1.00  0.00    -0.352 N 
ATOM      4  C   UNL A   1      34.683  22.486  26.821  1.00  0.00     0.251 C 
ATOM      5  O   UNL A   1      34.312  22.573  27.997  1.00  0.00    -0.269 OA
ATOM      6  H   UNL A   1      35.800  20.960  27.363  1.00  0.00     0.163 HD
BRANCH   4   7
ATOM      7  C   UNL A   1      34.090  23.472  25.847  1.00  0.00     0.044 A 
ATOM      8  C   UNL A   1      31.607  23.073  26.293  1.00  0.00     0.047 C 
ATOM      9  C   UNL A   1      32.735  23.789  25.622  1.00  0.00    -0.015 A 
ATOM     10  C   UNL A   1      32.375  24.690  24.586  1.00  0.00     0.045 A 
ATOM     11  C   UNL A   1      33.324  25.180  23.694  1.00  0.00     0.026 A 
ATOM     12  C   UNL A   1      35.031  24.009  24.939  1.00  0.00     0.014 A 
ATOM     13  C   UNL A   1      34.656  24.829  23.868  1.00  0.00     0.003 A 
BRANCH  10  14
ATOM     14  N   UNL A   1      31.025  25.065  24.503  1.00  0.00    -0.322 N 
ATOM     15  C   UNL A   1      30.367  26.204  24.891  1.00  0.00     0.257 C 
ATOM     16  H   UNL A   1      30.444  24.386  24.090  1.00  0.00     0.170 HD
ATOM     17  O   UNL A   1      29.140  26.232  24.787  1.00  0.00    -0.269 OA
BRANCH  15  18
ATOM     18  C   UNL A   1      31.066  27.417  25.383  1.00  0.00     0.063 A 
ATOM     19  C   UNL A   1      31.557  27.306  26.697  1.00  0.00     0.017 A 
ATOM     20  C   UNL A   1      31.190  28.637  24.685  1.00  0.00     0.045 A 
ATOM     21  C   UNL A   1      32.214  28.371  27.306  1.00  0.00     0.016 A 
ATOM     22  C   UNL A   1      31.880  29.690  25.308  1.00  0.00     0.042 A 
ATOM     23  C   UNL A   1      32.389  29.553  26.599  1.00  0.00     0.020 A 
ATOM     24  Br  UNL A   1      33.284  31.005  27.411  1.00  0.00    -0.051 Br
BRANCH  20  25
ATOM     25  N   UNL A   1      30.534  28.936  23.497  1.00  0.00    -0.398 N 
ATOM     26  H   UNL A   1      30.648  28.354  22.712  1.00  0.00     0.156 HD
ATOM     27  H   UNL A   1      29.954  29.730  23.442  1.00  0.00     0.156 HD
ENDBRANCH  20  25
ENDBRANCH  15  18
ENDBRANCH  10  14
ENDBRANCH   4   7
ENDBRANCH   2   3
ENDBRANCH   1   2
BRANCH   1  28
ATOM     28  C   UNL A   1      38.315  22.471  25.557  1.00  0.00     0.118 C 
BRANCH  28  29
ATOM     29  N   UNL A   1      39.588  22.405  26.293  1.00  0.00    -0.352 N 
ATOM     30  C   UNL A   1      40.312  23.408  26.916  1.00  0.00     0.251 C 
ATOM     31  H   UNL A   1      39.987  21.508  26.353  1.00  0.00     0.163 HD
ATOM     32  O   UNL A   1      41.363  23.179  27.480  1.00  0.00    -0.269 OA
BRANCH  30  33
ATOM     33  C   UNL A   1      39.696  24.745  26.913  1.00  0.00     0.039 A 
ATOM     34  C   UNL A   1      40.496  25.775  26.413  1.00  0.00     0.014 A 
ATOM     35  C   UNL A   1      38.670  24.975  27.828  1.00  0.00     0.014 A 
ATOM     36  C   UNL A   1      40.461  27.005  27.050  1.00  0.00     0.010 A 
ATOM     37  C   UNL A   1      38.679  26.182  28.496  1.00  0.00     0.010 A 
ATOM     38  C   UNL A   1      39.642  27.149  28.167  1.00  0.00    -0.014 A 
BRANCH  38  39
ATOM     39  C   UNL A   1      39.713  28.300  29.050  1.00  0.00     0.031 A 
ATOM     40  C   UNL A   1      38.810  29.426  28.785  1.00  0.00     0.074 A 
ATOM     41  C   UNL A   1      40.581  28.355  30.085  1.00  0.00     0.049 A 
ATOM     42  N   UNL A   1      39.017  30.632  29.184  1.00  0.00    -0.248 NA
ATOM     43  C   UNL A   1      37.623  29.269  27.959  1.00  0.00     0.031 C 
ATOM     44  C   UNL A   1      40.567  29.306  31.190  1.00  0.00     0.029 A 
ATOM     45  N   UNL A   1      41.811  27.705  30.204  1.00  0.00    -0.354 N 
ATOM     46  C   UNL A   1      37.871  31.345  28.920  1.00  0.00     0.074 A 
ATOM     47  C   UNL A   1      37.092  30.488  28.060  1.00  0.00     0.031 C 
ATOM     48  C   UNL A   1      41.805  29.392  31.700  1.00  0.00     0.029 A 
ATOM     49  C   UNL A   1      42.680  28.619  30.839  1.00  0.00     0.049 A 
ATOM     50  H   UNL A   1      42.029  26.792  29.906  1.00  0.00     0.167 HD
ATOM     51  C   UNL A   1      37.656  32.506  29.600  1.00  0.00     0.034 A 
ATOM     52  C   UNL A   1      43.863  29.047  30.309  1.00  0.00     0.034 A 
ATOM     53  C   UNL A   1      38.849  32.893  30.378  1.00  0.00     0.049 A 
ATOM     54  C   UNL A   1      43.957  30.562  30.168  1.00  0.00     0.074 A 
ATOM     55  C   UNL A   1      39.206  32.794  31.715  1.00  0.00     0.029 A 
ATOM     56  N   UNL A   1      40.013  33.231  29.701  1.00  0.00    -0.354 N 
ATOM     57  N   UNL A   1      43.037  31.411  30.537  1.00  0.00    -0.248 NA
ATOM     58  C   UNL A   1      45.056  31.211  29.458  1.00  0.00     0.031 C 
ATOM     59  C   UNL A   1      40.603  33.062  31.828  1.00  0.00     0.029 A 
ATOM     60  C   UNL A   1      41.092  33.347  30.566  1.00  0.00     0.049 A 
ATOM     61  H   UNL A   1      40.065  33.371  28.728  1.00  0.00     0.167 HD
ATOM     62  C   UNL A   1      43.297  32.641  29.974  1.00  0.00     0.074 A 
ATOM     63  C   UNL A   1      44.583  32.459  29.320  1.00  0.00     0.031 C 
ATOM     64  C   UNL A   1      42.403  33.682  30.014  1.00  0.00     0.034 A 
BRANCH  51  65
ATOM     65  C   UNL A   1      36.280  33.124  29.815  1.00  0.00     0.023 A 
ATOM     66  C   UNL A   1      35.649  33.703  28.693  1.00  0.00     0.012 A 
ATOM     67  C   UNL A   1      35.591  33.273  31.043  1.00  0.00     0.148 A 
ATOM     68  C   UNL A   1      34.485  34.477  28.796  1.00  0.00     0.002 A 
ATOM     69  C   UNL A   1      34.474  34.104  31.164  1.00  0.00     0.091 A 
ATOM     70  F   UNL A   1      35.938  32.537  32.098  1.00  0.00    -0.205 F 
ATOM     71  C   UNL A   1      33.919  34.713  30.040  1.00  0.00     0.022 A 
BRANCH  69  72
ATOM     72  S   UNL A   1      33.737  34.505  32.762  1.00  0.00     0.127 S 
ATOM     73  O   UNL A   1      32.598  35.340  32.372  1.00  0.00    -0.237 OA
ATOM     74  O   UNL A   1      33.376  33.189  33.281  1.00  0.00    -0.237 OA
ATOM     75  O   UNL A   1      34.762  35.217  33.517  1.00  0.00    -0.744 OA
ENDBRANCH  69  72
ENDBRANCH  51  65
BRANCH  52  76
ATOM     76  C   UNL A   1      44.458  28.072  29.342  1.00  0.00     0.023 A 
ATOM     77  C   UNL A   1      44.788  26.786  29.834  1.00  0.00     0.012 A 
ATOM     78  C   UNL A   1      44.305  28.246  27.957  1.00  0.00     0.148 A 
ATOM     79  C   UNL A   1      44.768  25.676  28.989  1.00  0.00     0.002 A 
ATOM     80  C   UNL A   1      44.304  27.137  27.121  1.00  0.00     0.091 A 
ATOM     81  F   UNL A   1      44.076  29.472  27.473  1.00  0.00    -0.205 F 
ATOM     82  C   UNL A   1      44.476  25.846  27.639  1.00  0.00     0.022 A 
BRANCH  80  83
ATOM     83  S   UNL A   1      43.960  27.342  25.372  1.00  0.00     0.127 S 
ATOM     84  O   UNL A   1      45.245  27.823  24.878  1.00  0.00    -0.237 OA
ATOM     85  O   UNL A   1      43.607  25.985  24.956  1.00  0.00    -0.237 OA
ATOM     86  O   UNL A   1      42.850  28.282  25.339  1.00  0.00    -0.744 OA
ENDBRANCH  80  83
ENDBRANCH  52  76
BRANCH  64  87
ATOM     87  C   UNL A   1      42.651  35.089  29.461  1.00  0.00     0.023 A 
ATOM     88  C   UNL A   1      42.169  35.502  28.204  1.00  0.00     0.012 A 
ATOM     89  C   UNL A   1      43.457  36.039  30.151  1.00  0.00     0.148 A 
ATOM     90  C   UNL A   1      42.324  36.810  27.728  1.00  0.00     0.002 A 
ATOM     91  C   UNL A   1      43.641  37.333  29.664  1.00  0.00     0.091 A 
ATOM     92  F   UNL A   1      44.108  35.682  31.262  1.00  0.00    -0.205 F 
ATOM     93  C   UNL A   1      43.043  37.733  28.470  1.00  0.00     0.022 A 
BRANCH  91  94
ATOM     94  S   UNL A   1      44.675  38.544  30.500  1.00  0.00     0.127 S 
ATOM     95  O   UNL A   1      45.941  37.820  30.612  1.00  0.00    -0.237 OA
ATOM     96  O   UNL A   1      44.688  39.648  29.540  1.00  0.00    -0.237 OA
ATOM     97  O   UNL A   1      44.014  38.843  31.762  1.00  0.00    -0.744 OA
ENDBRANCH  91  94
ENDBRANCH  64  87
ENDBRANCH  38  39
ENDBRANCH  30  33
ENDBRANCH  28  29
ENDBRANCH   1  28
TORSDOF 16
ENDMDL
MODEL 3
REMARK VINA RESULT:     -13.2      1.389      1.679
REMARK SMILES Cc1c(NC(=O)c2ccc(Br)cc2N)cccc1C(=O)NCCCNC(=O)c1ccc(-c2c3nc(c(-c4cccc(S(=O)(=O)[O-])c4F)c4ccc([nH]4)c(-c4cccc(S(=O)(=O)[O-])c4F)c4nc(c(-c5cccc(S(=O)(=O)[O-])c5F)c5ccc2[nH]5)C=C4)C=C3)cc1
REMARK SMILES IDX 23 1 22 2 21 3 19 4 20 5 18 7 1 8 2 9 3 10 15 11 17 12 16 13
REMARK SMILES IDX 4 14 5 15 6 17 7 18 8 19 13 20 9 21 12 22 10 23 11 24 14 25
REMARK SMILES IDX 24 28 25 29 26 30 27 32 28 33 29 34 90 35 30 36 89 37 31 38
REMARK SMILES IDX 32 39 33 40 83 41 34 42 88 43 82 44 84 45 35 46 87 47 81 48
REMARK SMILES IDX 80 49 36 51 68 52 48 53 67 54 49 55 52 56 66 57 85 58 50 59
REMARK SMILES IDX 51 60 65 62 86 63 53 64 37 65 38 66 46 67 39 68 41 69 47 70
REMARK SMILES IDX 40 71 42 72 43 73 44 74 45 75 69 76 70 77 78 78 71 79 73 80
REMARK SMILES IDX 79 81 72 82 74 83 75 84 76 85 77 86 54 87 55 88 63 89 56 90
REMARK SMILES IDX 58 91 64 92 57 93 59 94 60 95 61 96 62 97
REMARK H PARENT 21 6 4 16 14 26 14 27 25 31 84 50 52 61
REMARK Flexibility Score: inf
ROOT
ATOM      1  C   UNL A   1      33.250  30.591  26.232  1.00  0.00     0.042 C 
ENDROOT
BRANCH   1   2
ATOM      2  C   UNL A   1      32.822  29.406  25.362  1.00  0.00     0.118 C 
BRANCH   2   3
ATOM      3  N   UNL A   1      31.577  29.666  24.661  1.00  0.00    -0.352 N 
ATOM      4  C   UNL A   1      30.696  28.920  23.918  1.00  0.00     0.251 C 
ATOM      5  O   UNL A   1      29.693  29.525  23.521  1.00  0.00    -0.269 OA
ATOM      6  H   UNL A   1      31.296  30.606  24.737  1.00  0.00     0.163 HD
BRANCH   4   7
ATOM      7  C   UNL A   1      30.786  27.455  23.578  1.00  0.00     0.044 A 
ATOM      8  C   UNL A   1      30.265  26.452  25.869  1.00  0.00     0.047 C 
ATOM      9  C   UNL A   1      30.555  26.338  24.406  1.00  0.00    -0.015 A 
ATOM     10  C   UNL A   1      30.782  25.025  23.915  1.00  0.00     0.045 A 
ATOM     11  C   UNL A   1      31.351  24.812  22.664  1.00  0.00     0.026 A 
ATOM     12  C   UNL A   1      31.339  27.201  22.302  1.00  0.00     0.014 A 
ATOM     13  C   UNL A   1      31.639  25.907  21.859  1.00  0.00     0.003 A 
BRANCH  10  14
ATOM     14  N   UNL A   1      30.406  23.957  24.744  1.00  0.00    -0.322 N 
ATOM     15  C   UNL A   1      31.136  22.958  25.336  1.00  0.00     0.257 C 
ATOM     16  H   UNL A   1      29.441  23.917  24.935  1.00  0.00     0.170 HD
ATOM     17  O   UNL A   1      30.528  22.076  25.945  1.00  0.00    -0.269 OA
BRANCH  15  18
ATOM     18  C   UNL A   1      32.619  22.917  25.319  1.00  0.00     0.063 A 
ATOM     19  C   UNL A   1      33.229  23.715  26.303  1.00  0.00     0.017 A 
ATOM     20  C   UNL A   1      33.413  22.229  24.376  1.00  0.00     0.045 A 
ATOM     21  C   UNL A   1      34.615  23.799  26.396  1.00  0.00     0.016 A 
ATOM     22  C   UNL A   1      34.809  22.305  24.505  1.00  0.00     0.042 A 
ATOM     23  C   UNL A   1      35.400  23.076  25.507  1.00  0.00     0.020 A 
ATOM     24  Br  UNL A   1      37.283  23.175  25.624  1.00  0.00    -0.051 Br
BRANCH  20  25
ATOM     25  N   UNL A   1      32.924  21.622  23.227  1.00  0.00    -0.398 N 
ATOM     26  H   UNL A   1      33.170  21.973  22.341  1.00  0.00     0.156 HD
ATOM     27  H   UNL A   1      32.330  20.839  23.298  1.00  0.00     0.156 HD
ENDBRANCH  20  25
ENDBRANCH  15  18
ENDBRANCH  10  14
ENDBRANCH   4   7
ENDBRANCH   2   3
ENDBRANCH   1   2
BRANCH   1  28
ATOM     28  C   UNL A   1      33.361  30.366  27.726  1.00  0.00     0.118 C 
BRANCH  28  29
ATOM     29  N   UNL A   1      34.194  31.429  28.314  1.00  0.00    -0.352 N 
ATOM     30  C   UNL A   1      35.480  31.375  28.824  1.00  0.00     0.251 C 
ATOM     31  H   UNL A   1      33.771  32.316  28.350  1.00  0.00     0.163 HD
ATOM     32  O   UNL A   1      36.025  32.359  29.284  1.00  0.00    -0.269 OA
BRANCH  30  33
ATOM     33  C   UNL A   1      36.167  30.079  28.707  1.00  0.00     0.039 A 
ATOM     34  C   UNL A   1      36.676  29.557  29.898  1.00  0.00     0.014 A 
ATOM     35  C   UNL A   1      36.702  29.752  27.462  1.00  0.00     0.014 A 
ATOM     36  C   UNL A   1      37.911  28.932  29.869  1.00  0.00     0.010 A 
ATOM     37  C   UNL A   1      37.957  29.180  27.445  1.00  0.00     0.010 A 
ATOM     38  C   UNL A   1      38.593  28.866  28.656  1.00  0.00    -0.014 A 
BRANCH  38  39
ATOM     39  C   UNL A   1      39.984  28.461  28.558  1.00  0.00     0.031 A 
ATOM     40  C   UNL A   1      40.277  27.026  28.470  1.00  0.00     0.074 A 
ATOM     41  C   UNL A   1      40.992  29.361  28.551  1.00  0.00     0.049 A 
ATOM     42  N   UNL A   1      41.406  26.495  28.785  1.00  0.00    -0.248 NA
ATOM     43  C   UNL A   1      39.255  26.065  28.087  1.00  0.00     0.031 C 
ATOM     44  C   UNL A   1      42.383  29.117  28.186  1.00  0.00     0.029 A 
ATOM     45  N   UNL A   1      41.004  30.635  29.124  1.00  0.00    -0.354 N 
ATOM     46  C   UNL A   1      41.359  25.181  28.383  1.00  0.00     0.074 A 
ATOM     47  C   UNL A   1      39.972  24.940  28.069  1.00  0.00     0.031 C 
ATOM     48  C   UNL A   1      43.152  30.044  28.776  1.00  0.00     0.029 A 
ATOM     49  C   UNL A   1      42.297  30.813  29.661  1.00  0.00     0.049 A 
ATOM     50  H   UNL A   1      40.260  31.280  29.148  1.00  0.00     0.167 HD
ATOM     51  C   UNL A   1      42.532  24.510  28.211  1.00  0.00     0.034 A 
ATOM     52  C   UNL A   1      42.551  31.096  30.972  1.00  0.00     0.034 A 
ATOM     53  C   UNL A   1      43.674  25.304  28.707  1.00  0.00     0.049 A 
ATOM     54  C   UNL A   1      43.475  30.088  31.647  1.00  0.00     0.074 A 
ATOM     55  C   UNL A   1      44.644  26.088  28.100  1.00  0.00     0.029 A 
ATOM     56  N   UNL A   1      43.760  25.581  30.065  1.00  0.00    -0.354 N 
ATOM     57  N   UNL A   1      44.023  29.059  31.061  1.00  0.00    -0.248 NA
ATOM     58  C   UNL A   1      43.723  30.102  33.086  1.00  0.00     0.031 C 
ATOM     59  C   UNL A   1      45.302  26.850  29.110  1.00  0.00     0.029 A 
ATOM     60  C   UNL A   1      44.751  26.515  30.334  1.00  0.00     0.049 A 
ATOM     61  H   UNL A   1      43.190  25.166  30.751  1.00  0.00     0.167 HD
ATOM     62  C   UNL A   1      44.513  28.196  32.016  1.00  0.00     0.074 A 
ATOM     63  C   UNL A   1      44.310  28.908  33.266  1.00  0.00     0.031 C 
ATOM     64  C   UNL A   1      44.965  26.934  31.717  1.00  0.00     0.034 A 
BRANCH  51  65
ATOM     65  C   UNL A   1      42.690  23.286  27.317  1.00  0.00     0.023 A 
ATOM     66  C   UNL A   1      42.026  22.106  27.716  1.00  0.00     0.012 A 
ATOM     67  C   UNL A   1      43.510  23.164  26.170  1.00  0.00     0.148 A 
ATOM     68  C   UNL A   1      42.252  20.868  27.100  1.00  0.00     0.002 A 
ATOM     69  C   UNL A   1      43.797  21.920  25.600  1.00  0.00     0.091 A 
ATOM     70  F   UNL A   1      43.952  24.253  25.544  1.00  0.00    -0.205 F 
ATOM     71  C   UNL A   1      43.171  20.766  26.067  1.00  0.00     0.022 A 
BRANCH  69  72
ATOM     72  S   UNL A   1      45.034  21.715  24.302  1.00  0.00     0.127 S 
ATOM     73  O   UNL A   1      45.233  20.263  24.297  1.00  0.00    -0.237 OA
ATOM     74  O   UNL A   1      44.345  22.238  23.126  1.00  0.00    -0.237 OA
ATOM     75  O   UNL A   1      46.205  22.472  24.731  1.00  0.00    -0.744 OA
ENDBRANCH  69  72
ENDBRANCH  51  65
BRANCH  52  76
ATOM     76  C   UNL A   1      41.410  31.782  31.655  1.00  0.00     0.023 A 
ATOM     77  C   UNL A   1      41.001  33.035  31.138  1.00  0.00     0.012 A 
ATOM     78  C   UNL A   1      40.518  31.063  32.465  1.00  0.00     0.148 A 
ATOM     79  C   UNL A   1      39.677  33.458  31.265  1.00  0.00     0.002 A 
ATOM     80  C   UNL A   1      39.206  31.500  32.601  1.00  0.00     0.091 A 
ATOM     81  F   UNL A   1      40.922  29.918  33.027  1.00  0.00    -0.205 F 
ATOM     82  C   UNL A   1      38.766  32.663  31.956  1.00  0.00     0.022 A 
BRANCH  80  83
ATOM     83  S   UNL A   1      38.026  30.503  33.513  1.00  0.00     0.127 S 
ATOM     84  O   UNL A   1      36.759  31.044  33.035  1.00  0.00    -0.237 OA
ATOM     85  O   UNL A   1      38.332  29.149  33.057  1.00  0.00    -0.237 OA
ATOM     86  O   UNL A   1      38.360  30.751  34.909  1.00  0.00    -0.744 OA
ENDBRANCH  80  83
ENDBRANCH  52  76
BRANCH  64  87
ATOM     87  C   UNL A   1      45.575  25.948  32.718  1.00  0.00     0.023 A 
ATOM     88  C   UNL A   1      46.943  25.611  32.707  1.00  0.00     0.012 A 
ATOM     89  C   UNL A   1      44.779  25.248  33.668  1.00  0.00     0.148 A 
ATOM     90  C   UNL A   1      47.522  24.772  33.668  1.00  0.00     0.002 A 
ATOM     91  C   UNL A   1      45.348  24.386  34.606  1.00  0.00     0.091 A 
ATOM     92  F   UNL A   1      43.448  25.361  33.638  1.00  0.00    -0.205 F 
ATOM     93  C   UNL A   1      46.726  24.176  34.633  1.00  0.00     0.022 A 
BRANCH  91  94
ATOM     94  S   UNL A   1      44.363  23.470  35.800  1.00  0.00     0.127 S 
ATOM     95  O   UNL A   1      43.476  22.706  34.923  1.00  0.00    -0.237 OA
ATOM     96  O   UNL A   1      45.381  22.669  36.483  1.00  0.00    -0.237 OA
ATOM     97  O   UNL A   1      43.708  24.464  36.638  1.00  0.00    -0.744 OA
ENDBRANCH  91  94
ENDBRANCH  64  87
ENDBRANCH  38  39
ENDBRANCH  30  33
ENDBRANCH  28  29
ENDBRANCH   1  28
TORSDOF 16
ENDMDL
