MODEL 1
REMARK VINA RESULT:     -10.8      0.000      0.000
REMARK SMILES CC[C@H](Oc1ccc(C)nc1C[NH3+])C(=O)NCCCNC(=O)c1ccc(-c2c3nc(c(-c4cccc(S(=O)(=O)[O-])c4F)c4ccc([nH]4)c(-c4cccc(S(=O)(=O)[O-])c4F)c4nc(c(-c5cccc(S(=O)(=O)[O-])c5F)c5ccc2[nH]5)C=C4)C=C3)cc1
REMARK SMILES IDX 17 1 16 2 14 3 15 4 3 6 2 7 1 8 4 9 5 10 6 11 11 12 7 13
REMARK SMILES IDX 10 14 8 15 9 16 12 17 13 18 18 22 19 23 20 24 21 25 22 27
REMARK SMILES IDX 23 28 24 29 85 30 25 31 84 32 26 33 27 34 28 35 78 36 29 37
REMARK SMILES IDX 83 38 77 39 79 40 30 41 82 42 76 43 75 44 31 46 63 47 43 48
REMARK SMILES IDX 62 49 44 50 47 51 61 52 80 53 45 54 46 55 60 57 81 58 48 59
REMARK SMILES IDX 32 60 33 61 41 62 34 63 36 64 42 65 35 66 37 67 38 68 39 69
REMARK SMILES IDX 40 70 64 71 65 72 73 73 66 74 68 75 74 76 67 77 69 78 70 79
REMARK SMILES IDX 71 80 72 81 49 82 50 83 58 84 51 85 53 86 59 87 52 88 54 89
REMARK SMILES IDX 55 90 56 91 57 92
REMARK H PARENT 16 5 13 19 13 20 13 21 20 26 79 45 47 56
REMARK Flexibility Score: inf
ROOT
ATOM      1  C   UNL A   1      32.409  27.468  26.672  1.00  0.00     0.118 C 
ENDROOT
BRANCH   1   2
ATOM      2  N   UNL A   1      31.434  26.403  26.840  1.00  0.00    -0.353 N 
ATOM      3  C   UNL A   1      31.030  25.450  25.949  1.00  0.00     0.261 C 
ATOM      4  O   UNL A   1      30.206  24.613  26.329  1.00  0.00    -0.271 OA
ATOM      5  H   UNL A   1      31.003  26.364  27.724  1.00  0.00     0.163 HD
BRANCH   3   6
ATOM      6  C   UNL A   1      31.619  25.391  24.532  1.00  0.00     0.261 C 
BRANCH   6   7
ATOM      7  C   UNL A   1      30.639  26.004  23.512  1.00  0.00     0.052 C 
ATOM      8  C   UNL A   1      29.836  27.181  24.044  1.00  0.00     0.008 C 
ENDBRANCH   6   7
BRANCH   6   9
ATOM      9  O   UNL A   1      31.941  24.036  24.220  1.00  0.00    -0.478 OA
BRANCH   9  10
ATOM     10  C   UNL A   1      33.222  23.568  24.306  1.00  0.00     0.147 A 
ATOM     11  C   UNL A   1      34.382  24.303  24.053  1.00  0.00     0.050 A 
ATOM     12  C   UNL A   1      33.391  22.224  24.676  1.00  0.00     0.136 A 
ATOM     13  C   UNL A   1      35.638  23.700  24.152  1.00  0.00     0.027 A 
ATOM     14  N   UNL A   1      34.619  21.638  24.782  1.00  0.00    -0.248 NA
ATOM     15  C   UNL A   1      35.718  22.367  24.512  1.00  0.00     0.038 A 
ATOM     16  C   UNL A   1      37.031  21.657  24.619  1.00  0.00     0.067 C 
BRANCH  12  17
ATOM     17  C   UNL A   1      32.217  21.322  25.007  1.00  0.00     0.320 C 
BRANCH  17  18
ATOM     18  N   UNL A   1      31.410  21.811  26.127  1.00  0.00    -0.352 N 
ATOM     19  H   UNL A   1      30.892  22.640  25.837  1.00  0.00     0.344 HD
ATOM     20  H   UNL A   1      32.021  22.048  26.910  1.00  0.00     0.344 HD
ATOM     21  H   UNL A   1      30.754  21.084  26.416  1.00  0.00     0.344 HD
ENDBRANCH  17  18
ENDBRANCH  12  17
ENDBRANCH   9  10
ENDBRANCH   6   9
ENDBRANCH   3   6
ENDBRANCH   1   2
BRANCH   1  22
ATOM     22  C   UNL A   1      31.773  28.848  26.633  1.00  0.00     0.042 C 
BRANCH  22  23
ATOM     23  C   UNL A   1      32.592  29.895  25.895  1.00  0.00     0.118 C 
BRANCH  23  24
ATOM     24  N   UNL A   1      32.309  31.256  26.334  1.00  0.00    -0.352 N 
ATOM     25  C   UNL A   1      32.967  32.051  27.241  1.00  0.00     0.251 C 
ATOM     26  H   UNL A   1      31.521  31.672  25.913  1.00  0.00     0.163 HD
ATOM     27  O   UNL A   1      32.462  33.117  27.586  1.00  0.00    -0.269 OA
BRANCH  25  28
ATOM     28  C   UNL A   1      34.258  31.619  27.819  1.00  0.00     0.039 A 
ATOM     29  C   UNL A   1      35.270  32.566  27.998  1.00  0.00     0.014 A 
ATOM     30  C   UNL A   1      34.478  30.289  28.182  1.00  0.00     0.014 A 
ATOM     31  C   UNL A   1      36.469  32.193  28.612  1.00  0.00     0.010 A 
ATOM     32  C   UNL A   1      35.631  29.941  28.879  1.00  0.00     0.010 A 
ATOM     33  C   UNL A   1      36.642  30.887  29.097  1.00  0.00    -0.014 A 
BRANCH  33  34
ATOM     34  C   UNL A   1      37.865  30.493  29.845  1.00  0.00     0.031 A 
ATOM     35  C   UNL A   1      38.855  29.538  29.233  1.00  0.00     0.074 A 
ATOM     36  C   UNL A   1      38.041  30.926  31.109  1.00  0.00     0.049 A 
ATOM     37  N   UNL A   1      39.939  29.027  29.756  1.00  0.00    -0.248 NA
ATOM     38  C   UNL A   1      38.577  29.072  27.864  1.00  0.00     0.031 C 
ATOM     39  C   UNL A   1      37.117  31.794  31.844  1.00  0.00     0.029 A 
ATOM     40  N   UNL A   1      39.045  30.674  32.011  1.00  0.00    -0.354 N 
ATOM     41  C   UNL A   1      40.454  28.161  28.799  1.00  0.00     0.074 A 
ATOM     42  C   UNL A   1      39.539  28.182  27.678  1.00  0.00     0.031 C 
ATOM     43  C   UNL A   1      37.602  32.012  33.076  1.00  0.00     0.029 A 
ATOM     44  C   UNL A   1      38.849  31.270  33.236  1.00  0.00     0.049 A 
ATOM     45  H   UNL A   1      39.831  30.121  31.801  1.00  0.00     0.167 HD
ATOM     46  C   UNL A   1      41.597  27.436  28.833  1.00  0.00     0.034 A 
ATOM     47  C   UNL A   1      39.583  31.216  34.365  1.00  0.00     0.034 A 
ATOM     48  C   UNL A   1      42.520  27.443  29.935  1.00  0.00     0.049 A 
ATOM     49  C   UNL A   1      40.858  30.418  34.371  1.00  0.00     0.074 A 
ATOM     50  C   UNL A   1      43.743  26.803  30.036  1.00  0.00     0.029 A 
ATOM     51  N   UNL A   1      42.322  28.115  31.132  1.00  0.00    -0.354 N 
ATOM     52  N   UNL A   1      41.400  29.720  33.404  1.00  0.00    -0.248 NA
ATOM     53  C   UNL A   1      41.643  30.430  35.615  1.00  0.00     0.031 C 
ATOM     54  C   UNL A   1      44.269  27.062  31.306  1.00  0.00     0.029 A 
ATOM     55  C   UNL A   1      43.394  27.897  31.981  1.00  0.00     0.049 A 
ATOM     56  H   UNL A   1      41.535  28.665  31.346  1.00  0.00     0.167 HD
ATOM     57  C   UNL A   1      42.603  29.241  33.906  1.00  0.00     0.074 A 
ATOM     58  C   UNL A   1      42.722  29.746  35.259  1.00  0.00     0.031 C 
ATOM     59  C   UNL A   1      43.524  28.446  33.306  1.00  0.00     0.034 A 
BRANCH  46  60
ATOM     60  C   UNL A   1      41.940  26.612  27.619  1.00  0.00     0.023 A 
ATOM     61  C   UNL A   1      42.548  27.231  26.506  1.00  0.00     0.012 A 
ATOM     62  C   UNL A   1      41.717  25.221  27.597  1.00  0.00     0.148 A 
ATOM     63  C   UNL A   1      42.891  26.489  25.377  1.00  0.00     0.002 A 
ATOM     64  C   UNL A   1      42.106  24.479  26.487  1.00  0.00     0.091 A 
ATOM     65  F   UNL A   1      41.122  24.652  28.655  1.00  0.00    -0.205 F 
ATOM     66  C   UNL A   1      42.680  25.113  25.372  1.00  0.00     0.022 A 
BRANCH  64  67
ATOM     67  S   UNL A   1      41.955  22.691  26.412  1.00  0.00     0.127 S 
ATOM     68  O   UNL A   1      40.505  22.516  26.465  1.00  0.00    -0.237 OA
ATOM     69  O   UNL A   1      42.560  22.387  25.116  1.00  0.00    -0.237 OA
ATOM     70  O   UNL A   1      42.688  22.176  27.561  1.00  0.00    -0.744 OA
ENDBRANCH  64  67
ENDBRANCH  46  60
BRANCH  47  71
ATOM     71  C   UNL A   1      39.160  31.991  35.566  1.00  0.00     0.023 A 
ATOM     72  C   UNL A   1      39.471  33.361  35.652  1.00  0.00     0.012 A 
ATOM     73  C   UNL A   1      38.432  31.385  36.609  1.00  0.00     0.148 A 
ATOM     74  C   UNL A   1      39.095  34.109  36.768  1.00  0.00     0.002 A 
ATOM     75  C   UNL A   1      38.010  32.148  37.691  1.00  0.00     0.091 A 
ATOM     76  F   UNL A   1      38.152  30.078  36.510  1.00  0.00    -0.205 F 
ATOM     77  C   UNL A   1      38.358  33.505  37.782  1.00  0.00     0.022 A 
BRANCH  75  78
ATOM     78  S   UNL A   1      36.945  31.492  38.978  1.00  0.00     0.127 S 
ATOM     79  O   UNL A   1      35.793  32.386  38.898  1.00  0.00    -0.237 OA
ATOM     80  O   UNL A   1      36.705  30.130  38.500  1.00  0.00    -0.237 OA
ATOM     81  O   UNL A   1      37.721  31.570  40.208  1.00  0.00    -0.744 OA
ENDBRANCH  75  78
ENDBRANCH  47  71
BRANCH  59  82
ATOM     82  C   UNL A   1      44.767  28.104  34.084  1.00  0.00     0.023 A 
ATOM     83  C   UNL A   1      45.872  28.978  34.071  1.00  0.00     0.012 A 
ATOM     84  C   UNL A   1      44.811  26.948  34.889  1.00  0.00     0.148 A 
ATOM     85  C   UNL A   1      47.012  28.690  34.820  1.00  0.00     0.002 A 
ATOM     86  C   UNL A   1      45.929  26.695  35.673  1.00  0.00     0.091 A 
ATOM     87  F   UNL A   1      43.757  26.119  34.875  1.00  0.00    -0.205 F 
ATOM     88  C   UNL A   1      47.036  27.557  35.629  1.00  0.00     0.022 A 
BRANCH  86  89
ATOM     89  S   UNL A   1      46.011  25.315  36.821  1.00  0.00     0.127 S 
ATOM     90  O   UNL A   1      47.430  25.304  37.172  1.00  0.00    -0.237 OA
ATOM     91  O   UNL A   1      45.119  25.753  37.895  1.00  0.00    -0.237 OA
ATOM     92  O   UNL A   1      45.544  24.149  36.083  1.00  0.00    -0.744 OA
ENDBRANCH  86  89
ENDBRANCH  59  82
ENDBRANCH  33  34
ENDBRANCH  25  28
ENDBRANCH  23  24
ENDBRANCH  22  23
ENDBRANCH   1  22
TORSDOF 18
ENDMDL
MODEL 2
REMARK VINA RESULT:     -10.7      5.571     10.793
REMARK SMILES CC[C@H](Oc1ccc(C)nc1C[NH3+])C(=O)NCCCNC(=O)c1ccc(-c2c3nc(c(-c4cccc(S(=O)(=O)[O-])c4F)c4ccc([nH]4)c(-c4cccc(S(=O)(=O)[O-])c4F)c4nc(c(-c5cccc(S(=O)(=O)[O-])c5F)c5ccc2[nH]5)C=C4)C=C3)cc1
REMARK SMILES IDX 17 1 16 2 14 3 15 4 3 6 2 7 1 8 4 9 5 10 6 11 11 12 7 13
REMARK SMILES IDX 10 14 8 15 9 16 12 17 13 18 18 22 19 23 20 24 21 25 22 27
REMARK SMILES IDX 23 28 24 29 85 30 25 31 84 32 26 33 27 34 28 35 78 36 29 37
REMARK SMILES IDX 83 38 77 39 79 40 30 41 82 42 76 43 75 44 31 46 63 47 43 48
REMARK SMILES IDX 62 49 44 50 47 51 61 52 80 53 45 54 46 55 60 57 81 58 48 59
REMARK SMILES IDX 32 60 33 61 41 62 34 63 36 64 42 65 35 66 37 67 38 68 39 69
REMARK SMILES IDX 40 70 64 71 65 72 73 73 66 74 68 75 74 76 67 77 69 78 70 79
REMARK SMILES IDX 71 80 72 81 49 82 50 83 58 84 51 85 53 86 59 87 52 88 54 89
REMARK SMILES IDX 55 90 56 91 57 92
REMARK H PARENT 16 5 13 19 13 20 13 21 20 26 79 45 47 56
REMARK Flexibility Score: inf
ROOT
ATOM      1  C   UNL A   1      36.488  20.239  24.608  1.00  0.00     0.118 C 
ENDROOT
BRANCH   1   2
ATOM      2  N   UNL A   1      35.487  20.437  25.643  1.00  0.00    -0.353 N 
ATOM      3  C   UNL A   1      34.813  21.574  25.991  1.00  0.00     0.261 C 
ATOM      4  O   UNL A   1      33.969  21.496  26.888  1.00  0.00    -0.271 OA
ATOM      5  H   UNL A   1      35.261  19.636  26.168  1.00  0.00     0.163 HD
BRANCH   3   6
ATOM      6  C   UNL A   1      35.064  22.898  25.255  1.00  0.00     0.261 C 
BRANCH   6   7
ATOM      7  C   UNL A   1      36.090  23.757  26.020  1.00  0.00     0.052 C 
ATOM      8  C   UNL A   1      37.535  23.529  25.603  1.00  0.00     0.008 C 
ENDBRANCH   6   7
BRANCH   6   9
ATOM      9  O   UNL A   1      33.819  23.575  25.082  1.00  0.00    -0.478 OA
BRANCH   9  10
ATOM     10  C   UNL A   1      33.756  24.826  24.535  1.00  0.00     0.147 A 
ATOM     11  C   UNL A   1      33.855  26.031  25.230  1.00  0.00     0.050 A 
ATOM     12  C   UNL A   1      33.567  24.908  23.145  1.00  0.00     0.136 A 
ATOM     13  C   UNL A   1      33.749  27.250  24.555  1.00  0.00     0.027 A 
ATOM     14  N   UNL A   1      33.473  26.099  22.485  1.00  0.00    -0.248 NA
ATOM     15  C   UNL A   1      33.552  27.246  23.186  1.00  0.00     0.038 A 
ATOM     16  C   UNL A   1      33.414  28.515  22.406  1.00  0.00     0.067 C 
BRANCH  12  17
ATOM     17  C   UNL A   1      33.472  23.675  22.266  1.00  0.00     0.320 C 
BRANCH  17  18
ATOM     18  N   UNL A   1      32.358  22.794  22.625  1.00  0.00    -0.352 N 
ATOM     19  H   UNL A   1      32.389  22.597  23.625  1.00  0.00     0.344 HD
ATOM     20  H   UNL A   1      32.433  21.920  22.103  1.00  0.00     0.344 HD
ATOM     21  H   UNL A   1      31.475  23.252  22.395  1.00  0.00     0.344 HD
ENDBRANCH  17  18
ENDBRANCH  12  17
ENDBRANCH   9  10
ENDBRANCH   6   9
ENDBRANCH   3   6
ENDBRANCH   1   2
BRANCH   1  22
ATOM     22  C   UNL A   1      37.645  19.368  25.068  1.00  0.00     0.042 C 
BRANCH  22  23
ATOM     23  C   UNL A   1      38.941  20.126  25.312  1.00  0.00     0.118 C 
BRANCH  23  24
ATOM     24  N   UNL A   1      40.000  19.287  25.860  1.00  0.00    -0.352 N 
ATOM     25  C   UNL A   1      41.192  19.635  26.448  1.00  0.00     0.251 C 
ATOM     26  H   UNL A   1      39.835  18.318  25.799  1.00  0.00     0.163 HD
ATOM     27  O   UNL A   1      42.020  18.761  26.696  1.00  0.00    -0.269 OA
BRANCH  25  28
ATOM     28  C   UNL A   1      41.492  21.051  26.757  1.00  0.00     0.039 A 
ATOM     29  C   UNL A   1      41.935  21.384  28.040  1.00  0.00     0.014 A 
ATOM     30  C   UNL A   1      41.336  22.049  25.793  1.00  0.00     0.014 A 
ATOM     31  C   UNL A   1      42.296  22.702  28.329  1.00  0.00     0.010 A 
ATOM     32  C   UNL A   1      41.786  23.340  26.052  1.00  0.00     0.010 A 
ATOM     33  C   UNL A   1      42.265  23.684  27.324  1.00  0.00    -0.014 A 
BRANCH  33  34
ATOM     34  C   UNL A   1      42.741  25.069  27.577  1.00  0.00     0.031 A 
ATOM     35  C   UNL A   1      41.824  26.083  28.208  1.00  0.00     0.074 A 
ATOM     36  C   UNL A   1      43.969  25.438  27.162  1.00  0.00     0.049 A 
ATOM     37  N   UNL A   1      42.037  27.352  28.444  1.00  0.00    -0.248 NA
ATOM     38  C   UNL A   1      40.482  25.621  28.599  1.00  0.00     0.031 C 
ATOM     39  C   UNL A   1      44.926  24.571  26.470  1.00  0.00     0.029 A 
ATOM     40  N   UNL A   1      44.614  26.647  27.236  1.00  0.00    -0.354 N 
ATOM     41  C   UNL A   1      40.853  27.844  28.978  1.00  0.00     0.074 A 
ATOM     42  C   UNL A   1      39.909  26.748  28.993  1.00  0.00     0.031 C 
ATOM     43  C   UNL A   1      46.038  25.270  26.196  1.00  0.00     0.029 A 
ATOM     44  C   UNL A   1      45.861  26.644  26.654  1.00  0.00     0.049 A 
ATOM     45  H   UNL A   1      44.223  27.441  27.666  1.00  0.00     0.167 HD
ATOM     46  C   UNL A   1      40.580  29.087  29.444  1.00  0.00     0.034 A 
ATOM     47  C   UNL A   1      46.757  27.638  26.494  1.00  0.00     0.034 A 
ATOM     48  C   UNL A   1      41.531  30.166  29.458  1.00  0.00     0.049 A 
ATOM     49  C   UNL A   1      46.438  29.005  27.036  1.00  0.00     0.074 A 
ATOM     50  C   UNL A   1      41.377  31.440  29.977  1.00  0.00     0.029 A 
ATOM     51  N   UNL A   1      42.808  30.105  28.923  1.00  0.00    -0.354 N 
ATOM     52  N   UNL A   1      45.364  29.413  27.668  1.00  0.00    -0.248 NA
ATOM     53  C   UNL A   1      47.469  30.041  26.875  1.00  0.00     0.031 C 
ATOM     54  C   UNL A   1      42.550  32.158  29.727  1.00  0.00     0.029 A 
ATOM     55  C   UNL A   1      43.450  31.320  29.089  1.00  0.00     0.049 A 
ATOM     56  H   UNL A   1      43.200  29.314  28.489  1.00  0.00     0.167 HD
ATOM     57  C   UNL A   1      45.604  30.737  28.012  1.00  0.00     0.074 A 
ATOM     58  C   UNL A   1      46.934  31.058  27.537  1.00  0.00     0.031 C 
ATOM     59  C   UNL A   1      44.792  31.613  28.656  1.00  0.00     0.034 A 
BRANCH  46  60
ATOM     60  C   UNL A   1      39.211  29.332  30.024  1.00  0.00     0.023 A 
ATOM     61  C   UNL A   1      38.915  28.877  31.327  1.00  0.00     0.012 A 
ATOM     62  C   UNL A   1      38.238  30.059  29.311  1.00  0.00     0.148 A 
ATOM     63  C   UNL A   1      37.663  29.106  31.894  1.00  0.00     0.002 A 
ATOM     64  C   UNL A   1      37.008  30.327  29.902  1.00  0.00     0.091 A 
ATOM     65  F   UNL A   1      38.530  30.469  28.068  1.00  0.00    -0.205 F 
ATOM     66  C   UNL A   1      36.714  29.839  31.187  1.00  0.00     0.022 A 
BRANCH  64  67
ATOM     67  S   UNL A   1      35.748  31.331  29.110  1.00  0.00     0.127 S 
ATOM     68  O   UNL A   1      36.557  32.357  28.455  1.00  0.00    -0.237 OA
ATOM     69  O   UNL A   1      35.122  30.374  28.198  1.00  0.00    -0.237 OA
ATOM     70  O   UNL A   1      34.882  31.808  30.180  1.00  0.00    -0.744 OA
ENDBRANCH  64  67
ENDBRANCH  46  60
BRANCH  47  71
ATOM     71  C   UNL A   1      48.069  27.362  25.844  1.00  0.00     0.023 A 
ATOM     72  C   UNL A   1      49.139  26.877  26.621  1.00  0.00     0.012 A 
ATOM     73  C   UNL A   1      48.255  27.552  24.461  1.00  0.00     0.148 A 
ATOM     74  C   UNL A   1      50.381  26.617  26.040  1.00  0.00     0.002 A 
ATOM     75  C   UNL A   1      49.477  27.236  23.878  1.00  0.00     0.091 A 
ATOM     76  F   UNL A   1      47.226  28.020  23.741  1.00  0.00    -0.205 F 
ATOM     77  C   UNL A   1      50.547  26.788  24.669  1.00  0.00     0.022 A 
BRANCH  75  78
ATOM     78  S   UNL A   1      49.745  27.297  22.104  1.00  0.00     0.127 S 
ATOM     79  O   UNL A   1      49.539  28.714  21.820  1.00  0.00    -0.237 OA
ATOM     80  O   UNL A   1      51.131  26.840  21.997  1.00  0.00    -0.237 OA
ATOM     81  O   UNL A   1      48.765  26.388  21.528  1.00  0.00    -0.744 OA
ENDBRANCH  75  78
ENDBRANCH  47  71
BRANCH  59  82
ATOM     82  C   UNL A   1      45.328  32.994  28.929  1.00  0.00     0.023 A 
ATOM     83  C   UNL A   1      46.080  33.242  30.095  1.00  0.00     0.012 A 
ATOM     84  C   UNL A   1      45.148  34.029  27.990  1.00  0.00     0.148 A 
ATOM     85  C   UNL A   1      46.615  34.507  30.337  1.00  0.00     0.002 A 
ATOM     86  C   UNL A   1      45.728  35.271  28.213  1.00  0.00     0.091 A 
ATOM     87  F   UNL A   1      44.415  33.778  26.896  1.00  0.00    -0.205 F 
ATOM     88  C   UNL A   1      46.449  35.516  29.392  1.00  0.00     0.022 A 
BRANCH  86  89
ATOM     89  S   UNL A   1      45.653  36.601  27.007  1.00  0.00     0.127 S 
ATOM     90  O   UNL A   1      46.298  35.988  25.847  1.00  0.00    -0.237 OA
ATOM     91  O   UNL A   1      44.211  36.809  26.867  1.00  0.00    -0.237 OA
ATOM     92  O   UNL A   1      46.372  37.722  27.598  1.00  0.00    -0.744 OA
ENDBRANCH  86  89
ENDBRANCH  59  82
ENDBRANCH  33  34
ENDBRANCH  25  28
ENDBRANCH  23  24
ENDBRANCH  22  23
ENDBRANCH   1  22
TORSDOF 18
ENDMDL
MODEL 3
REMARK VINA RESULT:     -10.7      5.235     10.251
REMARK SMILES CC[C@H](Oc1ccc(C)nc1C[NH3+])C(=O)NCCCNC(=O)c1ccc(-c2c3nc(c(-c4cccc(S(=O)(=O)[O-])c4F)c4ccc([nH]4)c(-c4cccc(S(=O)(=O)[O-])c4F)c4nc(c(-c5cccc(S(=O)(=O)[O-])c5F)c5ccc2[nH]5)C=C4)C=C3)cc1
REMARK SMILES IDX 17 1 16 2 14 3 15 4 3 6 2 7 1 8 4 9 5 10 6 11 11 12 7 13
REMARK SMILES IDX 10 14 8 15 9 16 12 17 13 18 18 22 19 23 20 24 21 25 22 27
REMARK SMILES IDX 23 28 24 29 85 30 25 31 84 32 26 33 27 34 28 35 78 36 29 37
REMARK SMILES IDX 83 38 77 39 79 40 30 41 82 42 76 43 75 44 31 46 63 47 43 48
REMARK SMILES IDX 62 49 44 50 47 51 61 52 80 53 45 54 46 55 60 57 81 58 48 59
REMARK SMILES IDX 32 60 33 61 41 62 34 63 36 64 42 65 35 66 37 67 38 68 39 69
REMARK SMILES IDX 40 70 64 71 65 72 73 73 66 74 68 75 74 76 67 77 69 78 70 79
REMARK SMILES IDX 71 80 72 81 49 82 50 83 58 84 51 85 53 86 59 87 52 88 54 89
REMARK SMILES IDX 55 90 56 91 57 92
REMARK H PARENT 16 5 13 19 13 20 13 21 20 26 79 45 47 56
REMARK Flexibility Score: inf
ROOT
ATOM      1  C   UNL A   1      34.972  23.246  25.558  1.00  0.00     0.118 C 
ENDROOT
BRANCH   1   2
ATOM      2  N   UNL A   1      34.859  23.645  24.165  1.00  0.00    -0.353 N 
ATOM      3  C   UNL A   1      33.940  24.463  23.570  1.00  0.00     0.261 C 
ATOM      4  O   UNL A   1      34.064  24.693  22.363  1.00  0.00    -0.271 OA
ATOM      5  H   UNL A   1      35.543  23.272  23.564  1.00  0.00     0.163 HD
BRANCH   3   6
ATOM      6  C   UNL A   1      32.816  25.116  24.387  1.00  0.00     0.261 C 
BRANCH   6   7
ATOM      7  C   UNL A   1      31.565  24.214  24.405  1.00  0.00     0.052 C 
ATOM      8  C   UNL A   1      30.606  24.451  23.249  1.00  0.00     0.008 C 
ENDBRANCH   6   7
BRANCH   6   9
ATOM      9  O   UNL A   1      32.539  26.407  23.845  1.00  0.00    -0.478 OA
BRANCH   9  10
ATOM     10  C   UNL A   1      32.442  27.512  24.645  1.00  0.00     0.147 A 
ATOM     11  C   UNL A   1      33.055  27.681  25.887  1.00  0.00     0.050 A 
ATOM     12  C   UNL A   1      31.647  28.572  24.179  1.00  0.00     0.136 A 
ATOM     13  C   UNL A   1      32.855  28.852  26.622  1.00  0.00     0.027 A 
ATOM     14  N   UNL A   1      31.460  29.720  24.894  1.00  0.00    -0.248 NA
ATOM     15  C   UNL A   1      32.048  29.846  26.098  1.00  0.00     0.038 A 
ATOM     16  C   UNL A   1      31.780  31.117  26.841  1.00  0.00     0.067 C 
BRANCH  12  17
ATOM     17  C   UNL A   1      30.948  28.530  22.834  1.00  0.00     0.320 C 
BRANCH  17  18
ATOM     18  N   UNL A   1      31.226  29.702  22.001  1.00  0.00    -0.352 N 
ATOM     19  H   UNL A   1      31.705  30.409  22.558  1.00  0.00     0.344 HD
ATOM     20  H   UNL A   1      30.348  30.085  21.647  1.00  0.00     0.344 HD
ATOM     21  H   UNL A   1      31.818  29.428  21.216  1.00  0.00     0.344 HD
ENDBRANCH  17  18
ENDBRANCH  12  17
ENDBRANCH   9  10
ENDBRANCH   6   9
ENDBRANCH   3   6
ENDBRANCH   1   2
BRANCH   1  22
ATOM     22  C   UNL A   1      35.677  21.911  25.732  1.00  0.00     0.042 C 
BRANCH  22  23
ATOM     23  C   UNL A   1      36.925  21.746  24.879  1.00  0.00     0.118 C 
BRANCH  23  24
ATOM     24  N   UNL A   1      37.796  20.672  25.340  1.00  0.00    -0.352 N 
ATOM     25  C   UNL A   1      39.010  20.727  25.980  1.00  0.00     0.251 C 
ATOM     26  H   UNL A   1      37.460  19.762  25.164  1.00  0.00     0.163 HD
ATOM     27  O   UNL A   1      39.657  19.693  26.136  1.00  0.00    -0.269 OA
BRANCH  25  28
ATOM     28  C   UNL A   1      39.550  22.019  26.455  1.00  0.00     0.039 A 
ATOM     29  C   UNL A   1      40.516  22.019  27.465  1.00  0.00     0.014 A 
ATOM     30  C   UNL A   1      39.109  23.229  25.915  1.00  0.00     0.014 A 
ATOM     31  C   UNL A   1      41.093  23.224  27.874  1.00  0.00     0.010 A 
ATOM     32  C   UNL A   1      39.752  24.416  26.253  1.00  0.00     0.010 A 
ATOM     33  C   UNL A   1      40.746  24.429  27.240  1.00  0.00    -0.014 A 
BRANCH  33  34
ATOM     34  C   UNL A   1      41.420  25.708  27.585  1.00  0.00     0.031 A 
ATOM     35  C   UNL A   1      40.673  26.783  28.329  1.00  0.00     0.074 A 
ATOM     36  C   UNL A   1      42.676  25.938  27.153  1.00  0.00     0.049 A 
ATOM     37  N   UNL A   1      41.069  27.986  28.657  1.00  0.00    -0.248 NA
ATOM     38  C   UNL A   1      39.290  26.479  28.733  1.00  0.00     0.031 C 
ATOM     39  C   UNL A   1      43.482  25.008  26.358  1.00  0.00     0.029 A 
ATOM     40  N   UNL A   1      43.487  27.035  27.299  1.00  0.00    -0.354 N 
ATOM     41  C   UNL A   1      39.980  28.591  29.274  1.00  0.00     0.074 A 
ATOM     42  C   UNL A   1      38.892  27.638  29.237  1.00  0.00     0.031 C 
ATOM     43  C   UNL A   1      44.673  25.567  26.098  1.00  0.00     0.029 A 
ATOM     44  C   UNL A   1      44.705  26.909  26.670  1.00  0.00     0.049 A 
ATOM     45  H   UNL A   1      43.223  27.837  27.805  1.00  0.00     0.167 HD
ATOM     46  C   UNL A   1      39.899  29.815  29.847  1.00  0.00     0.034 A 
ATOM     47  C   UNL A   1      45.727  27.779  26.556  1.00  0.00     0.034 A 
ATOM     48  C   UNL A   1      40.992  30.747  29.911  1.00  0.00     0.049 A 
ATOM     49  C   UNL A   1      45.619  29.127  27.217  1.00  0.00     0.074 A 
ATOM     50  C   UNL A   1      41.033  31.982  30.535  1.00  0.00     0.029 A 
ATOM     51  N   UNL A   1      42.233  30.556  29.323  1.00  0.00    -0.354 N 
ATOM     52  N   UNL A   1      44.631  29.624  27.920  1.00  0.00    -0.248 NA
ATOM     53  C   UNL A   1      46.781  30.020  27.099  1.00  0.00     0.031 C 
ATOM     54  C   UNL A   1      42.289  32.549  30.298  1.00  0.00     0.029 A 
ATOM     55  C   UNL A   1      43.044  31.651  29.561  1.00  0.00     0.049 A 
ATOM     56  H   UNL A   1      42.498  29.757  28.813  1.00  0.00     0.167 HD
ATOM     57  C   UNL A   1      45.064  30.869  28.360  1.00  0.00     0.074 A 
ATOM     58  C   UNL A   1      46.413  31.042  27.860  1.00  0.00     0.031 C 
ATOM     59  C   UNL A   1      44.402  31.791  29.102  1.00  0.00     0.034 A 
BRANCH  46  60
ATOM     60  C   UNL A   1      38.594  30.198  30.498  1.00  0.00     0.023 A 
ATOM     61  C   UNL A   1      38.336  29.801  31.827  1.00  0.00     0.012 A 
ATOM     62  C   UNL A   1      37.650  30.996  29.821  1.00  0.00     0.148 A 
ATOM     63  C   UNL A   1      37.145  30.156  32.458  1.00  0.00     0.002 A 
ATOM     64  C   UNL A   1      36.487  31.387  30.474  1.00  0.00     0.091 A 
ATOM     65  F   UNL A   1      37.904  31.349  28.553  1.00  0.00    -0.205 F 
ATOM     66  C   UNL A   1      36.226  30.957  31.786  1.00  0.00     0.022 A 
BRANCH  64  67
ATOM     67  S   UNL A   1      35.277  32.486  29.728  1.00  0.00     0.127 S 
ATOM     68  O   UNL A   1      34.739  31.647  28.658  1.00  0.00    -0.237 OA
ATOM     69  O   UNL A   1      34.355  32.725  30.838  1.00  0.00    -0.237 OA
ATOM     70  O   UNL A   1      36.017  33.660  29.288  1.00  0.00    -0.744 OA
ENDBRANCH  64  67
ENDBRANCH  46  60
BRANCH  47  71
ATOM     71  C   UNL A   1      46.970  27.379  25.836  1.00  0.00     0.023 A 
ATOM     72  C   UNL A   1      47.110  27.694  24.471  1.00  0.00     0.012 A 
ATOM     73  C   UNL A   1      48.018  26.713  26.499  1.00  0.00     0.148 A 
ATOM     74  C   UNL A   1      48.258  27.325  23.769  1.00  0.00     0.002 A 
ATOM     75  C   UNL A   1      49.183  26.400  25.809  1.00  0.00     0.091 A 
ATOM     76  F   UNL A   1      47.861  26.418  27.797  1.00  0.00    -0.205 F 
ATOM     77  C   UNL A   1      49.297  26.686  24.439  1.00  0.00     0.022 A 
BRANCH  75  78
ATOM     78  S   UNL A   1      50.625  25.698  26.617  1.00  0.00     0.127 S 
ATOM     79  O   UNL A   1      51.540  25.521  25.493  1.00  0.00    -0.237 OA
ATOM     80  O   UNL A   1      50.991  26.764  27.550  1.00  0.00    -0.237 OA
ATOM     81  O   UNL A   1      50.161  24.473  27.253  1.00  0.00    -0.744 OA
ENDBRANCH  75  78
ENDBRANCH  47  71
BRANCH  59  82
ATOM     82  C   UNL A   1      45.135  33.057  29.463  1.00  0.00     0.023 A 
ATOM     83  C   UNL A   1      45.935  33.103  30.622  1.00  0.00     0.012 A 
ATOM     84  C   UNL A   1      45.087  34.178  28.611  1.00  0.00     0.148 A 
ATOM     85  C   UNL A   1      46.650  34.256  30.943  1.00  0.00     0.002 A 
ATOM     86  C   UNL A   1      45.843  35.305  28.910  1.00  0.00     0.091 A 
ATOM     87  F   UNL A   1      44.306  34.121  27.523  1.00  0.00    -0.205 F 
ATOM     88  C   UNL A   1      46.613  35.351  30.083  1.00  0.00     0.022 A 
BRANCH  86  89
ATOM     89  S   UNL A   1      45.936  36.723  27.812  1.00  0.00     0.127 S 
ATOM     90  O   UNL A   1      46.788  37.634  28.575  1.00  0.00    -0.237 OA
ATOM     91  O   UNL A   1      46.565  36.151  26.621  1.00  0.00    -0.237 OA
ATOM     92  O   UNL A   1      44.564  37.173  27.616  1.00  0.00    -0.744 OA
ENDBRANCH  86  89
ENDBRANCH  59  82
ENDBRANCH  33  34
ENDBRANCH  25  28
ENDBRANCH  23  24
ENDBRANCH  22  23
ENDBRANCH   1  22
TORSDOF 18
ENDMDL
