MODEL 1
REMARK VINA RESULT:     -10.5      0.000      0.000
REMARK SMILES CCCCCCNC(=O)Oc1cccc(-c2ccc([C@@H](C)C(=O)NCCCNC(=O)c3ccc(-c4c5nc(c(-c6cccc(S(=O)(=O)[O-])c6F)c6ccc([nH]6)c(-c6cccc(S(=O)(=O)[O-])c6F)c6nc(c(-c7cccc(S(=O)(=O)[O-])c7F)c7ccc4[nH]7)C=C6)C=C5)cc3)cc2F)c1
REMARK SMILES IDX 20 1 21 2 19 3 16 4 17 5 95 6 18 7 94 8 96 9 15 10 11 11
REMARK SMILES IDX 12 12 97 13 13 14 14 15 10 16 8 17 7 18 9 20 6 21 5 22 4 23
REMARK SMILES IDX 3 24 2 25 1 26 22 27 23 28 24 29 25 31 26 32 27 33 28 34
REMARK SMILES IDX 29 35 30 37 31 38 32 39 93 40 33 41 92 42 34 43 35 44 36 45
REMARK SMILES IDX 86 46 37 47 91 48 85 49 87 50 38 51 90 52 84 53 83 54 39 56
REMARK SMILES IDX 71 57 51 58 70 59 52 60 55 61 69 62 88 63 53 64 54 65 68 67
REMARK SMILES IDX 89 68 56 69 40 70 41 71 49 72 42 73 44 74 50 75 43 76 45 77
REMARK SMILES IDX 46 78 47 79 48 80 72 81 73 82 81 83 74 84 76 85 82 86 75 87
REMARK SMILES IDX 77 88 78 89 79 90 80 91 57 92 58 93 66 94 59 95 61 96 67 97
REMARK SMILES IDX 60 98 62 99 63 100 64 101 65 102
REMARK H PARENT 7 19 24 30 28 36 87 55 55 66
REMARK Flexibility Score: inf
ROOT
ATOM      1  C   UNL A   1      35.799  32.597  29.200  1.00  0.00     0.105 C 
ATOM      2  C   UNL A   1      37.056  33.138  28.521  1.00  0.00     0.023 C 
ENDROOT
BRANCH   1   3
ATOM      3  C   UNL A   1      35.016  31.565  28.406  1.00  0.00    -0.033 A 
ATOM      4  C   UNL A   1      33.578  29.779  26.693  1.00  0.00     0.018 A 
ATOM      5  C   UNL A   1      34.860  29.471  27.176  1.00  0.00     0.012 A 
ATOM      6  C   UNL A   1      33.013  30.980  27.144  1.00  0.00     0.131 A 
ATOM      7  C   UNL A   1      35.545  30.325  28.048  1.00  0.00     0.005 A 
ATOM      8  C   UNL A   1      33.719  31.867  27.963  1.00  0.00     0.044 A 
ATOM      9  F   UNL A   1      31.763  31.324  26.793  1.00  0.00    -0.206 F 
BRANCH   4  10
ATOM     10  C   UNL A   1      32.916  28.888  25.715  1.00  0.00    -0.012 A 
ATOM     11  C   UNL A   1      32.875  26.843  24.398  1.00  0.00     0.133 A 
ATOM     12  C   UNL A   1      31.566  27.083  23.996  1.00  0.00     0.047 A 
ATOM     13  C   UNL A   1      33.552  27.731  25.236  1.00  0.00     0.056 A 
ATOM     14  C   UNL A   1      30.923  28.232  24.441  1.00  0.00     0.004 A 
ATOM     15  C   UNL A   1      31.594  29.126  25.282  1.00  0.00     0.009 A 
BRANCH  11  16
ATOM     16  O   UNL A   1      33.517  25.729  23.842  1.00  0.00    -0.410 OA
BRANCH  16  17
ATOM     17  C   UNL A   1      33.378  25.504  22.481  1.00  0.00     0.412 C 
ATOM     18  N   UNL A   1      32.692  24.353  22.205  1.00  0.00    -0.321 N 
ATOM     19  H   UNL A   1      32.597  24.110  21.257  1.00  0.00     0.167 HD
ATOM     20  O   UNL A   1      33.780  26.228  21.578  1.00  0.00    -0.224 OA
BRANCH  18  21
ATOM     21  C   UNL A   1      32.093  23.455  23.171  1.00  0.00     0.119 C 
BRANCH  21  22
ATOM     22  C   UNL A   1      32.872  22.143  23.270  1.00  0.00     0.021 C 
BRANCH  22  23
ATOM     23  C   UNL A   1      34.185  22.241  24.056  1.00  0.00     0.002 C 
BRANCH  23  24
ATOM     24  C   UNL A   1      34.691  20.922  24.652  1.00  0.00    -0.000 C 
BRANCH  24  25
ATOM     25  C   UNL A   1      36.036  21.005  25.376  1.00  0.00    -0.003 C 
ATOM     26  C   UNL A   1      37.172  21.472  24.477  1.00  0.00     0.004 C 
ENDBRANCH  24  25
ENDBRANCH  23  24
ENDBRANCH  22  23
ENDBRANCH  21  22
ENDBRANCH  18  21
ENDBRANCH  16  17
ENDBRANCH  11  16
ENDBRANCH   4  10
ENDBRANCH   1   3
BRANCH   1  27
ATOM     27  C   UNL A   1      34.920  33.678  29.849  1.00  0.00     0.227 C 
ATOM     28  O   UNL A   1      34.663  34.717  29.226  1.00  0.00    -0.274 OA
ATOM     29  N   UNL A   1      34.363  33.568  31.086  1.00  0.00    -0.356 N 
ATOM     30  H   UNL A   1      33.791  34.330  31.337  1.00  0.00     0.163 HD
BRANCH  29  31
ATOM     31  C   UNL A   1      34.455  32.540  32.103  1.00  0.00     0.117 C 
BRANCH  31  32
ATOM     32  C   UNL A   1      35.241  32.999  33.327  1.00  0.00     0.042 C 
BRANCH  32  33
ATOM     33  C   UNL A   1      36.611  32.352  33.458  1.00  0.00     0.118 C 
BRANCH  33  34
ATOM     34  N   UNL A   1      36.560  30.915  33.227  1.00  0.00    -0.352 N 
ATOM     35  C   UNL A   1      37.325  30.115  32.415  1.00  0.00     0.251 C 
ATOM     36  H   UNL A   1      35.864  30.440  33.736  1.00  0.00     0.163 HD
ATOM     37  O   UNL A   1      36.955  28.962  32.204  1.00  0.00    -0.269 OA
BRANCH  35  38
ATOM     38  C   UNL A   1      38.577  30.614  31.799  1.00  0.00     0.039 A 
ATOM     39  C   UNL A   1      38.695  30.596  30.406  1.00  0.00     0.014 A 
ATOM     40  C   UNL A   1      39.659  31.031  32.578  1.00  0.00     0.014 A 
ATOM     41  C   UNL A   1      39.883  31.014  29.799  1.00  0.00     0.010 A 
ATOM     42  C   UNL A   1      40.802  31.542  31.970  1.00  0.00     0.010 A 
ATOM     43  C   UNL A   1      40.943  31.502  30.577  1.00  0.00    -0.014 A 
BRANCH  43  44
ATOM     44  C   UNL A   1      42.230  31.916  29.961  1.00  0.00     0.031 A 
ATOM     45  C   UNL A   1      42.478  33.369  29.644  1.00  0.00     0.074 A 
ATOM     46  C   UNL A   1      43.146  30.984  29.629  1.00  0.00     0.049 A 
ATOM     47  N   UNL A   1      43.509  33.925  29.064  1.00  0.00    -0.248 NA
ATOM     48  C   UNL A   1      41.412  34.323  30.001  1.00  0.00     0.031 C 
ATOM     49  C   UNL A   1      42.991  29.540  29.816  1.00  0.00     0.029 A 
ATOM     50  N   UNL A   1      44.378  31.112  29.040  1.00  0.00    -0.354 N 
ATOM     51  C   UNL A   1      43.198  35.275  28.947  1.00  0.00     0.074 A 
ATOM     52  C   UNL A   1      41.867  35.451  29.478  1.00  0.00     0.031 C 
ATOM     53  C   UNL A   1      44.089  28.917  29.359  1.00  0.00     0.029 A 
ATOM     54  C   UNL A   1      45.010  29.911  28.817  1.00  0.00     0.049 A 
ATOM     55  H   UNL A   1      44.773  31.981  28.798  1.00  0.00     0.167 HD
ATOM     56  C   UNL A   1      43.964  36.286  28.471  1.00  0.00     0.034 A 
ATOM     57  C   UNL A   1      46.197  29.641  28.238  1.00  0.00     0.034 A 
ATOM     58  C   UNL A   1      45.308  36.111  27.989  1.00  0.00     0.049 A 
ATOM     59  C   UNL A   1      47.049  30.788  27.761  1.00  0.00     0.074 A 
ATOM     60  C   UNL A   1      46.201  37.078  27.563  1.00  0.00     0.029 A 
ATOM     61  N   UNL A   1      45.949  34.890  27.866  1.00  0.00    -0.354 N 
ATOM     62  N   UNL A   1      46.799  32.075  27.797  1.00  0.00    -0.248 NA
ATOM     63  C   UNL A   1      48.366  30.449  27.203  1.00  0.00     0.031 C 
ATOM     64  C   UNL A   1      47.375  36.436  27.156  1.00  0.00     0.029 A 
ATOM     65  C   UNL A   1      47.226  35.074  27.365  1.00  0.00     0.049 A 
ATOM     66  H   UNL A   1      45.554  34.018  28.099  1.00  0.00     0.167 HD
ATOM     67  C   UNL A   1      47.940  32.700  27.308  1.00  0.00     0.074 A 
ATOM     68  C   UNL A   1      48.890  31.651  27.000  1.00  0.00     0.031 C 
ATOM     69  C   UNL A   1      48.178  34.022  27.121  1.00  0.00     0.034 A 
BRANCH  56  70
ATOM     70  C   UNL A   1      43.386  37.678  28.496  1.00  0.00     0.023 A 
ATOM     71  C   UNL A   1      42.537  38.101  27.452  1.00  0.00     0.012 A 
ATOM     72  C   UNL A   1      43.636  38.548  29.575  1.00  0.00     0.148 A 
ATOM     73  C   UNL A   1      41.980  39.379  27.460  1.00  0.00     0.002 A 
ATOM     74  C   UNL A   1      43.037  39.803  29.601  1.00  0.00     0.091 A 
ATOM     75  F   UNL A   1      44.459  38.138  30.551  1.00  0.00    -0.205 F 
ATOM     76  C   UNL A   1      42.222  40.225  28.538  1.00  0.00     0.022 A 
BRANCH  74  77
ATOM     77  S   UNL A   1      43.215  40.936  30.984  1.00  0.00     0.127 S 
ATOM     78  O   UNL A   1      42.301  42.013  30.603  1.00  0.00    -0.237 OA
ATOM     79  O   UNL A   1      42.758  40.119  32.109  1.00  0.00    -0.237 OA
ATOM     80  O   UNL A   1      44.624  41.299  31.030  1.00  0.00    -0.744 OA
ENDBRANCH  74  77
ENDBRANCH  56  70
BRANCH  57  81
ATOM     81  C   UNL A   1      46.682  28.235  28.145  1.00  0.00     0.023 A 
ATOM     82  C   UNL A   1      47.449  27.697  29.197  1.00  0.00     0.012 A 
ATOM     83  C   UNL A   1      46.375  27.423  27.035  1.00  0.00     0.148 A 
ATOM     84  C   UNL A   1      47.936  26.391  29.129  1.00  0.00     0.002 A 
ATOM     85  C   UNL A   1      46.817  26.105  26.998  1.00  0.00     0.091 A 
ATOM     86  F   UNL A   1      45.650  27.954  26.040  1.00  0.00    -0.205 F 
ATOM     87  C   UNL A   1      47.613  25.593  28.035  1.00  0.00     0.022 A 
BRANCH  85  88
ATOM     88  S   UNL A   1      46.349  24.964  25.692  1.00  0.00     0.127 S 
ATOM     89  O   UNL A   1      44.891  25.048  25.727  1.00  0.00    -0.237 OA
ATOM     90  O   UNL A   1      46.972  25.576  24.518  1.00  0.00    -0.237 OA
ATOM     91  O   UNL A   1      46.915  23.675  26.067  1.00  0.00    -0.744 OA
ENDBRANCH  85  88
ENDBRANCH  57  81
BRANCH  69  92
ATOM     92  C   UNL A   1      49.538  34.423  26.610  1.00  0.00     0.023 A 
ATOM     93  C   UNL A   1      49.751  34.595  25.228  1.00  0.00     0.012 A 
ATOM     94  C   UNL A   1      50.582  34.704  27.513  1.00  0.00     0.148 A 
ATOM     95  C   UNL A   1      50.996  35.005  24.752  1.00  0.00     0.002 A 
ATOM     96  C   UNL A   1      51.802  35.165  27.034  1.00  0.00     0.091 A 
ATOM     97  F   UNL A   1      50.363  34.517  28.823  1.00  0.00    -0.205 F 
ATOM     98  C   UNL A   1      52.016  35.301  25.653  1.00  0.00     0.022 A 
BRANCH  96  99
ATOM     99  S   UNL A   1      53.136  35.668  28.126  1.00  0.00     0.127 S 
ATOM    100  O   UNL A   1      53.948  36.501  27.240  1.00  0.00    -0.237 OA
ATOM    101  O   UNL A   1      52.421  36.404  29.170  1.00  0.00    -0.237 OA
ATOM    102  O   UNL A   1      53.769  34.438  28.581  1.00  0.00    -0.744 OA
ENDBRANCH  96  99
ENDBRANCH  69  92
ENDBRANCH  43  44
ENDBRANCH  35  38
ENDBRANCH  33  34
ENDBRANCH  32  33
ENDBRANCH  31  32
ENDBRANCH  29  31
ENDBRANCH   1  27
TORSDOF 22
ENDMDL
MODEL 2
REMARK VINA RESULT:     -10.3      1.702      7.916
REMARK SMILES CCCCCCNC(=O)Oc1cccc(-c2ccc([C@@H](C)C(=O)NCCCNC(=O)c3ccc(-c4c5nc(c(-c6cccc(S(=O)(=O)[O-])c6F)c6ccc([nH]6)c(-c6cccc(S(=O)(=O)[O-])c6F)c6nc(c(-c7cccc(S(=O)(=O)[O-])c7F)c7ccc4[nH]7)C=C6)C=C5)cc3)cc2F)c1
REMARK SMILES IDX 20 1 21 2 19 3 16 4 17 5 95 6 18 7 94 8 96 9 15 10 11 11
REMARK SMILES IDX 12 12 97 13 13 14 14 15 10 16 8 17 7 18 9 20 6 21 5 22 4 23
REMARK SMILES IDX 3 24 2 25 1 26 22 27 23 28 24 29 25 31 26 32 27 33 28 34
REMARK SMILES IDX 29 35 30 37 31 38 32 39 93 40 33 41 92 42 34 43 35 44 36 45
REMARK SMILES IDX 86 46 37 47 91 48 85 49 87 50 38 51 90 52 84 53 83 54 39 56
REMARK SMILES IDX 71 57 51 58 70 59 52 60 55 61 69 62 88 63 53 64 54 65 68 67
REMARK SMILES IDX 89 68 56 69 40 70 41 71 49 72 42 73 44 74 50 75 43 76 45 77
REMARK SMILES IDX 46 78 47 79 48 80 72 81 73 82 81 83 74 84 76 85 82 86 75 87
REMARK SMILES IDX 77 88 78 89 79 90 80 91 57 92 58 93 66 94 59 95 61 96 67 97
REMARK SMILES IDX 60 98 62 99 63 100 64 101 65 102
REMARK H PARENT 7 19 24 30 28 36 87 55 55 66
REMARK Flexibility Score: inf
ROOT
ATOM      1  C   UNL A   1      35.390  32.396  28.982  1.00  0.00     0.105 C 
ATOM      2  C   UNL A   1      36.699  33.041  28.531  1.00  0.00     0.023 C 
ENDROOT
BRANCH   1   3
ATOM      3  C   UNL A   1      34.931  31.201  28.164  1.00  0.00    -0.033 A 
ATOM      4  C   UNL A   1      34.106  29.101  26.403  1.00  0.00     0.018 A 
ATOM      5  C   UNL A   1      35.339  29.064  27.071  1.00  0.00     0.012 A 
ATOM      6  C   UNL A   1      33.271  30.190  26.691  1.00  0.00     0.131 A 
ATOM      7  C   UNL A   1      35.724  30.070  27.965  1.00  0.00     0.005 A 
ATOM      8  C   UNL A   1      33.678  31.230  27.534  1.00  0.00     0.044 A 
ATOM      9  F   UNL A   1      32.043  30.273  26.155  1.00  0.00    -0.206 F 
BRANCH   4  10
ATOM     10  C   UNL A   1      33.765  28.059  25.410  1.00  0.00    -0.012 A 
ATOM     11  C   UNL A   1      32.690  25.955  24.827  1.00  0.00     0.133 A 
ATOM     12  C   UNL A   1      32.941  26.157  23.475  1.00  0.00     0.047 A 
ATOM     13  C   UNL A   1      33.102  26.880  25.789  1.00  0.00     0.056 A 
ATOM     14  C   UNL A   1      33.614  27.307  23.078  1.00  0.00     0.004 A 
ATOM     15  C   UNL A   1      34.028  28.239  24.036  1.00  0.00     0.009 A 
BRANCH  11  16
ATOM     16  O   UNL A   1      32.104  24.736  25.190  1.00  0.00    -0.410 OA
BRANCH  16  17
ATOM     17  C   UNL A   1      31.047  24.759  26.088  1.00  0.00     0.412 C 
ATOM     18  N   UNL A   1      29.897  25.252  25.535  1.00  0.00    -0.321 N 
ATOM     19  H   UNL A   1      29.120  25.338  26.132  1.00  0.00     0.167 HD
ATOM     20  O   UNL A   1      31.071  24.374  27.250  1.00  0.00    -0.224 OA
BRANCH  18  21
ATOM     21  C   UNL A   1      29.710  25.661  24.158  1.00  0.00     0.119 C 
BRANCH  21  22
ATOM     22  C   UNL A   1      29.425  27.160  24.057  1.00  0.00     0.021 C 
BRANCH  22  23
ATOM     23  C   UNL A   1      29.911  27.812  22.756  1.00  0.00     0.002 C 
BRANCH  23  24
ATOM     24  C   UNL A   1      29.814  29.342  22.716  1.00  0.00    -0.000 C 
BRANCH  24  25
ATOM     25  C   UNL A   1      28.510  29.899  22.138  1.00  0.00    -0.003 C 
ATOM     26  C   UNL A   1      27.654  30.615  23.173  1.00  0.00     0.004 C 
ENDBRANCH  24  25
ENDBRANCH  23  24
ENDBRANCH  22  23
ENDBRANCH  21  22
ENDBRANCH  18  21
ENDBRANCH  16  17
ENDBRANCH  11  16
ENDBRANCH   4  10
ENDBRANCH   1   3
BRANCH   1  27
ATOM     27  C   UNL A   1      34.268  33.399  29.295  1.00  0.00     0.227 C 
ATOM     28  O   UNL A   1      33.501  33.764  28.395  1.00  0.00    -0.274 OA
ATOM     29  N   UNL A   1      34.031  33.918  30.531  1.00  0.00    -0.356 N 
ATOM     30  H   UNL A   1      33.248  34.514  30.571  1.00  0.00     0.163 HD
BRANCH  29  31
ATOM     31  C   UNL A   1      34.715  33.757  31.798  1.00  0.00     0.117 C 
BRANCH  31  32
ATOM     32  C   UNL A   1      34.867  32.293  32.197  1.00  0.00     0.042 C 
BRANCH  32  33
ATOM     33  C   UNL A   1      36.194  31.971  32.867  1.00  0.00     0.118 C 
BRANCH  33  34
ATOM     34  N   UNL A   1      36.468  30.540  32.876  1.00  0.00    -0.352 N 
ATOM     35  C   UNL A   1      37.465  29.819  32.266  1.00  0.00     0.251 C 
ATOM     36  H   UNL A   1      35.836  30.003  33.405  1.00  0.00     0.163 HD
ATOM     37  O   UNL A   1      37.367  28.595  32.225  1.00  0.00    -0.269 OA
BRANCH  35  38
ATOM     38  C   UNL A   1      38.644  30.488  31.668  1.00  0.00     0.039 A 
ATOM     39  C   UNL A   1      38.764  30.521  30.275  1.00  0.00     0.014 A 
ATOM     40  C   UNL A   1      39.665  31.018  32.460  1.00  0.00     0.014 A 
ATOM     41  C   UNL A   1      39.889  31.101  29.683  1.00  0.00     0.010 A 
ATOM     42  C   UNL A   1      40.735  31.684  31.870  1.00  0.00     0.010 A 
ATOM     43  C   UNL A   1      40.880  31.698  30.476  1.00  0.00    -0.014 A 
BRANCH  43  44
ATOM     44  C   UNL A   1      42.105  32.286  29.876  1.00  0.00     0.031 A 
ATOM     45  C   UNL A   1      43.294  31.406  29.583  1.00  0.00     0.074 A 
ATOM     46  C   UNL A   1      42.174  33.614  29.655  1.00  0.00     0.049 A 
ATOM     47  N   UNL A   1      44.468  31.733  29.110  1.00  0.00    -0.248 NA
ATOM     48  C   UNL A   1      43.156  29.971  29.891  1.00  0.00     0.031 C 
ATOM     49  C   UNL A   1      41.118  34.580  29.966  1.00  0.00     0.029 A 
ATOM     50  N   UNL A   1      43.186  34.384  29.140  1.00  0.00    -0.354 N 
ATOM     51  C   UNL A   1      45.216  30.561  29.105  1.00  0.00     0.074 A 
ATOM     52  C   UNL A   1      44.380  29.522  29.660  1.00  0.00     0.031 C 
ATOM     53  C   UNL A   1      41.535  35.811  29.628  1.00  0.00     0.029 A 
ATOM     54  C   UNL A   1      42.896  35.727  29.108  1.00  0.00     0.049 A 
ATOM     55  H   UNL A   1      44.040  34.009  28.824  1.00  0.00     0.167 HD
ATOM     56  C   UNL A   1      46.475  30.358  28.648  1.00  0.00     0.034 A 
ATOM     57  C   UNL A   1      43.644  36.774  28.709  1.00  0.00     0.034 A 
ATOM     58  C   UNL A   1      47.284  31.386  28.052  1.00  0.00     0.049 A 
ATOM     59  C   UNL A   1      45.023  36.514  28.161  1.00  0.00     0.074 A 
ATOM     60  C   UNL A   1      48.538  31.269  27.481  1.00  0.00     0.029 A 
ATOM     61  N   UNL A   1      46.919  32.718  27.951  1.00  0.00    -0.354 N 
ATOM     62  N   UNL A   1      45.658  35.374  28.025  1.00  0.00    -0.248 NA
ATOM     63  C   UNL A   1      45.774  37.679  27.671  1.00  0.00     0.031 C 
ATOM     64  C   UNL A   1      48.944  32.541  27.060  1.00  0.00     0.029 A 
ATOM     65  C   UNL A   1      47.925  33.439  27.333  1.00  0.00     0.049 A 
ATOM     66  H   UNL A   1      46.068  33.097  28.274  1.00  0.00     0.167 HD
ATOM     67  C   UNL A   1      46.859  35.678  27.398  1.00  0.00     0.074 A 
ATOM     68  C   UNL A   1      46.857  37.107  27.162  1.00  0.00     0.031 C 
ATOM     69  C   UNL A   1      47.879  34.851  27.055  1.00  0.00     0.034 A 
BRANCH  56  70
ATOM     70  C   UNL A   1      47.035  28.960  28.731  1.00  0.00     0.023 A 
ATOM     71  C   UNL A   1      47.759  28.564  29.874  1.00  0.00     0.012 A 
ATOM     72  C   UNL A   1      46.801  28.024  27.704  1.00  0.00     0.148 A 
ATOM     73  C   UNL A   1      48.276  27.273  29.977  1.00  0.00     0.002 A 
ATOM     74  C   UNL A   1      47.276  26.724  27.837  1.00  0.00     0.091 A 
ATOM     75  F   UNL A   1      46.127  28.421  26.616  1.00  0.00    -0.205 F 
ATOM     76  C   UNL A   1      48.026  26.351  28.965  1.00  0.00     0.022 A 
BRANCH  74  77
ATOM     77  S   UNL A   1      46.937  25.437  26.630  1.00  0.00     0.127 S 
ATOM     78  O   UNL A   1      47.628  25.951  25.448  1.00  0.00    -0.237 OA
ATOM     79  O   UNL A   1      47.566  24.268  27.245  1.00  0.00    -0.237 OA
ATOM     80  O   UNL A   1      45.487  25.359  26.521  1.00  0.00    -0.744 OA
ENDBRANCH  74  77
ENDBRANCH  56  70
BRANCH  57  81
ATOM     81  C   UNL A   1      43.081  38.154  28.742  1.00  0.00     0.023 A 
ATOM     82  C   UNL A   1      42.269  38.595  27.678  1.00  0.00     0.012 A 
ATOM     83  C   UNL A   1      43.325  39.023  29.823  1.00  0.00     0.148 A 
ATOM     84  C   UNL A   1      41.745  39.888  27.670  1.00  0.00     0.002 A 
ATOM     85  C   UNL A   1      42.755  40.291  29.836  1.00  0.00     0.091 A 
ATOM     86  F   UNL A   1      44.105  38.589  30.823  1.00  0.00    -0.205 F 
ATOM     87  C   UNL A   1      41.980  40.732  28.751  1.00  0.00     0.022 A 
BRANCH  85  88
ATOM     88  S   UNL A   1      42.898  41.403  31.239  1.00  0.00     0.127 S 
ATOM     89  O   UNL A   1      44.294  41.217  31.629  1.00  0.00    -0.237 OA
ATOM     90  O   UNL A   1      42.598  42.700  30.630  1.00  0.00    -0.237 OA
ATOM     91  O   UNL A   1      41.907  40.953  32.207  1.00  0.00    -0.744 OA
ENDBRANCH  85  88
ENDBRANCH  57  81
BRANCH  69  92
ATOM     92  C   UNL A   1      49.058  35.454  26.335  1.00  0.00     0.023 A 
ATOM     93  C   UNL A   1      49.131  35.400  24.930  1.00  0.00     0.012 A 
ATOM     94  C   UNL A   1      50.054  36.142  27.055  1.00  0.00     0.148 A 
ATOM     95  C   UNL A   1      50.200  35.991  24.255  1.00  0.00     0.002 A 
ATOM     96  C   UNL A   1      51.086  36.775  26.373  1.00  0.00     0.091 A 
ATOM     97  F   UNL A   1      49.975  36.167  28.394  1.00  0.00    -0.205 F 
ATOM     98  C   UNL A   1      51.168  36.687  24.973  1.00  0.00     0.022 A 
BRANCH  96  99
ATOM     99  S   UNL A   1      52.318  37.780  27.207  1.00  0.00     0.127 S 
ATOM    100  O   UNL A   1      53.430  37.737  26.259  1.00  0.00    -0.237 OA
ATOM    101  O   UNL A   1      51.647  39.076  27.303  1.00  0.00    -0.237 OA
ATOM    102  O   UNL A   1      52.564  37.132  28.488  1.00  0.00    -0.744 OA
ENDBRANCH  96  99
ENDBRANCH  69  92
ENDBRANCH  43  44
ENDBRANCH  35  38
ENDBRANCH  33  34
ENDBRANCH  32  33
ENDBRANCH  31  32
ENDBRANCH  29  31
ENDBRANCH   1  27
TORSDOF 22
ENDMDL
MODEL 3
REMARK VINA RESULT:     -10.3      4.954     10.490
REMARK SMILES CCCCCCNC(=O)Oc1cccc(-c2ccc([C@@H](C)C(=O)NCCCNC(=O)c3ccc(-c4c5nc(c(-c6cccc(S(=O)(=O)[O-])c6F)c6ccc([nH]6)c(-c6cccc(S(=O)(=O)[O-])c6F)c6nc(c(-c7cccc(S(=O)(=O)[O-])c7F)c7ccc4[nH]7)C=C6)C=C5)cc3)cc2F)c1
REMARK SMILES IDX 20 1 21 2 19 3 16 4 17 5 95 6 18 7 94 8 96 9 15 10 11 11
REMARK SMILES IDX 12 12 97 13 13 14 14 15 10 16 8 17 7 18 9 20 6 21 5 22 4 23
REMARK SMILES IDX 3 24 2 25 1 26 22 27 23 28 24 29 25 31 26 32 27 33 28 34
REMARK SMILES IDX 29 35 30 37 31 38 32 39 93 40 33 41 92 42 34 43 35 44 36 45
REMARK SMILES IDX 86 46 37 47 91 48 85 49 87 50 38 51 90 52 84 53 83 54 39 56
REMARK SMILES IDX 71 57 51 58 70 59 52 60 55 61 69 62 88 63 53 64 54 65 68 67
REMARK SMILES IDX 89 68 56 69 40 70 41 71 49 72 42 73 44 74 50 75 43 76 45 77
REMARK SMILES IDX 46 78 47 79 48 80 72 81 73 82 81 83 74 84 76 85 82 86 75 87
REMARK SMILES IDX 77 88 78 89 79 90 80 91 57 92 58 93 66 94 59 95 61 96 67 97
REMARK SMILES IDX 60 98 62 99 63 100 64 101 65 102
REMARK H PARENT 7 19 24 30 28 36 87 55 55 66
REMARK Flexibility Score: inf
ROOT
ATOM      1  C   UNL A   1      42.217  22.277  27.676  1.00  0.00     0.105 C 
ATOM      2  C   UNL A   1      41.120  21.283  28.054  1.00  0.00     0.023 C 
ENDROOT
BRANCH   1   3
ATOM      3  C   UNL A   1      41.888  23.741  27.918  1.00  0.00    -0.033 A 
ATOM      4  C   UNL A   1      41.162  26.421  28.611  1.00  0.00     0.018 A 
ATOM      5  C   UNL A   1      42.496  25.985  28.639  1.00  0.00     0.012 A 
ATOM      6  C   UNL A   1      40.210  25.492  28.166  1.00  0.00     0.131 A 
ATOM      7  C   UNL A   1      42.856  24.687  28.259  1.00  0.00     0.005 A 
ATOM      8  C   UNL A   1      40.556  24.175  27.847  1.00  0.00     0.044 A 
ATOM      9  F   UNL A   1      38.920  25.841  28.037  1.00  0.00    -0.206 F 
BRANCH   4  10
ATOM     10  C   UNL A   1      40.810  27.776  29.090  1.00  0.00    -0.012 A 
ATOM     11  C   UNL A   1      40.467  29.362  30.902  1.00  0.00     0.133 A 
ATOM     12  C   UNL A   1      40.331  30.416  30.005  1.00  0.00     0.047 A 
ATOM     13  C   UNL A   1      40.692  28.056  30.461  1.00  0.00     0.056 A 
ATOM     14  C   UNL A   1      40.424  30.158  28.643  1.00  0.00     0.004 A 
ATOM     15  C   UNL A   1      40.651  28.853  28.193  1.00  0.00     0.009 A 
BRANCH  11  16
ATOM     16  O   UNL A   1      40.262  29.650  32.258  1.00  0.00    -0.410 OA
BRANCH  16  17
ATOM     17  C   UNL A   1      39.578  28.722  33.028  1.00  0.00     0.412 C 
ATOM     18  N   UNL A   1      38.227  28.940  33.039  1.00  0.00    -0.321 N 
ATOM     19  H   UNL A   1      37.687  28.343  33.604  1.00  0.00     0.167 HD
ATOM     20  O   UNL A   1      40.067  27.779  33.637  1.00  0.00    -0.224 OA
BRANCH  18  21
ATOM     21  C   UNL A   1      37.514  29.962  32.301  1.00  0.00     0.119 C 
BRANCH  21  22
ATOM     22  C   UNL A   1      36.649  29.351  31.198  1.00  0.00     0.021 C 
BRANCH  22  23
ATOM     23  C   UNL A   1      36.952  29.876  29.789  1.00  0.00     0.002 C 
BRANCH  23  24
ATOM     24  C   UNL A   1      36.009  30.975  29.284  1.00  0.00    -0.000 C 
BRANCH  24  25
ATOM     25  C   UNL A   1      35.354  30.701  27.928  1.00  0.00    -0.003 C 
ATOM     26  C   UNL A   1      34.063  31.480  27.719  1.00  0.00     0.004 C 
ENDBRANCH  24  25
ENDBRANCH  23  24
ENDBRANCH  22  23
ENDBRANCH  21  22
ENDBRANCH  18  21
ENDBRANCH  16  17
ENDBRANCH  11  16
ENDBRANCH   4  10
ENDBRANCH   1   3
BRANCH   1  27
ATOM     27  C   UNL A   1      42.868  22.006  26.310  1.00  0.00     0.227 C 
ATOM     28  O   UNL A   1      42.168  21.638  25.358  1.00  0.00    -0.274 OA
ATOM     29  N   UNL A   1      44.194  22.167  26.052  1.00  0.00    -0.356 N 
ATOM     30  H   UNL A   1      44.444  21.993  25.115  1.00  0.00     0.163 HD
BRANCH  29  31
ATOM     31  C   UNL A   1      45.308  22.547  26.897  1.00  0.00     0.117 C 
BRANCH  31  32
ATOM     32  C   UNL A   1      46.023  23.796  26.393  1.00  0.00     0.042 C 
BRANCH  32  33
ATOM     33  C   UNL A   1      45.490  24.320  25.069  1.00  0.00     0.118 C 
BRANCH  33  34
ATOM     34  N   UNL A   1      46.407  25.264  24.445  1.00  0.00    -0.352 N 
ATOM     35  C   UNL A   1      46.613  26.600  24.687  1.00  0.00     0.251 C 
ATOM     36  H   UNL A   1      46.971  24.882  23.735  1.00  0.00     0.163 HD
ATOM     37  O   UNL A   1      47.277  27.250  23.882  1.00  0.00    -0.269 OA
BRANCH  35  38
ATOM     38  C   UNL A   1      46.055  27.260  25.891  1.00  0.00     0.039 A 
ATOM     39  C   UNL A   1      46.916  27.563  26.950  1.00  0.00     0.014 A 
ATOM     40  C   UNL A   1      44.689  27.518  26.017  1.00  0.00     0.014 A 
ATOM     41  C   UNL A   1      46.411  28.140  28.119  1.00  0.00     0.010 A 
ATOM     42  C   UNL A   1      44.203  28.184  27.138  1.00  0.00     0.010 A 
ATOM     43  C   UNL A   1      45.051  28.467  28.218  1.00  0.00    -0.014 A 
BRANCH  43  44
ATOM     44  C   UNL A   1      44.480  29.044  29.462  1.00  0.00     0.031 A 
ATOM     45  C   UNL A   1      44.041  30.487  29.487  1.00  0.00     0.074 A 
ATOM     46  C   UNL A   1      44.416  28.297  30.582  1.00  0.00     0.049 A 
ATOM     47  N   UNL A   1      43.567  31.190  30.482  1.00  0.00    -0.248 NA
ATOM     48  C   UNL A   1      44.180  31.251  28.234  1.00  0.00     0.031 C 
ATOM     49  C   UNL A   1      44.879  26.913  30.703  1.00  0.00     0.029 A 
ATOM     50  N   UNL A   1      43.960  28.606  31.838  1.00  0.00    -0.354 N 
ATOM     51  C   UNL A   1      43.395  32.479  29.990  1.00  0.00     0.074 A 
ATOM     52  C   UNL A   1      43.853  32.474  28.620  1.00  0.00     0.031 C 
ATOM     53  C   UNL A   1      44.674  26.490  31.961  1.00  0.00     0.029 A 
ATOM     54  C   UNL A   1      44.099  27.580  32.743  1.00  0.00     0.049 A 
ATOM     55  H   UNL A   1      43.570  29.480  32.070  1.00  0.00     0.167 HD
ATOM     56  C   UNL A   1      42.871  33.563  30.610  1.00  0.00     0.034 A 
ATOM     57  C   UNL A   1      43.800  27.525  34.056  1.00  0.00     0.034 A 
ATOM     58  C   UNL A   1      42.372  33.548  31.959  1.00  0.00     0.049 A 
ATOM     59  C   UNL A   1      43.175  28.730  34.709  1.00  0.00     0.074 A 
ATOM     60  C   UNL A   1      41.746  34.567  32.655  1.00  0.00     0.029 A 
ATOM     61  N   UNL A   1      42.445  32.462  32.815  1.00  0.00    -0.354 N 
ATOM     62  N   UNL A   1      42.881  29.897  34.184  1.00  0.00    -0.248 NA
ATOM     63  C   UNL A   1      42.800  28.599  36.124  1.00  0.00     0.031 C 
ATOM     64  C   UNL A   1      41.465  34.102  33.944  1.00  0.00     0.029 A 
ATOM     65  C   UNL A   1      41.881  32.784  34.037  1.00  0.00     0.049 A 
ATOM     66  H   UNL A   1      42.841  31.589  32.588  1.00  0.00     0.167 HD
ATOM     67  C   UNL A   1      42.250  30.619  35.189  1.00  0.00     0.074 A 
ATOM     68  C   UNL A   1      42.187  29.754  36.349  1.00  0.00     0.031 C 
ATOM     69  C   UNL A   1      41.774  31.889  35.160  1.00  0.00     0.034 A 
BRANCH  56  70
ATOM     70  C   UNL A   1      42.766  34.843  29.820  1.00  0.00     0.023 A 
ATOM     71  C   UNL A   1      41.645  35.063  28.993  1.00  0.00     0.012 A 
ATOM     72  C   UNL A   1      43.746  35.849  29.934  1.00  0.00     0.148 A 
ATOM     73  C   UNL A   1      41.520  36.244  28.262  1.00  0.00     0.002 A 
ATOM     74  C   UNL A   1      43.589  37.044  29.241  1.00  0.00     0.091 A 
ATOM     75  F   UNL A   1      44.814  35.617  30.710  1.00  0.00    -0.205 F 
ATOM     76  C   UNL A   1      42.486  37.237  28.393  1.00  0.00     0.022 A 
BRANCH  74  77
ATOM     77  S   UNL A   1      44.731  38.421  29.408  1.00  0.00     0.127 S 
ATOM     78  O   UNL A   1      46.023  37.753  29.254  1.00  0.00    -0.237 OA
ATOM     79  O   UNL A   1      44.348  39.274  28.283  1.00  0.00    -0.237 OA
ATOM     80  O   UNL A   1      44.480  38.997  30.722  1.00  0.00    -0.744 OA
ENDBRANCH  74  77
ENDBRANCH  56  70
BRANCH  57  81
ATOM     81  C   UNL A   1      44.018  26.265  34.822  1.00  0.00     0.023 A 
ATOM     82  C   UNL A   1      42.990  25.304  34.878  1.00  0.00     0.012 A 
ATOM     83  C   UNL A   1      45.238  26.003  35.477  1.00  0.00     0.148 A 
ATOM     84  C   UNL A   1      43.156  24.125  35.605  1.00  0.00     0.002 A 
ATOM     85  C   UNL A   1      45.417  24.802  36.153  1.00  0.00     0.091 A 
ATOM     86  F   UNL A   1      46.202  26.933  35.418  1.00  0.00    -0.205 F 
ATOM     87  C   UNL A   1      44.370  23.870  36.235  1.00  0.00     0.022 A 
BRANCH  85  88
ATOM     88  S   UNL A   1      46.987  24.331  36.889  1.00  0.00     0.127 S 
ATOM     89  O   UNL A   1      47.145  25.341  37.932  1.00  0.00    -0.237 OA
ATOM     90  O   UNL A   1      46.698  22.982  37.378  1.00  0.00    -0.237 OA
ATOM     91  O   UNL A   1      47.964  24.379  35.810  1.00  0.00    -0.744 OA
ENDBRANCH  85  88
ENDBRANCH  57  81
BRANCH  69  92
ATOM     92  C   UNL A   1      41.089  32.409  36.397  1.00  0.00     0.023 A 
ATOM     93  C   UNL A   1      41.784  33.250  37.289  1.00  0.00     0.012 A 
ATOM     94  C   UNL A   1      39.730  32.123  36.632  1.00  0.00     0.148 A 
ATOM     95  C   UNL A   1      41.144  33.767  38.416  1.00  0.00     0.002 A 
ATOM     96  C   UNL A   1      39.085  32.686  37.725  1.00  0.00     0.091 A 
ATOM     97  F   UNL A   1      39.092  31.306  35.780  1.00  0.00    -0.205 F 
ATOM     98  C   UNL A   1      39.795  33.496  38.627  1.00  0.00     0.022 A 
BRANCH  96  99
ATOM     99  S   UNL A   1      37.326  32.476  38.018  1.00  0.00     0.127 S 
ATOM    100  O   UNL A   1      37.172  33.068  39.346  1.00  0.00    -0.237 OA
ATOM    101  O   UNL A   1      36.735  33.256  36.930  1.00  0.00    -0.237 OA
ATOM    102  O   UNL A   1      37.074  31.043  37.940  1.00  0.00    -0.744 OA
ENDBRANCH  96  99
ENDBRANCH  69  92
ENDBRANCH  43  44
ENDBRANCH  35  38
ENDBRANCH  33  34
ENDBRANCH  32  33
ENDBRANCH  31  32
ENDBRANCH  29  31
ENDBRANCH   1  27
TORSDOF 22
ENDMDL
