MODEL 1
REMARK VINA RESULT:     -12.3      0.000      0.000
REMARK SMILES NC(=O)C[C@H](C(=O)NCCCNC(=O)c1ccc(-c2c3nc(c(-c4cccc(S(=O)(=O)[O-])c4F)c4ccc([nH]4)c(-c4cccc(S(=O)(=O)[O-])c4F)c4nc(c(-c5cccc(S(=O)(=O)[O-])c5F)c5ccc2[nH]5)C=C4)C=C3)cc1)N1C(=O)/C(=C/c2ccccc2)SC1=S
REMARK SMILES IDX 10 1 9 2 8 3 6 4 7 5 5 7 4 8 2 9 1 10 3 13 78 14 79 15 90 16
REMARK SMILES IDX 80 17 81 18 89 19 91 20 82 21 83 22 84 23 88 24 85 25 87 26
REMARK SMILES IDX 86 27 11 28 12 29 13 30 14 32 15 33 16 34 77 35 17 36 76 37
REMARK SMILES IDX 18 38 19 39 20 40 70 41 21 42 75 43 69 44 71 45 22 46 74 47
REMARK SMILES IDX 68 48 67 49 23 51 55 52 35 53 54 54 36 55 39 56 53 57 72 58
REMARK SMILES IDX 37 59 38 60 52 62 73 63 40 64 24 65 25 66 33 67 26 68 28 69
REMARK SMILES IDX 34 70 27 71 29 72 30 73 31 74 32 75 56 76 57 77 65 78 58 79
REMARK SMILES IDX 60 80 66 81 59 82 61 83 62 84 63 85 64 86 41 87 42 88 50 89
REMARK SMILES IDX 43 90 45 91 51 92 44 93 46 94 47 95 48 96 49 97
REMARK H PARENT 8 6 1 11 1 12 12 31 71 50 39 61
REMARK Flexibility Score: inf
ROOT
ATOM      1  C   UNL A   1      32.160  28.110  26.453  1.00  0.00     0.042 C 
ENDROOT
BRANCH   1   2
ATOM      2  C   UNL A   1      32.688  26.683  26.513  1.00  0.00     0.117 C 
BRANCH   2   3
ATOM      3  N   UNL A   1      31.625  25.713  26.686  1.00  0.00    -0.354 N 
ATOM      4  C   UNL A   1      31.021  24.892  25.778  1.00  0.00     0.243 C 
ATOM      5  O   UNL A   1      30.277  24.020  26.229  1.00  0.00    -0.273 OA
ATOM      6  H   UNL A   1      31.285  25.633  27.607  1.00  0.00     0.163 HD
BRANCH   4   7
ATOM      7  C   UNL A   1      31.409  24.960  24.285  1.00  0.00     0.190 C 
BRANCH   7   8
ATOM      8  C   UNL A   1      30.779  23.828  23.467  1.00  0.00     0.135 C 
BRANCH   8   9
ATOM      9  C   UNL A   1      31.782  22.740  23.148  1.00  0.00     0.220 C 
ATOM     10  N   UNL A   1      32.483  22.884  21.988  1.00  0.00    -0.370 N 
ATOM     11  H   UNL A   1      33.149  22.208  21.728  1.00  0.00     0.159 HD
ATOM     12  H   UNL A   1      32.323  23.666  21.409  1.00  0.00     0.159 HD
ATOM     13  O   UNL A   1      31.932  21.733  23.830  1.00  0.00    -0.275 OA
ENDBRANCH   8   9
ENDBRANCH   7   8
BRANCH   7  14
ATOM     14  N   UNL A   1      31.129  26.288  23.691  1.00  0.00    -0.280 N 
ATOM     15  C   UNL A   1      29.846  26.812  23.781  1.00  0.00     0.266 C 
ATOM     16  C   UNL A   1      32.014  27.001  22.908  1.00  0.00     0.149 C 
ATOM     17  O   UNL A   1      28.890  26.262  24.298  1.00  0.00    -0.268 OA
ATOM     18  C   UNL A   1      29.782  28.150  23.129  1.00  0.00     0.081 C 
ATOM     19  S   UNL A   1      31.316  28.550  22.474  1.00  0.00    -0.054 SA
ATOM     20  S   UNL A   1      33.526  26.532  22.373  1.00  0.00    -0.052 S 
ATOM     21  C   UNL A   1      28.655  28.878  23.129  1.00  0.00     0.029 C 
BRANCH  21  22
ATOM     22  C   UNL A   1      28.457  30.228  22.575  1.00  0.00    -0.024 A 
ATOM     23  C   UNL A   1      28.136  30.355  21.217  1.00  0.00     0.008 A 
ATOM     24  C   UNL A   1      28.616  31.391  23.341  1.00  0.00     0.008 A 
ATOM     25  C   UNL A   1      27.925  31.615  20.650  1.00  0.00     0.001 A 
ATOM     26  C   UNL A   1      28.398  32.650  22.774  1.00  0.00     0.001 A 
ATOM     27  C   UNL A   1      28.045  32.761  21.433  1.00  0.00     0.000 A 
ENDBRANCH  21  22
ENDBRANCH   7  14
ENDBRANCH   4   7
ENDBRANCH   2   3
ENDBRANCH   1   2
BRANCH   1  28
ATOM     28  C   UNL A   1      33.110  29.085  25.766  1.00  0.00     0.118 C 
BRANCH  28  29
ATOM     29  N   UNL A   1      32.773  30.475  26.042  1.00  0.00    -0.352 N 
ATOM     30  C   UNL A   1      33.272  31.337  26.984  1.00  0.00     0.251 C 
ATOM     31  H   UNL A   1      32.076  30.856  25.460  1.00  0.00     0.163 HD
ATOM     32  O   UNL A   1      32.701  32.410  27.170  1.00  0.00    -0.269 OA
BRANCH  30  33
ATOM     33  C   UNL A   1      34.472  30.990  27.775  1.00  0.00     0.039 A 
ATOM     34  C   UNL A   1      34.545  29.721  28.357  1.00  0.00     0.014 A 
ATOM     35  C   UNL A   1      35.502  31.912  27.987  1.00  0.00     0.014 A 
ATOM     36  C   UNL A   1      35.665  29.366  29.111  1.00  0.00     0.010 A 
ATOM     37  C   UNL A   1      36.654  31.527  28.666  1.00  0.00     0.010 A 
ATOM     38  C   UNL A   1      36.743  30.257  29.251  1.00  0.00    -0.014 A 
BRANCH  38  39
ATOM     39  C   UNL A   1      37.963  29.861  30.000  1.00  0.00     0.031 A 
ATOM     40  C   UNL A   1      38.219  30.392  31.387  1.00  0.00     0.074 A 
ATOM     41  C   UNL A   1      38.874  29.064  29.406  1.00  0.00     0.049 A 
ATOM     42  N   UNL A   1      39.224  30.148  32.188  1.00  0.00    -0.248 NA
ATOM     43  C   UNL A   1      37.234  31.339  31.936  1.00  0.00     0.031 C 
ATOM     44  C   UNL A   1      38.786  28.559  28.034  1.00  0.00     0.029 A 
ATOM     45  N   UNL A   1      40.060  28.554  29.872  1.00  0.00    -0.354 N 
ATOM     46  C   UNL A   1      39.012  30.932  33.316  1.00  0.00     0.074 A 
ATOM     47  C   UNL A   1      37.802  31.688  33.082  1.00  0.00     0.031 C 
ATOM     48  C   UNL A   1      39.862  27.800  27.775  1.00  0.00     0.029 A 
ATOM     49  C   UNL A   1      40.729  27.788  28.948  1.00  0.00     0.049 A 
ATOM     50  H   UNL A   1      40.397  28.720  30.781  1.00  0.00     0.167 HD
ATOM     51  C   UNL A   1      39.741  30.995  34.456  1.00  0.00     0.034 A 
ATOM     52  C   UNL A   1      41.912  27.147  29.034  1.00  0.00     0.034 A 
ATOM     53  C   UNL A   1      40.923  30.213  34.701  1.00  0.00     0.049 A 
ATOM     54  C   UNL A   1      42.671  27.189  30.331  1.00  0.00     0.074 A 
ATOM     55  C   UNL A   1      41.681  30.137  35.856  1.00  0.00     0.029 A 
ATOM     56  N   UNL A   1      41.526  29.379  33.772  1.00  0.00    -0.354 N 
ATOM     57  N   UNL A   1      42.366  27.805  31.447  1.00  0.00    -0.248 NA
ATOM     58  C   UNL A   1      43.917  26.411  30.396  1.00  0.00     0.031 C 
ATOM     59  C   UNL A   1      42.761  29.281  35.615  1.00  0.00     0.029 A 
ATOM     60  C   UNL A   1      42.653  28.792  34.324  1.00  0.00     0.049 A 
ATOM     61  H   UNL A   1      41.202  29.225  32.856  1.00  0.00     0.167 HD
ATOM     62  C   UNL A   1      43.359  27.461  32.357  1.00  0.00     0.074 A 
ATOM     63  C   UNL A   1      44.261  26.562  31.667  1.00  0.00     0.031 C 
ATOM     64  C   UNL A   1      43.518  27.863  33.642  1.00  0.00     0.034 A 
BRANCH  51  65
ATOM     65  C   UNL A   1      39.255  31.910  35.553  1.00  0.00     0.023 A 
ATOM     66  C   UNL A   1      38.339  31.428  36.510  1.00  0.00     0.012 A 
ATOM     67  C   UNL A   1      39.753  33.223  35.674  1.00  0.00     0.148 A 
ATOM     68  C   UNL A   1      37.899  32.247  37.550  1.00  0.00     0.002 A 
ATOM     69  C   UNL A   1      39.347  34.016  36.741  1.00  0.00     0.091 A 
ATOM     70  F   UNL A   1      40.607  33.671  34.744  1.00  0.00    -0.205 F 
ATOM     71  C   UNL A   1      38.412  33.535  37.672  1.00  0.00     0.022 A 
BRANCH  69  72
ATOM     72  S   UNL A   1      40.012  35.660  37.036  1.00  0.00     0.127 S 
ATOM     73  O   UNL A   1      39.327  36.036  38.271  1.00  0.00    -0.237 OA
ATOM     74  O   UNL A   1      41.441  35.389  37.189  1.00  0.00    -0.237 OA
ATOM     75  O   UNL A   1      39.664  36.451  35.864  1.00  0.00    -0.744 OA
ENDBRANCH  69  72
ENDBRANCH  51  65
BRANCH  52  76
ATOM     76  C   UNL A   1      42.417  26.358  27.875  1.00  0.00     0.023 A 
ATOM     77  C   UNL A   1      43.340  26.941  26.984  1.00  0.00     0.012 A 
ATOM     78  C   UNL A   1      42.006  25.027  27.663  1.00  0.00     0.148 A 
ATOM     79  C   UNL A   1      43.814  26.228  25.883  1.00  0.00     0.002 A 
ATOM     80  C   UNL A   1      42.526  24.303  26.598  1.00  0.00     0.091 A 
ATOM     81  F   UNL A   1      41.123  24.493  28.519  1.00  0.00    -0.205 F 
ATOM     82  C   UNL A   1      43.415  24.907  25.696  1.00  0.00     0.022 A 
BRANCH  80  83
ATOM     83  S   UNL A   1      42.170  22.559  26.353  1.00  0.00     0.127 S 
ATOM     84  O   UNL A   1      42.643  22.346  24.988  1.00  0.00    -0.237 OA
ATOM     85  O   UNL A   1      42.988  21.936  27.394  1.00  0.00    -0.237 OA
ATOM     86  O   UNL A   1      40.733  22.416  26.552  1.00  0.00    -0.744 OA
ENDBRANCH  80  83
ENDBRANCH  52  76
BRANCH  64  87
ATOM     87  C   UNL A   1      44.689  27.302  34.406  1.00  0.00     0.023 A 
ATOM     88  C   UNL A   1      45.915  27.998  34.433  1.00  0.00     0.012 A 
ATOM     89  C   UNL A   1      44.558  26.108  35.141  1.00  0.00     0.148 A 
ATOM     90  C   UNL A   1      47.003  27.490  35.140  1.00  0.00     0.002 A 
ATOM     91  C   UNL A   1      45.631  25.636  35.888  1.00  0.00     0.091 A 
ATOM     92  F   UNL A   1      43.392  25.449  35.090  1.00  0.00    -0.205 F 
ATOM     93  C   UNL A   1      46.859  26.316  35.875  1.00  0.00     0.022 A 
BRANCH  91  94
ATOM     94  S   UNL A   1      45.503  24.188  36.943  1.00  0.00     0.127 S 
ATOM     95  O   UNL A   1      46.899  23.974  37.324  1.00  0.00    -0.237 OA
ATOM     96  O   UNL A   1      44.643  24.667  38.026  1.00  0.00    -0.237 OA
ATOM     97  O   UNL A   1      44.910  23.143  36.120  1.00  0.00    -0.744 OA
ENDBRANCH  91  94
ENDBRANCH  64  87
ENDBRANCH  38  39
ENDBRANCH  30  33
ENDBRANCH  28  29
ENDBRANCH   1  28
TORSDOF 17
ENDMDL
MODEL 2
REMARK VINA RESULT:     -12.1      1.794      2.470
REMARK SMILES NC(=O)C[C@H](C(=O)NCCCNC(=O)c1ccc(-c2c3nc(c(-c4cccc(S(=O)(=O)[O-])c4F)c4ccc([nH]4)c(-c4cccc(S(=O)(=O)[O-])c4F)c4nc(c(-c5cccc(S(=O)(=O)[O-])c5F)c5ccc2[nH]5)C=C4)C=C3)cc1)N1C(=O)/C(=C/c2ccccc2)SC1=S
REMARK SMILES IDX 10 1 9 2 8 3 6 4 7 5 5 7 4 8 2 9 1 10 3 13 78 14 79 15 90 16
REMARK SMILES IDX 80 17 81 18 89 19 91 20 82 21 83 22 84 23 88 24 85 25 87 26
REMARK SMILES IDX 86 27 11 28 12 29 13 30 14 32 15 33 16 34 77 35 17 36 76 37
REMARK SMILES IDX 18 38 19 39 20 40 70 41 21 42 75 43 69 44 71 45 22 46 74 47
REMARK SMILES IDX 68 48 67 49 23 51 55 52 35 53 54 54 36 55 39 56 53 57 72 58
REMARK SMILES IDX 37 59 38 60 52 62 73 63 40 64 24 65 25 66 33 67 26 68 28 69
REMARK SMILES IDX 34 70 27 71 29 72 30 73 31 74 32 75 56 76 57 77 65 78 58 79
REMARK SMILES IDX 60 80 66 81 59 82 61 83 62 84 63 85 64 86 41 87 42 88 50 89
REMARK SMILES IDX 43 90 45 91 51 92 44 93 46 94 47 95 48 96 49 97
REMARK H PARENT 8 6 1 11 1 12 12 31 71 50 39 61
REMARK Flexibility Score: inf
ROOT
ATOM      1  C   UNL A   1      32.870  28.139  26.791  1.00  0.00     0.042 C 
ENDROOT
BRANCH   1   2
ATOM      2  C   UNL A   1      33.106  26.659  26.520  1.00  0.00     0.117 C 
BRANCH   2   3
ATOM      3  N   UNL A   1      31.933  25.857  26.804  1.00  0.00    -0.354 N 
ATOM      4  C   UNL A   1      31.148  25.112  25.972  1.00  0.00     0.243 C 
ATOM      5  O   UNL A   1      30.326  24.367  26.505  1.00  0.00    -0.273 OA
ATOM      6  H   UNL A   1      31.658  25.849  27.749  1.00  0.00     0.163 HD
BRANCH   4   7
ATOM      7  C   UNL A   1      31.424  25.090  24.452  1.00  0.00     0.190 C 
BRANCH   7   8
ATOM      8  C   UNL A   1      30.703  23.937  23.747  1.00  0.00     0.135 C 
BRANCH   8   9
ATOM      9  C   UNL A   1      31.663  22.841  23.335  1.00  0.00     0.220 C 
ATOM     10  N   UNL A   1      32.378  23.060  22.196  1.00  0.00    -0.370 N 
ATOM     11  H   UNL A   1      33.019  22.383  21.878  1.00  0.00     0.159 HD
ATOM     12  H   UNL A   1      32.255  23.896  21.690  1.00  0.00     0.159 HD
ATOM     13  O   UNL A   1      31.767  21.771  23.924  1.00  0.00    -0.275 OA
ENDBRANCH   8   9
ENDBRANCH   7   8
BRANCH   7  14
ATOM     14  N   UNL A   1      31.136  26.393  23.809  1.00  0.00    -0.280 N 
ATOM     15  C   UNL A   1      29.839  26.888  23.836  1.00  0.00     0.266 C 
ATOM     16  C   UNL A   1      32.034  27.104  23.039  1.00  0.00     0.149 C 
ATOM     17  O   UNL A   1      28.877  26.330  24.333  1.00  0.00    -0.268 OA
ATOM     18  C   UNL A   1      29.769  28.205  23.142  1.00  0.00     0.081 C 
ATOM     19  S   UNL A   1      31.317  28.622  22.534  1.00  0.00    -0.054 SA
ATOM     20  S   UNL A   1      33.575  26.656  22.575  1.00  0.00    -0.052 S 
ATOM     21  C   UNL A   1      28.626  28.905  23.079  1.00  0.00     0.029 C 
BRANCH  21  22
ATOM     22  C   UNL A   1      28.419  30.234  22.478  1.00  0.00    -0.024 A 
ATOM     23  C   UNL A   1      28.525  31.364  23.299  1.00  0.00     0.008 A 
ATOM     24  C   UNL A   1      28.083  30.410  21.129  1.00  0.00     0.008 A 
ATOM     25  C   UNL A   1      28.352  32.646  22.771  1.00  0.00     0.001 A 
ATOM     26  C   UNL A   1      27.916  31.693  20.601  1.00  0.00     0.001 A 
ATOM     27  C   UNL A   1      28.059  32.810  21.418  1.00  0.00     0.000 A 
ENDBRANCH  21  22
ENDBRANCH   7  14
ENDBRANCH   4   7
ENDBRANCH   2   3
ENDBRANCH   1   2
BRANCH   1  28
ATOM     28  C   UNL A   1      33.897  29.053  26.130  1.00  0.00     0.118 C 
BRANCH  28  29
ATOM     29  N   UNL A   1      33.819  30.421  26.622  1.00  0.00    -0.352 N 
ATOM     30  C   UNL A   1      34.569  31.066  27.572  1.00  0.00     0.251 C 
ATOM     31  H   UNL A   1      33.116  30.971  26.207  1.00  0.00     0.163 HD
ATOM     32  O   UNL A   1      34.202  32.167  27.974  1.00  0.00    -0.269 OA
BRANCH  30  33
ATOM     33  C   UNL A   1      35.799  30.451  28.117  1.00  0.00     0.039 A 
ATOM     34  C   UNL A   1      37.000  30.629  27.424  1.00  0.00     0.014 A 
ATOM     35  C   UNL A   1      35.775  29.667  29.275  1.00  0.00     0.014 A 
ATOM     36  C   UNL A   1      38.175  30.059  27.913  1.00  0.00     0.010 A 
ATOM     37  C   UNL A   1      36.962  29.171  29.807  1.00  0.00     0.010 A 
ATOM     38  C   UNL A   1      38.174  29.346  29.125  1.00  0.00    -0.014 A 
BRANCH  38  39
ATOM     39  C   UNL A   1      39.434  28.790  29.681  1.00  0.00     0.031 A 
ATOM     40  C   UNL A   1      40.059  29.389  30.914  1.00  0.00     0.074 A 
ATOM     41  C   UNL A   1      40.048  27.777  29.038  1.00  0.00     0.049 A 
ATOM     42  N   UNL A   1      41.150  29.029  31.539  1.00  0.00    -0.248 NA
ATOM     43  C   UNL A   1      39.391  30.559  31.506  1.00  0.00     0.031 C 
ATOM     44  C   UNL A   1      39.592  27.171  27.786  1.00  0.00     0.029 A 
ATOM     45  N   UNL A   1      41.197  27.089  29.340  1.00  0.00    -0.354 N 
ATOM     46  C   UNL A   1      41.317  29.942  32.574  1.00  0.00     0.074 A 
ATOM     47  C   UNL A   1      40.235  30.897  32.470  1.00  0.00     0.031 C 
ATOM     48  C   UNL A   1      40.441  26.193  27.434  1.00  0.00     0.029 A 
ATOM     49  C   UNL A   1      41.516  26.121  28.417  1.00  0.00     0.049 A 
ATOM     50  H   UNL A   1      41.739  27.271  30.141  1.00  0.00     0.167 HD
ATOM     51  C   UNL A   1      42.265  29.968  33.541  1.00  0.00     0.034 A 
ATOM     52  C   UNL A   1      42.561  25.271  28.366  1.00  0.00     0.034 A 
ATOM     53  C   UNL A   1      43.317  28.994  33.664  1.00  0.00     0.049 A 
ATOM     54  C   UNL A   1      43.568  25.285  29.484  1.00  0.00     0.074 A 
ATOM     55  C   UNL A   1      44.272  28.879  34.658  1.00  0.00     0.029 A 
ATOM     56  N   UNL A   1      43.560  27.973  32.757  1.00  0.00    -0.354 N 
ATOM     57  N   UNL A   1      43.612  26.051  30.545  1.00  0.00    -0.248 NA
ATOM     58  C   UNL A   1      44.645  24.286  29.418  1.00  0.00     0.031 C 
ATOM     59  C   UNL A   1      45.112  27.808  34.336  1.00  0.00     0.029 A 
ATOM     60  C   UNL A   1      44.656  27.230  33.163  1.00  0.00     0.049 A 
ATOM     61  H   UNL A   1      43.031  27.801  31.946  1.00  0.00     0.167 HD
ATOM     62  C   UNL A   1      44.697  25.606  31.293  1.00  0.00     0.074 A 
ATOM     63  C   UNL A   1      45.264  24.485  30.572  1.00  0.00     0.031 C 
ATOM     64  C   UNL A   1      45.185  26.089  32.461  1.00  0.00     0.034 A 
BRANCH  51  65
ATOM     65  C   UNL A   1      42.184  31.060  34.578  1.00  0.00     0.023 A 
ATOM     66  C   UNL A   1      41.478  30.834  35.778  1.00  0.00     0.012 A 
ATOM     67  C   UNL A   1      42.859  32.284  34.395  1.00  0.00     0.148 A 
ATOM     68  C   UNL A   1      41.415  31.819  36.764  1.00  0.00     0.002 A 
ATOM     69  C   UNL A   1      42.832  33.241  35.402  1.00  0.00     0.091 A 
ATOM     70  F   UNL A   1      43.507  32.489  33.241  1.00  0.00    -0.205 F 
ATOM     71  C   UNL A   1      42.101  33.016  36.581  1.00  0.00     0.022 A 
BRANCH  69  72
ATOM     72  S   UNL A   1      43.751  34.782  35.301  1.00  0.00     0.127 S 
ATOM     73  O   UNL A   1      45.120  34.297  35.132  1.00  0.00    -0.237 OA
ATOM     74  O   UNL A   1      43.173  35.405  34.111  1.00  0.00    -0.237 OA
ATOM     75  O   UNL A   1      43.489  35.489  36.547  1.00  0.00    -0.744 OA
ENDBRANCH  69  72
ENDBRANCH  51  65
BRANCH  52  76
ATOM     76  C   UNL A   1      42.670  24.291  27.248  1.00  0.00     0.023 A 
ATOM     77  C   UNL A   1      43.377  24.642  26.082  1.00  0.00     0.012 A 
ATOM     78  C   UNL A   1      42.096  23.008  27.343  1.00  0.00     0.148 A 
ATOM     79  C   UNL A   1      43.478  23.748  25.015  1.00  0.00     0.002 A 
ATOM     80  C   UNL A   1      42.250  22.103  26.302  1.00  0.00     0.091 A 
ATOM     81  F   UNL A   1      41.422  22.697  28.460  1.00  0.00    -0.205 F 
ATOM     82  C   UNL A   1      42.923  22.476  25.129  1.00  0.00     0.022 A 
BRANCH  80  83
ATOM     83  S   UNL A   1      41.681  20.402  26.413  1.00  0.00     0.127 S 
ATOM     84  O   UNL A   1      42.419  19.768  25.324  1.00  0.00    -0.237 OA
ATOM     85  O   UNL A   1      42.120  20.025  27.757  1.00  0.00    -0.237 OA
ATOM     86  O   UNL A   1      40.234  20.455  26.246  1.00  0.00    -0.744 OA
ENDBRANCH  80  83
ENDBRANCH  52  76
BRANCH  64  87
ATOM     87  C   UNL A   1      46.373  25.382  33.063  1.00  0.00     0.023 A 
ATOM     88  C   UNL A   1      47.679  25.835  32.787  1.00  0.00     0.012 A 
ATOM     89  C   UNL A   1      46.190  24.299  33.944  1.00  0.00     0.148 A 
ATOM     90  C   UNL A   1      48.784  25.192  33.341  1.00  0.00     0.002 A 
ATOM     91  C   UNL A   1      47.294  23.697  34.535  1.00  0.00     0.091 A 
ATOM     92  F   UNL A   1      44.943  23.869  34.181  1.00  0.00    -0.205 F 
ATOM     93  C   UNL A   1      48.592  24.130  34.222  1.00  0.00     0.022 A 
BRANCH  91  94
ATOM     94  S   UNL A   1      47.135  22.391  35.758  1.00  0.00     0.127 S 
ATOM     95  O   UNL A   1      46.537  21.315  34.969  1.00  0.00    -0.237 OA
ATOM     96  O   UNL A   1      48.526  22.159  36.149  1.00  0.00    -0.237 OA
ATOM     97  O   UNL A   1      46.294  22.935  36.817  1.00  0.00    -0.744 OA
ENDBRANCH  91  94
ENDBRANCH  64  87
ENDBRANCH  38  39
ENDBRANCH  30  33
ENDBRANCH  28  29
ENDBRANCH   1  28
TORSDOF 17
ENDMDL
MODEL 3
REMARK VINA RESULT:     -11.8      2.439      3.101
REMARK SMILES NC(=O)C[C@H](C(=O)NCCCNC(=O)c1ccc(-c2c3nc(c(-c4cccc(S(=O)(=O)[O-])c4F)c4ccc([nH]4)c(-c4cccc(S(=O)(=O)[O-])c4F)c4nc(c(-c5cccc(S(=O)(=O)[O-])c5F)c5ccc2[nH]5)C=C4)C=C3)cc1)N1C(=O)/C(=C/c2ccccc2)SC1=S
REMARK SMILES IDX 10 1 9 2 8 3 6 4 7 5 5 7 4 8 2 9 1 10 3 13 78 14 79 15 90 16
REMARK SMILES IDX 80 17 81 18 89 19 91 20 82 21 83 22 84 23 88 24 85 25 87 26
REMARK SMILES IDX 86 27 11 28 12 29 13 30 14 32 15 33 16 34 77 35 17 36 76 37
REMARK SMILES IDX 18 38 19 39 20 40 70 41 21 42 75 43 69 44 71 45 22 46 74 47
REMARK SMILES IDX 68 48 67 49 23 51 55 52 35 53 54 54 36 55 39 56 53 57 72 58
REMARK SMILES IDX 37 59 38 60 52 62 73 63 40 64 24 65 25 66 33 67 26 68 28 69
REMARK SMILES IDX 34 70 27 71 29 72 30 73 31 74 32 75 56 76 57 77 65 78 58 79
REMARK SMILES IDX 60 80 66 81 59 82 61 83 62 84 63 85 64 86 41 87 42 88 50 89
REMARK SMILES IDX 43 90 45 91 51 92 44 93 46 94 47 95 48 96 49 97
REMARK H PARENT 8 6 1 11 1 12 12 31 71 50 39 61
REMARK Flexibility Score: inf
ROOT
ATOM      1  C   UNL A   1      33.949  27.939  25.973  1.00  0.00     0.042 C 
ENDROOT
BRANCH   1   2
ATOM      2  C   UNL A   1      33.995  26.418  26.022  1.00  0.00     0.117 C 
BRANCH   2   3
ATOM      3  N   UNL A   1      32.757  25.849  26.517  1.00  0.00    -0.354 N 
ATOM      4  C   UNL A   1      31.725  25.259  25.846  1.00  0.00     0.243 C 
ATOM      5  O   UNL A   1      30.878  24.682  26.529  1.00  0.00    -0.273 OA
ATOM      6  H   UNL A   1      32.643  25.896  27.494  1.00  0.00     0.163 HD
BRANCH   4   7
ATOM      7  C   UNL A   1      31.741  25.180  24.304  1.00  0.00     0.190 C 
BRANCH   7   8
ATOM      8  C   UNL A   1      30.885  24.026  23.771  1.00  0.00     0.135 C 
BRANCH   8   9
ATOM      9  C   UNL A   1      31.736  22.893  23.241  1.00  0.00     0.220 C 
ATOM     10  N   UNL A   1      32.376  23.118  22.058  1.00  0.00    -0.370 N 
ATOM     11  H   UNL A   1      32.944  22.417  21.664  1.00  0.00     0.159 HD
ATOM     12  H   UNL A   1      32.271  23.983  21.598  1.00  0.00     0.159 HD
ATOM     13  O   UNL A   1      31.813  21.793  23.775  1.00  0.00    -0.275 OA
ENDBRANCH   8   9
ENDBRANCH   7   8
BRANCH   7  14
ATOM     14  N   UNL A   1      31.380  26.469  23.669  1.00  0.00    -0.280 N 
ATOM     15  C   UNL A   1      30.085  26.950  23.806  1.00  0.00     0.266 C 
ATOM     16  C   UNL A   1      32.196  27.178  22.812  1.00  0.00     0.149 C 
ATOM     17  O   UNL A   1      29.179  26.390  24.396  1.00  0.00    -0.268 OA
ATOM     18  C   UNL A   1      29.936  28.255  23.102  1.00  0.00     0.081 C 
ATOM     19  S   UNL A   1      31.418  28.681  22.351  1.00  0.00    -0.054 SA
ATOM     20  S   UNL A   1      33.695  26.740  22.218  1.00  0.00    -0.052 S 
ATOM     21  C   UNL A   1      28.784  28.941  23.132  1.00  0.00     0.029 C 
BRANCH  21  22
ATOM     22  C   UNL A   1      28.507  30.258  22.533  1.00  0.00    -0.024 A 
ATOM     23  C   UNL A   1      28.606  31.397  23.343  1.00  0.00     0.008 A 
ATOM     24  C   UNL A   1      28.111  30.414  21.198  1.00  0.00     0.008 A 
ATOM     25  C   UNL A   1      28.367  32.669  22.815  1.00  0.00     0.001 A 
ATOM     26  C   UNL A   1      27.879  31.687  20.669  1.00  0.00     0.001 A 
ATOM     27  C   UNL A   1      28.015  32.813  21.475  1.00  0.00     0.000 A 
ENDBRANCH  21  22
ENDBRANCH   7  14
ENDBRANCH   4   7
ENDBRANCH   2   3
ENDBRANCH   1   2
BRANCH   1  28
ATOM     28  C   UNL A   1      33.279  28.571  27.188  1.00  0.00     0.118 C 
BRANCH  28  29
ATOM     29  N   UNL A   1      33.389  30.023  27.190  1.00  0.00    -0.352 N 
ATOM     30  C   UNL A   1      34.357  30.838  27.717  1.00  0.00     0.251 C 
ATOM     31  H   UNL A   1      32.650  30.494  26.742  1.00  0.00     0.163 HD
ATOM     32  O   UNL A   1      34.149  32.048  27.777  1.00  0.00    -0.269 OA
BRANCH  30  33
ATOM     33  C   UNL A   1      35.633  30.280  28.216  1.00  0.00     0.039 A 
ATOM     34  C   UNL A   1      36.751  30.315  27.378  1.00  0.00     0.014 A 
ATOM     35  C   UNL A   1      35.728  29.685  29.478  1.00  0.00     0.014 A 
ATOM     36  C   UNL A   1      37.968  29.795  27.821  1.00  0.00     0.010 A 
ATOM     37  C   UNL A   1      36.962  29.245  29.950  1.00  0.00     0.010 A 
ATOM     38  C   UNL A   1      38.092  29.278  29.122  1.00  0.00    -0.014 A 
BRANCH  38  39
ATOM     39  C   UNL A   1      39.400  28.779  29.620  1.00  0.00     0.031 A 
ATOM     40  C   UNL A   1      40.101  29.468  30.762  1.00  0.00     0.074 A 
ATOM     41  C   UNL A   1      39.987  27.735  29.001  1.00  0.00     0.049 A 
ATOM     42  N   UNL A   1      41.241  29.166  31.328  1.00  0.00    -0.248 NA
ATOM     43  C   UNL A   1      39.453  30.665  31.325  1.00  0.00     0.031 C 
ATOM     44  C   UNL A   1      39.453  27.041  27.827  1.00  0.00     0.029 A 
ATOM     45  N   UNL A   1      41.168  27.086  29.262  1.00  0.00    -0.354 N 
ATOM     46  C   UNL A   1      41.463  30.149  32.286  1.00  0.00     0.074 A 
ATOM     47  C   UNL A   1      40.358  31.078  32.201  1.00  0.00     0.031 C 
ATOM     48  C   UNL A   1      40.295  26.055  27.479  1.00  0.00     0.029 A 
ATOM     49  C   UNL A   1      41.439  26.065  28.383  1.00  0.00     0.049 A 
ATOM     50  H   UNL A   1      41.762  27.329  30.008  1.00  0.00     0.167 HD
ATOM     51  C   UNL A   1      42.478  30.253  33.178  1.00  0.00     0.034 A 
ATOM     52  C   UNL A   1      42.494  25.229  28.311  1.00  0.00     0.034 A 
ATOM     53  C   UNL A   1      43.555  29.306  33.286  1.00  0.00     0.049 A 
ATOM     54  C   UNL A   1      43.578  25.332  29.348  1.00  0.00     0.074 A 
ATOM     55  C   UNL A   1      44.581  29.272  34.213  1.00  0.00     0.029 A 
ATOM     56  N   UNL A   1      43.752  28.231  32.433  1.00  0.00    -0.354 N 
ATOM     57  N   UNL A   1      43.684  26.168  30.352  1.00  0.00    -0.248 NA
ATOM     58  C   UNL A   1      44.668  24.347  29.270  1.00  0.00     0.031 C 
ATOM     59  C   UNL A   1      45.418  28.194  33.901  1.00  0.00     0.029 A 
ATOM     60  C   UNL A   1      44.890  27.533  32.805  1.00  0.00     0.049 A 
ATOM     61  H   UNL A   1      43.170  27.997  31.675  1.00  0.00     0.167 HD
ATOM     62  C   UNL A   1      44.828  25.790  31.045  1.00  0.00     0.074 A 
ATOM     63  C   UNL A   1      45.365  24.632  30.360  1.00  0.00     0.031 C 
ATOM     64  C   UNL A   1      45.390  26.356  32.142  1.00  0.00     0.034 A 
BRANCH  51  65
ATOM     65  C   UNL A   1      42.449  31.410  34.145  1.00  0.00     0.023 A 
ATOM     66  C   UNL A   1      43.266  32.536  33.913  1.00  0.00     0.012 A 
ATOM     67  C   UNL A   1      41.568  31.413  35.245  1.00  0.00     0.148 A 
ATOM     68  C   UNL A   1      43.234  33.630  34.777  1.00  0.00     0.002 A 
ATOM     69  C   UNL A   1      41.507  32.527  36.073  1.00  0.00     0.091 A 
ATOM     70  F   UNL A   1      40.814  30.327  35.462  1.00  0.00    -0.205 F 
ATOM     71  C   UNL A   1      42.347  33.630  35.849  1.00  0.00     0.022 A 
BRANCH  69  72
ATOM     72  S   UNL A   1      40.338  32.662  37.432  1.00  0.00     0.127 S 
ATOM     73  O   UNL A   1      41.192  32.380  38.584  1.00  0.00    -0.237 OA
ATOM     74  O   UNL A   1      39.902  34.055  37.323  1.00  0.00    -0.237 OA
ATOM     75  O   UNL A   1      39.299  31.677  37.169  1.00  0.00    -0.744 OA
ENDBRANCH  69  72
ENDBRANCH  51  65
BRANCH  52  76
ATOM     76  C   UNL A   1      42.542  24.179  27.254  1.00  0.00     0.023 A 
ATOM     77  C   UNL A   1      43.192  24.449  26.034  1.00  0.00     0.012 A 
ATOM     78  C   UNL A   1      41.967  22.910  27.459  1.00  0.00     0.148 A 
ATOM     79  C   UNL A   1      43.235  23.488  25.023  1.00  0.00     0.002 A 
ATOM     80  C   UNL A   1      42.063  21.938  26.472  1.00  0.00     0.091 A 
ATOM     81  F   UNL A   1      41.348  22.675  28.625  1.00  0.00    -0.205 F 
ATOM     82  C   UNL A   1      42.679  22.231  25.245  1.00  0.00     0.022 A 
BRANCH  80  83
ATOM     83  S   UNL A   1      41.492  20.253  26.719  1.00  0.00     0.127 S 
ATOM     84  O   UNL A   1      40.064  20.452  26.952  1.00  0.00    -0.237 OA
ATOM     85  O   UNL A   1      41.827  19.631  25.438  1.00  0.00    -0.237 OA
ATOM     86  O   UNL A   1      42.250  19.740  27.853  1.00  0.00    -0.744 OA
ENDBRANCH  80  83
ENDBRANCH  52  76
BRANCH  64  87
ATOM     87  C   UNL A   1      46.631  25.709  32.699  1.00  0.00     0.023 A 
ATOM     88  C   UNL A   1      46.534  24.794  33.766  1.00  0.00     0.012 A 
ATOM     89  C   UNL A   1      47.892  25.971  32.128  1.00  0.00     0.148 A 
ATOM     90  C   UNL A   1      47.675  24.187  34.287  1.00  0.00     0.002 A 
ATOM     91  C   UNL A   1      49.019  25.321  32.617  1.00  0.00     0.091 A 
ATOM     92  F   UNL A   1      47.970  26.858  31.126  1.00  0.00    -0.205 F 
ATOM     93  C   UNL A   1      48.915  24.441  33.706  1.00  0.00     0.022 A 
BRANCH  91  94
ATOM     94  S   UNL A   1      50.639  25.512  31.865  1.00  0.00     0.127 S 
ATOM     95  O   UNL A   1      51.465  24.657  32.717  1.00  0.00    -0.237 OA
ATOM     96  O   UNL A   1      50.418  24.995  30.514  1.00  0.00    -0.237 OA
ATOM     97  O   UNL A   1      50.942  26.936  31.924  1.00  0.00    -0.744 OA
ENDBRANCH  91  94
ENDBRANCH  64  87
ENDBRANCH  38  39
ENDBRANCH  30  33
ENDBRANCH  28  29
ENDBRANCH   1  28
TORSDOF 17
ENDMDL
