MODEL 1
REMARK VINA RESULT:     -13.3      0.000      0.000
REMARK SMILES C[C@@H]1Cc2ccccc2N1c1ccc(F)cc1C(=O)NCCCNC(=O)c1ccc(-c2c3nc(c(-c4cccc(S(=O)(=O)[O-])c4F)c4ccc([nH]4)c(-c4cccc(S(=O)(=O)[O-])c4F)c4nc(c(-c5cccc(S(=O)(=O)[O-])c5F)c5ccc2[nH]5)C=C4)C=C3)cc1
REMARK SMILES IDX 23 1 22 2 21 3 20 4 18 5 19 6 17 8 11 9 12 10 13 11 16 12
REMARK SMILES IDX 14 13 15 14 10 15 1 16 2 17 3 18 4 19 9 20 5 21 8 22 6 23
REMARK SMILES IDX 7 24 24 25 25 26 26 28 27 29 28 30 89 31 29 32 88 33 30 34
REMARK SMILES IDX 31 35 32 36 82 37 33 38 87 39 81 40 83 41 34 42 86 43 80 44
REMARK SMILES IDX 79 45 35 47 67 48 47 49 66 50 48 51 51 52 65 53 84 54 49 55
REMARK SMILES IDX 50 56 64 58 85 59 52 60 36 61 37 62 45 63 38 64 40 65 46 66
REMARK SMILES IDX 39 67 41 68 42 69 43 70 44 71 68 72 69 73 77 74 70 75 72 76
REMARK SMILES IDX 78 77 71 78 73 79 74 80 75 81 76 82 53 83 54 84 62 85 55 86
REMARK SMILES IDX 57 87 63 88 56 89 58 90 59 91 60 92 61 93
REMARK H PARENT 20 7 24 27 83 46 51 57
REMARK Flexibility Score: inf
ROOT
ATOM      1  C   UNL A   1      32.262  29.837  26.169  1.00  0.00     0.118 C 
ENDROOT
BRANCH   1   2
ATOM      2  C   UNL A   1      31.724  28.744  27.093  1.00  0.00     0.042 C 
BRANCH   2   3
ATOM      3  C   UNL A   1      32.367  27.387  26.852  1.00  0.00     0.118 C 
BRANCH   3   4
ATOM      4  N   UNL A   1      31.455  26.266  26.843  1.00  0.00    -0.352 N 
ATOM      5  C   UNL A   1      31.225  25.322  25.880  1.00  0.00     0.253 C 
ATOM      6  O   UNL A   1      30.521  24.359  26.202  1.00  0.00    -0.269 OA
ATOM      7  H   UNL A   1      30.914  26.165  27.661  1.00  0.00     0.163 HD
BRANCH   5   8
ATOM      8  C   UNL A   1      31.663  25.416  24.459  1.00  0.00     0.066 A 
ATOM      9  C   UNL A   1      32.561  24.578  23.759  1.00  0.00     0.054 A 
ATOM     10  C   UNL A   1      32.742  24.811  22.374  1.00  0.00     0.030 A 
ATOM     11  C   UNL A   1      32.085  25.844  21.705  1.00  0.00     0.041 A 
ATOM     12  C   UNL A   1      31.002  26.453  23.764  1.00  0.00     0.055 A 
ATOM     13  C   UNL A   1      31.223  26.662  22.412  1.00  0.00     0.124 A 
ATOM     14  F   UNL A   1      30.594  27.663  21.783  1.00  0.00    -0.207 F 
BRANCH   9  15
ATOM     15  N   UNL A   1      33.336  23.586  24.347  1.00  0.00    -0.337 N 
ATOM     16  C   UNL A   1      35.192  24.913  25.413  1.00  0.00     0.032 C 
ATOM     17  C   UNL A   1      34.184  23.780  25.550  1.00  0.00     0.089 C 
ATOM     18  C   UNL A   1      34.909  22.422  25.796  1.00  0.00     0.063 C 
ATOM     19  C   UNL A   1      34.038  21.469  25.047  1.00  0.00    -0.022 A 
ATOM     20  C   UNL A   1      33.122  22.182  24.272  1.00  0.00     0.045 A 
ATOM     21  C   UNL A   1      34.134  20.090  24.964  1.00  0.00     0.006 A 
ATOM     22  C   UNL A   1      32.237  21.513  23.439  1.00  0.00     0.026 A 
ATOM     23  C   UNL A   1      33.259  19.415  24.109  1.00  0.00     0.000 A 
ATOM     24  C   UNL A   1      32.306  20.121  23.360  1.00  0.00     0.002 A 
ENDBRANCH   9  15
ENDBRANCH   5   8
ENDBRANCH   3   4
ENDBRANCH   2   3
ENDBRANCH   1   2
BRANCH   1  25
ATOM     25  N   UNL A   1      32.175  31.198  26.692  1.00  0.00    -0.352 N 
ATOM     26  C   UNL A   1      33.064  32.030  27.335  1.00  0.00     0.251 C 
ATOM     27  H   UNL A   1      31.292  31.609  26.553  1.00  0.00     0.163 HD
ATOM     28  O   UNL A   1      32.663  33.135  27.702  1.00  0.00    -0.269 OA
BRANCH  26  29
ATOM     29  C   UNL A   1      34.446  31.606  27.673  1.00  0.00     0.039 A 
ATOM     30  C   UNL A   1      34.794  30.271  27.817  1.00  0.00     0.014 A 
ATOM     31  C   UNL A   1      35.431  32.581  27.878  1.00  0.00     0.014 A 
ATOM     32  C   UNL A   1      35.986  29.927  28.440  1.00  0.00     0.010 A 
ATOM     33  C   UNL A   1      36.697  32.218  28.362  1.00  0.00     0.010 A 
ATOM     34  C   UNL A   1      36.954  30.895  28.741  1.00  0.00    -0.014 A 
BRANCH  34  35
ATOM     35  C   UNL A   1      38.178  30.485  29.492  1.00  0.00     0.031 A 
ATOM     36  C   UNL A   1      38.356  30.855  30.947  1.00  0.00     0.074 A 
ATOM     37  C   UNL A   1      39.085  29.677  28.901  1.00  0.00     0.049 A 
ATOM     38  N   UNL A   1      39.329  30.531  31.760  1.00  0.00    -0.248 NA
ATOM     39  C   UNL A   1      37.324  31.702  31.571  1.00  0.00     0.031 C 
ATOM     40  C   UNL A   1      39.050  29.254  27.498  1.00  0.00     0.029 A 
ATOM     41  N   UNL A   1      40.182  29.026  29.411  1.00  0.00    -0.354 N 
ATOM     42  C   UNL A   1      39.065  31.186  32.958  1.00  0.00     0.074 A 
ATOM     43  C   UNL A   1      37.836  31.925  32.774  1.00  0.00     0.031 C 
ATOM     44  C   UNL A   1      40.008  28.341  27.287  1.00  0.00     0.029 A 
ATOM     45  C   UNL A   1      40.783  28.173  28.512  1.00  0.00     0.049 A 
ATOM     46  H   UNL A   1      40.507  29.156  30.331  1.00  0.00     0.167 HD
ATOM     47  C   UNL A   1      39.765  31.157  34.115  1.00  0.00     0.034 A 
ATOM     48  C   UNL A   1      41.840  27.348  28.647  1.00  0.00     0.034 A 
ATOM     49  C   UNL A   1      40.928  30.345  34.341  1.00  0.00     0.049 A 
ATOM     50  C   UNL A   1      42.565  27.292  29.957  1.00  0.00     0.074 A 
ATOM     51  C   UNL A   1      41.673  30.222  35.501  1.00  0.00     0.029 A 
ATOM     52  N   UNL A   1      41.502  29.504  33.403  1.00  0.00    -0.354 N 
ATOM     53  N   UNL A   1      42.271  27.896  31.083  1.00  0.00    -0.248 NA
ATOM     54  C   UNL A   1      43.768  26.451  30.019  1.00  0.00     0.031 C 
ATOM     55  C   UNL A   1      42.696  29.300  35.265  1.00  0.00     0.029 A 
ATOM     56  C   UNL A   1      42.588  28.852  33.959  1.00  0.00     0.049 A 
ATOM     57  H   UNL A   1      41.185  29.388  32.478  1.00  0.00     0.167 HD
ATOM     58  C   UNL A   1      43.254  27.513  31.985  1.00  0.00     0.074 A 
ATOM     59  C   UNL A   1      44.134  26.598  31.287  1.00  0.00     0.031 C 
ATOM     60  C   UNL A   1      43.428  27.912  33.267  1.00  0.00     0.034 A 
BRANCH  47  61
ATOM     61  C   UNL A   1      39.268  31.989  35.266  1.00  0.00     0.023 A 
ATOM     62  C   UNL A   1      38.408  31.408  36.218  1.00  0.00     0.012 A 
ATOM     63  C   UNL A   1      39.742  33.301  35.462  1.00  0.00     0.148 A 
ATOM     64  C   UNL A   1      38.019  32.125  37.349  1.00  0.00     0.002 A 
ATOM     65  C   UNL A   1      39.373  33.999  36.606  1.00  0.00     0.091 A 
ATOM     66  F   UNL A   1      40.548  33.833  34.535  1.00  0.00    -0.205 F 
ATOM     67  C   UNL A   1      38.509  33.413  37.548  1.00  0.00     0.022 A 
BRANCH  65  68
ATOM     68  S   UNL A   1      39.990  35.641  36.989  1.00  0.00     0.127 S 
ATOM     69  O   UNL A   1      39.284  35.938  38.235  1.00  0.00    -0.237 OA
ATOM     70  O   UNL A   1      41.424  35.401  37.143  1.00  0.00    -0.237 OA
ATOM     71  O   UNL A   1      39.628  36.483  35.858  1.00  0.00    -0.744 OA
ENDBRANCH  65  68
ENDBRANCH  47  61
BRANCH  48  72
ATOM     72  C   UNL A   1      42.242  26.486  27.502  1.00  0.00     0.023 A 
ATOM     73  C   UNL A   1      43.144  26.984  26.544  1.00  0.00     0.012 A 
ATOM     74  C   UNL A   1      41.805  25.151  27.409  1.00  0.00     0.148 A 
ATOM     75  C   UNL A   1      43.608  26.165  25.514  1.00  0.00     0.002 A 
ATOM     76  C   UNL A   1      42.313  24.324  26.415  1.00  0.00     0.091 A 
ATOM     77  F   UNL A   1      40.931  24.706  28.323  1.00  0.00    -0.205 F 
ATOM     78  C   UNL A   1      43.206  24.832  25.459  1.00  0.00     0.022 A 
BRANCH  76  79
ATOM     79  S   UNL A   1      41.961  22.565  26.355  1.00  0.00     0.127 S 
ATOM     80  O   UNL A   1      42.660  22.161  25.137  1.00  0.00    -0.237 OA
ATOM     81  O   UNL A   1      42.567  22.093  27.600  1.00  0.00    -0.237 OA
ATOM     82  O   UNL A   1      40.508  22.455  26.315  1.00  0.00    -0.744 OA
ENDBRANCH  76  79
ENDBRANCH  48  72
BRANCH  60  83
ATOM     83  C   UNL A   1      44.615  27.377  34.013  1.00  0.00     0.023 A 
ATOM     84  C   UNL A   1      45.832  28.083  33.958  1.00  0.00     0.012 A 
ATOM     85  C   UNL A   1      44.496  26.253  34.853  1.00  0.00     0.148 A 
ATOM     86  C   UNL A   1      46.920  27.674  34.726  1.00  0.00     0.002 A 
ATOM     87  C   UNL A   1      45.575  25.869  35.638  1.00  0.00     0.091 A 
ATOM     88  F   UNL A   1      43.328  25.595  34.877  1.00  0.00    -0.205 F 
ATOM     89  C   UNL A   1      46.789  26.576  35.572  1.00  0.00     0.022 A 
BRANCH  87  90
ATOM     90  S   UNL A   1      45.484  24.513  36.811  1.00  0.00     0.127 S 
ATOM     91  O   UNL A   1      45.300  23.364  35.925  1.00  0.00    -0.237 OA
ATOM     92  O   UNL A   1      46.792  24.578  37.463  1.00  0.00    -0.237 OA
ATOM     93  O   UNL A   1      44.356  24.811  37.685  1.00  0.00    -0.744 OA
ENDBRANCH  87  90
ENDBRANCH  60  83
ENDBRANCH  34  35
ENDBRANCH  26  29
ENDBRANCH   1  25
TORSDOF 14
ENDMDL
MODEL 2
REMARK VINA RESULT:     -13.2      1.256      2.757
REMARK SMILES C[C@@H]1Cc2ccccc2N1c1ccc(F)cc1C(=O)NCCCNC(=O)c1ccc(-c2c3nc(c(-c4cccc(S(=O)(=O)[O-])c4F)c4ccc([nH]4)c(-c4cccc(S(=O)(=O)[O-])c4F)c4nc(c(-c5cccc(S(=O)(=O)[O-])c5F)c5ccc2[nH]5)C=C4)C=C3)cc1
REMARK SMILES IDX 23 1 22 2 21 3 20 4 18 5 19 6 17 8 11 9 12 10 13 11 16 12
REMARK SMILES IDX 14 13 15 14 10 15 1 16 2 17 3 18 4 19 9 20 5 21 8 22 6 23
REMARK SMILES IDX 7 24 24 25 25 26 26 28 27 29 28 30 89 31 29 32 88 33 30 34
REMARK SMILES IDX 31 35 32 36 82 37 33 38 87 39 81 40 83 41 34 42 86 43 80 44
REMARK SMILES IDX 79 45 35 47 67 48 47 49 66 50 48 51 51 52 65 53 84 54 49 55
REMARK SMILES IDX 50 56 64 58 85 59 52 60 36 61 37 62 45 63 38 64 40 65 46 66
REMARK SMILES IDX 39 67 41 68 42 69 43 70 44 71 68 72 69 73 77 74 70 75 72 76
REMARK SMILES IDX 78 77 71 78 73 79 74 80 75 81 76 82 53 83 54 84 62 85 55 86
REMARK SMILES IDX 57 87 63 88 56 89 58 90 59 91 60 92 61 93
REMARK H PARENT 20 7 24 27 83 46 51 57
REMARK Flexibility Score: inf
ROOT
ATOM      1  C   UNL A   1      32.230  30.152  26.208  1.00  0.00     0.118 C 
ENDROOT
BRANCH   1   2
ATOM      2  C   UNL A   1      31.779  29.036  27.150  1.00  0.00     0.042 C 
BRANCH   2   3
ATOM      3  C   UNL A   1      32.318  27.668  26.758  1.00  0.00     0.118 C 
BRANCH   3   4
ATOM      4  N   UNL A   1      31.384  26.574  26.895  1.00  0.00    -0.352 N 
ATOM      5  C   UNL A   1      31.366  25.347  26.291  1.00  0.00     0.253 C 
ATOM      6  O   UNL A   1      30.553  24.525  26.726  1.00  0.00    -0.269 OA
ATOM      7  H   UNL A   1      30.643  26.739  27.523  1.00  0.00     0.163 HD
BRANCH   5   8
ATOM      8  C   UNL A   1      32.166  24.964  25.094  1.00  0.00     0.066 A 
ATOM      9  C   UNL A   1      32.395  25.710  23.914  1.00  0.00     0.054 A 
ATOM     10  C   UNL A   1      33.281  25.170  22.951  1.00  0.00     0.030 A 
ATOM     11  C   UNL A   1      33.901  23.933  23.126  1.00  0.00     0.041 A 
ATOM     12  C   UNL A   1      32.807  23.715  25.256  1.00  0.00     0.055 A 
ATOM     13  C   UNL A   1      33.650  23.212  24.279  1.00  0.00     0.124 A 
ATOM     14  F   UNL A   1      34.232  22.019  24.454  1.00  0.00    -0.207 F 
BRANCH   9  15
ATOM     15  N   UNL A   1      31.756  26.903  23.598  1.00  0.00    -0.337 N 
ATOM     16  C   UNL A   1      33.683  28.513  23.412  1.00  0.00     0.032 C 
ATOM     17  C   UNL A   1      32.372  28.010  22.824  1.00  0.00     0.089 C 
ATOM     18  C   UNL A   1      31.313  29.152  22.778  1.00  0.00     0.063 C 
ATOM     19  C   UNL A   1      30.050  28.411  23.072  1.00  0.00    -0.022 A 
ATOM     20  C   UNL A   1      30.354  27.114  23.488  1.00  0.00     0.045 A 
ATOM     21  C   UNL A   1      28.750  28.888  23.090  1.00  0.00     0.006 A 
ATOM     22  C   UNL A   1      29.344  26.245  23.874  1.00  0.00     0.026 A 
ATOM     23  C   UNL A   1      27.732  28.023  23.499  1.00  0.00     0.000 A 
ATOM     24  C   UNL A   1      28.025  26.705  23.877  1.00  0.00     0.002 A 
ENDBRANCH   9  15
ENDBRANCH   5   8
ENDBRANCH   3   4
ENDBRANCH   2   3
ENDBRANCH   1   2
BRANCH   1  25
ATOM     25  N   UNL A   1      32.179  31.501  26.766  1.00  0.00    -0.352 N 
ATOM     26  C   UNL A   1      33.085  32.288  27.441  1.00  0.00     0.251 C 
ATOM     27  H   UNL A   1      31.310  31.943  26.629  1.00  0.00     0.163 HD
ATOM     28  O   UNL A   1      32.713  33.395  27.833  1.00  0.00    -0.269 OA
BRANCH  26  29
ATOM     29  C   UNL A   1      34.449  31.813  27.782  1.00  0.00     0.039 A 
ATOM     30  C   UNL A   1      34.740  30.469  27.960  1.00  0.00     0.014 A 
ATOM     31  C   UNL A   1      35.477  32.749  27.955  1.00  0.00     0.014 A 
ATOM     32  C   UNL A   1      35.920  30.090  28.585  1.00  0.00     0.010 A 
ATOM     33  C   UNL A   1      36.729  32.345  28.442  1.00  0.00     0.010 A 
ATOM     34  C   UNL A   1      36.932  31.022  28.854  1.00  0.00    -0.014 A 
BRANCH  34  35
ATOM     35  C   UNL A   1      38.141  30.580  29.609  1.00  0.00     0.031 A 
ATOM     36  C   UNL A   1      38.324  30.943  31.065  1.00  0.00     0.074 A 
ATOM     37  C   UNL A   1      39.029  29.749  29.021  1.00  0.00     0.049 A 
ATOM     38  N   UNL A   1      39.285  30.593  31.882  1.00  0.00    -0.248 NA
ATOM     39  C   UNL A   1      37.313  31.817  31.687  1.00  0.00     0.031 C 
ATOM     40  C   UNL A   1      38.988  29.328  27.617  1.00  0.00     0.029 A 
ATOM     41  N   UNL A   1      40.106  29.068  29.534  1.00  0.00    -0.354 N 
ATOM     42  C   UNL A   1      39.034  31.254  33.079  1.00  0.00     0.074 A 
ATOM     43  C   UNL A   1      37.826  32.025  32.891  1.00  0.00     0.031 C 
ATOM     44  C   UNL A   1      39.922  28.390  27.409  1.00  0.00     0.029 A 
ATOM     45  C   UNL A   1      40.687  28.201  28.636  1.00  0.00     0.049 A 
ATOM     46  H   UNL A   1      40.432  29.189  30.455  1.00  0.00     0.167 HD
ATOM     47  C   UNL A   1      39.729  31.206  34.239  1.00  0.00     0.034 A 
ATOM     48  C   UNL A   1      41.722  27.348  28.774  1.00  0.00     0.034 A 
ATOM     49  C   UNL A   1      40.870  30.364  34.468  1.00  0.00     0.049 A 
ATOM     50  C   UNL A   1      42.441  27.272  30.087  1.00  0.00     0.074 A 
ATOM     51  C   UNL A   1      41.607  30.220  35.630  1.00  0.00     0.029 A 
ATOM     52  N   UNL A   1      41.425  29.509  33.531  1.00  0.00    -0.354 N 
ATOM     53  N   UNL A   1      42.159  27.882  31.212  1.00  0.00    -0.248 NA
ATOM     54  C   UNL A   1      43.621  26.399  30.152  1.00  0.00     0.031 C 
ATOM     55  C   UNL A   1      42.607  29.271  35.397  1.00  0.00     0.029 A 
ATOM     56  C   UNL A   1      42.491  28.828  34.090  1.00  0.00     0.049 A 
ATOM     57  H   UNL A   1      41.108  29.402  32.605  1.00  0.00     0.167 HD
ATOM     58  C   UNL A   1      43.129  27.473  32.117  1.00  0.00     0.074 A 
ATOM     59  C   UNL A   1      43.987  26.536  31.421  1.00  0.00     0.031 C 
ATOM     60  C   UNL A   1      43.308  27.866  33.401  1.00  0.00     0.034 A 
BRANCH  47  61
ATOM     61  C   UNL A   1      39.251  32.049  35.388  1.00  0.00     0.023 A 
ATOM     62  C   UNL A   1      38.395  31.482  36.353  1.00  0.00     0.012 A 
ATOM     63  C   UNL A   1      39.737  33.359  35.571  1.00  0.00     0.148 A 
ATOM     64  C   UNL A   1      38.023  32.210  37.483  1.00  0.00     0.002 A 
ATOM     65  C   UNL A   1      39.384  34.067  36.713  1.00  0.00     0.091 A 
ATOM     66  F   UNL A   1      40.538  33.879  34.632  1.00  0.00    -0.205 F 
ATOM     67  C   UNL A   1      38.526  33.495  37.668  1.00  0.00     0.022 A 
BRANCH  65  68
ATOM     68  S   UNL A   1      40.019  35.707  37.079  1.00  0.00     0.127 S 
ATOM     69  O   UNL A   1      41.450  35.444  37.222  1.00  0.00    -0.237 OA
ATOM     70  O   UNL A   1      39.653  36.453  35.876  1.00  0.00    -0.237 OA
ATOM     71  O   UNL A   1      39.346  36.139  38.297  1.00  0.00    -0.744 OA
ENDBRANCH  65  68
ENDBRANCH  47  61
BRANCH  48  72
ATOM     72  C   UNL A   1      42.105  26.477  27.629  1.00  0.00     0.023 A 
ATOM     73  C   UNL A   1      43.003  26.962  26.660  1.00  0.00     0.012 A 
ATOM     74  C   UNL A   1      41.655  25.145  27.548  1.00  0.00     0.148 A 
ATOM     75  C   UNL A   1      43.449  26.133  25.630  1.00  0.00     0.002 A 
ATOM     76  C   UNL A   1      42.146  24.309  26.553  1.00  0.00     0.091 A 
ATOM     77  F   UNL A   1      40.786  24.713  28.473  1.00  0.00    -0.205 F 
ATOM     78  C   UNL A   1      43.035  24.804  25.586  1.00  0.00     0.022 A 
BRANCH  76  79
ATOM     79  S   UNL A   1      41.778  22.552  26.505  1.00  0.00     0.127 S 
ATOM     80  O   UNL A   1      42.411  22.148  25.253  1.00  0.00    -0.237 OA
ATOM     81  O   UNL A   1      42.443  22.072  27.717  1.00  0.00    -0.237 OA
ATOM     82  O   UNL A   1      40.325  22.454  26.540  1.00  0.00    -0.744 OA
ENDBRANCH  76  79
ENDBRANCH  48  72
BRANCH  60  83
ATOM     83  C   UNL A   1      44.478  27.299  34.150  1.00  0.00     0.023 A 
ATOM     84  C   UNL A   1      45.709  27.982  34.113  1.00  0.00     0.012 A 
ATOM     85  C   UNL A   1      44.330  26.168  34.975  1.00  0.00     0.148 A 
ATOM     86  C   UNL A   1      46.782  27.542  34.885  1.00  0.00     0.002 A 
ATOM     87  C   UNL A   1      45.395  25.754  35.765  1.00  0.00     0.091 A 
ATOM     88  F   UNL A   1      43.150  25.533  34.982  1.00  0.00    -0.205 F 
ATOM     89  C   UNL A   1      46.623  26.437  35.718  1.00  0.00     0.022 A 
BRANCH  87  90
ATOM     90  S   UNL A   1      45.267  24.386  36.922  1.00  0.00     0.127 S 
ATOM     91  O   UNL A   1      44.175  24.829  37.787  1.00  0.00    -0.237 OA
ATOM     92  O   UNL A   1      44.932  23.267  36.041  1.00  0.00    -0.237 OA
ATOM     93  O   UNL A   1      46.569  24.281  37.568  1.00  0.00    -0.744 OA
ENDBRANCH  87  90
ENDBRANCH  60  83
ENDBRANCH  34  35
ENDBRANCH  26  29
ENDBRANCH   1  25
TORSDOF 14
ENDMDL
MODEL 3
REMARK VINA RESULT:     -13.2      1.298      2.028
REMARK SMILES C[C@@H]1Cc2ccccc2N1c1ccc(F)cc1C(=O)NCCCNC(=O)c1ccc(-c2c3nc(c(-c4cccc(S(=O)(=O)[O-])c4F)c4ccc([nH]4)c(-c4cccc(S(=O)(=O)[O-])c4F)c4nc(c(-c5cccc(S(=O)(=O)[O-])c5F)c5ccc2[nH]5)C=C4)C=C3)cc1
REMARK SMILES IDX 23 1 22 2 21 3 20 4 18 5 19 6 17 8 11 9 12 10 13 11 16 12
REMARK SMILES IDX 14 13 15 14 10 15 1 16 2 17 3 18 4 19 9 20 5 21 8 22 6 23
REMARK SMILES IDX 7 24 24 25 25 26 26 28 27 29 28 30 89 31 29 32 88 33 30 34
REMARK SMILES IDX 31 35 32 36 82 37 33 38 87 39 81 40 83 41 34 42 86 43 80 44
REMARK SMILES IDX 79 45 35 47 67 48 47 49 66 50 48 51 51 52 65 53 84 54 49 55
REMARK SMILES IDX 50 56 64 58 85 59 52 60 36 61 37 62 45 63 38 64 40 65 46 66
REMARK SMILES IDX 39 67 41 68 42 69 43 70 44 71 68 72 69 73 77 74 70 75 72 76
REMARK SMILES IDX 78 77 71 78 73 79 74 80 75 81 76 82 53 83 54 84 62 85 55 86
REMARK SMILES IDX 57 87 63 88 56 89 58 90 59 91 60 92 61 93
REMARK H PARENT 20 7 24 27 83 46 51 57
REMARK Flexibility Score: inf
ROOT
ATOM      1  C   UNL A   1      31.788  30.758  26.862  1.00  0.00     0.118 C 
ENDROOT
BRANCH   1   2
ATOM      2  C   UNL A   1      32.225  30.377  25.447  1.00  0.00     0.042 C 
BRANCH   2   3
ATOM      3  C   UNL A   1      33.337  29.338  25.425  1.00  0.00     0.118 C 
BRANCH   3   4
ATOM      4  N   UNL A   1      33.731  28.885  24.111  1.00  0.00    -0.352 N 
ATOM      5  C   UNL A   1      32.967  28.493  23.045  1.00  0.00     0.253 C 
ATOM      6  O   UNL A   1      33.555  28.328  21.971  1.00  0.00    -0.269 OA
ATOM      7  H   UNL A   1      34.704  28.854  23.957  1.00  0.00     0.163 HD
BRANCH   5   8
ATOM      8  C   UNL A   1      31.519  28.150  23.103  1.00  0.00     0.066 A 
ATOM      9  C   UNL A   1      30.891  27.102  23.815  1.00  0.00     0.054 A 
ATOM     10  C   UNL A   1      29.477  27.040  23.795  1.00  0.00     0.030 A 
ATOM     11  C   UNL A   1      28.707  27.959  23.082  1.00  0.00     0.041 A 
ATOM     12  C   UNL A   1      30.721  29.075  22.392  1.00  0.00     0.055 A 
ATOM     13  C   UNL A   1      29.340  28.967  22.379  1.00  0.00     0.124 A 
ATOM     14  F   UNL A   1      28.612  29.848  21.683  1.00  0.00    -0.207 F 
BRANCH   9  15
ATOM     15  N   UNL A   1      31.566  26.082  24.475  1.00  0.00    -0.337 N 
ATOM     16  C   UNL A   1      31.472  26.839  26.875  1.00  0.00     0.032 C 
ATOM     17  C   UNL A   1      31.328  25.689  25.887  1.00  0.00     0.089 C 
ATOM     18  C   UNL A   1      32.352  24.557  26.204  1.00  0.00     0.063 C 
ATOM     19  C   UNL A   1      32.707  24.073  24.836  1.00  0.00    -0.022 A 
ATOM     20  C   UNL A   1      32.191  24.951  23.881  1.00  0.00     0.045 A 
ATOM     21  C   UNL A   1      33.525  23.016  24.477  1.00  0.00     0.006 A 
ATOM     22  C   UNL A   1      32.439  24.745  22.532  1.00  0.00     0.026 A 
ATOM     23  C   UNL A   1      33.795  22.817  23.120  1.00  0.00     0.000 A 
ATOM     24  C   UNL A   1      33.244  23.669  22.152  1.00  0.00     0.002 A 
ENDBRANCH   9  15
ENDBRANCH   5   8
ENDBRANCH   3   4
ENDBRANCH   2   3
ENDBRANCH   1   2
BRANCH   1  25
ATOM     25  N   UNL A   1      31.933  32.172  27.202  1.00  0.00    -0.352 N 
ATOM     26  C   UNL A   1      32.978  32.938  27.667  1.00  0.00     0.251 C 
ATOM     27  H   UNL A   1      31.105  32.687  27.069  1.00  0.00     0.163 HD
ATOM     28  O   UNL A   1      32.764  34.127  27.908  1.00  0.00    -0.269 OA
BRANCH  26  29
ATOM     29  C   UNL A   1      34.313  32.361  27.966  1.00  0.00     0.039 A 
ATOM     30  C   UNL A   1      34.484  31.024  28.290  1.00  0.00     0.014 A 
ATOM     31  C   UNL A   1      35.439  33.195  27.946  1.00  0.00     0.014 A 
ATOM     32  C   UNL A   1      35.669  30.595  28.872  1.00  0.00     0.010 A 
ATOM     33  C   UNL A   1      36.682  32.717  28.388  1.00  0.00     0.010 A 
ATOM     34  C   UNL A   1      36.787  31.438  28.948  1.00  0.00    -0.014 A 
BRANCH  34  35
ATOM     35  C   UNL A   1      38.006  30.959  29.663  1.00  0.00     0.031 A 
ATOM     36  C   UNL A   1      38.249  31.319  31.111  1.00  0.00     0.074 A 
ATOM     37  C   UNL A   1      38.847  30.099  29.048  1.00  0.00     0.049 A 
ATOM     38  N   UNL A   1      39.226  30.940  31.896  1.00  0.00    -0.248 NA
ATOM     39  C   UNL A   1      37.288  32.226  31.764  1.00  0.00     0.031 C 
ATOM     40  C   UNL A   1      38.746  29.677  27.648  1.00  0.00     0.029 A 
ATOM     41  N   UNL A   1      39.919  29.385  29.527  1.00  0.00    -0.354 N 
ATOM     42  C   UNL A   1      39.036  31.611  33.099  1.00  0.00     0.074 A 
ATOM     43  C   UNL A   1      37.847  32.420  32.949  1.00  0.00     0.031 C 
ATOM     44  C   UNL A   1      39.642  28.709  27.412  1.00  0.00     0.029 A 
ATOM     45  C   UNL A   1      40.442  28.498  28.613  1.00  0.00     0.049 A 
ATOM     46  H   UNL A   1      40.279  29.498  30.436  1.00  0.00     0.167 HD
ATOM     47  C   UNL A   1      39.767  31.544  34.235  1.00  0.00     0.034 A 
ATOM     48  C   UNL A   1      41.453  27.613  28.719  1.00  0.00     0.034 A 
ATOM     49  C   UNL A   1      40.888  30.666  34.429  1.00  0.00     0.049 A 
ATOM     50  C   UNL A   1      42.213  27.517  30.007  1.00  0.00     0.074 A 
ATOM     51  C   UNL A   1      41.659  30.501  35.566  1.00  0.00     0.029 A 
ATOM     52  N   UNL A   1      41.384  29.792  33.477  1.00  0.00    -0.354 N 
ATOM     53  N   UNL A   1      41.988  28.139  31.139  1.00  0.00    -0.248 NA
ATOM     54  C   UNL A   1      43.366  26.607  30.035  1.00  0.00     0.031 C 
ATOM     55  C   UNL A   1      42.620  29.521  35.303  1.00  0.00     0.029 A 
ATOM     56  C   UNL A   1      42.446  29.079  34.002  1.00  0.00     0.049 A 
ATOM     57  H   UNL A   1      41.033  29.693  32.562  1.00  0.00     0.167 HD
ATOM     58  C   UNL A   1      42.974  27.701  32.012  1.00  0.00     0.074 A 
ATOM     59  C   UNL A   1      43.778  26.735  31.291  1.00  0.00     0.031 C 
ATOM     60  C   UNL A   1      43.209  28.091  33.288  1.00  0.00     0.034 A 
BRANCH  47  61
ATOM     61  C   UNL A   1      39.355  32.404  35.397  1.00  0.00     0.023 A 
ATOM     62  C   UNL A   1      38.567  31.848  36.424  1.00  0.00     0.012 A 
ATOM     63  C   UNL A   1      39.839  33.721  35.526  1.00  0.00     0.148 A 
ATOM     64  C   UNL A   1      38.260  32.593  37.562  1.00  0.00     0.002 A 
ATOM     65  C   UNL A   1      39.553  34.447  36.675  1.00  0.00     0.091 A 
ATOM     66  F   UNL A   1      40.575  34.229  34.529  1.00  0.00    -0.205 F 
ATOM     67  C   UNL A   1      38.762  33.886  37.692  1.00  0.00     0.022 A 
BRANCH  65  68
ATOM     68  S   UNL A   1      40.195  36.098  36.971  1.00  0.00     0.127 S 
ATOM     69  O   UNL A   1      41.626  35.836  37.122  1.00  0.00    -0.237 OA
ATOM     70  O   UNL A   1      39.829  36.795  35.739  1.00  0.00    -0.237 OA
ATOM     71  O   UNL A   1      39.526  36.583  38.171  1.00  0.00    -0.744 OA
ENDBRANCH  65  68
ENDBRANCH  47  61
BRANCH  48  72
ATOM     72  C   UNL A   1      41.770  26.728  27.565  1.00  0.00     0.023 A 
ATOM     73  C   UNL A   1      42.545  27.227  26.502  1.00  0.00     0.012 A 
ATOM     74  C   UNL A   1      41.383  25.374  27.561  1.00  0.00     0.148 A 
ATOM     75  C   UNL A   1      42.934  26.391  25.455  1.00  0.00     0.002 A 
ATOM     76  C   UNL A   1      41.820  24.534  26.544  1.00  0.00     0.091 A 
ATOM     77  F   UNL A   1      40.629  24.928  28.575  1.00  0.00    -0.205 F 
ATOM     78  C   UNL A   1      42.586  25.042  25.484  1.00  0.00     0.022 A 
BRANCH  76  79
ATOM     79  S   UNL A   1      41.539  22.761  26.576  1.00  0.00     0.127 S 
ATOM     80  O   UNL A   1      42.141  22.385  27.852  1.00  0.00    -0.237 OA
ATOM     81  O   UNL A   1      40.078  22.686  26.536  1.00  0.00    -0.237 OA
ATOM     82  O   UNL A   1      42.199  22.236  25.387  1.00  0.00    -0.744 OA
ENDBRANCH  76  79
ENDBRANCH  48  72
BRANCH  60  83
ATOM     83  C   UNL A   1      44.385  27.488  34.000  1.00  0.00     0.023 A 
ATOM     84  C   UNL A   1      45.620  28.164  33.973  1.00  0.00     0.012 A 
ATOM     85  C   UNL A   1      44.240  26.327  34.783  1.00  0.00     0.148 A 
ATOM     86  C   UNL A   1      46.700  27.689  34.714  1.00  0.00     0.002 A 
ATOM     87  C   UNL A   1      45.313  25.876  35.543  1.00  0.00     0.091 A 
ATOM     88  F   UNL A   1      43.056  25.699  34.781  1.00  0.00    -0.205 F 
ATOM     89  C   UNL A   1      46.544  26.554  35.505  1.00  0.00     0.022 A 
BRANCH  87  90
ATOM     90  S   UNL A   1      45.191  24.466  36.647  1.00  0.00     0.127 S 
ATOM     91  O   UNL A   1      46.558  24.366  37.155  1.00  0.00    -0.237 OA
ATOM     92  O   UNL A   1      44.207  24.926  37.628  1.00  0.00    -0.237 OA
ATOM     93  O   UNL A   1      44.750  23.347  35.825  1.00  0.00    -0.744 OA
ENDBRANCH  87  90
ENDBRANCH  60  83
ENDBRANCH  34  35
ENDBRANCH  26  29
ENDBRANCH   1  25
TORSDOF 14
ENDMDL
