MODEL 1
REMARK VINA RESULT:     -11.2      0.000      0.000
REMARK SMILES CN(CCc1cccs1)C(=O)N[C@@H]1COC[C@H]1C(=O)NCCCNC(=O)c1ccc(-c2c3nc(c(-c4cccc(S(=O)(=O)[O-])c4F)c4ccc([nH]4)c(-c4cccc(S(=O)(=O)[O-])c4F)c4nc(c(-c5cccc(S(=O)(=O)[O-])c5F)c5ccc2[nH]5)C=C4)C=C3)cc1
REMARK SMILES IDX 21 1 20 2 18 3 19 4 17 6 13 7 14 8 15 9 16 10 12 11 10 12
REMARK SMILES IDX 11 13 2 15 1 16 3 17 4 18 5 19 6 20 9 21 7 22 8 23 22 24
REMARK SMILES IDX 23 25 24 26 25 27 26 29 27 30 28 31 89 32 29 33 88 34 30 35
REMARK SMILES IDX 31 36 32 37 82 38 33 39 87 40 81 41 83 42 34 43 86 44 80 45
REMARK SMILES IDX 79 46 35 48 67 49 47 50 66 51 48 52 51 53 65 54 84 55 49 56
REMARK SMILES IDX 50 57 64 59 85 60 52 61 36 62 37 63 45 64 38 65 40 66 46 67
REMARK SMILES IDX 39 68 41 69 42 70 43 71 44 72 68 73 69 74 77 75 70 76 72 77
REMARK SMILES IDX 78 78 71 79 73 80 74 81 75 82 76 83 53 84 54 85 62 86 55 87
REMARK SMILES IDX 57 88 63 89 56 90 58 91 59 92 60 93 61 94
REMARK H PARENT 20 5 12 14 24 28 83 47 51 58
REMARK Flexibility Score: inf
ROOT
ATOM      1  C   UNL A   1      32.606  26.801  26.483  1.00  0.00     0.117 C 
ENDROOT
BRANCH   1   2
ATOM      2  N   UNL A   1      31.212  26.386  26.546  1.00  0.00    -0.356 N 
ATOM      3  C   UNL A   1      30.508  25.334  26.065  1.00  0.00     0.227 C 
ATOM      4  O   UNL A   1      29.325  25.277  26.426  1.00  0.00    -0.275 OA
ATOM      5  H   UNL A   1      30.652  27.015  27.057  1.00  0.00     0.163 HD
BRANCH   3   6
ATOM      6  C   UNL A   1      31.045  24.236  25.170  1.00  0.00     0.129 C 
ATOM      7  C   UNL A   1      32.115  24.610  24.153  1.00  0.00     0.124 C 
ATOM      8  C   UNL A   1      32.820  23.265  23.921  1.00  0.00     0.186 C 
ATOM      9  O   UNL A   1      32.404  22.340  24.939  1.00  0.00    -0.378 OA
ATOM     10  C   UNL A   1      31.634  23.060  25.905  1.00  0.00     0.176 C 
BRANCH   7  11
ATOM     11  N   UNL A   1      31.540  25.145  22.915  1.00  0.00    -0.332 N 
ATOM     12  C   UNL A   1      31.498  26.357  22.324  1.00  0.00     0.317 C 
ATOM     13  O   UNL A   1      31.233  26.337  21.116  1.00  0.00    -0.249 OA
ATOM     14  H   UNL A   1      31.074  24.456  22.390  1.00  0.00     0.165 HD
BRANCH  12  15
ATOM     15  N   UNL A   1      31.756  27.524  22.995  1.00  0.00    -0.328 N 
ATOM     16  C   UNL A   1      33.084  28.106  22.821  1.00  0.00     0.148 C 
BRANCH  15  17
ATOM     17  C   UNL A   1      30.773  28.423  23.604  1.00  0.00     0.126 C 
BRANCH  17  18
ATOM     18  C   UNL A   1      29.466  28.652  22.820  1.00  0.00     0.068 C 
BRANCH  18  19
ATOM     19  C   UNL A   1      29.010  30.080  22.711  1.00  0.00     0.006 A 
ATOM     20  C   UNL A   1      29.057  31.059  23.684  1.00  0.00     0.015 A 
ATOM     21  S   UNL A   1      28.276  30.678  21.292  1.00  0.00    -0.149 S 
ATOM     22  C   UNL A   1      28.594  32.322  23.213  1.00  0.00     0.012 A 
ATOM     23  C   UNL A   1      28.175  32.263  21.906  1.00  0.00     0.065 A 
ENDBRANCH  18  19
ENDBRANCH  17  18
ENDBRANCH  15  17
ENDBRANCH  12  15
ENDBRANCH   7  11
ENDBRANCH   3   6
ENDBRANCH   1   2
BRANCH   1  24
ATOM     24  C   UNL A   1      32.906  28.189  27.075  1.00  0.00     0.042 C 
BRANCH  24  25
ATOM     25  C   UNL A   1      33.924  29.072  26.344  1.00  0.00     0.118 C 
BRANCH  25  26
ATOM     26  N   UNL A   1      33.861  30.457  26.784  1.00  0.00    -0.352 N 
ATOM     27  C   UNL A   1      34.613  31.101  27.739  1.00  0.00     0.251 C 
ATOM     28  H   UNL A   1      33.184  31.011  26.333  1.00  0.00     0.163 HD
ATOM     29  O   UNL A   1      34.228  32.187  28.168  1.00  0.00    -0.269 OA
BRANCH  27  30
ATOM     30  C   UNL A   1      35.871  30.512  28.264  1.00  0.00     0.039 A 
ATOM     31  C   UNL A   1      37.043  30.646  27.511  1.00  0.00     0.014 A 
ATOM     32  C   UNL A   1      35.892  29.756  29.441  1.00  0.00     0.014 A 
ATOM     33  C   UNL A   1      38.237  30.065  27.957  1.00  0.00     0.010 A 
ATOM     34  C   UNL A   1      37.096  29.208  29.903  1.00  0.00     0.010 A 
ATOM     35  C   UNL A   1      38.283  29.355  29.167  1.00  0.00    -0.014 A 
BRANCH  35  36
ATOM     36  C   UNL A   1      39.571  28.812  29.691  1.00  0.00     0.031 A 
ATOM     37  C   UNL A   1      40.315  29.502  30.805  1.00  0.00     0.074 A 
ATOM     38  C   UNL A   1      40.116  27.726  29.105  1.00  0.00     0.049 A 
ATOM     39  N   UNL A   1      41.464  29.183  31.350  1.00  0.00    -0.248 NA
ATOM     40  C   UNL A   1      39.701  30.711  31.377  1.00  0.00     0.031 C 
ATOM     41  C   UNL A   1      39.538  27.001  27.972  1.00  0.00     0.029 A 
ATOM     42  N   UNL A   1      41.293  27.062  29.357  1.00  0.00    -0.354 N 
ATOM     43  C   UNL A   1      41.729  30.165  32.297  1.00  0.00     0.074 A 
ATOM     44  C   UNL A   1      40.624  31.099  32.250  1.00  0.00     0.031 C 
ATOM     45  C   UNL A   1      40.367  26.007  27.616  1.00  0.00     0.029 A 
ATOM     46  C   UNL A   1      41.549  26.038  28.472  1.00  0.00     0.049 A 
ATOM     47  H   UNL A   1      41.897  27.296  30.098  1.00  0.00     0.167 HD
ATOM     48  C   UNL A   1      42.784  30.271  33.141  1.00  0.00     0.034 A 
ATOM     49  C   UNL A   1      42.619  25.227  28.345  1.00  0.00     0.034 A 
ATOM     50  C   UNL A   1      43.862  29.319  33.224  1.00  0.00     0.049 A 
ATOM     51  C   UNL A   1      43.764  25.355  29.315  1.00  0.00     0.074 A 
ATOM     52  C   UNL A   1      44.910  29.286  34.130  1.00  0.00     0.029 A 
ATOM     53  N   UNL A   1      44.048  28.251  32.362  1.00  0.00    -0.354 N 
ATOM     54  N   UNL A   1      43.896  26.173  30.331  1.00  0.00    -0.248 NA
ATOM     55  C   UNL A   1      44.893  24.428  29.143  1.00  0.00     0.031 C 
ATOM     56  C   UNL A   1      45.746  28.215  33.796  1.00  0.00     0.029 A 
ATOM     57  C   UNL A   1      45.206  27.568  32.697  1.00  0.00     0.049 A 
ATOM     58  H   UNL A   1      43.446  28.011  31.621  1.00  0.00     0.167 HD
ATOM     59  C   UNL A   1      45.107  25.844  30.930  1.00  0.00     0.074 A 
ATOM     60  C   UNL A   1      45.653  24.729  30.186  1.00  0.00     0.031 C 
ATOM     61  C   UNL A   1      45.724  26.429  31.986  1.00  0.00     0.034 A 
BRANCH  48  62
ATOM     62  C   UNL A   1      42.822  31.434  34.099  1.00  0.00     0.023 A 
ATOM     63  C   UNL A   1      43.434  32.639  33.702  1.00  0.00     0.012 A 
ATOM     64  C   UNL A   1      42.145  31.375  35.334  1.00  0.00     0.148 A 
ATOM     65  C   UNL A   1      43.386  33.765  34.525  1.00  0.00     0.002 A 
ATOM     66  C   UNL A   1      42.068  32.512  36.131  1.00  0.00     0.091 A 
ATOM     67  F   UNL A   1      41.579  30.216  35.697  1.00  0.00    -0.205 F 
ATOM     68  C   UNL A   1      42.693  33.704  35.731  1.00  0.00     0.022 A 
BRANCH  66  69
ATOM     69  S   UNL A   1      41.134  32.565  37.665  1.00  0.00     0.127 S 
ATOM     70  O   UNL A   1      41.923  31.680  38.522  1.00  0.00    -0.237 OA
ATOM     71  O   UNL A   1      41.208  33.983  38.020  1.00  0.00    -0.237 OA
ATOM     72  O   UNL A   1      39.797  32.085  37.342  1.00  0.00    -0.744 OA
ENDBRANCH  66  69
ENDBRANCH  48  62
BRANCH  49  73
ATOM     73  C   UNL A   1      42.651  24.192  27.271  1.00  0.00     0.023 A 
ATOM     74  C   UNL A   1      43.319  24.465  26.062  1.00  0.00     0.012 A 
ATOM     75  C   UNL A   1      42.031  22.938  27.442  1.00  0.00     0.148 A 
ATOM     76  C   UNL A   1      43.335  23.527  25.030  1.00  0.00     0.002 A 
ATOM     77  C   UNL A   1      42.104  21.984  26.434  1.00  0.00     0.091 A 
ATOM     78  F   UNL A   1      41.381  22.699  28.590  1.00  0.00    -0.205 F 
ATOM     79  C   UNL A   1      42.737  22.284  25.219  1.00  0.00     0.022 A 
BRANCH  77  80
ATOM     80  S   UNL A   1      41.493  20.311  26.664  1.00  0.00     0.127 S 
ATOM     81  O   UNL A   1      41.885  19.672  25.409  1.00  0.00    -0.237 OA
ATOM     82  O   UNL A   1      42.245  19.866  27.840  1.00  0.00    -0.237 OA
ATOM     83  O   UNL A   1      40.064  20.446  26.896  1.00  0.00    -0.744 OA
ENDBRANCH  77  80
ENDBRANCH  49  73
BRANCH  61  84
ATOM     84  C   UNL A   1      47.056  25.872  32.419  1.00  0.00     0.023 A 
ATOM     85  C   UNL A   1      48.236  26.347  31.813  1.00  0.00     0.012 A 
ATOM     86  C   UNL A   1      47.147  24.934  33.466  1.00  0.00     0.148 A 
ATOM     87  C   UNL A   1      49.484  25.874  32.220  1.00  0.00     0.002 A 
ATOM     88  C   UNL A   1      48.395  24.503  33.900  1.00  0.00     0.091 A 
ATOM     89  F   UNL A   1      46.012  24.482  34.020  1.00  0.00    -0.205 F 
ATOM     90  C   UNL A   1      49.564  24.963  33.270  1.00  0.00     0.022 A 
BRANCH  88  91
ATOM     91  S   UNL A   1      48.605  23.400  35.302  1.00  0.00     0.127 S 
ATOM     92  O   UNL A   1      50.059  23.261  35.359  1.00  0.00    -0.237 OA
ATOM     93  O   UNL A   1      48.023  24.175  36.398  1.00  0.00    -0.237 OA
ATOM     94  O   UNL A   1      47.875  22.184  34.967  1.00  0.00    -0.744 OA
ENDBRANCH  88  91
ENDBRANCH  61  84
ENDBRANCH  35  36
ENDBRANCH  27  30
ENDBRANCH  25  26
ENDBRANCH  24  25
ENDBRANCH   1  24
TORSDOF 18
ENDMDL
MODEL 2
REMARK VINA RESULT:     -11.0      5.302      8.360
REMARK SMILES CN(CCc1cccs1)C(=O)N[C@@H]1COC[C@H]1C(=O)NCCCNC(=O)c1ccc(-c2c3nc(c(-c4cccc(S(=O)(=O)[O-])c4F)c4ccc([nH]4)c(-c4cccc(S(=O)(=O)[O-])c4F)c4nc(c(-c5cccc(S(=O)(=O)[O-])c5F)c5ccc2[nH]5)C=C4)C=C3)cc1
REMARK SMILES IDX 21 1 20 2 18 3 19 4 17 6 13 7 14 8 15 9 16 10 12 11 10 12
REMARK SMILES IDX 11 13 2 15 1 16 3 17 4 18 5 19 6 20 9 21 7 22 8 23 22 24
REMARK SMILES IDX 23 25 24 26 25 27 26 29 27 30 28 31 89 32 29 33 88 34 30 35
REMARK SMILES IDX 31 36 32 37 82 38 33 39 87 40 81 41 83 42 34 43 86 44 80 45
REMARK SMILES IDX 79 46 35 48 67 49 47 50 66 51 48 52 51 53 65 54 84 55 49 56
REMARK SMILES IDX 50 57 64 59 85 60 52 61 36 62 37 63 45 64 38 65 40 66 46 67
REMARK SMILES IDX 39 68 41 69 42 70 43 71 44 72 68 73 69 74 77 75 70 76 72 77
REMARK SMILES IDX 78 78 71 79 73 80 74 81 75 82 76 83 53 84 54 85 62 86 55 87
REMARK SMILES IDX 57 88 63 89 56 90 58 91 59 92 60 93 61 94
REMARK H PARENT 20 5 12 14 24 28 83 47 51 58
REMARK Flexibility Score: inf
ROOT
ATOM      1  C   UNL A   1      36.024  20.373  25.152  1.00  0.00     0.117 C 
ENDROOT
BRANCH   1   2
ATOM      2  N   UNL A   1      34.780  19.653  24.920  1.00  0.00    -0.356 N 
ATOM      3  C   UNL A   1      33.495  20.017  24.698  1.00  0.00     0.227 C 
ATOM      4  O   UNL A   1      32.717  19.090  24.438  1.00  0.00    -0.275 OA
ATOM      5  H   UNL A   1      34.901  18.676  24.926  1.00  0.00     0.163 HD
BRANCH   3   6
ATOM      6  C   UNL A   1      32.955  21.432  24.714  1.00  0.00     0.129 C 
ATOM      7  C   UNL A   1      32.736  22.123  23.375  1.00  0.00     0.124 C 
ATOM      8  C   UNL A   1      31.666  23.168  23.724  1.00  0.00     0.186 C 
ATOM      9  O   UNL A   1      31.122  22.862  25.018  1.00  0.00    -0.378 OA
ATOM     10  C   UNL A   1      31.637  21.593  25.428  1.00  0.00     0.176 C 
BRANCH   7  11
ATOM     11  N   UNL A   1      33.962  22.746  22.866  1.00  0.00    -0.332 N 
ATOM     12  C   UNL A   1      34.947  23.497  23.398  1.00  0.00     0.317 C 
ATOM     13  O   UNL A   1      35.991  23.530  22.736  1.00  0.00    -0.249 OA
ATOM     14  H   UNL A   1      34.098  22.576  21.906  1.00  0.00     0.165 HD
BRANCH  12  15
ATOM     15  N   UNL A   1      34.821  24.154  24.595  1.00  0.00    -0.328 N 
ATOM     16  C   UNL A   1      35.904  23.983  25.560  1.00  0.00     0.148 C 
BRANCH  15  17
ATOM     17  C   UNL A   1      33.902  25.252  24.902  1.00  0.00     0.126 C 
BRANCH  17  18
ATOM     18  C   UNL A   1      33.710  26.321  23.807  1.00  0.00     0.068 C 
BRANCH  18  19
ATOM     19  C   UNL A   1      32.860  27.501  24.185  1.00  0.00     0.006 A 
ATOM     20  C   UNL A   1      31.544  27.739  23.842  1.00  0.00     0.015 A 
ATOM     21  S   UNL A   1      33.487  28.799  25.096  1.00  0.00    -0.149 S 
ATOM     22  C   UNL A   1      31.031  28.933  24.428  1.00  0.00     0.012 A 
ATOM     23  C   UNL A   1      31.980  29.588  25.174  1.00  0.00     0.065 A 
ENDBRANCH  18  19
ENDBRANCH  17  18
ENDBRANCH  15  17
ENDBRANCH  12  15
ENDBRANCH   7  11
ENDBRANCH   3   6
ENDBRANCH   1   2
BRANCH   1  24
ATOM     24  C   UNL A   1      37.306  19.537  24.991  1.00  0.00     0.042 C 
BRANCH  24  25
ATOM     25  C   UNL A   1      38.649  20.239  25.228  1.00  0.00     0.118 C 
BRANCH  25  26
ATOM     26  N   UNL A   1      39.647  19.334  25.777  1.00  0.00    -0.352 N 
ATOM     27  C   UNL A   1      40.913  19.612  26.239  1.00  0.00     0.251 C 
ATOM     28  H   UNL A   1      39.377  18.388  25.826  1.00  0.00     0.163 HD
ATOM     29  O   UNL A   1      41.706  18.686  26.400  1.00  0.00    -0.269 OA
BRANCH  27  30
ATOM     30  C   UNL A   1      41.342  21.002  26.540  1.00  0.00     0.039 A 
ATOM     31  C   UNL A   1      41.410  21.411  27.876  1.00  0.00     0.014 A 
ATOM     32  C   UNL A   1      41.591  21.929  25.523  1.00  0.00     0.014 A 
ATOM     33  C   UNL A   1      41.769  22.728  28.193  1.00  0.00     0.010 A 
ATOM     34  C   UNL A   1      41.986  23.235  25.843  1.00  0.00     0.010 A 
ATOM     35  C   UNL A   1      42.080  23.651  27.181  1.00  0.00    -0.014 A 
BRANCH  35  36
ATOM     36  C   UNL A   1      42.549  25.027  27.516  1.00  0.00     0.031 A 
ATOM     37  C   UNL A   1      41.623  26.039  28.141  1.00  0.00     0.074 A 
ATOM     38  C   UNL A   1      43.803  25.396  27.184  1.00  0.00     0.049 A 
ATOM     39  N   UNL A   1      41.860  27.288  28.459  1.00  0.00    -0.248 NA
ATOM     40  C   UNL A   1      40.250  25.600  28.439  1.00  0.00     0.031 C 
ATOM     41  C   UNL A   1      44.783  24.540  26.512  1.00  0.00     0.029 A 
ATOM     42  N   UNL A   1      44.459  26.595  27.334  1.00  0.00    -0.354 N 
ATOM     43  C   UNL A   1      40.665  27.794  28.958  1.00  0.00     0.074 A 
ATOM     44  C   UNL A   1      39.698  26.719  28.893  1.00  0.00     0.031 C 
ATOM     45  C   UNL A   1      45.905  25.244  26.292  1.00  0.00     0.029 A 
ATOM     46  C   UNL A   1      45.720  26.608  26.780  1.00  0.00     0.049 A 
ATOM     47  H   UNL A   1      44.066  27.372  27.793  1.00  0.00     0.167 HD
ATOM     48  C   UNL A   1      40.402  29.033  29.440  1.00  0.00     0.034 A 
ATOM     49  C   UNL A   1      46.619  27.604  26.654  1.00  0.00     0.034 A 
ATOM     50  C   UNL A   1      41.373  30.091  29.549  1.00  0.00     0.049 A 
ATOM     51  C   UNL A   1      46.304  28.962  27.223  1.00  0.00     0.074 A 
ATOM     52  C   UNL A   1      41.222  31.337  30.135  1.00  0.00     0.029 A 
ATOM     53  N   UNL A   1      42.662  30.041  29.047  1.00  0.00    -0.354 N 
ATOM     54  N   UNL A   1      45.233  29.358  27.868  1.00  0.00    -0.248 NA
ATOM     55  C   UNL A   1      47.333  30.003  27.078  1.00  0.00     0.031 C 
ATOM     56  C   UNL A   1      42.410  32.053  29.958  1.00  0.00     0.029 A 
ATOM     57  C   UNL A   1      43.310  31.244  29.284  1.00  0.00     0.049 A 
ATOM     58  H   UNL A   1      43.062  29.267  28.589  1.00  0.00     0.167 HD
ATOM     59  C   UNL A   1      45.470  30.681  28.224  1.00  0.00     0.074 A 
ATOM     60  C   UNL A   1      46.799  31.010  27.756  1.00  0.00     0.031 C 
ATOM     61  C   UNL A   1      44.650  31.553  28.860  1.00  0.00     0.034 A 
BRANCH  48  62
ATOM     62  C   UNL A   1      39.012  29.323  29.948  1.00  0.00     0.023 A 
ATOM     63  C   UNL A   1      38.670  28.975  31.270  1.00  0.00     0.012 A 
ATOM     64  C   UNL A   1      38.094  30.050  29.164  1.00  0.00     0.148 A 
ATOM     65  C   UNL A   1      37.430  29.332  31.799  1.00  0.00     0.002 A 
ATOM     66  C   UNL A   1      36.875  30.435  29.711  1.00  0.00     0.091 A 
ATOM     67  F   UNL A   1      38.435  30.361  27.905  1.00  0.00    -0.205 F 
ATOM     68  C   UNL A   1      36.540  30.071  31.025  1.00  0.00     0.022 A 
BRANCH  66  69
ATOM     69  S   UNL A   1      35.689  31.457  28.828  1.00  0.00     0.127 S 
ATOM     70  O   UNL A   1      36.542  32.539  28.334  1.00  0.00    -0.237 OA
ATOM     71  O   UNL A   1      35.205  30.542  27.795  1.00  0.00    -0.237 OA
ATOM     72  O   UNL A   1      34.690  31.855  29.810  1.00  0.00    -0.744 OA
ENDBRANCH  66  69
ENDBRANCH  48  62
BRANCH  49  73
ATOM     73  C   UNL A   1      47.928  27.352  25.983  1.00  0.00     0.023 A 
ATOM     74  C   UNL A   1      49.037  26.951  26.751  1.00  0.00     0.012 A 
ATOM     75  C   UNL A   1      48.078  27.501  24.590  1.00  0.00     0.148 A 
ATOM     76  C   UNL A   1      50.280  26.742  26.153  1.00  0.00     0.002 A 
ATOM     77  C   UNL A   1      49.303  27.229  23.991  1.00  0.00     0.091 A 
ATOM     78  F   UNL A   1      47.018  27.903  23.873  1.00  0.00    -0.205 F 
ATOM     79  C   UNL A   1      50.410  26.871  24.773  1.00  0.00     0.022 A 
BRANCH  77  80
ATOM     80  S   UNL A   1      49.506  27.224  22.206  1.00  0.00     0.127 S 
ATOM     81  O   UNL A   1      49.141  28.596  21.858  1.00  0.00    -0.237 OA
ATOM     82  O   UNL A   1      50.929  26.912  22.057  1.00  0.00    -0.237 OA
ATOM     83  O   UNL A   1      48.620  26.181  21.715  1.00  0.00    -0.744 OA
ENDBRANCH  77  80
ENDBRANCH  49  73
BRANCH  61  84
ATOM     84  C   UNL A   1      45.162  32.950  29.104  1.00  0.00     0.023 A 
ATOM     85  C   UNL A   1      45.854  33.236  30.298  1.00  0.00     0.012 A 
ATOM     86  C   UNL A   1      45.023  33.956  28.129  1.00  0.00     0.148 A 
ATOM     87  C   UNL A   1      46.370  34.510  30.533  1.00  0.00     0.002 A 
ATOM     88  C   UNL A   1      45.581  35.211  28.348  1.00  0.00     0.091 A 
ATOM     89  F   UNL A   1      44.347  33.670  27.006  1.00  0.00    -0.205 F 
ATOM     90  C   UNL A   1      46.244  35.493  29.554  1.00  0.00     0.022 A 
BRANCH  88  91
ATOM     91  S   UNL A   1      45.548  36.514  27.112  1.00  0.00     0.127 S 
ATOM     92  O   UNL A   1      46.125  35.838  25.950  1.00  0.00    -0.237 OA
ATOM     93  O   UNL A   1      44.118  36.802  27.001  1.00  0.00    -0.237 OA
ATOM     94  O   UNL A   1      46.345  37.605  27.657  1.00  0.00    -0.744 OA
ENDBRANCH  88  91
ENDBRANCH  61  84
ENDBRANCH  35  36
ENDBRANCH  27  30
ENDBRANCH  25  26
ENDBRANCH  24  25
ENDBRANCH   1  24
TORSDOF 18
ENDMDL
MODEL 3
REMARK VINA RESULT:     -10.8      2.761      8.276
REMARK SMILES CN(CCc1cccs1)C(=O)N[C@@H]1COC[C@H]1C(=O)NCCCNC(=O)c1ccc(-c2c3nc(c(-c4cccc(S(=O)(=O)[O-])c4F)c4ccc([nH]4)c(-c4cccc(S(=O)(=O)[O-])c4F)c4nc(c(-c5cccc(S(=O)(=O)[O-])c5F)c5ccc2[nH]5)C=C4)C=C3)cc1
REMARK SMILES IDX 21 1 20 2 18 3 19 4 17 6 13 7 14 8 15 9 16 10 12 11 10 12
REMARK SMILES IDX 11 13 2 15 1 16 3 17 4 18 5 19 6 20 9 21 7 22 8 23 22 24
REMARK SMILES IDX 23 25 24 26 25 27 26 29 27 30 28 31 89 32 29 33 88 34 30 35
REMARK SMILES IDX 31 36 32 37 82 38 33 39 87 40 81 41 83 42 34 43 86 44 80 45
REMARK SMILES IDX 79 46 35 48 67 49 47 50 66 51 48 52 51 53 65 54 84 55 49 56
REMARK SMILES IDX 50 57 64 59 85 60 52 61 36 62 37 63 45 64 38 65 40 66 46 67
REMARK SMILES IDX 39 68 41 69 42 70 43 71 44 72 68 73 69 74 77 75 70 76 72 77
REMARK SMILES IDX 78 78 71 79 73 80 74 81 75 82 76 83 53 84 54 85 62 86 55 87
REMARK SMILES IDX 57 88 63 89 56 90 58 91 59 92 60 93 61 94
REMARK H PARENT 20 5 12 14 24 28 83 47 51 58
REMARK Flexibility Score: inf
ROOT
ATOM      1  C   UNL A   1      31.298  30.428  25.291  1.00  0.00     0.117 C 
ENDROOT
BRANCH   1   2
ATOM      2  N   UNL A   1      32.664  29.927  25.365  1.00  0.00    -0.356 N 
ATOM      3  C   UNL A   1      33.227  28.696  25.402  1.00  0.00     0.227 C 
ATOM      4  O   UNL A   1      34.465  28.676  25.359  1.00  0.00    -0.275 OA
ATOM      5  H   UNL A   1      33.332  30.650  25.395  1.00  0.00     0.163 HD
BRANCH   3   6
ATOM      6  C   UNL A   1      32.484  27.378  25.458  1.00  0.00     0.129 C 
ATOM      7  C   UNL A   1      33.307  26.098  25.445  1.00  0.00     0.124 C 
ATOM      8  C   UNL A   1      32.358  25.098  26.122  1.00  0.00     0.186 C 
ATOM      9  O   UNL A   1      31.278  25.822  26.734  1.00  0.00    -0.378 OA
ATOM     10  C   UNL A   1      31.580  27.218  26.653  1.00  0.00     0.176 C 
BRANCH   7  11
ATOM     11  N   UNL A   1      33.661  25.679  24.085  1.00  0.00    -0.332 N 
ATOM     12  C   UNL A   1      32.970  25.333  22.979  1.00  0.00     0.317 C 
ATOM     13  O   UNL A   1      33.613  25.391  21.925  1.00  0.00    -0.249 OA
ATOM     14  H   UNL A   1      34.634  25.642  23.945  1.00  0.00     0.165 HD
BRANCH  12  15
ATOM     15  N   UNL A   1      31.648  24.971  23.008  1.00  0.00    -0.328 N 
ATOM     16  C   UNL A   1      31.337  23.651  23.551  1.00  0.00     0.148 C 
BRANCH  15  17
ATOM     17  C   UNL A   1      30.491  25.857  22.863  1.00  0.00     0.126 C 
BRANCH  17  18
ATOM     18  C   UNL A   1      30.784  27.368  22.765  1.00  0.00     0.068 C 
BRANCH  18  19
ATOM     19  C   UNL A   1      29.581  28.268  22.737  1.00  0.00     0.006 A 
ATOM     20  C   UNL A   1      28.327  28.019  23.261  1.00  0.00     0.015 A 
ATOM     21  S   UNL A   1      29.612  29.779  21.947  1.00  0.00    -0.149 S 
ATOM     22  C   UNL A   1      27.440  29.124  23.107  1.00  0.00     0.012 A 
ATOM     23  C   UNL A   1      28.030  30.169  22.440  1.00  0.00     0.065 A 
ENDBRANCH  18  19
ENDBRANCH  17  18
ENDBRANCH  15  17
ENDBRANCH  12  15
ENDBRANCH   7  11
ENDBRANCH   3   6
ENDBRANCH   1   2
BRANCH   1  24
ATOM     24  C   UNL A   1      31.036  31.736  26.057  1.00  0.00     0.042 C 
BRANCH  24  25
ATOM     25  C   UNL A   1      32.042  32.140  27.142  1.00  0.00     0.118 C 
BRANCH  25  26
ATOM     26  N   UNL A   1      32.151  33.584  27.273  1.00  0.00    -0.352 N 
ATOM     27  C   UNL A   1      32.996  34.324  28.068  1.00  0.00     0.251 C 
ATOM     28  H   UNL A   1      31.534  34.106  26.712  1.00  0.00     0.163 HD
ATOM     29  O   UNL A   1      32.752  35.515  28.253  1.00  0.00    -0.269 OA
BRANCH  27  30
ATOM     30  C   UNL A   1      34.189  33.715  28.711  1.00  0.00     0.039 A 
ATOM     31  C   UNL A   1      33.999  32.746  29.701  1.00  0.00     0.014 A 
ATOM     32  C   UNL A   1      35.485  34.151  28.414  1.00  0.00     0.014 A 
ATOM     33  C   UNL A   1      35.102  32.184  30.358  1.00  0.00     0.010 A 
ATOM     34  C   UNL A   1      36.588  33.560  29.045  1.00  0.00     0.010 A 
ATOM     35  C   UNL A   1      36.410  32.569  30.025  1.00  0.00    -0.014 A 
BRANCH  35  36
ATOM     36  C   UNL A   1      37.590  31.910  30.657  1.00  0.00     0.031 A 
ATOM     37  C   UNL A   1      38.365  30.837  29.936  1.00  0.00     0.074 A 
ATOM     38  C   UNL A   1      37.923  32.226  31.926  1.00  0.00     0.049 A 
ATOM     39  N   UNL A   1      39.390  30.137  30.357  1.00  0.00    -0.248 NA
ATOM     40  C   UNL A   1      37.931  30.495  28.573  1.00  0.00     0.031 C 
ATOM     41  C   UNL A   1      37.215  33.195  32.765  1.00  0.00     0.029 A 
ATOM     42  N   UNL A   1      38.916  31.742  32.744  1.00  0.00    -0.354 N 
ATOM     43  C   UNL A   1      39.701  29.250  29.332  1.00  0.00     0.074 A 
ATOM     44  C   UNL A   1      38.750  29.494  28.268  1.00  0.00     0.031 C 
ATOM     45  C   UNL A   1      37.785  33.223  33.981  1.00  0.00     0.029 A 
ATOM     46  C   UNL A   1      38.877  32.255  34.021  1.00  0.00     0.049 A 
ATOM     47  H   UNL A   1      39.591  31.091  32.446  1.00  0.00     0.167 HD
ATOM     48  C   UNL A   1      40.695  28.332  29.274  1.00  0.00     0.034 A 
ATOM     49  C   UNL A   1      39.618  31.969  35.111  1.00  0.00     0.034 A 
ATOM     50  C   UNL A   1      41.672  28.118  30.310  1.00  0.00     0.049 A 
ATOM     51  C   UNL A   1      40.731  30.960  35.005  1.00  0.00     0.074 A 
ATOM     52  C   UNL A   1      42.784  27.292  30.285  1.00  0.00     0.029 A 
ATOM     53  N   UNL A   1      41.647  28.712  31.562  1.00  0.00    -0.354 N 
ATOM     54  N   UNL A   1      41.128  30.277  33.959  1.00  0.00    -0.248 NA
ATOM     55  C   UNL A   1      41.521  30.707  36.220  1.00  0.00     0.031 C 
ATOM     56  C   UNL A   1      43.412  27.363  31.533  1.00  0.00     0.029 A 
ATOM     57  C   UNL A   1      42.706  28.251  32.326  1.00  0.00     0.049 A 
ATOM     58  H   UNL A   1      40.975  29.366  31.864  1.00  0.00     0.167 HD
ATOM     59  C   UNL A   1      42.224  29.534  34.383  1.00  0.00     0.074 A 
ATOM     60  C   UNL A   1      42.452  29.876  35.770  1.00  0.00     0.031 C 
ATOM     61  C   UNL A   1      42.960  28.629  33.692  1.00  0.00     0.034 A 
BRANCH  48  62
ATOM     62  C   UNL A   1      40.831  27.501  28.023  1.00  0.00     0.023 A 
ATOM     63  C   UNL A   1      41.410  28.072  26.871  1.00  0.00     0.012 A 
ATOM     64  C   UNL A   1      40.507  26.130  28.027  1.00  0.00     0.148 A 
ATOM     65  C   UNL A   1      41.649  27.295  25.738  1.00  0.00     0.002 A 
ATOM     66  C   UNL A   1      40.783  25.354  26.907  1.00  0.00     0.091 A 
ATOM     67  F   UNL A   1      39.947  25.610  29.128  1.00  0.00    -0.205 F 
ATOM     68  C   UNL A   1      41.347  25.937  25.761  1.00  0.00     0.022 A 
BRANCH  66  69
ATOM     69  S   UNL A   1      40.508  23.579  26.859  1.00  0.00     0.127 S 
ATOM     70  O   UNL A   1      41.447  23.164  25.816  1.00  0.00    -0.237 OA
ATOM     71  O   UNL A   1      40.883  23.173  28.214  1.00  0.00    -0.237 OA
ATOM     72  O   UNL A   1      39.101  23.397  26.533  1.00  0.00    -0.744 OA
ENDBRANCH  66  69
ENDBRANCH  48  62
BRANCH  49  73
ATOM     73  C   UNL A   1      39.354  32.669  36.401  1.00  0.00     0.023 A 
ATOM     74  C   UNL A   1      39.955  33.918  36.651  1.00  0.00     0.012 A 
ATOM     75  C   UNL A   1      38.507  32.110  37.379  1.00  0.00     0.148 A 
ATOM     76  C   UNL A   1      39.751  34.577  37.864  1.00  0.00     0.002 A 
ATOM     77  C   UNL A   1      38.258  32.802  38.559  1.00  0.00     0.091 A 
ATOM     78  F   UNL A   1      37.958  30.911  37.138  1.00  0.00    -0.205 F 
ATOM     79  C   UNL A   1      38.896  34.025  38.813  1.00  0.00     0.022 A 
BRANCH  77  80
ATOM     80  S   UNL A   1      37.050  32.227  39.759  1.00  0.00     0.127 S 
ATOM     81  O   UNL A   1      37.242  33.174  40.855  1.00  0.00    -0.237 OA
ATOM     82  O   UNL A   1      35.790  32.382  39.027  1.00  0.00    -0.237 OA
ATOM     83  O   UNL A   1      37.404  30.844  40.037  1.00  0.00    -0.744 OA
ENDBRANCH  77  80
ENDBRANCH  49  73
BRANCH  61  84
ATOM     84  C   UNL A   1      44.095  27.949  34.413  1.00  0.00     0.023 A 
ATOM     85  C   UNL A   1      45.351  28.583  34.485  1.00  0.00     0.012 A 
ATOM     86  C   UNL A   1      43.903  26.721  35.076  1.00  0.00     0.148 A 
ATOM     87  C   UNL A   1      46.407  27.991  35.177  1.00  0.00     0.002 A 
ATOM     88  C   UNL A   1      44.946  26.159  35.804  1.00  0.00     0.091 A 
ATOM     89  F   UNL A   1      42.706  26.124  34.982  1.00  0.00    -0.205 F 
ATOM     90  C   UNL A   1      46.202  26.787  35.846  1.00  0.00     0.022 A 
BRANCH  88  91
ATOM     91  S   UNL A   1      44.752  24.657  36.771  1.00  0.00     0.127 S 
ATOM     92  O   UNL A   1      46.087  24.498  37.346  1.00  0.00    -0.237 OA
ATOM     93  O   UNL A   1      43.715  25.036  37.731  1.00  0.00    -0.237 OA
ATOM     94  O   UNL A   1      44.353  23.622  35.827  1.00  0.00    -0.744 OA
ENDBRANCH  88  91
ENDBRANCH  61  84
ENDBRANCH  35  36
ENDBRANCH  27  30
ENDBRANCH  25  26
ENDBRANCH  24  25
ENDBRANCH   1  24
TORSDOF 18
ENDMDL
