MODEL 1
REMARK VINA RESULT:     -11.2      0.000      0.000
REMARK SMILES C[NH2+]C[C@H](C)C(=O)N1CCc2cc(C(=O)NCCCNC(=O)c3ccc(-c4c5nc(c(-c6cccc(S(=O)(=O)[O-])c6F)c6ccc([nH]6)c(-c6cccc(S(=O)(=O)[O-])c6F)c6nc(c(-c7cccc(S(=O)(=O)[O-])c7F)c7ccc4[nH]7)C=C6)C=C5)cc3)ccc21
REMARK SMILES IDX 17 1 16 2 14 3 15 4 13 6 8 7 9 8 88 9 10 10 11 11 87 12
REMARK SMILES IDX 12 13 86 14 6 15 7 16 4 17 5 18 3 19 2 20 1 21 18 24 19 25
REMARK SMILES IDX 20 26 21 27 22 29 23 30 24 31 85 32 25 33 84 34 26 35 27 36
REMARK SMILES IDX 28 37 78 38 29 39 83 40 77 41 79 42 30 43 82 44 76 45 75 46
REMARK SMILES IDX 31 48 63 49 43 50 62 51 44 52 47 53 61 54 80 55 45 56 46 57
REMARK SMILES IDX 60 59 81 60 48 61 32 62 33 63 41 64 34 65 36 66 42 67 35 68
REMARK SMILES IDX 37 69 38 70 39 71 40 72 64 73 65 74 73 75 66 76 68 77 74 78
REMARK SMILES IDX 67 79 69 80 70 81 71 82 72 83 49 84 50 85 58 86 51 87 53 88
REMARK SMILES IDX 59 89 52 90 54 91 55 92 56 93 57 94
REMARK H PARENT 16 5 2 22 2 23 20 28 79 47 47 58
REMARK Flexibility Score: inf
ROOT
ATOM      1  C   UNL A   1      31.593  30.573  25.759  1.00  0.00     0.118 C 
ENDROOT
BRANCH   1   2
ATOM      2  N   UNL A   1      30.758  30.404  24.582  1.00  0.00    -0.352 N 
ATOM      3  C   UNL A   1      30.423  29.288  23.854  1.00  0.00     0.251 C 
ATOM      4  O   UNL A   1      29.573  29.406  22.971  1.00  0.00    -0.269 OA
ATOM      5  H   UNL A   1      30.362  31.240  24.244  1.00  0.00     0.163 HD
BRANCH   3   6
ATOM      6  C   UNL A   1      31.001  27.943  24.130  1.00  0.00     0.040 A 
ATOM      7  N   UNL A   1      32.693  24.145  24.454  1.00  0.00    -0.311 N 
ATOM      8  C   UNL A   1      33.881  24.284  23.602  1.00  0.00     0.130 C 
ATOM      9  C   UNL A   1      32.044  25.379  24.492  1.00  0.00     0.047 A 
ATOM     10  C   UNL A   1      33.719  25.590  22.811  1.00  0.00     0.059 C 
ATOM     11  C   UNL A   1      32.550  26.218  23.501  1.00  0.00    -0.022 A 
ATOM     12  C   UNL A   1      31.145  25.867  25.411  1.00  0.00     0.027 A 
ATOM     13  C   UNL A   1      32.017  27.482  23.280  1.00  0.00     0.019 A 
ATOM     14  C   UNL A   1      30.639  27.158  25.234  1.00  0.00     0.016 A 
BRANCH   7  15
ATOM     15  C   UNL A   1      32.459  22.983  25.149  1.00  0.00     0.235 C 
ATOM     16  O   UNL A   1      31.328  22.477  25.142  1.00  0.00    -0.274 OA
BRANCH  15  17
ATOM     17  C   UNL A   1      33.492  22.459  26.164  1.00  0.00     0.131 C 
ATOM     18  C   UNL A   1      33.100  22.501  27.635  1.00  0.00     0.024 C 
BRANCH  17  19
ATOM     19  C   UNL A   1      34.073  21.078  25.797  1.00  0.00     0.273 C 
BRANCH  19  20
ATOM     20  N   UNL A   1      33.584  20.420  24.578  1.00  0.00    -0.348 N 
ATOM     21  C   UNL A   1      32.817  19.209  24.835  1.00  0.00     0.330 C 
ATOM     22  H   UNL A   1      32.989  21.078  24.074  1.00  0.00     0.346 HD
ATOM     23  H   UNL A   1      34.404  20.144  24.038  1.00  0.00     0.346 HD
ENDBRANCH  19  20
ENDBRANCH  17  19
ENDBRANCH  15  17
ENDBRANCH   7  15
ENDBRANCH   3   6
ENDBRANCH   1   2
BRANCH   1  24
ATOM     24  C   UNL A   1      31.415  31.952  26.392  1.00  0.00     0.042 C 
BRANCH  24  25
ATOM     25  C   UNL A   1      32.635  32.439  27.163  1.00  0.00     0.118 C 
BRANCH  25  26
ATOM     26  N   UNL A   1      32.517  33.838  27.543  1.00  0.00    -0.352 N 
ATOM     27  C   UNL A   1      33.128  34.533  28.556  1.00  0.00     0.251 C 
ATOM     28  H   UNL A   1      31.903  34.368  26.986  1.00  0.00     0.163 HD
ATOM     29  O   UNL A   1      32.718  35.658  28.830  1.00  0.00    -0.269 OA
BRANCH  27  30
ATOM     30  C   UNL A   1      34.259  33.951  29.316  1.00  0.00     0.039 A 
ATOM     31  C   UNL A   1      35.542  34.464  29.101  1.00  0.00     0.014 A 
ATOM     32  C   UNL A   1      34.084  32.867  30.181  1.00  0.00     0.014 A 
ATOM     33  C   UNL A   1      36.638  33.913  29.771  1.00  0.00     0.010 A 
ATOM     34  C   UNL A   1      35.165  32.369  30.907  1.00  0.00     0.010 A 
ATOM     35  C   UNL A   1      36.457  32.870  30.692  1.00  0.00    -0.014 A 
BRANCH  35  36
ATOM     36  C   UNL A   1      37.610  32.273  31.415  1.00  0.00     0.031 A 
ATOM     37  C   UNL A   1      38.393  31.145  30.795  1.00  0.00     0.074 A 
ATOM     38  C   UNL A   1      37.912  32.699  32.658  1.00  0.00     0.049 A 
ATOM     39  N   UNL A   1      39.402  30.473  31.286  1.00  0.00    -0.248 NA
ATOM     40  C   UNL A   1      37.970  30.694  29.458  1.00  0.00     0.031 C 
ATOM     41  C   UNL A   1      37.182  33.730  33.399  1.00  0.00     0.029 A 
ATOM     42  N   UNL A   1      38.895  32.300  33.528  1.00  0.00    -0.354 N 
ATOM     43  C   UNL A   1      39.706  29.498  30.343  1.00  0.00     0.074 A 
ATOM     44  C   UNL A   1      38.757  29.645  29.261  1.00  0.00     0.031 C 
ATOM     45  C   UNL A   1      37.746  33.885  34.608  1.00  0.00     0.029 A 
ATOM     46  C   UNL A   1      38.859  32.950  34.739  1.00  0.00     0.049 A 
ATOM     47  H   UNL A   1      39.565  31.612  33.305  1.00  0.00     0.167 HD
ATOM     48  C   UNL A   1      40.704  28.583  30.359  1.00  0.00     0.034 A 
ATOM     49  C   UNL A   1      39.633  32.807  35.833  1.00  0.00     0.034 A 
ATOM     50  C   UNL A   1      41.684  28.480  31.406  1.00  0.00     0.049 A 
ATOM     51  C   UNL A   1      40.773  31.824  35.798  1.00  0.00     0.074 A 
ATOM     52  C   UNL A   1      42.794  27.654  31.468  1.00  0.00     0.029 A 
ATOM     53  N   UNL A   1      41.673  29.222  32.576  1.00  0.00    -0.354 N 
ATOM     54  N   UNL A   1      41.147  31.028  34.826  1.00  0.00    -0.248 NA
ATOM     55  C   UNL A   1      41.620  31.745  36.997  1.00  0.00     0.031 C 
ATOM     56  C   UNL A   1      43.445  27.888  32.684  1.00  0.00     0.029 A 
ATOM     57  C   UNL A   1      42.751  28.872  33.370  1.00  0.00     0.049 A 
ATOM     58  H   UNL A   1      40.997  29.901  32.807  1.00  0.00     0.167 HD
ATOM     59  C   UNL A   1      42.293  30.384  35.279  1.00  0.00     0.074 A 
ATOM     60  C   UNL A   1      42.563  30.900  36.604  1.00  0.00     0.031 C 
ATOM     61  C   UNL A   1      43.042  29.438  34.661  1.00  0.00     0.034 A 
BRANCH  48  62
ATOM     62  C   UNL A   1      40.831  27.657  29.177  1.00  0.00     0.023 A 
ATOM     63  C   UNL A   1      40.055  26.479  29.132  1.00  0.00     0.012 A 
ATOM     64  C   UNL A   1      41.657  27.982  28.083  1.00  0.00     0.148 A 
ATOM     65  C   UNL A   1      40.123  25.625  28.033  1.00  0.00     0.002 A 
ATOM     66  C   UNL A   1      41.687  27.146  26.972  1.00  0.00     0.091 A 
ATOM     67  F   UNL A   1      42.401  29.095  28.152  1.00  0.00    -0.205 F 
ATOM     68  C   UNL A   1      40.930  25.963  26.950  1.00  0.00     0.022 A 
BRANCH  66  69
ATOM     69  S   UNL A   1      42.633  27.531  25.494  1.00  0.00     0.127 S 
ATOM     70  O   UNL A   1      43.990  27.626  26.029  1.00  0.00    -0.237 OA
ATOM     71  O   UNL A   1      42.389  26.354  24.658  1.00  0.00    -0.237 OA
ATOM     72  O   UNL A   1      42.078  28.772  24.973  1.00  0.00    -0.744 OA
ENDBRANCH  66  69
ENDBRANCH  48  62
BRANCH  49  73
ATOM     73  C   UNL A   1      39.407  33.671  37.027  1.00  0.00     0.023 A 
ATOM     74  C   UNL A   1      39.855  35.006  37.007  1.00  0.00     0.012 A 
ATOM     75  C   UNL A   1      38.738  33.190  38.168  1.00  0.00     0.148 A 
ATOM     76  C   UNL A   1      39.674  35.835  38.114  1.00  0.00     0.002 A 
ATOM     77  C   UNL A   1      38.511  34.037  39.246  1.00  0.00     0.091 A 
ATOM     78  F   UNL A   1      38.331  31.912  38.175  1.00  0.00    -0.205 F 
ATOM     79  C   UNL A   1      38.994  35.354  39.229  1.00  0.00     0.022 A 
BRANCH  77  80
ATOM     80  S   UNL A   1      37.527  33.539  40.665  1.00  0.00     0.127 S 
ATOM     81  O   UNL A   1      37.381  34.800  41.386  1.00  0.00    -0.237 OA
ATOM     82  O   UNL A   1      36.305  33.046  40.031  1.00  0.00    -0.237 OA
ATOM     83  O   UNL A   1      38.308  32.507  41.336  1.00  0.00    -0.744 OA
ENDBRANCH  77  80
ENDBRANCH  49  73
BRANCH  61  84
ATOM     84  C   UNL A   1      44.250  28.917  35.393  1.00  0.00     0.023 A 
ATOM     85  C   UNL A   1      45.503  29.533  35.199  1.00  0.00     0.012 A 
ATOM     86  C   UNL A   1      44.131  27.870  36.328  1.00  0.00     0.148 A 
ATOM     87  C   UNL A   1      46.625  29.093  35.901  1.00  0.00     0.002 A 
ATOM     88  C   UNL A   1      45.243  27.469  37.058  1.00  0.00     0.091 A 
ATOM     89  F   UNL A   1      42.934  27.284  36.484  1.00  0.00    -0.205 F 
ATOM     90  C   UNL A   1      46.492  28.070  36.838  1.00  0.00     0.022 A 
BRANCH  88  91
ATOM     91  S   UNL A   1      45.143  26.228  38.353  1.00  0.00     0.127 S 
ATOM     92  O   UNL A   1      44.291  26.891  39.338  1.00  0.00    -0.237 OA
ATOM     93  O   UNL A   1      44.514  25.103  37.660  1.00  0.00    -0.237 OA
ATOM     94  O   UNL A   1      46.516  25.981  38.776  1.00  0.00    -0.744 OA
ENDBRANCH  88  91
ENDBRANCH  61  84
ENDBRANCH  35  36
ENDBRANCH  27  30
ENDBRANCH  25  26
ENDBRANCH  24  25
ENDBRANCH   1  24
TORSDOF 17
ENDMDL
MODEL 2
REMARK VINA RESULT:     -11.1      6.157      9.694
REMARK SMILES C[NH2+]C[C@H](C)C(=O)N1CCc2cc(C(=O)NCCCNC(=O)c3ccc(-c4c5nc(c(-c6cccc(S(=O)(=O)[O-])c6F)c6ccc([nH]6)c(-c6cccc(S(=O)(=O)[O-])c6F)c6nc(c(-c7cccc(S(=O)(=O)[O-])c7F)c7ccc4[nH]7)C=C6)C=C5)cc3)ccc21
REMARK SMILES IDX 17 1 16 2 14 3 15 4 13 6 8 7 9 8 88 9 10 10 11 11 87 12
REMARK SMILES IDX 12 13 86 14 6 15 7 16 4 17 5 18 3 19 2 20 1 21 18 24 19 25
REMARK SMILES IDX 20 26 21 27 22 29 23 30 24 31 85 32 25 33 84 34 26 35 27 36
REMARK SMILES IDX 28 37 78 38 29 39 83 40 77 41 79 42 30 43 82 44 76 45 75 46
REMARK SMILES IDX 31 48 63 49 43 50 62 51 44 52 47 53 61 54 80 55 45 56 46 57
REMARK SMILES IDX 60 59 81 60 48 61 32 62 33 63 41 64 34 65 36 66 42 67 35 68
REMARK SMILES IDX 37 69 38 70 39 71 40 72 64 73 65 74 73 75 66 76 68 77 74 78
REMARK SMILES IDX 67 79 69 80 70 81 71 82 72 83 49 84 50 85 58 86 51 87 53 88
REMARK SMILES IDX 59 89 52 90 54 91 55 92 56 93 57 94
REMARK H PARENT 16 5 2 22 2 23 20 28 79 47 47 58
REMARK Flexibility Score: inf
ROOT
ATOM      1  C   UNL A   1      36.393  20.506  25.004  1.00  0.00     0.118 C 
ENDROOT
BRANCH   1   2
ATOM      2  N   UNL A   1      35.335  19.510  24.998  1.00  0.00    -0.352 N 
ATOM      3  C   UNL A   1      33.968  19.633  25.026  1.00  0.00     0.251 C 
ATOM      4  O   UNL A   1      33.290  18.616  24.869  1.00  0.00    -0.269 OA
ATOM      5  H   UNL A   1      35.656  18.579  24.969  1.00  0.00     0.163 HD
BRANCH   3   6
ATOM      6  C   UNL A   1      33.280  20.945  25.181  1.00  0.00     0.040 A 
ATOM      7  N   UNL A   1      31.458  24.697  25.179  1.00  0.00    -0.311 N 
ATOM      8  C   UNL A   1      30.702  24.651  23.921  1.00  0.00     0.130 C 
ATOM      9  C   UNL A   1      32.085  23.462  25.350  1.00  0.00     0.047 A 
ATOM     10  C   UNL A   1      31.205  23.431  23.136  1.00  0.00     0.059 C 
ATOM     11  C   UNL A   1      32.036  22.731  24.164  1.00  0.00    -0.022 A 
ATOM     12  C   UNL A   1      32.573  22.880  26.496  1.00  0.00     0.027 A 
ATOM     13  C   UNL A   1      32.658  21.495  24.050  1.00  0.00     0.019 A 
ATOM     14  C   UNL A   1      33.154  21.612  26.408  1.00  0.00     0.016 A 
BRANCH   7  15
ATOM     15  C   UNL A   1      31.361  25.781  26.018  1.00  0.00     0.235 C 
ATOM     16  O   UNL A   1      30.321  25.970  26.664  1.00  0.00    -0.274 OA
BRANCH  15  17
ATOM     17  C   UNL A   1      32.401  26.914  25.951  1.00  0.00     0.131 C 
ATOM     18  C   UNL A   1      33.859  26.507  25.780  1.00  0.00     0.024 C 
BRANCH  17  19
ATOM     19  C   UNL A   1      32.031  28.035  24.957  1.00  0.00     0.273 C 
BRANCH  19  20
ATOM     20  N   UNL A   1      30.653  28.087  24.451  1.00  0.00    -0.348 N 
ATOM     21  C   UNL A   1      30.515  28.834  23.208  1.00  0.00     0.330 C 
ATOM     22  H   UNL A   1      30.333  27.133  24.292  1.00  0.00     0.346 HD
ATOM     23  H   UNL A   1      30.096  28.573  25.154  1.00  0.00     0.346 HD
ENDBRANCH  19  20
ENDBRANCH  17  19
ENDBRANCH  15  17
ENDBRANCH   7  15
ENDBRANCH   3   6
ENDBRANCH   1   2
BRANCH   1  24
ATOM     24  C   UNL A   1      37.779  19.867  24.917  1.00  0.00     0.042 C 
BRANCH  24  25
ATOM     25  C   UNL A   1      38.854  20.615  25.695  1.00  0.00     0.118 C 
BRANCH  25  26
ATOM     26  N   UNL A   1      39.973  19.755  26.044  1.00  0.00    -0.352 N 
ATOM     27  C   UNL A   1      41.258  20.078  26.400  1.00  0.00     0.251 C 
ATOM     28  H   UNL A   1      39.777  18.791  26.020  1.00  0.00     0.163 HD
ATOM     29  O   UNL A   1      42.101  19.185  26.442  1.00  0.00    -0.269 OA
BRANCH  27  30
ATOM     30  C   UNL A   1      41.639  21.473  26.725  1.00  0.00     0.039 A 
ATOM     31  C   UNL A   1      41.722  21.844  28.071  1.00  0.00     0.014 A 
ATOM     32  C   UNL A   1      41.848  22.431  25.730  1.00  0.00     0.014 A 
ATOM     33  C   UNL A   1      42.041  23.162  28.416  1.00  0.00     0.010 A 
ATOM     34  C   UNL A   1      42.241  23.723  26.073  1.00  0.00     0.010 A 
ATOM     35  C   UNL A   1      42.318  24.110  27.419  1.00  0.00    -0.014 A 
BRANCH  35  36
ATOM     36  C   UNL A   1      42.660  25.513  27.766  1.00  0.00     0.031 A 
ATOM     37  C   UNL A   1      44.080  26.001  27.641  1.00  0.00     0.074 A 
ATOM     38  C   UNL A   1      41.708  26.331  28.259  1.00  0.00     0.049 A 
ATOM     39  N   UNL A   1      44.578  27.175  27.932  1.00  0.00    -0.248 NA
ATOM     40  C   UNL A   1      45.078  25.036  27.149  1.00  0.00     0.031 C 
ATOM     41  C   UNL A   1      40.313  25.954  28.501  1.00  0.00     0.029 A 
ATOM     42  N   UNL A   1      41.774  27.638  28.669  1.00  0.00    -0.354 N 
ATOM     43  C   UNL A   1      45.945  27.079  27.701  1.00  0.00     0.074 A 
ATOM     44  C   UNL A   1      46.206  25.722  27.272  1.00  0.00     0.031 C 
ATOM     45  C   UNL A   1      39.656  27.007  29.012  1.00  0.00     0.029 A 
ATOM     46  C   UNL A   1      40.583  28.125  29.158  1.00  0.00     0.049 A 
ATOM     47  H   UNL A   1      42.596  28.178  28.618  1.00  0.00     0.167 HD
ATOM     48  C   UNL A   1      46.894  28.039  27.804  1.00  0.00     0.034 A 
ATOM     49  C   UNL A   1      40.275  29.333  29.668  1.00  0.00     0.034 A 
ATOM     50  C   UNL A   1      46.622  29.402  28.170  1.00  0.00     0.049 A 
ATOM     51  C   UNL A   1      41.338  30.400  29.713  1.00  0.00     0.074 A 
ATOM     52  C   UNL A   1      47.497  30.474  28.206  1.00  0.00     0.029 A 
ATOM     53  N   UNL A   1      45.384  29.883  28.566  1.00  0.00    -0.354 N 
ATOM     54  N   UNL A   1      42.589  30.334  29.329  1.00  0.00    -0.248 NA
ATOM     55  C   UNL A   1      40.936  31.717  30.228  1.00  0.00     0.031 C 
ATOM     56  C   UNL A   1      46.790  31.601  28.639  1.00  0.00     0.029 A 
ATOM     57  C   UNL A   1      45.472  31.234  28.854  1.00  0.00     0.049 A 
ATOM     58  H   UNL A   1      44.563  29.343  28.631  1.00  0.00     0.167 HD
ATOM     59  C   UNL A   1      43.114  31.608  29.518  1.00  0.00     0.074 A 
ATOM     60  C   UNL A   1      42.037  32.429  30.031  1.00  0.00     0.031 C 
ATOM     61  C   UNL A   1      44.376  32.053  29.305  1.00  0.00     0.034 A 
BRANCH  48  62
ATOM     62  C   UNL A   1      48.313  27.668  27.455  1.00  0.00     0.023 A 
ATOM     63  C   UNL A   1      49.171  27.181  28.463  1.00  0.00     0.012 A 
ATOM     64  C   UNL A   1      48.775  27.733  26.126  1.00  0.00     0.148 A 
ATOM     65  C   UNL A   1      50.475  26.794  28.160  1.00  0.00     0.002 A 
ATOM     66  C   UNL A   1      50.063  27.305  25.825  1.00  0.00     0.091 A 
ATOM     67  F   UNL A   1      47.952  28.217  25.185  1.00  0.00    -0.205 F 
ATOM     68  C   UNL A   1      50.918  26.847  26.842  1.00  0.00     0.022 A 
BRANCH  66  69
ATOM     69  S   UNL A   1      50.704  27.258  24.147  1.00  0.00     0.127 S 
ATOM     70  O   UNL A   1      50.967  28.674  23.892  1.00  0.00    -0.237 OA
ATOM     71  O   UNL A   1      51.903  26.433  24.297  1.00  0.00    -0.237 OA
ATOM     72  O   UNL A   1      49.654  26.662  23.332  1.00  0.00    -0.744 OA
ENDBRANCH  66  69
ENDBRANCH  48  62
BRANCH  49  73
ATOM     73  C   UNL A   1      38.880  29.627  30.104  1.00  0.00     0.023 A 
ATOM     74  C   UNL A   1      38.486  29.305  31.417  1.00  0.00     0.012 A 
ATOM     75  C   UNL A   1      37.951  30.237  29.239  1.00  0.00     0.148 A 
ATOM     76  C   UNL A   1      37.184  29.552  31.851  1.00  0.00     0.002 A 
ATOM     77  C   UNL A   1      36.672  30.530  29.695  1.00  0.00     0.091 A 
ATOM     78  F   UNL A   1      38.339  30.523  27.988  1.00  0.00    -0.205 F 
ATOM     79  C   UNL A   1      36.280  30.173  30.994  1.00  0.00     0.022 A 
BRANCH  77  80
ATOM     80  S   UNL A   1      35.489  31.449  28.702  1.00  0.00     0.127 S 
ATOM     81  O   UNL A   1      34.564  31.942  29.718  1.00  0.00    -0.237 OA
ATOM     82  O   UNL A   1      36.335  32.473  28.089  1.00  0.00    -0.237 OA
ATOM     83  O   UNL A   1      34.943  30.483  27.756  1.00  0.00    -0.744 OA
ENDBRANCH  77  80
ENDBRANCH  49  73
BRANCH  61  84
ATOM     84  C   UNL A   1      44.663  33.503  29.591  1.00  0.00     0.023 A 
ATOM     85  C   UNL A   1      45.110  33.888  30.871  1.00  0.00     0.012 A 
ATOM     86  C   UNL A   1      44.563  34.471  28.573  1.00  0.00     0.148 A 
ATOM     87  C   UNL A   1      45.422  35.220  31.142  1.00  0.00     0.002 A 
ATOM     88  C   UNL A   1      44.922  35.787  28.837  1.00  0.00     0.091 A 
ATOM     89  F   UNL A   1      44.117  34.089  27.367  1.00  0.00    -0.205 F 
ATOM     90  C   UNL A   1      45.339  36.166  30.123  1.00  0.00     0.022 A 
BRANCH  88  91
ATOM     91  S   UNL A   1      44.939  37.052  27.560  1.00  0.00     0.127 S 
ATOM     92  O   UNL A   1      43.531  37.103  27.172  1.00  0.00    -0.237 OA
ATOM     93  O   UNL A   1      45.414  38.227  28.291  1.00  0.00    -0.237 OA
ATOM     94  O   UNL A   1      45.855  36.571  26.534  1.00  0.00    -0.744 OA
ENDBRANCH  88  91
ENDBRANCH  61  84
ENDBRANCH  35  36
ENDBRANCH  27  30
ENDBRANCH  25  26
ENDBRANCH  24  25
ENDBRANCH   1  24
TORSDOF 17
ENDMDL
MODEL 3
REMARK VINA RESULT:     -11.1      5.714      8.984
REMARK SMILES C[NH2+]C[C@H](C)C(=O)N1CCc2cc(C(=O)NCCCNC(=O)c3ccc(-c4c5nc(c(-c6cccc(S(=O)(=O)[O-])c6F)c6ccc([nH]6)c(-c6cccc(S(=O)(=O)[O-])c6F)c6nc(c(-c7cccc(S(=O)(=O)[O-])c7F)c7ccc4[nH]7)C=C6)C=C5)cc3)ccc21
REMARK SMILES IDX 17 1 16 2 14 3 15 4 13 6 8 7 9 8 88 9 10 10 11 11 87 12
REMARK SMILES IDX 12 13 86 14 6 15 7 16 4 17 5 18 3 19 2 20 1 21 18 24 19 25
REMARK SMILES IDX 20 26 21 27 22 29 23 30 24 31 85 32 25 33 84 34 26 35 27 36
REMARK SMILES IDX 28 37 78 38 29 39 83 40 77 41 79 42 30 43 82 44 76 45 75 46
REMARK SMILES IDX 31 48 63 49 43 50 62 51 44 52 47 53 61 54 80 55 45 56 46 57
REMARK SMILES IDX 60 59 81 60 48 61 32 62 33 63 41 64 34 65 36 66 42 67 35 68
REMARK SMILES IDX 37 69 38 70 39 71 40 72 64 73 65 74 73 75 66 76 68 77 74 78
REMARK SMILES IDX 67 79 69 80 70 81 71 82 72 83 49 84 50 85 58 86 51 87 53 88
REMARK SMILES IDX 59 89 52 90 54 91 55 92 56 93 57 94
REMARK H PARENT 16 5 2 22 2 23 20 28 79 47 47 58
REMARK Flexibility Score: inf
ROOT
ATOM      1  C   UNL A   1      35.357  21.212  25.951  1.00  0.00     0.118 C 
ENDROOT
BRANCH   1   2
ATOM      2  N   UNL A   1      34.512  21.518  27.093  1.00  0.00    -0.352 N 
ATOM      3  C   UNL A   1      33.526  22.457  27.272  1.00  0.00     0.251 C 
ATOM      4  O   UNL A   1      32.861  22.410  28.308  1.00  0.00    -0.269 OA
ATOM      5  H   UNL A   1      34.678  20.951  27.881  1.00  0.00     0.163 HD
BRANCH   3   6
ATOM      6  C   UNL A   1      33.195  23.483  26.245  1.00  0.00     0.040 A 
ATOM      7  N   UNL A   1      32.128  26.015  23.106  1.00  0.00    -0.311 N 
ATOM      8  C   UNL A   1      30.810  25.481  22.739  1.00  0.00     0.130 C 
ATOM      9  C   UNL A   1      32.595  25.292  24.204  1.00  0.00     0.047 A 
ATOM     10  C   UNL A   1      30.656  24.129  23.451  1.00  0.00     0.059 C 
ATOM     11  C   UNL A   1      31.822  24.146  24.388  1.00  0.00    -0.022 A 
ATOM     12  C   UNL A   1      33.553  25.628  25.130  1.00  0.00     0.027 A 
ATOM     13  C   UNL A   1      32.130  23.216  25.372  1.00  0.00     0.019 A 
ATOM     14  C   UNL A   1      33.837  24.727  26.160  1.00  0.00     0.016 A 
BRANCH   7  15
ATOM     15  C   UNL A   1      32.633  27.130  22.482  1.00  0.00     0.235 C 
ATOM     16  O   UNL A   1      33.674  27.047  21.816  1.00  0.00    -0.274 OA
BRANCH  15  17
ATOM     17  C   UNL A   1      32.094  28.530  22.832  1.00  0.00     0.131 C 
ATOM     18  C   UNL A   1      30.677  28.859  22.379  1.00  0.00     0.024 C 
BRANCH  17  19
ATOM     19  C   UNL A   1      32.294  28.918  24.312  1.00  0.00     0.273 C 
BRANCH  19  20
ATOM     20  N   UNL A   1      33.638  29.324  24.747  1.00  0.00    -0.348 N 
ATOM     21  C   UNL A   1      33.815  29.302  26.192  1.00  0.00     0.330 C 
ATOM     22  H   UNL A   1      34.317  28.690  24.328  1.00  0.00     0.346 HD
ATOM     23  H   UNL A   1      33.769  30.290  24.446  1.00  0.00     0.346 HD
ENDBRANCH  19  20
ENDBRANCH  17  19
ENDBRANCH  15  17
ENDBRANCH   7  15
ENDBRANCH   3   6
ENDBRANCH   1   2
BRANCH   1  24
ATOM     24  C   UNL A   1      36.408  22.295  25.711  1.00  0.00     0.042 C 
BRANCH  24  25
ATOM     25  C   UNL A   1      37.642  21.803  24.965  1.00  0.00     0.118 C 
BRANCH  25  26
ATOM     26  N   UNL A   1      38.421  20.867  25.759  1.00  0.00    -0.352 N 
ATOM     27  C   UNL A   1      39.561  21.069  26.496  1.00  0.00     0.251 C 
ATOM     28  H   UNL A   1      38.077  19.946  25.769  1.00  0.00     0.163 HD
ATOM     29  O   UNL A   1      40.175  20.090  26.913  1.00  0.00    -0.269 OA
BRANCH  27  30
ATOM     30  C   UNL A   1      40.058  22.434  26.787  1.00  0.00     0.039 A 
ATOM     31  C   UNL A   1      41.026  22.593  27.784  1.00  0.00     0.014 A 
ATOM     32  C   UNL A   1      39.537  23.561  26.145  1.00  0.00     0.014 A 
ATOM     33  C   UNL A   1      41.490  23.870  28.114  1.00  0.00     0.010 A 
ATOM     34  C   UNL A   1      40.055  24.826  26.419  1.00  0.00     0.010 A 
ATOM     35  C   UNL A   1      41.019  24.997  27.423  1.00  0.00    -0.014 A 
BRANCH  35  36
ATOM     36  C   UNL A   1      41.501  26.362  27.758  1.00  0.00     0.031 A 
ATOM     37  C   UNL A   1      42.906  26.778  27.406  1.00  0.00     0.074 A 
ATOM     38  C   UNL A   1      40.701  27.205  28.440  1.00  0.00     0.049 A 
ATOM     39  N   UNL A   1      43.518  27.908  27.650  1.00  0.00    -0.248 NA
ATOM     40  C   UNL A   1      43.743  25.785  26.711  1.00  0.00     0.031 C 
ATOM     41  C   UNL A   1      39.348  26.893  28.907  1.00  0.00     0.029 A 
ATOM     42  N   UNL A   1      40.916  28.486  28.882  1.00  0.00    -0.354 N 
ATOM     43  C   UNL A   1      44.817  27.748  27.180  1.00  0.00     0.074 A 
ATOM     44  C   UNL A   1      44.915  26.402  26.661  1.00  0.00     0.031 C 
ATOM     45  C   UNL A   1      38.854  27.955  29.565  1.00  0.00     0.029 A 
ATOM     46  C   UNL A   1      39.860  29.012  29.588  1.00  0.00     0.049 A 
ATOM     47  H   UNL A   1      41.750  28.982  28.708  1.00  0.00     0.167 HD
ATOM     48  C   UNL A   1      45.827  28.650  27.152  1.00  0.00     0.034 A 
ATOM     49  C   UNL A   1      39.720  30.210  30.190  1.00  0.00     0.034 A 
ATOM     50  C   UNL A   1      45.706  30.007  27.611  1.00  0.00     0.049 A 
ATOM     51  C   UNL A   1      40.838  31.214  30.090  1.00  0.00     0.074 A 
ATOM     52  C   UNL A   1      46.639  31.027  27.534  1.00  0.00     0.029 A 
ATOM     53  N   UNL A   1      44.587  30.535  28.235  1.00  0.00    -0.354 N 
ATOM     54  N   UNL A   1      41.998  31.099  29.490  1.00  0.00    -0.248 NA
ATOM     55  C   UNL A   1      40.613  32.524  30.716  1.00  0.00     0.031 C 
ATOM     56  C   UNL A   1      46.088  32.168  28.127  1.00  0.00     0.029 A 
ATOM     57  C   UNL A   1      44.806  31.863  28.555  1.00  0.00     0.049 A 
ATOM     58  H   UNL A   1      43.758  30.037  28.422  1.00  0.00     0.167 HD
ATOM     59  C   UNL A   1      42.625  32.332  29.634  1.00  0.00     0.074 A 
ATOM     60  C   UNL A   1      41.705  33.185  30.357  1.00  0.00     0.031 C 
ATOM     61  C   UNL A   1      43.857  32.717  29.221  1.00  0.00     0.034 A 
BRANCH  48  62
ATOM     62  C   UNL A   1      47.138  28.220  26.547  1.00  0.00     0.023 A 
ATOM     63  C   UNL A   1      48.198  27.830  27.392  1.00  0.00     0.012 A 
ATOM     64  C   UNL A   1      47.301  28.133  25.150  1.00  0.00     0.148 A 
ATOM     65  C   UNL A   1      49.408  27.391  26.858  1.00  0.00     0.002 A 
ATOM     66  C   UNL A   1      48.496  27.654  24.626  1.00  0.00     0.091 A 
ATOM     67  F   UNL A   1      46.290  28.526  24.363  1.00  0.00    -0.205 F 
ATOM     68  C   UNL A   1      49.554  27.294  25.478  1.00  0.00     0.022 A 
BRANCH  66  69
ATOM     69  S   UNL A   1      48.758  27.415  22.865  1.00  0.00     0.127 S 
ATOM     70  O   UNL A   1      50.129  27.897  22.702  1.00  0.00    -0.237 OA
ATOM     71  O   UNL A   1      48.600  25.967  22.723  1.00  0.00    -0.237 OA
ATOM     72  O   UNL A   1      47.735  28.207  22.195  1.00  0.00    -0.744 OA
ENDBRANCH  66  69
ENDBRANCH  48  62
BRANCH  49  73
ATOM     73  C   UNL A   1      38.442  30.558  30.873  1.00  0.00     0.023 A 
ATOM     74  C   UNL A   1      38.240  30.151  32.207  1.00  0.00     0.012 A 
ATOM     75  C   UNL A   1      37.437  31.300  30.224  1.00  0.00     0.148 A 
ATOM     76  C   UNL A   1      37.048  30.446  32.870  1.00  0.00     0.002 A 
ATOM     77  C   UNL A   1      36.275  31.638  30.908  1.00  0.00     0.091 A 
ATOM     78  F   UNL A   1      37.640  31.666  28.950  1.00  0.00    -0.205 F 
ATOM     79  C   UNL A   1      36.071  31.197  32.224  1.00  0.00     0.022 A 
BRANCH  77  80
ATOM     80  S   UNL A   1      35.026  32.716  30.197  1.00  0.00     0.127 S 
ATOM     81  O   UNL A   1      34.135  32.933  31.334  1.00  0.00    -0.237 OA
ATOM     82  O   UNL A   1      35.816  33.881  29.801  1.00  0.00    -0.237 OA
ATOM     83  O   UNL A   1      34.461  31.970  29.078  1.00  0.00    -0.744 OA
ENDBRANCH  77  80
ENDBRANCH  49  73
BRANCH  61  84
ATOM     84  C   UNL A   1      44.278  34.135  29.507  1.00  0.00     0.023 A 
ATOM     85  C   UNL A   1      44.906  34.444  30.730  1.00  0.00     0.012 A 
ATOM     86  C   UNL A   1      44.120  35.143  28.535  1.00  0.00     0.148 A 
ATOM     87  C   UNL A   1      45.341  35.742  30.994  1.00  0.00     0.002 A 
ATOM     88  C   UNL A   1      44.600  36.422  28.787  1.00  0.00     0.091 A 
ATOM     89  F   UNL A   1      43.502  34.833  27.386  1.00  0.00    -0.205 F 
ATOM     90  C   UNL A   1      45.199  36.727  30.019  1.00  0.00     0.022 A 
BRANCH  88  91
ATOM     91  S   UNL A   1      44.546  37.727  27.553  1.00  0.00     0.127 S 
ATOM     92  O   UNL A   1      43.133  37.727  27.179  1.00  0.00    -0.237 OA
ATOM     93  O   UNL A   1      44.975  38.898  28.317  1.00  0.00    -0.237 OA
ATOM     94  O   UNL A   1      45.472  37.322  26.503  1.00  0.00    -0.744 OA
ENDBRANCH  88  91
ENDBRANCH  61  84
ENDBRANCH  35  36
ENDBRANCH  27  30
ENDBRANCH  25  26
ENDBRANCH  24  25
ENDBRANCH   1  24
TORSDOF 17
ENDMDL
