MODEL 1
REMARK VINA RESULT:     -13.6      0.000      0.000
REMARK SMILES O=C(NCCCNC(=O)[C@H]1CN(C(=O)N[C@H]2CCOC2)c2ccccc2O1)c1ccc(-c2c3nc(c(-c4cccc(S(=O)(=O)[O-])c4F)c4ccc([nH]4)c(-c4cccc(S(=O)(=O)[O-])c4F)c4nc(c(-c5cccc(S(=O)(=O)[O-])c5F)c5ccc2[nH]5)C=C4)C=C3)cc1
REMARK SMILES IDX 4 1 3 2 1 3 2 4 28 6 29 7 90 8 30 9 89 10 31 11 32 12 33 13
REMARK SMILES IDX 83 14 34 15 88 16 82 17 84 18 35 19 87 20 81 21 80 22 36 24
REMARK SMILES IDX 68 25 48 26 67 27 49 28 52 29 66 30 85 31 50 32 51 33 65 35
REMARK SMILES IDX 86 36 53 37 37 38 38 39 46 40 39 41 41 42 47 43 40 44 42 45
REMARK SMILES IDX 43 46 44 47 45 48 69 49 70 50 78 51 71 52 73 53 79 54 72 55
REMARK SMILES IDX 74 56 75 57 76 58 77 59 54 60 55 61 63 62 56 63 58 64 64 65
REMARK SMILES IDX 57 66 59 67 60 68 61 69 62 70 5 71 6 72 7 73 8 74 9 76 10 77
REMARK SMILES IDX 11 78 27 79 12 80 26 81 21 82 25 83 22 84 24 85 23 86 13 87
REMARK SMILES IDX 14 88 15 89 16 91 17 92 20 93 18 94 19 95
REMARK H PARENT 3 5 84 23 52 34 7 75 15 90
REMARK Flexibility Score: inf
ROOT
ATOM      1  C   UNL A   1      33.188  29.212  25.087  1.00  0.00     0.118 C 
ENDROOT
BRANCH   1   2
ATOM      2  N   UNL A   1      32.580  30.385  25.705  1.00  0.00    -0.352 N 
ATOM      3  O   UNL A   1      32.256  31.993  27.250  1.00  0.00    -0.269 OA
ATOM      4  C   UNL A   1      32.992  31.121  26.792  1.00  0.00     0.251 C 
ATOM      5  H   UNL A   1      31.749  30.698  25.279  1.00  0.00     0.163 HD
BRANCH   4   6
ATOM      6  C   UNL A   1      34.298  30.837  27.426  1.00  0.00     0.039 A 
ATOM      7  C   UNL A   1      34.617  29.544  27.838  1.00  0.00     0.014 A 
ATOM      8  C   UNL A   1      35.210  31.877  27.626  1.00  0.00     0.014 A 
ATOM      9  C   UNL A   1      35.741  29.329  28.623  1.00  0.00     0.010 A 
ATOM     10  C   UNL A   1      36.405  31.633  28.313  1.00  0.00     0.010 A 
ATOM     11  C   UNL A   1      36.659  30.366  28.857  1.00  0.00    -0.014 A 
BRANCH  11  12
ATOM     12  C   UNL A   1      37.900  30.057  29.617  1.00  0.00     0.031 A 
ATOM     13  C   UNL A   1      38.120  30.565  31.016  1.00  0.00     0.074 A 
ATOM     14  C   UNL A   1      38.815  29.255  29.037  1.00  0.00     0.049 A 
ATOM     15  N   UNL A   1      39.109  30.305  31.834  1.00  0.00    -0.248 NA
ATOM     16  C   UNL A   1      37.116  31.489  31.570  1.00  0.00     0.031 C 
ATOM     17  C   UNL A   1      38.737  28.749  27.662  1.00  0.00     0.029 A 
ATOM     18  N   UNL A   1      39.972  28.706  29.524  1.00  0.00    -0.354 N 
ATOM     19  C   UNL A   1      38.868  31.052  32.980  1.00  0.00     0.074 A 
ATOM     20  C   UNL A   1      37.644  31.789  32.749  1.00  0.00     0.031 C 
ATOM     21  C   UNL A   1      39.768  27.926  27.435  1.00  0.00     0.029 A 
ATOM     22  C   UNL A   1      40.610  27.885  28.623  1.00  0.00     0.049 A 
ATOM     23  H   UNL A   1      40.314  28.882  30.430  1.00  0.00     0.167 HD
ATOM     24  C   UNL A   1      39.587  31.100  34.127  1.00  0.00     0.034 A 
ATOM     25  C   UNL A   1      41.749  27.176  28.736  1.00  0.00     0.034 A 
ATOM     26  C   UNL A   1      40.783  30.334  34.365  1.00  0.00     0.049 A 
ATOM     27  C   UNL A   1      42.489  27.201  30.041  1.00  0.00     0.074 A 
ATOM     28  C   UNL A   1      41.566  30.293  35.506  1.00  0.00     0.029 A 
ATOM     29  N   UNL A   1      41.366  29.469  33.451  1.00  0.00    -0.354 N 
ATOM     30  N   UNL A   1      42.180  27.828  31.150  1.00  0.00    -0.248 NA
ATOM     31  C   UNL A   1      43.718  26.401  30.122  1.00  0.00     0.031 C 
ATOM     32  C   UNL A   1      42.623  29.403  35.280  1.00  0.00     0.029 A 
ATOM     33  C   UNL A   1      42.493  28.884  34.003  1.00  0.00     0.049 A 
ATOM     34  H   UNL A   1      41.027  29.295  32.543  1.00  0.00     0.167 HD
ATOM     35  C   UNL A   1      43.170  27.494  32.063  1.00  0.00     0.074 A 
ATOM     36  C   UNL A   1      44.065  26.573  31.390  1.00  0.00     0.031 C 
ATOM     37  C   UNL A   1      43.344  27.935  33.333  1.00  0.00     0.034 A 
BRANCH  24  38
ATOM     38  C   UNL A   1      39.071  31.968  35.246  1.00  0.00     0.023 A 
ATOM     39  C   UNL A   1      39.135  33.370  35.111  1.00  0.00     0.012 A 
ATOM     40  C   UNL A   1      38.456  31.411  36.384  1.00  0.00     0.148 A 
ATOM     41  C   UNL A   1      38.612  34.204  36.100  1.00  0.00     0.002 A 
ATOM     42  C   UNL A   1      37.907  32.249  37.349  1.00  0.00     0.091 A 
ATOM     43  F   UNL A   1      38.423  30.077  36.505  1.00  0.00    -0.205 F 
ATOM     44  C   UNL A   1      37.991  33.644  37.212  1.00  0.00     0.022 A 
BRANCH  42  45
ATOM     45  S   UNL A   1      37.023  31.626  38.785  1.00  0.00     0.127 S 
ATOM     46  O   UNL A   1      38.029  31.769  39.836  1.00  0.00    -0.237 OA
ATOM     47  O   UNL A   1      35.899  32.559  38.888  1.00  0.00    -0.237 OA
ATOM     48  O   UNL A   1      36.646  30.258  38.459  1.00  0.00    -0.744 OA
ENDBRANCH  42  45
ENDBRANCH  24  38
BRANCH  25  49
ATOM     49  C   UNL A   1      42.213  26.345  27.591  1.00  0.00     0.023 A 
ATOM     50  C   UNL A   1      43.121  26.885  26.661  1.00  0.00     0.012 A 
ATOM     51  C   UNL A   1      41.813  25.001  27.458  1.00  0.00     0.148 A 
ATOM     52  C   UNL A   1      43.605  26.106  25.608  1.00  0.00     0.002 A 
ATOM     53  C   UNL A   1      42.348  24.215  26.445  1.00  0.00     0.091 A 
ATOM     54  F   UNL A   1      40.930  24.507  28.339  1.00  0.00    -0.205 F 
ATOM     55  C   UNL A   1      43.231  24.768  25.509  1.00  0.00     0.022 A 
BRANCH  53  56
ATOM     56  S   UNL A   1      42.034  22.447  26.374  1.00  0.00     0.127 S 
ATOM     57  O   UNL A   1      40.579  22.404  26.260  1.00  0.00    -0.237 OA
ATOM     58  O   UNL A   1      42.759  22.046  25.168  1.00  0.00    -0.237 OA
ATOM     59  O   UNL A   1      42.601  21.917  27.608  1.00  0.00    -0.744 OA
ENDBRANCH  53  56
ENDBRANCH  25  49
BRANCH  37  60
ATOM     60  C   UNL A   1      44.550  27.425  34.074  1.00  0.00     0.023 A 
ATOM     61  C   UNL A   1      45.764  28.135  33.987  1.00  0.00     0.012 A 
ATOM     62  C   UNL A   1      44.474  26.277  34.886  1.00  0.00     0.148 A 
ATOM     63  C   UNL A   1      46.894  27.691  34.671  1.00  0.00     0.002 A 
ATOM     64  C   UNL A   1      45.595  25.864  35.597  1.00  0.00     0.091 A 
ATOM     65  F   UNL A   1      43.317  25.601  34.935  1.00  0.00    -0.205 F 
ATOM     66  C   UNL A   1      46.807  26.562  35.483  1.00  0.00     0.022 A 
BRANCH  64  67
ATOM     67  S   UNL A   1      45.541  24.467  36.725  1.00  0.00     0.127 S 
ATOM     68  O   UNL A   1      45.198  23.369  35.826  1.00  0.00    -0.237 OA
ATOM     69  O   UNL A   1      46.910  24.427  37.243  1.00  0.00    -0.237 OA
ATOM     70  O   UNL A   1      44.535  24.807  37.722  1.00  0.00    -0.744 OA
ENDBRANCH  64  67
ENDBRANCH  37  60
ENDBRANCH  11  12
ENDBRANCH   4   6
ENDBRANCH   1   2
BRANCH   1  71
ATOM     71  C   UNL A   1      32.313  28.579  24.016  1.00  0.00     0.042 C 
BRANCH  71  72
ATOM     72  C   UNL A   1      32.410  27.065  23.984  1.00  0.00     0.118 C 
BRANCH  72  73
ATOM     73  N   UNL A   1      32.594  26.548  22.638  1.00  0.00    -0.353 N 
ATOM     74  C   UNL A   1      33.207  25.405  22.205  1.00  0.00     0.262 C 
ATOM     75  H   UNL A   1      32.217  27.110  21.923  1.00  0.00     0.163 HD
ATOM     76  O   UNL A   1      33.266  25.213  20.989  1.00  0.00    -0.271 OA
BRANCH  74  77
ATOM     77  C   UNL A   1      33.706  24.377  23.222  1.00  0.00     0.281 C 
ATOM     78  C   UNL A   1      32.879  23.118  23.007  1.00  0.00     0.183 C 
ATOM     79  O   UNL A   1      35.078  24.076  23.018  1.00  0.00    -0.477 OA
ATOM     80  N   UNL A   1      33.149  22.130  24.061  1.00  0.00    -0.287 N 
ATOM     81  C   UNL A   1      35.472  22.977  23.747  1.00  0.00     0.144 A 
ATOM     82  C   UNL A   1      34.588  22.009  24.291  1.00  0.00     0.088 A 
ATOM     83  C   UNL A   1      36.860  22.882  23.906  1.00  0.00     0.049 A 
ATOM     84  C   UNL A   1      35.177  20.953  25.000  1.00  0.00     0.030 A 
ATOM     85  C   UNL A   1      37.408  21.829  24.624  1.00  0.00     0.004 A 
ATOM     86  C   UNL A   1      36.567  20.866  25.169  1.00  0.00     0.002 A 
BRANCH  80  87
ATOM     87  C   UNL A   1      32.221  21.366  24.739  1.00  0.00     0.322 C 
ATOM     88  O   UNL A   1      31.274  21.827  25.385  1.00  0.00    -0.248 OA
ATOM     89  N   UNL A   1      32.219  20.012  24.754  1.00  0.00    -0.333 N 
ATOM     90  H   UNL A   1      31.544  19.661  25.377  1.00  0.00     0.165 HD
BRANCH  89  91
ATOM     91  C   UNL A   1      32.941  18.939  24.099  1.00  0.00     0.112 C 
ATOM     92  C   UNL A   1      32.777  17.569  24.732  1.00  0.00     0.056 C 
ATOM     93  C   UNL A   1      32.410  18.616  22.709  1.00  0.00     0.185 C 
ATOM     94  C   UNL A   1      33.273  16.672  23.609  1.00  0.00     0.162 C 
ATOM     95  O   UNL A   1      32.909  17.316  22.378  1.00  0.00    -0.379 OA
ENDBRANCH  89  91
ENDBRANCH  80  87
ENDBRANCH  74  77
ENDBRANCH  72  73
ENDBRANCH  71  72
ENDBRANCH   1  71
TORSDOF 15
ENDMDL
MODEL 2
REMARK VINA RESULT:     -13.5      1.568      2.384
REMARK SMILES O=C(NCCCNC(=O)[C@H]1CN(C(=O)N[C@H]2CCOC2)c2ccccc2O1)c1ccc(-c2c3nc(c(-c4cccc(S(=O)(=O)[O-])c4F)c4ccc([nH]4)c(-c4cccc(S(=O)(=O)[O-])c4F)c4nc(c(-c5cccc(S(=O)(=O)[O-])c5F)c5ccc2[nH]5)C=C4)C=C3)cc1
REMARK SMILES IDX 4 1 3 2 1 3 2 4 28 6 29 7 90 8 30 9 89 10 31 11 32 12 33 13
REMARK SMILES IDX 83 14 34 15 88 16 82 17 84 18 35 19 87 20 81 21 80 22 36 24
REMARK SMILES IDX 68 25 48 26 67 27 49 28 52 29 66 30 85 31 50 32 51 33 65 35
REMARK SMILES IDX 86 36 53 37 37 38 38 39 46 40 39 41 41 42 47 43 40 44 42 45
REMARK SMILES IDX 43 46 44 47 45 48 69 49 70 50 78 51 71 52 73 53 79 54 72 55
REMARK SMILES IDX 74 56 75 57 76 58 77 59 54 60 55 61 63 62 56 63 58 64 64 65
REMARK SMILES IDX 57 66 59 67 60 68 61 69 62 70 5 71 6 72 7 73 8 74 9 76 10 77
REMARK SMILES IDX 11 78 27 79 12 80 26 81 21 82 25 83 22 84 24 85 23 86 13 87
REMARK SMILES IDX 14 88 15 89 16 91 17 92 20 93 18 94 19 95
REMARK H PARENT 3 5 84 23 52 34 7 75 15 90
REMARK Flexibility Score: inf
ROOT
ATOM      1  C   UNL A   1      33.296  29.057  25.308  1.00  0.00     0.118 C 
ENDROOT
BRANCH   1   2
ATOM      2  N   UNL A   1      32.710  30.264  25.882  1.00  0.00    -0.352 N 
ATOM      3  O   UNL A   1      32.436  31.950  27.350  1.00  0.00    -0.269 OA
ATOM      4  C   UNL A   1      33.156  31.053  26.917  1.00  0.00     0.251 C 
ATOM      5  H   UNL A   1      31.869  30.559  25.464  1.00  0.00     0.163 HD
BRANCH   4   6
ATOM      6  C   UNL A   1      34.478  30.795  27.528  1.00  0.00     0.039 A 
ATOM      7  C   UNL A   1      34.824  29.511  27.949  1.00  0.00     0.014 A 
ATOM      8  C   UNL A   1      35.379  31.851  27.696  1.00  0.00     0.014 A 
ATOM      9  C   UNL A   1      35.967  29.323  28.713  1.00  0.00     0.010 A 
ATOM     10  C   UNL A   1      36.591  31.631  28.361  1.00  0.00     0.010 A 
ATOM     11  C   UNL A   1      36.875  30.376  28.916  1.00  0.00    -0.014 A 
BRANCH  11  12
ATOM     12  C   UNL A   1      38.134  30.093  29.654  1.00  0.00     0.031 A 
ATOM     13  C   UNL A   1      38.367  30.604  31.049  1.00  0.00     0.074 A 
ATOM     14  C   UNL A   1      39.057  29.312  29.057  1.00  0.00     0.049 A 
ATOM     15  N   UNL A   1      39.376  30.366  31.850  1.00  0.00    -0.248 NA
ATOM     16  C   UNL A   1      37.353  31.506  31.622  1.00  0.00     0.031 C 
ATOM     17  C   UNL A   1      38.966  28.806  27.684  1.00  0.00     0.029 A 
ATOM     18  N   UNL A   1      40.234  28.788  29.524  1.00  0.00    -0.354 N 
ATOM     19  C   UNL A   1      39.138  31.107  33.001  1.00  0.00     0.074 A 
ATOM     20  C   UNL A   1      37.895  31.817  32.792  1.00  0.00     0.031 C 
ATOM     21  C   UNL A   1      40.011  28.006  27.438  1.00  0.00     0.029 A 
ATOM     22  C   UNL A   1      40.875  27.982  28.611  1.00  0.00     0.049 A 
ATOM     23  H   UNL A   1      40.588  28.971  30.424  1.00  0.00     0.167 HD
ATOM     24  C   UNL A   1      39.876  31.170  34.136  1.00  0.00     0.034 A 
ATOM     25  C   UNL A   1      42.031  27.298  28.704  1.00  0.00     0.034 A 
ATOM     26  C   UNL A   1      41.093  30.430  34.351  1.00  0.00     0.049 A 
ATOM     27  C   UNL A   1      42.792  27.339  29.996  1.00  0.00     0.074 A 
ATOM     28  C   UNL A   1      41.896  30.406  35.479  1.00  0.00     0.029 A 
ATOM     29  N   UNL A   1      41.678  29.579  33.427  1.00  0.00    -0.354 N 
ATOM     30  N   UNL A   1      42.489  27.958  31.110  1.00  0.00    -0.248 NA
ATOM     31  C   UNL A   1      44.040  26.567  30.054  1.00  0.00     0.031 C 
ATOM     32  C   UNL A   1      42.969  29.539  35.234  1.00  0.00     0.029 A 
ATOM     33  C   UNL A   1      42.827  29.019  33.958  1.00  0.00     0.049 A 
ATOM     34  H   UNL A   1      41.327  29.399  32.525  1.00  0.00     0.167 HD
ATOM     35  C   UNL A   1      43.501  27.645  32.005  1.00  0.00     0.074 A 
ATOM     36  C   UNL A   1      44.405  26.745  31.316  1.00  0.00     0.031 C 
ATOM     37  C   UNL A   1      43.688  28.089  33.273  1.00  0.00     0.034 A 
BRANCH  24  38
ATOM     38  C   UNL A   1      39.360  32.026  35.264  1.00  0.00     0.023 A 
ATOM     39  C   UNL A   1      38.455  31.468  36.190  1.00  0.00     0.012 A 
ATOM     40  C   UNL A   1      39.823  33.342  35.458  1.00  0.00     0.148 A 
ATOM     41  C   UNL A   1      38.004  32.212  37.280  1.00  0.00     0.002 A 
ATOM     42  C   UNL A   1      39.395  34.066  36.566  1.00  0.00     0.091 A 
ATOM     43  F   UNL A   1      40.666  33.863  34.556  1.00  0.00    -0.205 F 
ATOM     44  C   UNL A   1      38.481  33.504  37.473  1.00  0.00     0.022 A 
BRANCH  42  45
ATOM     45  S   UNL A   1      40.004  35.715  36.942  1.00  0.00     0.127 S 
ATOM     46  O   UNL A   1      39.295  36.015  38.184  1.00  0.00    -0.237 OA
ATOM     47  O   UNL A   1      41.442  35.485  37.102  1.00  0.00    -0.237 OA
ATOM     48  O   UNL A   1      39.647  36.543  35.799  1.00  0.00    -0.744 OA
ENDBRANCH  42  45
ENDBRANCH  24  38
BRANCH  25  49
ATOM     49  C   UNL A   1      42.493  26.479  27.550  1.00  0.00     0.023 A 
ATOM     50  C   UNL A   1      43.412  27.023  26.632  1.00  0.00     0.012 A 
ATOM     51  C   UNL A   1      42.081  25.141  27.396  1.00  0.00     0.148 A 
ATOM     52  C   UNL A   1      43.894  26.254  25.571  1.00  0.00     0.002 A 
ATOM     53  C   UNL A   1      42.614  24.363  26.375  1.00  0.00     0.091 A 
ATOM     54  F   UNL A   1      41.188  24.643  28.265  1.00  0.00    -0.205 F 
ATOM     55  C   UNL A   1      43.508  24.921  25.452  1.00  0.00     0.022 A 
BRANCH  53  56
ATOM     56  S   UNL A   1      42.283  22.600  26.278  1.00  0.00     0.127 S 
ATOM     57  O   UNL A   1      40.824  22.570  26.232  1.00  0.00    -0.237 OA
ATOM     58  O   UNL A   1      42.947  22.223  25.030  1.00  0.00    -0.237 OA
ATOM     59  O   UNL A   1      42.903  22.037  27.471  1.00  0.00    -0.744 OA
ENDBRANCH  53  56
ENDBRANCH  25  49
BRANCH  37  60
ATOM     60  C   UNL A   1      44.917  27.605  33.993  1.00  0.00     0.023 A 
ATOM     61  C   UNL A   1      46.123  28.322  33.855  1.00  0.00     0.012 A 
ATOM     62  C   UNL A   1      44.872  26.477  34.834  1.00  0.00     0.148 A 
ATOM     63  C   UNL A   1      47.275  27.902  34.518  1.00  0.00     0.002 A 
ATOM     64  C   UNL A   1      46.015  26.089  35.523  1.00  0.00     0.091 A 
ATOM     65  F   UNL A   1      43.722  25.794  34.931  1.00  0.00    -0.205 F 
ATOM     66  C   UNL A   1      47.218  26.792  35.359  1.00  0.00     0.022 A 
BRANCH  64  67
ATOM     67  S   UNL A   1      46.003  24.719  36.685  1.00  0.00     0.127 S 
ATOM     68  O   UNL A   1      47.388  24.709  37.150  1.00  0.00    -0.237 OA
ATOM     69  O   UNL A   1      45.029  25.161  37.684  1.00  0.00    -0.237 OA
ATOM     70  O   UNL A   1      45.584  23.556  35.916  1.00  0.00    -0.744 OA
ENDBRANCH  64  67
ENDBRANCH  37  60
ENDBRANCH  11  12
ENDBRANCH   4   6
ENDBRANCH   1   2
BRANCH   1  71
ATOM     71  C   UNL A   1      32.612  28.612  24.025  1.00  0.00     0.042 C 
BRANCH  71  72
ATOM     72  C   UNL A   1      32.436  27.108  23.933  1.00  0.00     0.118 C 
BRANCH  72  73
ATOM     73  N   UNL A   1      32.604  26.610  22.577  1.00  0.00    -0.353 N 
ATOM     74  C   UNL A   1      33.199  25.466  22.121  1.00  0.00     0.262 C 
ATOM     75  H   UNL A   1      32.229  27.189  21.875  1.00  0.00     0.163 HD
ATOM     76  O   UNL A   1      33.247  25.294  20.903  1.00  0.00    -0.271 OA
BRANCH  74  77
ATOM     77  C   UNL A   1      33.691  24.415  23.119  1.00  0.00     0.281 C 
ATOM     78  C   UNL A   1      32.935  23.132  22.804  1.00  0.00     0.183 C 
ATOM     79  O   UNL A   1      35.084  24.185  22.976  1.00  0.00    -0.477 OA
ATOM     80  N   UNL A   1      33.195  22.110  23.826  1.00  0.00    -0.287 N 
ATOM     81  C   UNL A   1      35.490  23.071  23.676  1.00  0.00     0.144 A 
ATOM     82  C   UNL A   1      34.625  22.042  24.128  1.00  0.00     0.088 A 
ATOM     83  C   UNL A   1      36.870  23.030  23.905  1.00  0.00     0.049 A 
ATOM     84  C   UNL A   1      35.223  20.981  24.822  1.00  0.00     0.030 A 
ATOM     85  C   UNL A   1      37.429  21.970  24.605  1.00  0.00     0.004 A 
ATOM     86  C   UNL A   1      36.606  20.947  25.061  1.00  0.00     0.002 A 
BRANCH  80  87
ATOM     87  C   UNL A   1      32.269  21.276  24.420  1.00  0.00     0.322 C 
ATOM     88  O   UNL A   1      32.172  20.066  24.191  1.00  0.00    -0.248 OA
ATOM     89  N   UNL A   1      31.371  21.679  25.349  1.00  0.00    -0.333 N 
ATOM     90  H   UNL A   1      30.734  20.961  25.567  1.00  0.00     0.165 HD
BRANCH  89  91
ATOM     91  C   UNL A   1      31.095  22.880  26.112  1.00  0.00     0.112 C 
ATOM     92  C   UNL A   1      30.737  24.102  25.286  1.00  0.00     0.056 C 
ATOM     93  C   UNL A   1      29.825  22.784  26.946  1.00  0.00     0.185 C 
ATOM     94  C   UNL A   1      30.118  24.996  26.349  1.00  0.00     0.162 C 
ATOM     95  O   UNL A   1      29.462  24.127  27.286  1.00  0.00    -0.379 OA
ENDBRANCH  89  91
ENDBRANCH  80  87
ENDBRANCH  74  77
ENDBRANCH  72  73
ENDBRANCH  71  72
ENDBRANCH   1  71
TORSDOF 15
ENDMDL
MODEL 3
REMARK VINA RESULT:     -13.5      5.230     10.323
REMARK SMILES O=C(NCCCNC(=O)[C@H]1CN(C(=O)N[C@H]2CCOC2)c2ccccc2O1)c1ccc(-c2c3nc(c(-c4cccc(S(=O)(=O)[O-])c4F)c4ccc([nH]4)c(-c4cccc(S(=O)(=O)[O-])c4F)c4nc(c(-c5cccc(S(=O)(=O)[O-])c5F)c5ccc2[nH]5)C=C4)C=C3)cc1
REMARK SMILES IDX 4 1 3 2 1 3 2 4 28 6 29 7 90 8 30 9 89 10 31 11 32 12 33 13
REMARK SMILES IDX 83 14 34 15 88 16 82 17 84 18 35 19 87 20 81 21 80 22 36 24
REMARK SMILES IDX 68 25 48 26 67 27 49 28 52 29 66 30 85 31 50 32 51 33 65 35
REMARK SMILES IDX 86 36 53 37 37 38 38 39 46 40 39 41 41 42 47 43 40 44 42 45
REMARK SMILES IDX 43 46 44 47 45 48 69 49 70 50 78 51 71 52 73 53 79 54 72 55
REMARK SMILES IDX 74 56 75 57 76 58 77 59 54 60 55 61 63 62 56 63 58 64 64 65
REMARK SMILES IDX 57 66 59 67 60 68 61 69 62 70 5 71 6 72 7 73 8 74 9 76 10 77
REMARK SMILES IDX 11 78 27 79 12 80 26 81 21 82 25 83 22 84 24 85 23 86 13 87
REMARK SMILES IDX 14 88 15 89 16 91 17 92 20 93 18 94 19 95
REMARK H PARENT 3 5 84 23 52 34 7 75 15 90
REMARK Flexibility Score: inf
ROOT
ATOM      1  C   UNL A   1      35.877  22.486  26.108  1.00  0.00     0.118 C 
ENDROOT
BRANCH   1   2
ATOM      2  N   UNL A   1      36.838  21.434  25.793  1.00  0.00    -0.352 N 
ATOM      3  O   UNL A   1      38.850  20.504  25.389  1.00  0.00    -0.269 OA
ATOM      4  C   UNL A   1      38.213  21.454  25.838  1.00  0.00     0.251 C 
ATOM      5  H   UNL A   1      36.442  20.580  25.504  1.00  0.00     0.163 HD
BRANCH   4   6
ATOM      6  C   UNL A   1      38.918  22.631  26.393  1.00  0.00     0.039 A 
ATOM      7  C   UNL A   1      38.480  23.921  26.097  1.00  0.00     0.014 A 
ATOM      8  C   UNL A   1      40.039  22.444  27.207  1.00  0.00     0.014 A 
ATOM      9  C   UNL A   1      39.269  25.010  26.437  1.00  0.00     0.010 A 
ATOM     10  C   UNL A   1      40.767  23.554  27.653  1.00  0.00     0.010 A 
ATOM     11  C   UNL A   1      40.414  24.844  27.234  1.00  0.00    -0.014 A 
BRANCH  11  12
ATOM     12  C   UNL A   1      41.166  26.056  27.657  1.00  0.00     0.031 A 
ATOM     13  C   UNL A   1      42.577  26.312  27.203  1.00  0.00     0.074 A 
ATOM     14  C   UNL A   1      40.528  26.961  28.426  1.00  0.00     0.049 A 
ATOM     15  N   UNL A   1      43.326  27.364  27.417  1.00  0.00    -0.248 NA
ATOM     16  C   UNL A   1      43.242  25.256  26.420  1.00  0.00     0.031 C 
ATOM     17  C   UNL A   1      39.178  26.794  28.975  1.00  0.00     0.029 A 
ATOM     18  N   UNL A   1      40.908  28.203  28.861  1.00  0.00    -0.354 N 
ATOM     19  C   UNL A   1      44.555  27.088  26.828  1.00  0.00     0.074 A 
ATOM     20  C   UNL A   1      44.458  25.762  26.258  1.00  0.00     0.031 C 
ATOM     21  C   UNL A   1      38.826  27.908  29.627  1.00  0.00     0.029 A 
ATOM     22  C   UNL A   1      39.938  28.849  29.591  1.00  0.00     0.049 A 
ATOM     23  H   UNL A   1      41.791  28.596  28.670  1.00  0.00     0.167 HD
ATOM     24  C   UNL A   1      45.653  27.878  26.750  1.00  0.00     0.034 A 
ATOM     25  C   UNL A   1      39.939  30.064  30.172  1.00  0.00     0.034 A 
ATOM     26  C   UNL A   1      45.730  29.212  27.286  1.00  0.00     0.049 A 
ATOM     27  C   UNL A   1      41.147  30.939  30.013  1.00  0.00     0.074 A 
ATOM     28  C   UNL A   1      46.789  30.102  27.232  1.00  0.00     0.029 A 
ATOM     29  N   UNL A   1      44.707  29.854  27.967  1.00  0.00    -0.354 N 
ATOM     30  N   UNL A   1      42.255  30.699  29.356  1.00  0.00    -0.248 NA
ATOM     31  C   UNL A   1      41.097  32.260  30.652  1.00  0.00     0.031 C 
ATOM     32  C   UNL A   1      46.405  31.281  27.882  1.00  0.00     0.029 A 
ATOM     33  C   UNL A   1      45.105  31.128  28.332  1.00  0.00     0.049 A 
ATOM     34  H   UNL A   1      43.825  29.460  28.162  1.00  0.00     0.167 HD
ATOM     35  C   UNL A   1      43.032  31.841  29.494  1.00  0.00     0.074 A 
ATOM     36  C   UNL A   1      42.248  32.789  30.260  1.00  0.00     0.031 C 
ATOM     37  C   UNL A   1      44.294  32.074  29.055  1.00  0.00     0.034 A 
BRANCH  24  38
ATOM     38  C   UNL A   1      46.851  27.346  26.006  1.00  0.00     0.023 A 
ATOM     39  C   UNL A   1      47.688  26.403  26.637  1.00  0.00     0.012 A 
ATOM     40  C   UNL A   1      47.105  27.709  24.669  1.00  0.00     0.148 A 
ATOM     41  C   UNL A   1      48.770  25.845  25.958  1.00  0.00     0.002 A 
ATOM     42  C   UNL A   1      48.166  27.123  23.986  1.00  0.00     0.091 A 
ATOM     43  F   UNL A   1      46.312  28.622  24.092  1.00  0.00    -0.205 F 
ATOM     44  C   UNL A   1      49.003  26.197  24.631  1.00  0.00     0.022 A 
BRANCH  42  45
ATOM     45  S   UNL A   1      48.508  27.457  22.254  1.00  0.00     0.127 S 
ATOM     46  O   UNL A   1      49.754  28.216  22.340  1.00  0.00    -0.237 OA
ATOM     47  O   UNL A   1      48.653  26.110  21.700  1.00  0.00    -0.237 OA
ATOM     48  O   UNL A   1      47.356  28.196  21.755  1.00  0.00    -0.744 OA
ENDBRANCH  42  45
ENDBRANCH  24  38
BRANCH  25  49
ATOM     49  C   UNL A   1      38.728  30.529  30.903  1.00  0.00     0.023 A 
ATOM     50  C   UNL A   1      38.672  30.410  32.305  1.00  0.00     0.012 A 
ATOM     51  C   UNL A   1      37.662  31.150  30.224  1.00  0.00     0.148 A 
ATOM     52  C   UNL A   1      37.566  30.885  33.013  1.00  0.00     0.002 A 
ATOM     53  C   UNL A   1      36.594  31.676  30.941  1.00  0.00     0.091 A 
ATOM     54  F   UNL A   1      37.719  31.235  28.886  1.00  0.00    -0.205 F 
ATOM     55  C   UNL A   1      36.536  31.531  32.334  1.00  0.00     0.022 A 
BRANCH  53  56
ATOM     56  S   UNL A   1      35.328  32.664  30.136  1.00  0.00     0.127 S 
ATOM     57  O   UNL A   1      34.822  31.740  29.127  1.00  0.00    -0.237 OA
ATOM     58  O   UNL A   1      34.403  32.946  31.235  1.00  0.00    -0.237 OA
ATOM     59  O   UNL A   1      36.032  33.841  29.641  1.00  0.00    -0.744 OA
ENDBRANCH  53  56
ENDBRANCH  25  49
BRANCH  37  60
ATOM     60  C   UNL A   1      44.901  33.406  29.398  1.00  0.00     0.023 A 
ATOM     61  C   UNL A   1      45.645  33.539  30.588  1.00  0.00     0.012 A 
ATOM     62  C   UNL A   1      44.777  34.508  28.531  1.00  0.00     0.148 A 
ATOM     63  C   UNL A   1      46.227  34.760  30.926  1.00  0.00     0.002 A 
ATOM     64  C   UNL A   1      45.395  35.710  28.855  1.00  0.00     0.091 A 
ATOM     65  F   UNL A   1      44.044  34.368  27.416  1.00  0.00    -0.205 F 
ATOM     66  C   UNL A   1      46.111  35.841  30.055  1.00  0.00     0.022 A 
BRANCH  64  67
ATOM     67  S   UNL A   1      45.358  37.125  27.749  1.00  0.00     0.127 S 
ATOM     68  O   UNL A   1      46.160  38.100  28.484  1.00  0.00    -0.237 OA
ATOM     69  O   UNL A   1      45.996  36.598  26.541  1.00  0.00    -0.237 OA
ATOM     70  O   UNL A   1      43.950  37.458  27.585  1.00  0.00    -0.744 OA
ENDBRANCH  64  67
ENDBRANCH  37  60
ENDBRANCH  11  12
ENDBRANCH   4   6
ENDBRANCH   1   2
BRANCH   1  71
ATOM     71  C   UNL A   1      34.444  21.985  26.183  1.00  0.00     0.042 C 
BRANCH  71  72
ATOM     72  C   UNL A   1      33.442  22.945  25.571  1.00  0.00     0.118 C 
BRANCH  72  73
ATOM     73  N   UNL A   1      32.173  22.952  26.281  1.00  0.00    -0.353 N 
ATOM     74  C   UNL A   1      31.341  23.990  26.598  1.00  0.00     0.262 C 
ATOM     75  H   UNL A   1      31.863  22.067  26.582  1.00  0.00     0.163 HD
ATOM     76  O   UNL A   1      30.329  23.733  27.251  1.00  0.00    -0.271 OA
BRANCH  74  77
ATOM     77  C   UNL A   1      31.637  25.393  26.063  1.00  0.00     0.281 C 
ATOM     78  C   UNL A   1      30.433  25.800  25.226  1.00  0.00     0.183 C 
ATOM     79  O   UNL A   1      31.807  26.321  27.123  1.00  0.00    -0.477 OA
ATOM     80  N   UNL A   1      30.697  27.056  24.511  1.00  0.00    -0.287 N 
ATOM     81  C   UNL A   1      31.815  27.620  26.666  1.00  0.00     0.144 A 
ATOM     82  C   UNL A   1      31.309  28.036  25.407  1.00  0.00     0.088 A 
ATOM     83  C   UNL A   1      32.373  28.527  27.574  1.00  0.00     0.049 A 
ATOM     84  C   UNL A   1      31.400  29.405  25.118  1.00  0.00     0.030 A 
ATOM     85  C   UNL A   1      32.457  29.874  27.251  1.00  0.00     0.004 A 
ATOM     86  C   UNL A   1      31.970  30.311  26.025  1.00  0.00     0.002 A 
BRANCH  80  87
ATOM     87  C   UNL A   1      30.393  27.340  23.195  1.00  0.00     0.322 C 
ATOM     88  O   UNL A   1      29.515  28.132  22.836  1.00  0.00    -0.248 OA
ATOM     89  N   UNL A   1      31.042  26.806  22.134  1.00  0.00    -0.333 N 
ATOM     90  H   UNL A   1      30.607  27.052  21.286  1.00  0.00     0.165 HD
BRANCH  89  91
ATOM     91  C   UNL A   1      32.205  25.971  21.907  1.00  0.00     0.112 C 
ATOM     92  C   UNL A   1      32.130  24.581  22.513  1.00  0.00     0.056 C 
ATOM     93  C   UNL A   1      32.389  25.578  20.448  1.00  0.00     0.185 C 
ATOM     94  C   UNL A   1      33.246  23.877  21.756  1.00  0.00     0.162 C 
ATOM     95  O   UNL A   1      33.278  24.456  20.441  1.00  0.00    -0.379 OA
ENDBRANCH  89  91
ENDBRANCH  80  87
ENDBRANCH  74  77
ENDBRANCH  72  73
ENDBRANCH  71  72
ENDBRANCH   1  71
TORSDOF 15
ENDMDL
