MODEL 1
REMARK VINA RESULT:     -13.3      0.000      0.000
REMARK SMILES O=C(NCCCNC(=O)c1nnn(-c2cccc(C(F)(F)F)c2)c1[C@H]1COc2ccccc2O1)c1ccc(-c2c3nc(c(-c4cccc(S(=O)(=O)[O-])c4F)c4ccc([nH]4)c(-c4cccc(S(=O)(=O)[O-])c4F)c4nc(c(-c5cccc(S(=O)(=O)[O-])c5F)c5ccc2[nH]5)C=C4)C=C3)cc1
REMARK SMILES IDX 4 1 3 2 1 3 2 4 35 6 36 7 97 8 37 9 96 10 38 11 39 12 40 13
REMARK SMILES IDX 90 14 41 15 95 16 89 17 91 18 42 19 94 20 88 21 87 22 43 24
REMARK SMILES IDX 75 25 55 26 74 27 56 28 59 29 73 30 92 31 57 32 58 33 72 35
REMARK SMILES IDX 93 36 60 37 44 38 45 39 53 40 46 41 48 42 54 43 47 44 49 45
REMARK SMILES IDX 50 46 51 47 52 48 76 49 77 50 85 51 78 52 80 53 86 54 79 55
REMARK SMILES IDX 81 56 82 57 83 58 84 59 61 60 62 61 70 62 63 63 65 64 71 65
REMARK SMILES IDX 64 66 66 67 67 68 68 69 69 70 5 71 6 72 7 73 8 74 9 76 10 77
REMARK SMILES IDX 11 78 24 79 12 80 13 81 25 82 26 83 34 84 27 85 33 86 28 87
REMARK SMILES IDX 32 88 29 89 31 90 30 91 14 92 15 93 23 94 16 95 18 96 17 97
REMARK SMILES IDX 19 98 20 99 21 100 22 101
REMARK H PARENT 3 5 91 23 59 34 7 75
REMARK Flexibility Score: inf
ROOT
ATOM      1  C   UNL A   1      36.373  22.310  25.751  1.00  0.00     0.118 C 
ENDROOT
BRANCH   1   2
ATOM      2  N   UNL A   1      37.678  21.701  25.579  1.00  0.00    -0.352 N 
ATOM      3  O   UNL A   1      39.734  21.001  25.969  1.00  0.00    -0.269 OA
ATOM      4  C   UNL A   1      38.925  21.924  26.103  1.00  0.00     0.251 C 
ATOM      5  H   UNL A   1      37.665  20.955  24.937  1.00  0.00     0.163 HD
BRANCH   4   6
ATOM      6  C   UNL A   1      39.378  23.190  26.742  1.00  0.00     0.039 A 
ATOM      7  C   UNL A   1      38.801  24.445  26.556  1.00  0.00     0.014 A 
ATOM      8  C   UNL A   1      40.507  23.091  27.578  1.00  0.00     0.014 A 
ATOM      9  C   UNL A   1      39.378  25.582  27.119  1.00  0.00     0.010 A 
ATOM     10  C   UNL A   1      41.073  24.220  28.166  1.00  0.00     0.010 A 
ATOM     11  C   UNL A   1      40.523  25.474  27.913  1.00  0.00    -0.014 A 
BRANCH  11  12
ATOM     12  C   UNL A   1      41.015  26.681  28.577  1.00  0.00     0.031 A 
ATOM     13  C   UNL A   1      42.364  27.155  28.142  1.00  0.00     0.074 A 
ATOM     14  C   UNL A   1      40.267  27.454  29.390  1.00  0.00     0.049 A 
ATOM     15  N   UNL A   1      43.417  27.371  28.865  1.00  0.00    -0.248 NA
ATOM     16  C   UNL A   1      42.574  27.355  26.700  1.00  0.00     0.031 C 
ATOM     17  C   UNL A   1      38.830  27.340  29.648  1.00  0.00     0.029 A 
ATOM     18  N   UNL A   1      40.613  28.607  30.038  1.00  0.00    -0.354 N 
ATOM     19  C   UNL A   1      44.363  27.923  27.998  1.00  0.00     0.074 A 
ATOM     20  C   UNL A   1      43.840  27.768  26.666  1.00  0.00     0.031 C 
ATOM     21  C   UNL A   1      38.386  28.501  30.178  1.00  0.00     0.029 A 
ATOM     22  C   UNL A   1      39.520  29.379  30.410  1.00  0.00     0.049 A 
ATOM     23  H   UNL A   1      41.545  28.865  30.225  1.00  0.00     0.167 HD
ATOM     24  C   UNL A   1      45.428  28.649  28.435  1.00  0.00     0.034 A 
ATOM     25  C   UNL A   1      39.533  30.678  30.795  1.00  0.00     0.034 A 
ATOM     26  C   UNL A   1      45.695  28.458  29.831  1.00  0.00     0.049 A 
ATOM     27  C   UNL A   1      40.911  31.026  31.201  1.00  0.00     0.074 A 
ATOM     28  C   UNL A   1      46.003  27.381  30.638  1.00  0.00     0.029 A 
ATOM     29  N   UNL A   1      45.372  29.483  30.683  1.00  0.00    -0.354 N 
ATOM     30  N   UNL A   1      41.499  30.570  32.270  1.00  0.00    -0.248 NA
ATOM     31  C   UNL A   1      41.785  31.656  30.226  1.00  0.00     0.031 C 
ATOM     32  C   UNL A   1      45.393  27.674  31.893  1.00  0.00     0.029 A 
ATOM     33  C   UNL A   1      44.769  28.918  31.774  1.00  0.00     0.049 A 
ATOM     34  H   UNL A   1      45.541  30.442  30.537  1.00  0.00     0.167 HD
ATOM     35  C   UNL A   1      42.834  30.463  31.914  1.00  0.00     0.074 A 
ATOM     36  C   UNL A   1      42.969  31.274  30.709  1.00  0.00     0.031 C 
ATOM     37  C   UNL A   1      43.636  29.500  32.460  1.00  0.00     0.034 A 
BRANCH  24  38
ATOM     38  C   UNL A   1      46.067  29.779  27.663  1.00  0.00     0.023 A 
ATOM     39  C   UNL A   1      47.478  29.853  27.636  1.00  0.00     0.012 A 
ATOM     40  C   UNL A   1      45.358  30.904  27.186  1.00  0.00     0.148 A 
ATOM     41  C   UNL A   1      48.147  30.997  27.184  1.00  0.00     0.002 A 
ATOM     42  C   UNL A   1      46.026  32.002  26.655  1.00  0.00     0.091 A 
ATOM     43  F   UNL A   1      44.034  30.982  27.365  1.00  0.00    -0.205 F 
ATOM     44  C   UNL A   1      47.421  32.067  26.677  1.00  0.00     0.022 A 
BRANCH  42  45
ATOM     45  S   UNL A   1      45.124  33.369  25.917  1.00  0.00     0.127 S 
ATOM     46  O   UNL A   1      44.424  33.918  27.073  1.00  0.00    -0.237 OA
ATOM     47  O   UNL A   1      46.208  34.202  25.393  1.00  0.00    -0.237 OA
ATOM     48  O   UNL A   1      44.298  32.757  24.884  1.00  0.00    -0.744 OA
ENDBRANCH  42  45
ENDBRANCH  24  38
BRANCH  25  49
ATOM     49  C   UNL A   1      38.487  31.715  30.640  1.00  0.00     0.023 A 
ATOM     50  C   UNL A   1      37.901  31.932  29.377  1.00  0.00     0.012 A 
ATOM     51  C   UNL A   1      37.882  32.311  31.768  1.00  0.00     0.148 A 
ATOM     52  C   UNL A   1      36.737  32.699  29.245  1.00  0.00     0.002 A 
ATOM     53  C   UNL A   1      36.734  33.085  31.630  1.00  0.00     0.091 A 
ATOM     54  F   UNL A   1      38.377  32.043  32.984  1.00  0.00    -0.205 F 
ATOM     55  C   UNL A   1      36.151  33.272  30.371  1.00  0.00     0.022 A 
BRANCH  53  56
ATOM     56  S   UNL A   1      35.926  33.848  33.043  1.00  0.00     0.127 S 
ATOM     57  O   UNL A   1      35.692  32.699  33.918  1.00  0.00    -0.237 OA
ATOM     58  O   UNL A   1      36.949  34.777  33.512  1.00  0.00    -0.237 OA
ATOM     59  O   UNL A   1      34.707  34.454  32.519  1.00  0.00    -0.744 OA
ENDBRANCH  53  56
ENDBRANCH  25  49
BRANCH  37  60
ATOM     60  C   UNL A   1      43.137  28.755  33.673  1.00  0.00     0.023 A 
ATOM     61  C   UNL A   1      42.095  27.809  33.588  1.00  0.00     0.012 A 
ATOM     62  C   UNL A   1      43.846  28.874  34.882  1.00  0.00     0.148 A 
ATOM     63  C   UNL A   1      41.744  27.025  34.689  1.00  0.00     0.002 A 
ATOM     64  C   UNL A   1      43.528  28.055  35.960  1.00  0.00     0.091 A 
ATOM     65  F   UNL A   1      44.843  29.770  34.950  1.00  0.00    -0.205 F 
ATOM     66  C   UNL A   1      42.470  27.138  35.871  1.00  0.00     0.022 A 
BRANCH  64  67
ATOM     67  S   UNL A   1      44.516  28.049  37.459  1.00  0.00     0.127 S 
ATOM     68  O   UNL A   1      44.256  29.379  38.004  1.00  0.00    -0.237 OA
ATOM     69  O   UNL A   1      43.923  26.949  38.224  1.00  0.00    -0.237 OA
ATOM     70  O   UNL A   1      45.886  27.798  37.030  1.00  0.00    -0.744 OA
ENDBRANCH  64  67
ENDBRANCH  37  60
ENDBRANCH  11  12
ENDBRANCH   4   6
ENDBRANCH   1   2
BRANCH   1  71
ATOM     71  C   UNL A   1      35.212  21.638  25.022  1.00  0.00     0.042 C 
BRANCH  71  72
ATOM     72  C   UNL A   1      33.911  22.424  24.989  1.00  0.00     0.118 C 
BRANCH  72  73
ATOM     73  N   UNL A   1      33.166  22.442  26.227  1.00  0.00    -0.351 N 
ATOM     74  C   UNL A   1      32.010  23.145  26.513  1.00  0.00     0.273 C 
ATOM     75  H   UNL A   1      33.524  21.885  26.955  1.00  0.00     0.163 HD
ATOM     76  O   UNL A   1      31.473  22.977  27.598  1.00  0.00    -0.267 OA
BRANCH  74  77
ATOM     77  C   UNL A   1      31.498  24.101  25.533  1.00  0.00     0.178 A 
ATOM     78  N   UNL A   1      30.688  23.683  24.508  1.00  0.00    -0.124 NA
ATOM     79  C   UNL A   1      31.671  25.480  25.442  1.00  0.00     0.122 A 
ATOM     80  N   UNL A   1      30.304  24.747  23.820  1.00  0.00    -0.061 NA
ATOM     81  N   UNL A   1      30.978  25.817  24.289  1.00  0.00    -0.213 N 
BRANCH  79  82
ATOM     82  C   UNL A   1      32.286  26.487  26.368  1.00  0.00     0.262 C 
ATOM     83  C   UNL A   1      33.765  26.738  26.019  1.00  0.00     0.281 C 
ATOM     84  O   UNL A   1      31.471  27.656  26.278  1.00  0.00    -0.477 OA
ATOM     85  O   UNL A   1      34.330  27.805  26.775  1.00  0.00    -0.485 OA
ATOM     86  C   UNL A   1      32.127  28.813  26.588  1.00  0.00     0.162 A 
ATOM     87  C   UNL A   1      33.507  28.896  26.781  1.00  0.00     0.161 A 
ATOM     88  C   UNL A   1      31.340  29.962  26.641  1.00  0.00     0.050 A 
ATOM     89  C   UNL A   1      34.105  30.133  26.998  1.00  0.00     0.050 A 
ATOM     90  C   UNL A   1      31.938  31.200  26.862  1.00  0.00     0.004 A 
ATOM     91  C   UNL A   1      33.321  31.288  27.026  1.00  0.00     0.004 A 
ENDBRANCH  79  82
BRANCH  81  92
ATOM     92  C   UNL A   1      30.836  27.084  23.679  1.00  0.00     0.067 A 
ATOM     93  C   UNL A   1      31.957  27.698  23.113  1.00  0.00     0.028 A 
ATOM     94  C   UNL A   1      29.577  27.692  23.588  1.00  0.00     0.041 A 
ATOM     95  C   UNL A   1      31.796  28.866  22.368  1.00  0.00     0.003 A 
ATOM     96  C   UNL A   1      29.411  28.876  22.854  1.00  0.00     0.058 A 
ATOM     97  C   UNL A   1      30.531  29.443  22.226  1.00  0.00     0.013 A 
BRANCH  96  98
ATOM     98  C   UNL A   1      28.054  29.523  22.724  1.00  0.00     0.416 C 
ATOM     99  F   UNL A   1      27.806  29.972  21.463  1.00  0.00    -0.166 F 
ATOM    100  F   UNL A   1      27.038  28.673  23.031  1.00  0.00    -0.166 F 
ATOM    101  F   UNL A   1      27.895  30.605  23.539  1.00  0.00    -0.166 F 
ENDBRANCH  96  98
ENDBRANCH  81  92
ENDBRANCH  74  77
ENDBRANCH  72  73
ENDBRANCH  71  72
ENDBRANCH   1  71
TORSDOF 16
ENDMDL
MODEL 2
REMARK VINA RESULT:     -13.1      3.521      8.949
REMARK SMILES O=C(NCCCNC(=O)c1nnn(-c2cccc(C(F)(F)F)c2)c1[C@H]1COc2ccccc2O1)c1ccc(-c2c3nc(c(-c4cccc(S(=O)(=O)[O-])c4F)c4ccc([nH]4)c(-c4cccc(S(=O)(=O)[O-])c4F)c4nc(c(-c5cccc(S(=O)(=O)[O-])c5F)c5ccc2[nH]5)C=C4)C=C3)cc1
REMARK SMILES IDX 4 1 3 2 1 3 2 4 35 6 36 7 97 8 37 9 96 10 38 11 39 12 40 13
REMARK SMILES IDX 90 14 41 15 95 16 89 17 91 18 42 19 94 20 88 21 87 22 43 24
REMARK SMILES IDX 75 25 55 26 74 27 56 28 59 29 73 30 92 31 57 32 58 33 72 35
REMARK SMILES IDX 93 36 60 37 44 38 45 39 53 40 46 41 48 42 54 43 47 44 49 45
REMARK SMILES IDX 50 46 51 47 52 48 76 49 77 50 85 51 78 52 80 53 86 54 79 55
REMARK SMILES IDX 81 56 82 57 83 58 84 59 61 60 62 61 70 62 63 63 65 64 71 65
REMARK SMILES IDX 64 66 66 67 67 68 68 69 69 70 5 71 6 72 7 73 8 74 9 76 10 77
REMARK SMILES IDX 11 78 24 79 12 80 13 81 25 82 26 83 34 84 27 85 33 86 28 87
REMARK SMILES IDX 32 88 29 89 31 90 30 91 14 92 15 93 23 94 16 95 18 96 17 97
REMARK SMILES IDX 19 98 20 99 21 100 22 101
REMARK H PARENT 3 5 91 23 59 34 7 75
REMARK Flexibility Score: inf
ROOT
ATOM      1  C   UNL A   1      33.050  29.452  26.177  1.00  0.00     0.118 C 
ENDROOT
BRANCH   1   2
ATOM      2  N   UNL A   1      33.104  30.650  26.995  1.00  0.00    -0.352 N 
ATOM      3  O   UNL A   1      33.824  32.498  27.961  1.00  0.00    -0.269 OA
ATOM      4  C   UNL A   1      34.104  31.344  27.625  1.00  0.00     0.251 C 
ATOM      5  H   UNL A   1      32.218  31.057  27.127  1.00  0.00     0.163 HD
BRANCH   4   6
ATOM      6  C   UNL A   1      35.441  30.796  27.983  1.00  0.00     0.039 A 
ATOM      7  C   UNL A   1      35.780  29.444  28.025  1.00  0.00     0.014 A 
ATOM      8  C   UNL A   1      36.423  31.742  28.337  1.00  0.00     0.014 A 
ATOM      9  C   UNL A   1      37.033  29.040  28.483  1.00  0.00     0.010 A 
ATOM     10  C   UNL A   1      37.687  31.346  28.768  1.00  0.00     0.010 A 
ATOM     11  C   UNL A   1      37.984  29.989  28.869  1.00  0.00    -0.014 A 
BRANCH  11  12
ATOM     12  C   UNL A   1      39.322  29.516  29.225  1.00  0.00     0.031 A 
ATOM     13  C   UNL A   1      39.732  29.744  30.644  1.00  0.00     0.074 A 
ATOM     14  C   UNL A   1      40.092  28.756  28.422  1.00  0.00     0.049 A 
ATOM     15  N   UNL A   1      40.775  30.368  31.094  1.00  0.00    -0.248 NA
ATOM     16  C   UNL A   1      38.823  29.258  31.693  1.00  0.00     0.031 C 
ATOM     17  C   UNL A   1      39.712  28.145  27.146  1.00  0.00     0.029 A 
ATOM     18  N   UNL A   1      41.336  28.241  28.660  1.00  0.00    -0.354 N 
ATOM     19  C   UNL A   1      40.757  30.182  32.478  1.00  0.00     0.074 A 
ATOM     20  C   UNL A   1      39.475  29.611  32.800  1.00  0.00     0.031 C 
ATOM     21  C   UNL A   1      40.588  27.159  26.854  1.00  0.00     0.029 A 
ATOM     22  C   UNL A   1      41.649  27.158  27.847  1.00  0.00     0.049 A 
ATOM     23  H   UNL A   1      41.951  28.602  29.339  1.00  0.00     0.167 HD
ATOM     24  C   UNL A   1      41.864  30.327  33.256  1.00  0.00     0.034 A 
ATOM     25  C   UNL A   1      42.653  26.268  28.027  1.00  0.00     0.034 A 
ATOM     26  C   UNL A   1      42.914  31.050  32.598  1.00  0.00     0.049 A 
ATOM     27  C   UNL A   1      43.644  26.867  28.946  1.00  0.00     0.074 A 
ATOM     28  C   UNL A   1      43.048  32.306  32.043  1.00  0.00     0.029 A 
ATOM     29  N   UNL A   1      44.003  30.334  32.171  1.00  0.00    -0.354 N 
ATOM     30  N   UNL A   1      44.416  27.871  28.641  1.00  0.00    -0.248 NA
ATOM     31  C   UNL A   1      43.561  26.549  30.361  1.00  0.00     0.031 C 
ATOM     32  C   UNL A   1      43.942  32.132  30.946  1.00  0.00     0.029 A 
ATOM     33  C   UNL A   1      44.306  30.785  30.915  1.00  0.00     0.049 A 
ATOM     34  H   UNL A   1      44.476  29.631  32.673  1.00  0.00     0.167 HD
ATOM     35  C   UNL A   1      44.565  28.570  29.828  1.00  0.00     0.074 A 
ATOM     36  C   UNL A   1      44.141  27.639  30.869  1.00  0.00     0.031 C 
ATOM     37  C   UNL A   1      44.739  29.925  29.834  1.00  0.00     0.034 A 
BRANCH  24  38
ATOM     38  C   UNL A   1      42.123  29.553  34.527  1.00  0.00     0.023 A 
ATOM     39  C   UNL A   1      42.756  30.223  35.597  1.00  0.00     0.012 A 
ATOM     40  C   UNL A   1      42.014  28.147  34.626  1.00  0.00     0.148 A 
ATOM     41  C   UNL A   1      43.275  29.528  36.697  1.00  0.00     0.002 A 
ATOM     42  C   UNL A   1      42.451  27.472  35.761  1.00  0.00     0.091 A 
ATOM     43  F   UNL A   1      41.609  27.434  33.569  1.00  0.00    -0.205 F 
ATOM     44  C   UNL A   1      43.108  28.153  36.787  1.00  0.00     0.022 A 
BRANCH  42  45
ATOM     45  S   UNL A   1      42.181  25.706  35.950  1.00  0.00     0.127 S 
ATOM     46  O   UNL A   1      40.733  25.612  35.799  1.00  0.00    -0.237 OA
ATOM     47  O   UNL A   1      42.958  25.157  34.838  1.00  0.00    -0.237 OA
ATOM     48  O   UNL A   1      42.721  25.384  37.265  1.00  0.00    -0.744 OA
ENDBRANCH  42  45
ENDBRANCH  24  38
BRANCH  25  49
ATOM     49  C   UNL A   1      42.728  24.842  27.633  1.00  0.00     0.023 A 
ATOM     50  C   UNL A   1      41.660  23.976  27.940  1.00  0.00     0.012 A 
ATOM     51  C   UNL A   1      43.720  24.386  26.738  1.00  0.00     0.148 A 
ATOM     52  C   UNL A   1      41.571  22.706  27.357  1.00  0.00     0.002 A 
ATOM     53  C   UNL A   1      43.635  23.118  26.172  1.00  0.00     0.091 A 
ATOM     54  F   UNL A   1      44.694  25.229  26.369  1.00  0.00    -0.205 F 
ATOM     55  C   UNL A   1      42.555  22.279  26.470  1.00  0.00     0.022 A 
BRANCH  53  56
ATOM     56  S   UNL A   1      44.869  22.507  25.016  1.00  0.00     0.127 S 
ATOM     57  O   UNL A   1      46.040  22.343  25.879  1.00  0.00    -0.237 OA
ATOM     58  O   UNL A   1      44.265  21.258  24.561  1.00  0.00    -0.237 OA
ATOM     59  O   UNL A   1      45.015  23.549  24.007  1.00  0.00    -0.744 OA
ENDBRANCH  53  56
ENDBRANCH  25  49
BRANCH  37  60
ATOM     60  C   UNL A   1      45.074  30.610  28.532  1.00  0.00     0.023 A 
ATOM     61  C   UNL A   1      44.073  31.020  27.628  1.00  0.00     0.012 A 
ATOM     62  C   UNL A   1      46.402  31.010  28.297  1.00  0.00     0.148 A 
ATOM     63  C   UNL A   1      44.389  31.779  26.499  1.00  0.00     0.002 A 
ATOM     64  C   UNL A   1      46.706  31.810  27.201  1.00  0.00     0.091 A 
ATOM     65  F   UNL A   1      47.347  30.624  29.169  1.00  0.00    -0.205 F 
ATOM     66  C   UNL A   1      45.704  32.186  26.293  1.00  0.00     0.022 A 
BRANCH  64  67
ATOM     67  S   UNL A   1      48.350  32.488  26.959  1.00  0.00     0.127 S 
ATOM     68  O   UNL A   1      49.130  31.296  26.636  1.00  0.00    -0.237 OA
ATOM     69  O   UNL A   1      48.151  33.409  25.838  1.00  0.00    -0.237 OA
ATOM     70  O   UNL A   1      48.696  33.149  28.211  1.00  0.00    -0.744 OA
ENDBRANCH  64  67
ENDBRANCH  37  60
ENDBRANCH  11  12
ENDBRANCH   4   6
ENDBRANCH   1   2
BRANCH   1  71
ATOM     71  C   UNL A   1      31.751  28.651  26.239  1.00  0.00     0.042 C 
BRANCH  71  72
ATOM     72  C   UNL A   1      31.713  27.394  25.384  1.00  0.00     0.118 C 
BRANCH  72  73
ATOM     73  N   UNL A   1      32.064  27.578  23.994  1.00  0.00    -0.351 N 
ATOM     74  C   UNL A   1      32.135  26.618  23.001  1.00  0.00     0.273 C 
ATOM     75  H   UNL A   1      32.279  28.499  23.722  1.00  0.00     0.163 HD
ATOM     76  O   UNL A   1      32.377  26.972  21.857  1.00  0.00    -0.267 OA
BRANCH  74  77
ATOM     77  C   UNL A   1      31.968  25.210  23.359  1.00  0.00     0.178 A 
ATOM     78  N   UNL A   1      30.759  24.586  23.192  1.00  0.00    -0.124 NA
ATOM     79  C   UNL A   1      32.888  24.293  23.863  1.00  0.00     0.122 A 
ATOM     80  N   UNL A   1      30.900  23.310  23.512  1.00  0.00    -0.061 NA
ATOM     81  N   UNL A   1      32.134  23.141  24.033  1.00  0.00    -0.213 N 
BRANCH  79  82
ATOM     82  C   UNL A   1      34.373  24.354  24.066  1.00  0.00     0.262 C 
ATOM     83  C   UNL A   1      34.724  24.875  25.472  1.00  0.00     0.281 C 
ATOM     84  O   UNL A   1      34.860  23.037  23.805  1.00  0.00    -0.477 OA
ATOM     85  O   UNL A   1      36.118  24.790  25.752  1.00  0.00    -0.485 OA
ATOM     86  C   UNL A   1      36.035  22.748  24.438  1.00  0.00     0.162 A 
ATOM     87  C   UNL A   1      36.618  23.566  25.407  1.00  0.00     0.161 A 
ATOM     88  C   UNL A   1      36.617  21.525  24.110  1.00  0.00     0.050 A 
ATOM     89  C   UNL A   1      37.767  23.147  26.071  1.00  0.00     0.050 A 
ATOM     90  C   UNL A   1      37.769  21.106  24.771  1.00  0.00     0.004 A 
ATOM     91  C   UNL A   1      38.335  21.910  25.761  1.00  0.00     0.004 A 
ENDBRANCH  79  82
BRANCH  81  92
ATOM     92  C   UNL A   1      32.535  21.889  24.549  1.00  0.00     0.067 A 
ATOM     93  C   UNL A   1      32.876  21.786  25.901  1.00  0.00     0.028 A 
ATOM     94  C   UNL A   1      32.532  20.749  23.734  1.00  0.00     0.041 A 
ATOM     95  C   UNL A   1      33.113  20.529  26.456  1.00  0.00     0.003 A 
ATOM     96  C   UNL A   1      32.785  19.482  24.282  1.00  0.00     0.058 A 
ATOM     97  C   UNL A   1      33.052  19.384  25.656  1.00  0.00     0.013 A 
BRANCH  96  98
ATOM     98  C   UNL A   1      32.754  18.245  23.419  1.00  0.00     0.416 C 
ATOM     99  F   UNL A   1      32.092  17.212  24.007  1.00  0.00    -0.166 F 
ATOM    100  F   UNL A   1      32.143  18.457  22.223  1.00  0.00    -0.166 F 
ATOM    101  F   UNL A   1      33.997  17.767  23.123  1.00  0.00    -0.166 F 
ENDBRANCH  96  98
ENDBRANCH  81  92
ENDBRANCH  74  77
ENDBRANCH  72  73
ENDBRANCH  71  72
ENDBRANCH   1  71
TORSDOF 16
ENDMDL
MODEL 3
REMARK VINA RESULT:     -13.1      2.575      3.587
REMARK SMILES O=C(NCCCNC(=O)c1nnn(-c2cccc(C(F)(F)F)c2)c1[C@H]1COc2ccccc2O1)c1ccc(-c2c3nc(c(-c4cccc(S(=O)(=O)[O-])c4F)c4ccc([nH]4)c(-c4cccc(S(=O)(=O)[O-])c4F)c4nc(c(-c5cccc(S(=O)(=O)[O-])c5F)c5ccc2[nH]5)C=C4)C=C3)cc1
REMARK SMILES IDX 4 1 3 2 1 3 2 4 35 6 36 7 97 8 37 9 96 10 38 11 39 12 40 13
REMARK SMILES IDX 90 14 41 15 95 16 89 17 91 18 42 19 94 20 88 21 87 22 43 24
REMARK SMILES IDX 75 25 55 26 74 27 56 28 59 29 73 30 92 31 57 32 58 33 72 35
REMARK SMILES IDX 93 36 60 37 44 38 45 39 53 40 46 41 48 42 54 43 47 44 49 45
REMARK SMILES IDX 50 46 51 47 52 48 76 49 77 50 85 51 78 52 80 53 86 54 79 55
REMARK SMILES IDX 81 56 82 57 83 58 84 59 61 60 62 61 70 62 63 63 65 64 71 65
REMARK SMILES IDX 64 66 66 67 67 68 68 69 69 70 5 71 6 72 7 73 8 74 9 76 10 77
REMARK SMILES IDX 11 78 24 79 12 80 13 81 25 82 26 83 34 84 27 85 33 86 28 87
REMARK SMILES IDX 32 88 29 89 31 90 30 91 14 92 15 93 23 94 16 95 18 96 17 97
REMARK SMILES IDX 19 98 20 99 21 100 22 101
REMARK H PARENT 3 5 91 23 59 34 7 75
REMARK Flexibility Score: inf
ROOT
ATOM      1  C   UNL A   1      39.724  22.245  26.671  1.00  0.00     0.118 C 
ENDROOT
BRANCH   1   2
ATOM      2  N   UNL A   1      40.938  22.494  25.915  1.00  0.00    -0.352 N 
ATOM      3  O   UNL A   1      43.006  23.063  25.398  1.00  0.00    -0.269 OA
ATOM      4  C   UNL A   1      41.997  23.355  26.046  1.00  0.00     0.251 C 
ATOM      5  H   UNL A   1      41.019  21.910  25.128  1.00  0.00     0.163 HD
BRANCH   4   6
ATOM      6  C   UNL A   1      41.991  24.616  26.837  1.00  0.00     0.039 A 
ATOM      7  C   UNL A   1      42.547  24.781  28.105  1.00  0.00     0.014 A 
ATOM      8  C   UNL A   1      41.334  25.713  26.248  1.00  0.00     0.014 A 
ATOM      9  C   UNL A   1      42.385  25.978  28.801  1.00  0.00     0.010 A 
ATOM     10  C   UNL A   1      41.192  26.922  26.927  1.00  0.00     0.010 A 
ATOM     11  C   UNL A   1      41.695  27.045  28.220  1.00  0.00    -0.014 A 
BRANCH  11  12
ATOM     12  C   UNL A   1      41.659  28.316  28.943  1.00  0.00     0.031 A 
ATOM     13  C   UNL A   1      42.676  29.327  28.524  1.00  0.00     0.074 A 
ATOM     14  C   UNL A   1      40.680  28.670  29.800  1.00  0.00     0.049 A 
ATOM     15  N   UNL A   1      43.564  29.931  29.251  1.00  0.00    -0.248 NA
ATOM     16  C   UNL A   1      42.743  29.661  27.093  1.00  0.00     0.031 C 
ATOM     17  C   UNL A   1      39.428  27.956  30.062  1.00  0.00     0.029 A 
ATOM     18  N   UNL A   1      40.534  29.832  30.506  1.00  0.00    -0.354 N 
ATOM     19  C   UNL A   1      44.169  30.865  28.407  1.00  0.00     0.074 A 
ATOM     20  C   UNL A   1      43.721  30.566  27.072  1.00  0.00     0.031 C 
ATOM     21  C   UNL A   1      38.557  28.802  30.655  1.00  0.00     0.029 A 
ATOM     22  C   UNL A   1      39.229  30.061  30.925  1.00  0.00     0.049 A 
ATOM     23  H   UNL A   1      41.279  30.446  30.699  1.00  0.00     0.167 HD
ATOM     24  C   UNL A   1      44.848  31.948  28.873  1.00  0.00     0.034 A 
ATOM     25  C   UNL A   1      38.712  31.228  31.377  1.00  0.00     0.034 A 
ATOM     26  C   UNL A   1      45.210  31.823  30.256  1.00  0.00     0.049 A 
ATOM     27  C   UNL A   1      39.831  32.101  31.791  1.00  0.00     0.074 A 
ATOM     28  C   UNL A   1      45.959  30.938  31.004  1.00  0.00     0.029 A 
ATOM     29  N   UNL A   1      44.513  32.581  31.162  1.00  0.00    -0.354 N 
ATOM     30  N   UNL A   1      40.585  31.884  32.831  1.00  0.00    -0.248 NA
ATOM     31  C   UNL A   1      40.336  33.081  30.844  1.00  0.00     0.031 C 
ATOM     32  C   UNL A   1      45.319  30.894  32.276  1.00  0.00     0.029 A 
ATOM     33  C   UNL A   1      44.231  31.769  32.226  1.00  0.00     0.049 A 
ATOM     34  H   UNL A   1      44.264  33.529  31.066  1.00  0.00     0.167 HD
ATOM     35  C   UNL A   1      41.834  32.359  32.461  1.00  0.00     0.074 A 
ATOM     36  C   UNL A   1      41.585  33.205  31.298  1.00  0.00     0.031 C 
ATOM     37  C   UNL A   1      42.978  31.794  32.949  1.00  0.00     0.034 A 
BRANCH  24  38
ATOM     38  C   UNL A   1      44.938  33.275  28.157  1.00  0.00     0.023 A 
ATOM     39  C   UNL A   1      46.211  33.718  27.733  1.00  0.00     0.012 A 
ATOM     40  C   UNL A   1      43.884  34.215  28.112  1.00  0.00     0.148 A 
ATOM     41  C   UNL A   1      46.428  35.035  27.312  1.00  0.00     0.002 A 
ATOM     42  C   UNL A   1      44.086  35.496  27.607  1.00  0.00     0.091 A 
ATOM     43  F   UNL A   1      42.708  33.926  28.679  1.00  0.00    -0.205 F 
ATOM     44  C   UNL A   1      45.362  35.921  27.232  1.00  0.00     0.022 A 
BRANCH  42  45
ATOM     45  S   UNL A   1      42.717  36.643  27.413  1.00  0.00     0.127 S 
ATOM     46  O   UNL A   1      42.352  36.902  28.802  1.00  0.00    -0.237 OA
ATOM     47  O   UNL A   1      43.354  37.763  26.719  1.00  0.00    -0.237 OA
ATOM     48  O   UNL A   1      41.740  35.925  26.604  1.00  0.00    -0.744 OA
ENDBRANCH  42  45
ENDBRANCH  24  38
BRANCH  25  49
ATOM     49  C   UNL A   1      37.326  31.741  31.283  1.00  0.00     0.023 A 
ATOM     50  C   UNL A   1      36.692  32.254  32.433  1.00  0.00     0.012 A 
ATOM     51  C   UNL A   1      36.717  31.968  30.030  1.00  0.00     0.148 A 
ATOM     52  C   UNL A   1      35.503  32.987  32.334  1.00  0.00     0.002 A 
ATOM     53  C   UNL A   1      35.528  32.684  29.938  1.00  0.00     0.091 A 
ATOM     54  F   UNL A   1      37.351  31.562  28.921  1.00  0.00    -0.205 F 
ATOM     55  C   UNL A   1      34.924  33.206  31.087  1.00  0.00     0.022 A 
BRANCH  53  56
ATOM     56  S   UNL A   1      34.730  33.007  28.360  1.00  0.00     0.127 S 
ATOM     57  O   UNL A   1      34.404  31.655  27.901  1.00  0.00    -0.237 OA
ATOM     58  O   UNL A   1      33.580  33.811  28.761  1.00  0.00    -0.237 OA
ATOM     59  O   UNL A   1      35.730  33.687  27.544  1.00  0.00    -0.744 OA
ENDBRANCH  53  56
ENDBRANCH  25  49
BRANCH  37  60
ATOM     60  C   UNL A   1      42.868  30.856  34.126  1.00  0.00     0.023 A 
ATOM     61  C   UNL A   1      42.915  31.322  35.456  1.00  0.00     0.012 A 
ATOM     62  C   UNL A   1      42.532  29.510  33.892  1.00  0.00     0.148 A 
ATOM     63  C   UNL A   1      42.667  30.463  36.528  1.00  0.00     0.002 A 
ATOM     64  C   UNL A   1      42.234  28.670  34.960  1.00  0.00     0.091 A 
ATOM     65  F   UNL A   1      42.480  29.078  32.622  1.00  0.00    -0.205 F 
ATOM     66  C   UNL A   1      42.313  29.140  36.280  1.00  0.00     0.022 A 
BRANCH  64  67
ATOM     67  S   UNL A   1      41.632  26.999  34.702  1.00  0.00     0.127 S 
ATOM     68  O   UNL A   1      42.802  26.335  34.132  1.00  0.00    -0.237 OA
ATOM     69  O   UNL A   1      41.291  26.573  36.061  1.00  0.00    -0.237 OA
ATOM     70  O   UNL A   1      40.482  27.124  33.816  1.00  0.00    -0.744 OA
ENDBRANCH  64  67
ENDBRANCH  37  60
ENDBRANCH  11  12
ENDBRANCH   4   6
ENDBRANCH   1   2
BRANCH   1  71
ATOM     71  C   UNL A   1      38.643  23.320  26.585  1.00  0.00     0.042 C 
BRANCH  71  72
ATOM     72  C   UNL A   1      37.364  22.911  25.871  1.00  0.00     0.118 C 
BRANCH  72  73
ATOM     73  N   UNL A   1      37.451  22.848  24.431  1.00  0.00    -0.351 N 
ATOM     74  C   UNL A   1      36.417  22.908  23.514  1.00  0.00     0.273 C 
ATOM     75  H   UNL A   1      38.355  22.750  24.056  1.00  0.00     0.163 HD
ATOM     76  O   UNL A   1      36.688  22.915  22.322  1.00  0.00    -0.267 OA
BRANCH  74  77
ATOM     77  C   UNL A   1      35.037  22.910  23.996  1.00  0.00     0.178 A 
ATOM     78  N   UNL A   1      34.384  21.730  24.247  1.00  0.00    -0.124 NA
ATOM     79  C   UNL A   1      34.188  23.973  24.297  1.00  0.00     0.122 A 
ATOM     80  N   UNL A   1      33.190  22.012  24.745  1.00  0.00    -0.061 NA
ATOM     81  N   UNL A   1      33.007  23.347  24.668  1.00  0.00    -0.213 N 
BRANCH  79  82
ATOM     82  C   UNL A   1      34.412  25.453  24.393  1.00  0.00     0.262 C 
ATOM     83  C   UNL A   1      33.871  26.182  23.150  1.00  0.00     0.281 C 
ATOM     84  O   UNL A   1      33.796  25.866  25.613  1.00  0.00    -0.477 OA
ATOM     85  O   UNL A   1      33.922  27.599  23.284  1.00  0.00    -0.485 OA
ATOM     86  C   UNL A   1      33.414  27.177  25.622  1.00  0.00     0.162 A 
ATOM     87  C   UNL A   1      33.429  27.999  24.494  1.00  0.00     0.161 A 
ATOM     88  C   UNL A   1      32.928  27.660  26.836  1.00  0.00     0.050 A 
ATOM     89  C   UNL A   1      32.931  29.296  24.572  1.00  0.00     0.050 A 
ATOM     90  C   UNL A   1      32.433  28.959  26.916  1.00  0.00     0.004 A 
ATOM     91  C   UNL A   1      32.420  29.772  25.781  1.00  0.00     0.004 A 
ENDBRANCH  79  82
BRANCH  81  92
ATOM     92  C   UNL A   1      31.778  23.930  25.048  1.00  0.00     0.067 A 
ATOM     93  C   UNL A   1      31.179  23.538  26.249  1.00  0.00     0.028 A 
ATOM     94  C   UNL A   1      31.193  24.932  24.263  1.00  0.00     0.041 A 
ATOM     95  C   UNL A   1      30.056  24.223  26.712  1.00  0.00     0.003 A 
ATOM     96  C   UNL A   1      30.053  25.615  24.715  1.00  0.00     0.058 A 
ATOM     97  C   UNL A   1      29.506  25.264  25.958  1.00  0.00     0.013 A 
BRANCH  96  98
ATOM     98  C   UNL A   1      29.434  26.717  23.891  1.00  0.00     0.416 C 
ATOM     99  F   UNL A   1      28.076  26.642  23.852  1.00  0.00    -0.166 F 
ATOM    100  F   UNL A   1      29.732  27.956  24.366  1.00  0.00    -0.166 F 
ATOM    101  F   UNL A   1      29.842  26.708  22.590  1.00  0.00    -0.166 F 
ENDBRANCH  96  98
ENDBRANCH  81  92
ENDBRANCH  74  77
ENDBRANCH  72  73
ENDBRANCH  71  72
ENDBRANCH   1  71
TORSDOF 16
ENDMDL
