MODEL 1
REMARK VINA RESULT:      -9.7      0.000      0.000
REMARK SMILES O=C(NCCCNC(=O)c1ccc(N2C(=O)/C(=C\C3=Cc4ccccc4OC3)SC2=S)cc1)c1ccc(-c2c3nc(c(-c4cccc(S(=O)(=O)[O-])c4F)c4ccc([nH]4)c(-c4cccc(S(=O)(=O)[O-])c4F)c4nc(c(-c5cccc(S(=O)(=O)[O-])c5F)c5ccc2[nH]5)C=C4)C=C3)cc1
REMARK SMILES IDX 4 1 3 2 1 3 2 4 34 6 35 7 96 8 36 9 95 10 37 11 38 12 39 13
REMARK SMILES IDX 89 14 40 15 94 16 88 17 90 18 41 19 93 20 87 21 86 22 42 24
REMARK SMILES IDX 74 25 54 26 73 27 55 28 58 29 72 30 91 31 56 32 57 33 71 35
REMARK SMILES IDX 92 36 59 37 43 38 44 39 52 40 45 41 47 42 53 43 46 44 48 45
REMARK SMILES IDX 49 46 50 47 51 48 75 49 76 50 84 51 77 52 79 53 85 54 78 55
REMARK SMILES IDX 80 56 81 57 82 58 83 59 60 60 61 61 69 62 62 63 64 64 70 65
REMARK SMILES IDX 63 66 65 67 66 68 67 69 68 70 5 71 6 72 7 73 8 74 9 76 10 77
REMARK SMILES IDX 11 78 33 79 12 80 32 81 13 82 14 83 15 84 30 85 16 86 17 87
REMARK SMILES IDX 29 88 31 89 18 90 19 91 20 92 28 93 21 94 27 95 22 96 26 97
REMARK SMILES IDX 23 98 25 99 24 100
REMARK H PARENT 3 5 90 23 58 34 7 75
REMARK Flexibility Score: inf
ROOT
ATOM      1  C   UNL A   1      42.082  21.807  26.433  1.00  0.00     0.118 C 
ENDROOT
BRANCH   1   2
ATOM      2  N   UNL A   1      40.642  21.690  26.247  1.00  0.00    -0.352 N 
ATOM      3  O   UNL A   1      38.463  22.200  26.402  1.00  0.00    -0.269 OA
ATOM      4  C   UNL A   1      39.626  22.581  26.509  1.00  0.00     0.251 C 
ATOM      5  H   UNL A   1      40.346  20.829  25.873  1.00  0.00     0.163 HD
BRANCH   4   6
ATOM      6  C   UNL A   1      39.915  23.969  26.943  1.00  0.00     0.039 A 
ATOM      7  C   UNL A   1      39.980  25.017  26.025  1.00  0.00     0.014 A 
ATOM      8  C   UNL A   1      40.101  24.234  28.306  1.00  0.00     0.014 A 
ATOM      9  C   UNL A   1      40.403  26.276  26.439  1.00  0.00     0.010 A 
ATOM     10  C   UNL A   1      40.425  25.528  28.733  1.00  0.00     0.010 A 
ATOM     11  C   UNL A   1      40.625  26.553  27.798  1.00  0.00    -0.014 A 
BRANCH  11  12
ATOM     12  C   UNL A   1      40.997  27.938  28.196  1.00  0.00     0.031 A 
ATOM     13  C   UNL A   1      39.973  28.924  28.692  1.00  0.00     0.074 A 
ATOM     14  C   UNL A   1      42.298  28.292  28.150  1.00  0.00     0.049 A 
ATOM     15  N   UNL A   1      40.159  30.125  29.178  1.00  0.00    -0.248 NA
ATOM     16  C   UNL A   1      38.559  28.519  28.632  1.00  0.00     0.031 C 
ATOM     17  C   UNL A   1      43.378  27.452  27.625  1.00  0.00     0.029 A 
ATOM     18  N   UNL A   1      42.938  29.433  28.563  1.00  0.00    -0.354 N 
ATOM     19  C   UNL A   1      38.894  30.630  29.456  1.00  0.00     0.074 A 
ATOM     20  C   UNL A   1      37.943  29.611  29.067  1.00  0.00     0.031 C 
ATOM     21  C   UNL A   1      44.547  28.087  27.785  1.00  0.00     0.029 A 
ATOM     22  C   UNL A   1      44.301  29.392  28.386  1.00  0.00     0.049 A 
ATOM     23  H   UNL A   1      42.466  30.207  28.947  1.00  0.00     0.167 HD
ATOM     24  C   UNL A   1      38.557  31.821  30.009  1.00  0.00     0.034 A 
ATOM     25  C   UNL A   1      45.253  30.301  28.675  1.00  0.00     0.034 A 
ATOM     26  C   UNL A   1      39.506  32.820  30.426  1.00  0.00     0.049 A 
ATOM     27  C   UNL A   1      44.854  31.585  29.343  1.00  0.00     0.074 A 
ATOM     28  C   UNL A   1      39.260  34.042  31.030  1.00  0.00     0.029 A 
ATOM     29  N   UNL A   1      40.881  32.716  30.288  1.00  0.00    -0.354 N 
ATOM     30  N   UNL A   1      43.662  31.983  29.716  1.00  0.00    -0.248 NA
ATOM     31  C   UNL A   1      45.933  32.530  29.662  1.00  0.00     0.031 C 
ATOM     32  C   UNL A   1      40.487  34.677  31.254  1.00  0.00     0.029 A 
ATOM     33  C   UNL A   1      41.498  33.847  30.799  1.00  0.00     0.049 A 
ATOM     34  H   UNL A   1      41.352  31.950  29.886  1.00  0.00     0.167 HD
ATOM     35  C   UNL A   1      43.848  33.220  30.321  1.00  0.00     0.074 A 
ATOM     36  C   UNL A   1      45.273  33.483  30.306  1.00  0.00     0.031 C 
ATOM     37  C   UNL A   1      42.919  34.075  30.817  1.00  0.00     0.034 A 
BRANCH  24  38
ATOM     38  C   UNL A   1      37.095  32.090  30.261  1.00  0.00     0.023 A 
ATOM     39  C   UNL A   1      36.528  31.697  31.490  1.00  0.00     0.012 A 
ATOM     40  C   UNL A   1      36.307  32.799  29.332  1.00  0.00     0.148 A 
ATOM     41  C   UNL A   1      35.195  31.983  31.783  1.00  0.00     0.002 A 
ATOM     42  C   UNL A   1      34.988  33.113  29.647  1.00  0.00     0.091 A 
ATOM     43  F   UNL A   1      36.858  33.149  28.161  1.00  0.00    -0.205 F 
ATOM     44  C   UNL A   1      34.430  32.700  30.868  1.00  0.00     0.022 A 
BRANCH  42  45
ATOM     45  S   UNL A   1      33.939  34.093  28.566  1.00  0.00     0.127 S 
ATOM     46  O   UNL A   1      33.477  33.085  27.612  1.00  0.00    -0.237 OA
ATOM     47  O   UNL A   1      32.910  34.576  29.488  1.00  0.00    -0.237 OA
ATOM     48  O   UNL A   1      34.795  35.134  28.014  1.00  0.00    -0.744 OA
ENDBRANCH  42  45
ENDBRANCH  24  38
BRANCH  25  49
ATOM     49  C   UNL A   1      46.679  29.990  28.382  1.00  0.00     0.023 A 
ATOM     50  C   UNL A   1      47.266  30.460  27.191  1.00  0.00     0.012 A 
ATOM     51  C   UNL A   1      47.473  29.281  29.304  1.00  0.00     0.148 A 
ATOM     52  C   UNL A   1      48.611  30.209  26.915  1.00  0.00     0.002 A 
ATOM     53  C   UNL A   1      48.826  29.090  29.052  1.00  0.00     0.091 A 
ATOM     54  F   UNL A   1      46.894  28.818  30.423  1.00  0.00    -0.205 F 
ATOM     55  C   UNL A   1      49.394  29.539  27.851  1.00  0.00     0.022 A 
BRANCH  53  56
ATOM     56  S   UNL A   1      49.916  28.379  30.289  1.00  0.00     0.127 S 
ATOM     57  O   UNL A   1      49.619  26.955  30.171  1.00  0.00    -0.237 OA
ATOM     58  O   UNL A   1      51.240  28.776  29.805  1.00  0.00    -0.237 OA
ATOM     59  O   UNL A   1      49.531  29.016  31.542  1.00  0.00    -0.744 OA
ENDBRANCH  53  56
ENDBRANCH  25  49
BRANCH  37  60
ATOM     60  C   UNL A   1      43.418  35.376  31.382  1.00  0.00     0.023 A 
ATOM     61  C   UNL A   1      43.706  35.467  32.759  1.00  0.00     0.012 A 
ATOM     62  C   UNL A   1      43.644  36.492  30.553  1.00  0.00     0.148 A 
ATOM     63  C   UNL A   1      44.177  36.659  33.309  1.00  0.00     0.002 A 
ATOM     64  C   UNL A   1      44.154  37.664  31.102  1.00  0.00     0.091 A 
ATOM     65  F   UNL A   1      43.342  36.395  29.250  1.00  0.00    -0.205 F 
ATOM     66  C   UNL A   1      44.411  37.752  32.479  1.00  0.00     0.022 A 
BRANCH  64  67
ATOM     67  S   UNL A   1      44.559  39.091  30.087  1.00  0.00     0.127 S 
ATOM     68  O   UNL A   1      45.494  38.515  29.123  1.00  0.00    -0.237 OA
ATOM     69  O   UNL A   1      43.258  39.462  29.529  1.00  0.00    -0.237 OA
ATOM     70  O   UNL A   1      45.120  40.076  31.003  1.00  0.00    -0.744 OA
ENDBRANCH  64  67
ENDBRANCH  37  60
ENDBRANCH  11  12
ENDBRANCH   4   6
ENDBRANCH   1   2
BRANCH   1  71
ATOM     71  C   UNL A   1      42.771  22.612  25.338  1.00  0.00     0.042 C 
BRANCH  71  72
ATOM     72  C   UNL A   1      43.543  23.830  25.826  1.00  0.00     0.118 C 
BRANCH  72  73
ATOM     73  N   UNL A   1      44.976  23.594  25.921  1.00  0.00    -0.352 N 
ATOM     74  C   UNL A   1      45.875  23.849  26.924  1.00  0.00     0.251 C 
ATOM     75  H   UNL A   1      45.370  23.176  25.121  1.00  0.00     0.163 HD
ATOM     76  O   UNL A   1      47.075  23.707  26.702  1.00  0.00    -0.269 OA
BRANCH  74  77
ATOM     77  C   UNL A   1      45.442  24.312  28.261  1.00  0.00     0.039 A 
ATOM     78  C   UNL A   1      46.311  25.115  28.999  1.00  0.00     0.016 A 
ATOM     79  C   UNL A   1      44.235  23.920  28.836  1.00  0.00     0.016 A 
ATOM     80  C   UNL A   1      45.944  25.579  30.270  1.00  0.00     0.027 A 
ATOM     81  C   UNL A   1      43.859  24.414  30.094  1.00  0.00     0.027 A 
ATOM     82  C   UNL A   1      44.703  25.253  30.843  1.00  0.00     0.051 A 
BRANCH  82  83
ATOM     83  N   UNL A   1      44.271  25.829  32.090  1.00  0.00    -0.261 N 
ATOM     84  C   UNL A   1      43.827  27.153  32.141  1.00  0.00     0.270 C 
ATOM     85  C   UNL A   1      44.277  25.190  33.327  1.00  0.00     0.152 C 
ATOM     86  O   UNL A   1      44.159  28.092  31.437  1.00  0.00    -0.268 OA
ATOM     87  C   UNL A   1      42.970  27.337  33.345  1.00  0.00     0.081 C 
ATOM     88  S   UNL A   1      43.503  26.222  34.546  1.00  0.00    -0.054 SA
ATOM     89  S   UNL A   1      44.964  23.740  33.809  1.00  0.00    -0.051 S 
ATOM     90  C   UNL A   1      41.831  28.033  33.486  1.00  0.00     0.028 C 
BRANCH  90  91
ATOM     91  C   UNL A   1      40.988  28.674  32.464  1.00  0.00    -0.009 C 
ATOM     92  C   UNL A   1      39.659  28.871  32.588  1.00  0.00     0.019 C 
ATOM     93  C   UNL A   1      41.684  29.909  31.893  1.00  0.00     0.265 C 
ATOM     94  C   UNL A   1      39.384  30.136  33.332  1.00  0.00     0.017 A 
ATOM     95  O   UNL A   1      41.627  30.988  32.853  1.00  0.00    -0.488 OA
ATOM     96  C   UNL A   1      38.156  30.322  33.972  1.00  0.00     0.012 A 
ATOM     97  C   UNL A   1      40.398  31.104  33.471  1.00  0.00     0.127 A 
ATOM     98  C   UNL A   1      37.965  31.434  34.794  1.00  0.00     0.001 A 
ATOM     99  C   UNL A   1      40.211  32.200  34.308  1.00  0.00     0.047 A 
ATOM    100  C   UNL A   1      38.996  32.359  34.977  1.00  0.00     0.004 A 
ENDBRANCH  90  91
ENDBRANCH  82  83
ENDBRANCH  74  77
ENDBRANCH  72  73
ENDBRANCH  71  72
ENDBRANCH   1  71
TORSDOF 15
ENDMDL
MODEL 2
REMARK VINA RESULT:      -9.7      3.296     10.436
REMARK SMILES O=C(NCCCNC(=O)c1ccc(N2C(=O)/C(=C\C3=Cc4ccccc4OC3)SC2=S)cc1)c1ccc(-c2c3nc(c(-c4cccc(S(=O)(=O)[O-])c4F)c4ccc([nH]4)c(-c4cccc(S(=O)(=O)[O-])c4F)c4nc(c(-c5cccc(S(=O)(=O)[O-])c5F)c5ccc2[nH]5)C=C4)C=C3)cc1
REMARK SMILES IDX 4 1 3 2 1 3 2 4 34 6 35 7 96 8 36 9 95 10 37 11 38 12 39 13
REMARK SMILES IDX 89 14 40 15 94 16 88 17 90 18 41 19 93 20 87 21 86 22 42 24
REMARK SMILES IDX 74 25 54 26 73 27 55 28 58 29 72 30 91 31 56 32 57 33 71 35
REMARK SMILES IDX 92 36 59 37 43 38 44 39 52 40 45 41 47 42 53 43 46 44 48 45
REMARK SMILES IDX 49 46 50 47 51 48 75 49 76 50 84 51 77 52 79 53 85 54 78 55
REMARK SMILES IDX 80 56 81 57 82 58 83 59 60 60 61 61 69 62 62 63 64 64 70 65
REMARK SMILES IDX 63 66 65 67 66 68 67 69 68 70 5 71 6 72 7 73 8 74 9 76 10 77
REMARK SMILES IDX 11 78 33 79 12 80 32 81 13 82 14 83 15 84 30 85 16 86 17 87
REMARK SMILES IDX 29 88 31 89 18 90 19 91 20 92 28 93 21 94 27 95 22 96 26 97
REMARK SMILES IDX 23 98 25 99 24 100
REMARK H PARENT 3 5 90 23 58 34 7 75
REMARK Flexibility Score: inf
ROOT
ATOM      1  C   UNL A   1      34.951  33.369  29.485  1.00  0.00     0.118 C 
ENDROOT
BRANCH   1   2
ATOM      2  N   UNL A   1      34.294  32.471  28.543  1.00  0.00    -0.352 N 
ATOM      3  O   UNL A   1      34.036  30.763  27.113  1.00  0.00    -0.269 OA
ATOM      4  C   UNL A   1      34.706  31.272  28.007  1.00  0.00     0.251 C 
ATOM      5  H   UNL A   1      33.408  32.774  28.239  1.00  0.00     0.163 HD
BRANCH   4   6
ATOM      6  C   UNL A   1      35.951  30.614  28.468  1.00  0.00     0.039 A 
ATOM      7  C   UNL A   1      35.923  29.602  29.428  1.00  0.00     0.014 A 
ATOM      8  C   UNL A   1      37.176  30.997  27.908  1.00  0.00     0.014 A 
ATOM      9  C   UNL A   1      37.114  29.110  29.953  1.00  0.00     0.010 A 
ATOM     10  C   UNL A   1      38.370  30.424  28.365  1.00  0.00     0.010 A 
ATOM     11  C   UNL A   1      38.354  29.507  29.425  1.00  0.00    -0.014 A 
BRANCH  11  12
ATOM     12  C   UNL A   1      39.595  28.889  29.967  1.00  0.00     0.031 A 
ATOM     13  C   UNL A   1      40.279  27.742  29.272  1.00  0.00     0.074 A 
ATOM     14  C   UNL A   1      40.136  29.411  31.087  1.00  0.00     0.049 A 
ATOM     15  N   UNL A   1      41.422  27.172  29.561  1.00  0.00    -0.248 NA
ATOM     16  C   UNL A   1      39.596  27.149  28.110  1.00  0.00     0.031 C 
ATOM     17  C   UNL A   1      39.535  30.478  31.891  1.00  0.00     0.029 A 
ATOM     18  N   UNL A   1      41.314  29.134  31.733  1.00  0.00    -0.354 N 
ATOM     19  C   UNL A   1      41.584  26.143  28.640  1.00  0.00     0.074 A 
ATOM     20  C   UNL A   1      40.412  26.153  27.792  1.00  0.00     0.031 C 
ATOM     21  C   UNL A   1      40.364  30.793  32.895  1.00  0.00     0.029 A 
ATOM     22  C   UNL A   1      41.536  29.928  32.834  1.00  0.00     0.049 A 
ATOM     23  H   UNL A   1      41.940  28.433  31.438  1.00  0.00     0.167 HD
ATOM     24  C   UNL A   1      42.626  25.287  28.497  1.00  0.00     0.034 A 
ATOM     25  C   UNL A   1      42.567  29.962  33.700  1.00  0.00     0.034 A 
ATOM     26  C   UNL A   1      43.807  25.301  29.321  1.00  0.00     0.049 A 
ATOM     27  C   UNL A   1      43.734  29.043  33.479  1.00  0.00     0.074 A 
ATOM     28  C   UNL A   1      44.930  24.496  29.229  1.00  0.00     0.029 A 
ATOM     29  N   UNL A   1      44.023  26.161  30.386  1.00  0.00    -0.354 N 
ATOM     30  N   UNL A   1      43.923  28.169  32.522  1.00  0.00    -0.248 NA
ATOM     31  C   UNL A   1      44.845  29.139  34.436  1.00  0.00     0.031 C 
ATOM     32  C   UNL A   1      45.823  24.869  30.240  1.00  0.00     0.029 A 
ATOM     33  C   UNL A   1      45.260  25.912  30.957  1.00  0.00     0.049 A 
ATOM     34  H   UNL A   1      43.388  26.850  30.693  1.00  0.00     0.167 HD
ATOM     35  C   UNL A   1      45.175  27.616  32.755  1.00  0.00     0.074 A 
ATOM     36  C   UNL A   1      45.719  28.288  33.917  1.00  0.00     0.031 C 
ATOM     37  C   UNL A   1      45.807  26.620  32.085  1.00  0.00     0.034 A 
BRANCH  24  38
ATOM     38  C   UNL A   1      42.572  24.297  27.361  1.00  0.00     0.023 A 
ATOM     39  C   UNL A   1      43.166  24.636  26.129  1.00  0.00     0.012 A 
ATOM     40  C   UNL A   1      42.015  23.014  27.531  1.00  0.00     0.148 A 
ATOM     41  C   UNL A   1      43.189  23.723  25.075  1.00  0.00     0.002 A 
ATOM     42  C   UNL A   1      42.074  22.096  26.487  1.00  0.00     0.091 A 
ATOM     43  F   UNL A   1      41.438  22.717  28.703  1.00  0.00    -0.205 F 
ATOM     44  C   UNL A   1      42.654  22.451  25.258  1.00  0.00     0.022 A 
BRANCH  42  45
ATOM     45  S   UNL A   1      41.475  20.408  26.643  1.00  0.00     0.127 S 
ATOM     46  O   UNL A   1      42.198  19.949  27.829  1.00  0.00    -0.237 OA
ATOM     47  O   UNL A   1      40.039  20.607  26.844  1.00  0.00    -0.237 OA
ATOM     48  O   UNL A   1      41.826  19.742  25.397  1.00  0.00    -0.744 OA
ENDBRANCH  42  45
ENDBRANCH  24  38
BRANCH  25  49
ATOM     49  C   UNL A   1      42.556  30.946  34.818  1.00  0.00     0.023 A 
ATOM     50  C   UNL A   1      42.064  30.562  36.080  1.00  0.00     0.012 A 
ATOM     51  C   UNL A   1      43.083  32.240  34.652  1.00  0.00     0.148 A 
ATOM     52  C   UNL A   1      42.078  31.459  37.150  1.00  0.00     0.002 A 
ATOM     53  C   UNL A   1      43.152  33.106  35.737  1.00  0.00     0.091 A 
ATOM     54  F   UNL A   1      43.526  32.600  33.438  1.00  0.00    -0.205 F 
ATOM     55  C   UNL A   1      42.635  32.724  36.984  1.00  0.00     0.022 A 
BRANCH  53  56
ATOM     56  S   UNL A   1      44.004  34.683  35.624  1.00  0.00     0.127 S 
ATOM     57  O   UNL A   1      45.308  34.283  35.103  1.00  0.00    -0.237 OA
ATOM     58  O   UNL A   1      43.165  35.426  34.682  1.00  0.00    -0.237 OA
ATOM     59  O   UNL A   1      43.989  35.219  36.979  1.00  0.00    -0.744 OA
ENDBRANCH  53  56
ENDBRANCH  25  49
BRANCH  37  60
ATOM     60  C   UNL A   1      47.157  26.197  32.597  1.00  0.00     0.023 A 
ATOM     61  C   UNL A   1      48.308  26.881  32.158  1.00  0.00     0.012 A 
ATOM     62  C   UNL A   1      47.286  25.159  33.540  1.00  0.00     0.148 A 
ATOM     63  C   UNL A   1      49.571  26.516  32.622  1.00  0.00     0.002 A 
ATOM     64  C   UNL A   1      48.545  24.828  34.030  1.00  0.00     0.091 A 
ATOM     65  F   UNL A   1      46.183  24.503  33.929  1.00  0.00    -0.205 F 
ATOM     66  C   UNL A   1      49.688  25.498  33.564  1.00  0.00     0.022 A 
BRANCH  64  67
ATOM     67  S   UNL A   1      48.772  23.584  35.306  1.00  0.00     0.127 S 
ATOM     68  O   UNL A   1      47.980  22.473  34.784  1.00  0.00    -0.237 OA
ATOM     69  O   UNL A   1      50.219  23.365  35.282  1.00  0.00    -0.237 OA
ATOM     70  O   UNL A   1      48.279  24.189  36.537  1.00  0.00    -0.744 OA
ENDBRANCH  64  67
ENDBRANCH  37  60
ENDBRANCH  11  12
ENDBRANCH   4   6
ENDBRANCH   1   2
BRANCH   1  71
ATOM     71  C   UNL A   1      34.770  32.958  30.940  1.00  0.00     0.042 C 
BRANCH  71  72
ATOM     72  C   UNL A   1      36.063  32.663  31.689  1.00  0.00     0.118 C 
BRANCH  72  73
ATOM     73  N   UNL A   1      36.396  33.685  32.670  1.00  0.00    -0.352 N 
ATOM     74  C   UNL A   1      37.566  34.353  32.925  1.00  0.00     0.251 C 
ATOM     75  H   UNL A   1      35.647  33.942  33.256  1.00  0.00     0.163 HD
ATOM     76  O   UNL A   1      37.644  35.062  33.925  1.00  0.00    -0.269 OA
BRANCH  74  77
ATOM     77  C   UNL A   1      38.745  34.227  32.040  1.00  0.00     0.039 A 
ATOM     78  C   UNL A   1      40.011  34.424  32.591  1.00  0.00     0.016 A 
ATOM     79  C   UNL A   1      38.635  33.991  30.672  1.00  0.00     0.016 A 
ATOM     80  C   UNL A   1      41.158  34.313  31.792  1.00  0.00     0.027 A 
ATOM     81  C   UNL A   1      39.787  33.849  29.885  1.00  0.00     0.027 A 
ATOM     82  C   UNL A   1      41.076  34.008  30.423  1.00  0.00     0.051 A 
BRANCH  82  83
ATOM     83  N   UNL A   1      42.253  33.770  29.628  1.00  0.00    -0.261 N 
ATOM     84  C   UNL A   1      42.929  32.549  29.715  1.00  0.00     0.270 C 
ATOM     85  C   UNL A   1      42.848  34.681  28.761  1.00  0.00     0.152 C 
ATOM     86  O   UNL A   1      43.011  31.793  30.669  1.00  0.00    -0.268 OA
ATOM     87  C   UNL A   1      43.734  32.346  28.478  1.00  0.00     0.081 C 
ATOM     88  S   UNL A   1      44.172  33.899  27.873  1.00  0.00    -0.054 SA
ATOM     89  S   UNL A   1      42.579  36.320  28.538  1.00  0.00    -0.051 S 
ATOM     90  C   UNL A   1      43.931  31.229  27.760  1.00  0.00     0.028 C 
BRANCH  90  91
ATOM     91  C   UNL A   1      43.277  29.915  27.866  1.00  0.00    -0.009 C 
ATOM     92  C   UNL A   1      43.084  29.075  26.829  1.00  0.00     0.019 C 
ATOM     93  C   UNL A   1      43.773  29.168  29.104  1.00  0.00     0.265 C 
ATOM     94  C   UNL A   1      44.300  28.237  26.601  1.00  0.00     0.017 A 
ATOM     95  O   UNL A   1      45.109  28.668  28.869  1.00  0.00    -0.488 OA
ATOM     96  C   UNL A   1      44.521  27.644  25.356  1.00  0.00     0.012 A 
ATOM     97  C   UNL A   1      45.273  28.121  27.613  1.00  0.00     0.127 A 
ATOM     98  C   UNL A   1      45.732  26.996  25.102  1.00  0.00     0.001 A 
ATOM     99  C   UNL A   1      46.486  27.492  27.350  1.00  0.00     0.047 A 
ATOM    100  C   UNL A   1      46.718  26.937  26.090  1.00  0.00     0.004 A 
ENDBRANCH  90  91
ENDBRANCH  82  83
ENDBRANCH  74  77
ENDBRANCH  72  73
ENDBRANCH  71  72
ENDBRANCH   1  71
TORSDOF 15
ENDMDL
MODEL 3
REMARK VINA RESULT:      -9.6      3.344     10.040
REMARK SMILES O=C(NCCCNC(=O)c1ccc(N2C(=O)/C(=C\C3=Cc4ccccc4OC3)SC2=S)cc1)c1ccc(-c2c3nc(c(-c4cccc(S(=O)(=O)[O-])c4F)c4ccc([nH]4)c(-c4cccc(S(=O)(=O)[O-])c4F)c4nc(c(-c5cccc(S(=O)(=O)[O-])c5F)c5ccc2[nH]5)C=C4)C=C3)cc1
REMARK SMILES IDX 4 1 3 2 1 3 2 4 34 6 35 7 96 8 36 9 95 10 37 11 38 12 39 13
REMARK SMILES IDX 89 14 40 15 94 16 88 17 90 18 41 19 93 20 87 21 86 22 42 24
REMARK SMILES IDX 74 25 54 26 73 27 55 28 58 29 72 30 91 31 56 32 57 33 71 35
REMARK SMILES IDX 92 36 59 37 43 38 44 39 52 40 45 41 47 42 53 43 46 44 48 45
REMARK SMILES IDX 49 46 50 47 51 48 75 49 76 50 84 51 77 52 79 53 85 54 78 55
REMARK SMILES IDX 80 56 81 57 82 58 83 59 60 60 61 61 69 62 62 63 64 64 70 65
REMARK SMILES IDX 63 66 65 67 66 68 67 69 68 70 5 71 6 72 7 73 8 74 9 76 10 77
REMARK SMILES IDX 11 78 33 79 12 80 32 81 13 82 14 83 15 84 30 85 16 86 17 87
REMARK SMILES IDX 29 88 31 89 18 90 19 91 20 92 28 93 21 94 27 95 22 96 26 97
REMARK SMILES IDX 23 98 25 99 24 100
REMARK H PARENT 3 5 90 23 58 34 7 75
REMARK Flexibility Score: inf
ROOT
ATOM      1  C   UNL A   1      34.762  33.186  28.885  1.00  0.00     0.118 C 
ENDROOT
BRANCH   1   2
ATOM      2  N   UNL A   1      34.062  32.134  28.160  1.00  0.00    -0.352 N 
ATOM      3  O   UNL A   1      33.746  30.209  27.052  1.00  0.00    -0.269 OA
ATOM      4  C   UNL A   1      34.469  30.871  27.793  1.00  0.00     0.251 C 
ATOM      5  H   UNL A   1      33.146  32.366  27.886  1.00  0.00     0.163 HD
BRANCH   4   6
ATOM      6  C   UNL A   1      35.767  30.321  28.249  1.00  0.00     0.039 A 
ATOM      7  C   UNL A   1      35.864  29.564  29.416  1.00  0.00     0.014 A 
ATOM      8  C   UNL A   1      36.914  30.544  27.477  1.00  0.00     0.014 A 
ATOM      9  C   UNL A   1      37.113  29.191  29.901  1.00  0.00     0.010 A 
ATOM     10  C   UNL A   1      38.160  30.076  27.915  1.00  0.00     0.010 A 
ATOM     11  C   UNL A   1      38.278  29.434  29.155  1.00  0.00    -0.014 A 
BRANCH  11  12
ATOM     12  C   UNL A   1      39.582  28.943  29.680  1.00  0.00     0.031 A 
ATOM     13  C   UNL A   1      40.186  29.494  30.944  1.00  0.00     0.074 A 
ATOM     14  C   UNL A   1      40.206  27.946  29.019  1.00  0.00     0.049 A 
ATOM     15  N   UNL A   1      41.256  29.092  31.583  1.00  0.00    -0.248 NA
ATOM     16  C   UNL A   1      39.515  30.643  31.571  1.00  0.00     0.031 C 
ATOM     17  C   UNL A   1      39.758  27.374  27.747  1.00  0.00     0.029 A 
ATOM     18  N   UNL A   1      41.331  27.225  29.328  1.00  0.00    -0.354 N 
ATOM     19  C   UNL A   1      41.403  29.950  32.667  1.00  0.00     0.074 A 
ATOM     20  C   UNL A   1      40.322  30.909  32.591  1.00  0.00     0.031 C 
ATOM     21  C   UNL A   1      40.573  26.366  27.406  1.00  0.00     0.029 A 
ATOM     22  C   UNL A   1      41.623  26.243  28.410  1.00  0.00     0.049 A 
ATOM     23  H   UNL A   1      41.878  27.395  30.129  1.00  0.00     0.167 HD
ATOM     24  C   UNL A   1      42.336  29.925  33.651  1.00  0.00     0.034 A 
ATOM     25  C   UNL A   1      42.622  25.340  28.376  1.00  0.00     0.034 A 
ATOM     26  C   UNL A   1      43.392  28.950  33.744  1.00  0.00     0.049 A 
ATOM     27  C   UNL A   1      43.604  25.299  29.511  1.00  0.00     0.074 A 
ATOM     28  C   UNL A   1      44.362  28.823  34.724  1.00  0.00     0.029 A 
ATOM     29  N   UNL A   1      43.617  27.933  32.829  1.00  0.00    -0.354 N 
ATOM     30  N   UNL A   1      43.644  26.037  30.593  1.00  0.00    -0.248 NA
ATOM     31  C   UNL A   1      44.658  24.277  29.439  1.00  0.00     0.031 C 
ATOM     32  C   UNL A   1      45.174  27.731  34.399  1.00  0.00     0.029 A 
ATOM     33  C   UNL A   1      44.705  27.172  33.222  1.00  0.00     0.049 A 
ATOM     34  H   UNL A   1      43.081  27.775  32.018  1.00  0.00     0.167 HD
ATOM     35  C   UNL A   1      44.719  25.566  31.335  1.00  0.00     0.074 A 
ATOM     36  C   UNL A   1      45.276  24.448  30.600  1.00  0.00     0.031 C 
ATOM     37  C   UNL A   1      45.220  26.035  32.504  1.00  0.00     0.034 A 
BRANCH  24  38
ATOM     38  C   UNL A   1      42.223  30.948  34.753  1.00  0.00     0.023 A 
ATOM     39  C   UNL A   1      41.537  30.606  35.936  1.00  0.00     0.012 A 
ATOM     40  C   UNL A   1      42.858  32.202  34.661  1.00  0.00     0.148 A 
ATOM     41  C   UNL A   1      41.463  31.504  37.001  1.00  0.00     0.002 A 
ATOM     42  C   UNL A   1      42.812  33.078  35.741  1.00  0.00     0.091 A 
ATOM     43  F   UNL A   1      43.490  32.516  33.521  1.00  0.00    -0.205 F 
ATOM     44  C   UNL A   1      42.110  32.733  36.907  1.00  0.00     0.022 A 
BRANCH  42  45
ATOM     45  S   UNL A   1      43.670  34.657  35.747  1.00  0.00     0.127 S 
ATOM     46  O   UNL A   1      45.052  34.241  35.514  1.00  0.00    -0.237 OA
ATOM     47  O   UNL A   1      43.045  35.353  34.622  1.00  0.00    -0.237 OA
ATOM     48  O   UNL A   1      43.404  35.252  37.050  1.00  0.00    -0.744 OA
ENDBRANCH  42  45
ENDBRANCH  24  38
BRANCH  25  49
ATOM     49  C   UNL A   1      42.697  24.370  27.249  1.00  0.00     0.023 A 
ATOM     50  C   UNL A   1      43.458  24.684  26.107  1.00  0.00     0.012 A 
ATOM     51  C   UNL A   1      42.067  23.113  27.329  1.00  0.00     0.148 A 
ATOM     52  C   UNL A   1      43.569  23.773  25.055  1.00  0.00     0.002 A 
ATOM     53  C   UNL A   1      42.235  22.187  26.307  1.00  0.00     0.091 A 
ATOM     54  F   UNL A   1      41.327  22.837  28.413  1.00  0.00    -0.205 F 
ATOM     55  C   UNL A   1      42.972  22.519  25.162  1.00  0.00     0.022 A 
BRANCH  53  56
ATOM     56  S   UNL A   1      41.627  20.504  26.462  1.00  0.00     0.127 S 
ATOM     57  O   UNL A   1      40.195  20.679  26.238  1.00  0.00    -0.237 OA
ATOM     58  O   UNL A   1      42.340  19.813  25.386  1.00  0.00    -0.237 OA
ATOM     59  O   UNL A   1      42.023  20.081  27.799  1.00  0.00    -0.744 OA
ENDBRANCH  53  56
ENDBRANCH  25  49
BRANCH  37  60
ATOM     60  C   UNL A   1      46.433  25.340  33.059  1.00  0.00     0.023 A 
ATOM     61  C   UNL A   1      47.716  25.822  32.731  1.00  0.00     0.012 A 
ATOM     62  C   UNL A   1      46.309  24.243  33.932  1.00  0.00     0.148 A 
ATOM     63  C   UNL A   1      48.858  25.202  33.236  1.00  0.00     0.002 A 
ATOM     64  C   UNL A   1      47.452  23.655  34.465  1.00  0.00     0.091 A 
ATOM     65  F   UNL A   1      45.082  23.781  34.214  1.00  0.00    -0.205 F 
ATOM     66  C   UNL A   1      48.726  24.127  34.111  1.00  0.00     0.022 A 
BRANCH  64  67
ATOM     67  S   UNL A   1      47.364  22.318  35.662  1.00  0.00     0.127 S 
ATOM     68  O   UNL A   1      46.838  21.224  34.848  1.00  0.00    -0.237 OA
ATOM     69  O   UNL A   1      48.762  22.161  36.066  1.00  0.00    -0.237 OA
ATOM     70  O   UNL A   1      46.485  22.796  36.722  1.00  0.00    -0.744 OA
ENDBRANCH  64  67
ENDBRANCH  37  60
ENDBRANCH  11  12
ENDBRANCH   4   6
ENDBRANCH   1   2
BRANCH   1  71
ATOM     71  C   UNL A   1      34.621  33.076  30.398  1.00  0.00     0.042 C 
BRANCH  71  72
ATOM     72  C   UNL A   1      35.921  32.817  31.147  1.00  0.00     0.118 C 
BRANCH  72  73
ATOM     73  N   UNL A   1      36.195  33.814  32.171  1.00  0.00    -0.352 N 
ATOM     74  C   UNL A   1      37.351  34.461  32.522  1.00  0.00     0.251 C 
ATOM     75  H   UNL A   1      35.410  34.068  32.707  1.00  0.00     0.163 HD
ATOM     76  O   UNL A   1      37.366  35.149  33.541  1.00  0.00    -0.269 OA
BRANCH  74  77
ATOM     77  C   UNL A   1      38.589  34.339  31.721  1.00  0.00     0.039 A 
ATOM     78  C   UNL A   1      39.816  34.422  32.379  1.00  0.00     0.016 A 
ATOM     79  C   UNL A   1      38.576  34.216  30.334  1.00  0.00     0.016 A 
ATOM     80  C   UNL A   1      41.015  34.309  31.662  1.00  0.00     0.027 A 
ATOM     81  C   UNL A   1      39.778  34.071  29.626  1.00  0.00     0.027 A 
ATOM     82  C   UNL A   1      41.027  34.116  30.270  1.00  0.00     0.051 A 
BRANCH  82  83
ATOM     83  N   UNL A   1      42.250  33.875  29.549  1.00  0.00    -0.261 N 
ATOM     84  C   UNL A   1      42.921  32.656  29.684  1.00  0.00     0.270 C 
ATOM     85  C   UNL A   1      42.894  34.781  28.712  1.00  0.00     0.152 C 
ATOM     86  O   UNL A   1      42.947  31.906  30.646  1.00  0.00    -0.268 OA
ATOM     87  C   UNL A   1      43.799  32.446  28.499  1.00  0.00     0.081 C 
ATOM     88  S   UNL A   1      44.270  33.996  27.911  1.00  0.00    -0.054 SA
ATOM     89  S   UNL A   1      42.636  36.418  28.463  1.00  0.00    -0.051 S 
ATOM     90  C   UNL A   1      44.040  31.325  27.802  1.00  0.00     0.028 C 
BRANCH  90  91
ATOM     91  C   UNL A   1      43.383  30.010  27.877  1.00  0.00    -0.009 C 
ATOM     92  C   UNL A   1      43.198  29.190  26.823  1.00  0.00     0.019 C 
ATOM     93  C   UNL A   1      43.867  29.239  29.106  1.00  0.00     0.265 C 
ATOM     94  C   UNL A   1      44.414  28.354  26.589  1.00  0.00     0.017 A 
ATOM     95  O   UNL A   1      45.204  28.741  28.873  1.00  0.00    -0.488 OA
ATOM     96  C   UNL A   1      44.645  27.785  25.335  1.00  0.00     0.012 A 
ATOM     97  C   UNL A   1      45.378  28.217  27.607  1.00  0.00     0.127 A 
ATOM     98  C   UNL A   1      45.856  27.139  25.080  1.00  0.00     0.001 A 
ATOM     99  C   UNL A   1      46.592  27.591  27.343  1.00  0.00     0.047 A 
ATOM    100  C   UNL A   1      46.834  27.060  26.075  1.00  0.00     0.004 A 
ENDBRANCH  90  91
ENDBRANCH  82  83
ENDBRANCH  74  77
ENDBRANCH  72  73
ENDBRANCH  71  72
ENDBRANCH   1  71
TORSDOF 15
ENDMDL
