MODEL 1
REMARK VINA RESULT:     -13.2      0.000      0.000
REMARK SMILES O=C(NCCCNC(=O)c1ccc([S@@](=O)[C@H]2CCOC3(CCCC3)C2)cc1)c1ccc(-c2c3nc(c(-c4cccc(S(=O)(=O)[O-])c4F)c4ccc([nH]4)c(-c4cccc(S(=O)(=O)[O-])c4F)c4nc(c(-c5cccc(S(=O)(=O)[O-])c5F)c5ccc2[nH]5)C=C4)C=C3)cc1
REMARK SMILES IDX 4 1 3 2 1 3 2 4 28 6 29 7 90 8 30 9 89 10 31 11 32 12 33 13
REMARK SMILES IDX 83 14 34 15 88 16 82 17 84 18 35 19 87 20 81 21 80 22 36 24
REMARK SMILES IDX 68 25 48 26 67 27 49 28 52 29 66 30 85 31 50 32 51 33 65 35
REMARK SMILES IDX 86 36 53 37 37 38 38 39 46 40 39 41 41 42 47 43 40 44 42 45
REMARK SMILES IDX 43 46 44 47 45 48 69 49 70 50 78 51 71 52 73 53 79 54 72 55
REMARK SMILES IDX 74 56 75 57 76 58 77 59 54 60 55 61 63 62 56 63 58 64 64 65
REMARK SMILES IDX 57 66 59 67 60 68 61 69 62 70 5 71 6 72 7 73 8 74 9 76 10 77
REMARK SMILES IDX 11 78 27 79 12 80 26 81 13 82 14 83 15 84 16 85 17 86 25 87
REMARK SMILES IDX 18 88 20 89 19 90 21 91 24 92 22 93 23 94
REMARK H PARENT 3 5 84 23 52 34 7 75
REMARK Flexibility Score: inf
ROOT
ATOM      1  C   UNL A   1      33.275  29.059  25.250  1.00  0.00     0.118 C 
ENDROOT
BRANCH   1   2
ATOM      2  N   UNL A   1      32.726  30.304  25.776  1.00  0.00    -0.352 N 
ATOM      3  O   UNL A   1      32.421  32.009  27.207  1.00  0.00    -0.269 OA
ATOM      4  C   UNL A   1      33.145  31.095  26.820  1.00  0.00     0.251 C 
ATOM      5  H   UNL A   1      31.924  30.631  25.307  1.00  0.00     0.163 HD
BRANCH   4   6
ATOM      6  C   UNL A   1      34.440  30.834  27.489  1.00  0.00     0.039 A 
ATOM      7  C   UNL A   1      34.753  29.560  27.957  1.00  0.00     0.014 A 
ATOM      8  C   UNL A   1      35.365  31.874  27.636  1.00  0.00     0.014 A 
ATOM      9  C   UNL A   1      35.886  29.369  28.736  1.00  0.00     0.010 A 
ATOM     10  C   UNL A   1      36.568  31.647  28.318  1.00  0.00     0.010 A 
ATOM     11  C   UNL A   1      36.822  30.402  28.910  1.00  0.00    -0.014 A 
BRANCH  11  12
ATOM     12  C   UNL A   1      38.077  30.101  29.649  1.00  0.00     0.031 A 
ATOM     13  C   UNL A   1      38.320  30.605  31.046  1.00  0.00     0.074 A 
ATOM     14  C   UNL A   1      38.985  29.301  29.054  1.00  0.00     0.049 A 
ATOM     15  N   UNL A   1      39.312  30.327  31.853  1.00  0.00    -0.248 NA
ATOM     16  C   UNL A   1      37.338  31.546  31.609  1.00  0.00     0.031 C 
ATOM     17  C   UNL A   1      38.891  28.806  27.677  1.00  0.00     0.029 A 
ATOM     18  N   UNL A   1      40.145  28.743  29.527  1.00  0.00    -0.354 N 
ATOM     19  C   UNL A   1      39.096  31.076  33.003  1.00  0.00     0.074 A 
ATOM     20  C   UNL A   1      37.883  31.836  32.785  1.00  0.00     0.031 C 
ATOM     21  C   UNL A   1      39.913  27.975  27.436  1.00  0.00     0.029 A 
ATOM     22  C   UNL A   1      40.766  27.919  28.617  1.00  0.00     0.049 A 
ATOM     23  H   UNL A   1      40.499  28.915  30.428  1.00  0.00     0.167 HD
ATOM     24  C   UNL A   1      39.827  31.112  34.144  1.00  0.00     0.034 A 
ATOM     25  C   UNL A   1      41.897  27.195  28.715  1.00  0.00     0.034 A 
ATOM     26  C   UNL A   1      41.014  30.328  34.369  1.00  0.00     0.049 A 
ATOM     27  C   UNL A   1      42.648  27.203  30.014  1.00  0.00     0.074 A 
ATOM     28  C   UNL A   1      41.805  30.268  35.504  1.00  0.00     0.029 A 
ATOM     29  N   UNL A   1      41.582  29.463  33.444  1.00  0.00    -0.354 N 
ATOM     30  N   UNL A   1      42.356  27.826  31.129  1.00  0.00    -0.248 NA
ATOM     31  C   UNL A   1      43.867  26.387  30.079  1.00  0.00     0.031 C 
ATOM     32  C   UNL A   1      42.852  29.372  35.264  1.00  0.00     0.029 A 
ATOM     33  C   UNL A   1      42.708  28.863  33.983  1.00  0.00     0.049 A 
ATOM     34  H   UNL A   1      41.234  29.300  32.538  1.00  0.00     0.167 HD
ATOM     35  C   UNL A   1      43.351  27.476  32.031  1.00  0.00     0.074 A 
ATOM     36  C   UNL A   1      44.226  26.545  31.346  1.00  0.00     0.031 C 
ATOM     37  C   UNL A   1      43.544  27.909  33.302  1.00  0.00     0.034 A 
BRANCH  24  38
ATOM     38  C   UNL A   1      39.336  31.984  35.270  1.00  0.00     0.023 A 
ATOM     39  C   UNL A   1      38.391  31.466  36.180  1.00  0.00     0.012 A 
ATOM     40  C   UNL A   1      39.861  33.275  35.481  1.00  0.00     0.148 A 
ATOM     41  C   UNL A   1      37.963  32.223  37.270  1.00  0.00     0.002 A 
ATOM     42  C   UNL A   1      39.456  34.010  36.590  1.00  0.00     0.091 A 
ATOM     43  F   UNL A   1      40.742  33.759  34.595  1.00  0.00    -0.205 F 
ATOM     44  C   UNL A   1      38.502  33.489  37.480  1.00  0.00     0.022 A 
BRANCH  42  45
ATOM     45  S   UNL A   1      40.143  35.622  36.993  1.00  0.00     0.127 S 
ATOM     46  O   UNL A   1      41.578  35.348  36.957  1.00  0.00    -0.237 OA
ATOM     47  O   UNL A   1      39.653  36.450  35.890  1.00  0.00    -0.237 OA
ATOM     48  O   UNL A   1      39.604  35.972  38.300  1.00  0.00    -0.744 OA
ENDBRANCH  42  45
ENDBRANCH  24  38
BRANCH  25  49
ATOM     49  C   UNL A   1      42.347  26.371  27.560  1.00  0.00     0.023 A 
ATOM     50  C   UNL A   1      43.239  26.915  26.617  1.00  0.00     0.012 A 
ATOM     51  C   UNL A   1      41.942  25.029  27.425  1.00  0.00     0.148 A 
ATOM     52  C   UNL A   1      43.701  26.143  25.549  1.00  0.00     0.002 A 
ATOM     53  C   UNL A   1      42.458  24.247  26.399  1.00  0.00     0.091 A 
ATOM     54  F   UNL A   1      41.074  24.531  28.317  1.00  0.00    -0.205 F 
ATOM     55  C   UNL A   1      43.325  24.807  25.449  1.00  0.00     0.022 A 
BRANCH  53  56
ATOM     56  S   UNL A   1      42.144  22.481  26.319  1.00  0.00     0.127 S 
ATOM     57  O   UNL A   1      42.685  22.138  25.008  1.00  0.00    -0.237 OA
ATOM     58  O   UNL A   1      42.914  21.974  27.456  1.00  0.00    -0.237 OA
ATOM     59  O   UNL A   1      40.701  22.347  26.476  1.00  0.00    -0.744 OA
ENDBRANCH  53  56
ENDBRANCH  25  49
BRANCH  37  60
ATOM     60  C   UNL A   1      44.753  27.383  34.026  1.00  0.00     0.023 A 
ATOM     61  C   UNL A   1      45.969  28.091  33.945  1.00  0.00     0.012 A 
ATOM     62  C   UNL A   1      44.682  26.216  34.809  1.00  0.00     0.148 A 
ATOM     63  C   UNL A   1      47.106  27.626  34.604  1.00  0.00     0.002 A 
ATOM     64  C   UNL A   1      45.809  25.781  35.497  1.00  0.00     0.091 A 
ATOM     65  F   UNL A   1      43.523  25.542  34.854  1.00  0.00    -0.205 F 
ATOM     66  C   UNL A   1      47.024  26.478  35.387  1.00  0.00     0.022 A 
BRANCH  64  67
ATOM     67  S   UNL A   1      45.765  24.357  36.591  1.00  0.00     0.127 S 
ATOM     68  O   UNL A   1      45.463  23.273  35.659  1.00  0.00    -0.237 OA
ATOM     69  O   UNL A   1      47.123  24.334  37.136  1.00  0.00    -0.237 OA
ATOM     70  O   UNL A   1      44.730  24.650  37.575  1.00  0.00    -0.744 OA
ENDBRANCH  64  67
ENDBRANCH  37  60
ENDBRANCH  11  12
ENDBRANCH   4   6
ENDBRANCH   1   2
BRANCH   1  71
ATOM     71  C   UNL A   1      33.098  28.923  23.746  1.00  0.00     0.042 C 
BRANCH  71  72
ATOM     72  C   UNL A   1      32.303  27.692  23.335  1.00  0.00     0.118 C 
BRANCH  72  73
ATOM     73  N   UNL A   1      32.587  27.280  21.965  1.00  0.00    -0.352 N 
ATOM     74  C   UNL A   1      32.884  26.034  21.475  1.00  0.00     0.251 C 
ATOM     75  H   UNL A   1      32.564  28.001  21.294  1.00  0.00     0.163 HD
ATOM     76  O   UNL A   1      33.278  25.886  20.322  1.00  0.00    -0.269 OA
BRANCH  74  77
ATOM     77  C   UNL A   1      32.743  24.860  22.354  1.00  0.00     0.039 A 
ATOM     78  C   UNL A   1      33.892  24.191  22.783  1.00  0.00     0.015 A 
ATOM     79  C   UNL A   1      31.477  24.439  22.772  1.00  0.00     0.015 A 
ATOM     80  C   UNL A   1      33.777  23.155  23.711  1.00  0.00     0.018 A 
ATOM     81  C   UNL A   1      31.366  23.415  23.708  1.00  0.00     0.018 A 
ATOM     82  C   UNL A   1      32.515  22.779  24.192  1.00  0.00     0.039 A 
BRANCH  82  83
ATOM     83  S   UNL A   1      32.392  21.567  25.511  1.00  0.00     0.056 S 
ATOM     84  O   UNL A   1      31.037  21.771  26.125  1.00  0.00    -0.254 OA
BRANCH  83  85
ATOM     85  C   UNL A   1      32.327  19.979  24.613  1.00  0.00     0.089 C 
ATOM     86  C   UNL A   1      32.156  20.040  23.102  1.00  0.00     0.046 C 
ATOM     87  C   UNL A   1      33.595  19.194  24.947  1.00  0.00     0.053 C 
ATOM     88  C   UNL A   1      32.152  18.628  22.531  1.00  0.00     0.162 C 
ATOM     89  C   UNL A   1      33.555  17.795  24.323  1.00  0.00     0.069 C 
ATOM     90  O   UNL A   1      33.315  17.896  22.912  1.00  0.00    -0.375 OA
ATOM     91  C   UNL A   1      34.920  17.085  24.496  1.00  0.00     0.035 C 
ATOM     92  C   UNL A   1      32.533  16.864  25.012  1.00  0.00     0.035 C 
ATOM     93  C   UNL A   1      34.655  15.870  25.377  1.00  0.00     0.003 C 
ATOM     94  C   UNL A   1      33.218  15.506  25.065  1.00  0.00     0.003 C 
ENDBRANCH  83  85
ENDBRANCH  82  83
ENDBRANCH  74  77
ENDBRANCH  72  73
ENDBRANCH  71  72
ENDBRANCH   1  71
TORSDOF 15
ENDMDL
MODEL 2
REMARK VINA RESULT:     -13.2      1.496      2.265
REMARK SMILES O=C(NCCCNC(=O)c1ccc([S@@](=O)[C@H]2CCOC3(CCCC3)C2)cc1)c1ccc(-c2c3nc(c(-c4cccc(S(=O)(=O)[O-])c4F)c4ccc([nH]4)c(-c4cccc(S(=O)(=O)[O-])c4F)c4nc(c(-c5cccc(S(=O)(=O)[O-])c5F)c5ccc2[nH]5)C=C4)C=C3)cc1
REMARK SMILES IDX 4 1 3 2 1 3 2 4 28 6 29 7 90 8 30 9 89 10 31 11 32 12 33 13
REMARK SMILES IDX 83 14 34 15 88 16 82 17 84 18 35 19 87 20 81 21 80 22 36 24
REMARK SMILES IDX 68 25 48 26 67 27 49 28 52 29 66 30 85 31 50 32 51 33 65 35
REMARK SMILES IDX 86 36 53 37 37 38 38 39 46 40 39 41 41 42 47 43 40 44 42 45
REMARK SMILES IDX 43 46 44 47 45 48 69 49 70 50 78 51 71 52 73 53 79 54 72 55
REMARK SMILES IDX 74 56 75 57 76 58 77 59 54 60 55 61 63 62 56 63 58 64 64 65
REMARK SMILES IDX 57 66 59 67 60 68 61 69 62 70 5 71 6 72 7 73 8 74 9 76 10 77
REMARK SMILES IDX 11 78 27 79 12 80 26 81 13 82 14 83 15 84 16 85 17 86 25 87
REMARK SMILES IDX 18 88 20 89 19 90 21 91 24 92 22 93 23 94
REMARK H PARENT 3 5 84 23 52 34 7 75
REMARK Flexibility Score: inf
ROOT
ATOM      1  C   UNL A   1      33.454  28.906  25.117  1.00  0.00     0.118 C 
ENDROOT
BRANCH   1   2
ATOM      2  N   UNL A   1      32.839  30.105  25.673  1.00  0.00    -0.352 N 
ATOM      3  O   UNL A   1      32.430  31.746  27.154  1.00  0.00    -0.269 OA
ATOM      4  C   UNL A   1      33.203  30.880  26.751  1.00  0.00     0.251 C 
ATOM      5  H   UNL A   1      32.031  30.411  25.201  1.00  0.00     0.163 HD
BRANCH   4   6
ATOM      6  C   UNL A   1      34.497  30.656  27.435  1.00  0.00     0.039 A 
ATOM      7  C   UNL A   1      34.862  29.382  27.866  1.00  0.00     0.014 A 
ATOM      8  C   UNL A   1      35.370  31.731  27.634  1.00  0.00     0.014 A 
ATOM      9  C   UNL A   1      35.989  29.217  28.659  1.00  0.00     0.010 A 
ATOM     10  C   UNL A   1      36.570  31.537  28.330  1.00  0.00     0.010 A 
ATOM     11  C   UNL A   1      36.872  30.286  28.885  1.00  0.00    -0.014 A 
BRANCH  11  12
ATOM     12  C   UNL A   1      38.127  30.017  29.637  1.00  0.00     0.031 A 
ATOM     13  C   UNL A   1      38.350  30.542  31.029  1.00  0.00     0.074 A 
ATOM     14  C   UNL A   1      39.054  29.228  29.058  1.00  0.00     0.049 A 
ATOM     15  N   UNL A   1      39.341  30.294  31.847  1.00  0.00    -0.248 NA
ATOM     16  C   UNL A   1      37.346  31.471  31.574  1.00  0.00     0.031 C 
ATOM     17  C   UNL A   1      38.980  28.715  27.687  1.00  0.00     0.029 A 
ATOM     18  N   UNL A   1      40.221  28.698  29.546  1.00  0.00    -0.354 N 
ATOM     19  C   UNL A   1      39.101  31.052  32.986  1.00  0.00     0.074 A 
ATOM     20  C   UNL A   1      37.876  31.786  32.750  1.00  0.00     0.031 C 
ATOM     21  C   UNL A   1      40.020  27.900  27.463  1.00  0.00     0.029 A 
ATOM     22  C   UNL A   1      40.865  27.875  28.651  1.00  0.00     0.049 A 
ATOM     23  H   UNL A   1      40.565  28.888  30.448  1.00  0.00     0.167 HD
ATOM     24  C   UNL A   1      39.823  31.115  34.131  1.00  0.00     0.034 A 
ATOM     25  C   UNL A   1      42.009  27.174  28.766  1.00  0.00     0.034 A 
ATOM     26  C   UNL A   1      41.023  30.356  34.375  1.00  0.00     0.049 A 
ATOM     27  C   UNL A   1      42.750  27.212  30.070  1.00  0.00     0.074 A 
ATOM     28  C   UNL A   1      41.806  30.326  35.517  1.00  0.00     0.029 A 
ATOM     29  N   UNL A   1      41.614  29.492  33.465  1.00  0.00    -0.354 N 
ATOM     30  N   UNL A   1      42.437  27.843  31.176  1.00  0.00    -0.248 NA
ATOM     31  C   UNL A   1      43.984  26.420  30.154  1.00  0.00     0.031 C 
ATOM     32  C   UNL A   1      42.872  29.447  35.295  1.00  0.00     0.029 A 
ATOM     33  C   UNL A   1      42.748  28.920  34.019  1.00  0.00     0.049 A 
ATOM     34  H   UNL A   1      41.277  29.311  32.558  1.00  0.00     0.167 HD
ATOM     35  C   UNL A   1      43.432  27.523  32.089  1.00  0.00     0.074 A 
ATOM     36  C   UNL A   1      44.330  26.601  31.421  1.00  0.00     0.031 C 
ATOM     37  C   UNL A   1      43.607  27.975  33.356  1.00  0.00     0.034 A 
BRANCH  24  38
ATOM     38  C   UNL A   1      39.306  31.991  35.244  1.00  0.00     0.023 A 
ATOM     39  C   UNL A   1      38.386  31.458  36.168  1.00  0.00     0.012 A 
ATOM     40  C   UNL A   1      39.787  33.304  35.427  1.00  0.00     0.148 A 
ATOM     41  C   UNL A   1      37.936  32.220  37.246  1.00  0.00     0.002 A 
ATOM     42  C   UNL A   1      39.361  34.045  36.524  1.00  0.00     0.091 A 
ATOM     43  F   UNL A   1      40.646  33.801  34.527  1.00  0.00    -0.205 F 
ATOM     44  C   UNL A   1      38.431  33.508  37.429  1.00  0.00     0.022 A 
BRANCH  42  45
ATOM     45  S   UNL A   1      39.992  35.688  36.892  1.00  0.00     0.127 S 
ATOM     46  O   UNL A   1      39.298  35.998  38.140  1.00  0.00    -0.237 OA
ATOM     47  O   UNL A   1      41.427  35.443  37.036  1.00  0.00    -0.237 OA
ATOM     48  O   UNL A   1      39.631  36.520  35.752  1.00  0.00    -0.744 OA
ENDBRANCH  42  45
ENDBRANCH  24  38
BRANCH  25  49
ATOM     49  C   UNL A   1      42.483  26.346  27.624  1.00  0.00     0.023 A 
ATOM     50  C   UNL A   1      43.440  26.865  26.732  1.00  0.00     0.012 A 
ATOM     51  C   UNL A   1      42.035  25.021  27.454  1.00  0.00     0.148 A 
ATOM     52  C   UNL A   1      43.925  26.086  25.679  1.00  0.00     0.002 A 
ATOM     53  C   UNL A   1      42.570  24.231  26.445  1.00  0.00     0.091 A 
ATOM     54  F   UNL A   1      41.106  24.548  28.297  1.00  0.00    -0.205 F 
ATOM     55  C   UNL A   1      43.503  24.766  25.545  1.00  0.00     0.022 A 
BRANCH  53  56
ATOM     56  S   UNL A   1      42.194  22.479  26.329  1.00  0.00     0.127 S 
ATOM     57  O   UNL A   1      40.738  22.490  26.221  1.00  0.00    -0.237 OA
ATOM     58  O   UNL A   1      42.900  22.087  25.108  1.00  0.00    -0.237 OA
ATOM     59  O   UNL A   1      42.746  21.893  27.544  1.00  0.00    -0.744 OA
ENDBRANCH  53  56
ENDBRANCH  25  49
BRANCH  37  60
ATOM     60  C   UNL A   1      44.820  27.480  34.095  1.00  0.00     0.023 A 
ATOM     61  C   UNL A   1      46.021  28.215  34.022  1.00  0.00     0.012 A 
ATOM     62  C   UNL A   1      44.768  26.317  34.886  1.00  0.00     0.148 A 
ATOM     63  C   UNL A   1      47.161  27.780  34.694  1.00  0.00     0.002 A 
ATOM     64  C   UNL A   1      45.897  25.912  35.587  1.00  0.00     0.091 A 
ATOM     65  F   UNL A   1      43.624  25.618  34.924  1.00  0.00    -0.205 F 
ATOM     66  C   UNL A   1      47.097  26.635  35.484  1.00  0.00     0.022 A 
BRANCH  64  67
ATOM     67  S   UNL A   1      45.874  24.495  36.691  1.00  0.00     0.127 S 
ATOM     68  O   UNL A   1      47.205  24.562  37.291  1.00  0.00    -0.237 OA
ATOM     69  O   UNL A   1      44.776  24.820  37.602  1.00  0.00    -0.237 OA
ATOM     70  O   UNL A   1      45.623  23.338  35.840  1.00  0.00    -0.744 OA
ENDBRANCH  64  67
ENDBRANCH  37  60
ENDBRANCH  11  12
ENDBRANCH   4   6
ENDBRANCH   1   2
BRANCH   1  71
ATOM     71  C   UNL A   1      33.825  29.057  23.650  1.00  0.00     0.042 C 
BRANCH  71  72
ATOM     72  C   UNL A   1      33.141  28.047  22.741  1.00  0.00     0.118 C 
BRANCH  72  73
ATOM     73  N   UNL A   1      31.784  28.449  22.387  1.00  0.00    -0.352 N 
ATOM     74  C   UNL A   1      30.589  27.863  22.716  1.00  0.00     0.251 C 
ATOM     75  H   UNL A   1      31.717  29.258  21.829  1.00  0.00     0.163 HD
ATOM     76  O   UNL A   1      29.542  28.221  22.185  1.00  0.00    -0.269 OA
BRANCH  74  77
ATOM     77  C   UNL A   1      30.568  26.774  23.709  1.00  0.00     0.039 A 
ATOM     78  C   UNL A   1      30.558  25.450  23.264  1.00  0.00     0.015 A 
ATOM     79  C   UNL A   1      30.583  27.066  25.076  1.00  0.00     0.015 A 
ATOM     80  C   UNL A   1      30.661  24.414  24.194  1.00  0.00     0.018 A 
ATOM     81  C   UNL A   1      30.700  26.031  26.000  1.00  0.00     0.018 A 
ATOM     82  C   UNL A   1      30.753  24.703  25.563  1.00  0.00     0.039 A 
BRANCH  82  83
ATOM     83  S   UNL A   1      31.059  23.375  26.732  1.00  0.00     0.056 S 
ATOM     84  O   UNL A   1      29.845  22.493  26.671  1.00  0.00    -0.254 OA
BRANCH  83  85
ATOM     85  C   UNL A   1      32.423  22.443  25.956  1.00  0.00     0.089 C 
ATOM     86  C   UNL A   1      32.075  21.552  24.773  1.00  0.00     0.046 C 
ATOM     87  C   UNL A   1      33.500  23.442  25.537  1.00  0.00     0.053 C 
ATOM     88  C   UNL A   1      33.337  20.883  24.247  1.00  0.00     0.162 C 
ATOM     89  C   UNL A   1      34.734  22.721  24.985  1.00  0.00     0.069 C 
ATOM     90  O   UNL A   1      34.349  21.835  23.925  1.00  0.00    -0.375 OA
ATOM     91  C   UNL A   1      35.733  23.737  24.381  1.00  0.00     0.035 C 
ATOM     92  C   UNL A   1      35.535  21.985  26.083  1.00  0.00     0.035 C 
ATOM     93  C   UNL A   1      36.997  23.645  25.227  1.00  0.00     0.003 C 
ATOM     94  C   UNL A   1      36.995  22.212  25.718  1.00  0.00     0.003 C 
ENDBRANCH  83  85
ENDBRANCH  82  83
ENDBRANCH  74  77
ENDBRANCH  72  73
ENDBRANCH  71  72
ENDBRANCH   1  71
TORSDOF 15
ENDMDL
MODEL 3
REMARK VINA RESULT:     -13.1      2.156      2.740
REMARK SMILES O=C(NCCCNC(=O)c1ccc([S@@](=O)[C@H]2CCOC3(CCCC3)C2)cc1)c1ccc(-c2c3nc(c(-c4cccc(S(=O)(=O)[O-])c4F)c4ccc([nH]4)c(-c4cccc(S(=O)(=O)[O-])c4F)c4nc(c(-c5cccc(S(=O)(=O)[O-])c5F)c5ccc2[nH]5)C=C4)C=C3)cc1
REMARK SMILES IDX 4 1 3 2 1 3 2 4 28 6 29 7 90 8 30 9 89 10 31 11 32 12 33 13
REMARK SMILES IDX 83 14 34 15 88 16 82 17 84 18 35 19 87 20 81 21 80 22 36 24
REMARK SMILES IDX 68 25 48 26 67 27 49 28 52 29 66 30 85 31 50 32 51 33 65 35
REMARK SMILES IDX 86 36 53 37 37 38 38 39 46 40 39 41 41 42 47 43 40 44 42 45
REMARK SMILES IDX 43 46 44 47 45 48 69 49 70 50 78 51 71 52 73 53 79 54 72 55
REMARK SMILES IDX 74 56 75 57 76 58 77 59 54 60 55 61 63 62 56 63 58 64 64 65
REMARK SMILES IDX 57 66 59 67 60 68 61 69 62 70 5 71 6 72 7 73 8 74 9 76 10 77
REMARK SMILES IDX 11 78 27 79 12 80 26 81 13 82 14 83 15 84 16 85 17 86 25 87
REMARK SMILES IDX 18 88 20 89 19 90 21 91 24 92 22 93 23 94
REMARK H PARENT 3 5 84 23 52 34 7 75
REMARK Flexibility Score: inf
ROOT
ATOM      1  C   UNL A   1      32.477  29.542  26.987  1.00  0.00     0.118 C 
ENDROOT
BRANCH   1   2
ATOM      2  N   UNL A   1      32.428  30.996  26.877  1.00  0.00    -0.352 N 
ATOM      3  O   UNL A   1      32.955  33.139  27.301  1.00  0.00    -0.269 OA
ATOM      4  C   UNL A   1      33.289  31.958  27.352  1.00  0.00     0.251 C 
ATOM      5  H   UNL A   1      31.652  31.346  26.382  1.00  0.00     0.163 HD
BRANCH   4   6
ATOM      6  C   UNL A   1      34.592  31.575  27.943  1.00  0.00     0.039 A 
ATOM      7  C   UNL A   1      34.804  30.284  28.419  1.00  0.00     0.014 A 
ATOM      8  C   UNL A   1      35.626  32.515  28.006  1.00  0.00     0.014 A 
ATOM      9  C   UNL A   1      35.960  29.989  29.128  1.00  0.00     0.010 A 
ATOM     10  C   UNL A   1      36.842  32.177  28.614  1.00  0.00     0.010 A 
ATOM     11  C   UNL A   1      37.006  30.922  29.218  1.00  0.00    -0.014 A 
BRANCH  11  12
ATOM     12  C   UNL A   1      38.270  30.505  29.882  1.00  0.00     0.031 A 
ATOM     13  C   UNL A   1      38.608  30.925  31.287  1.00  0.00     0.074 A 
ATOM     14  C   UNL A   1      39.094  29.676  29.210  1.00  0.00     0.049 A 
ATOM     15  N   UNL A   1      39.615  30.545  32.032  1.00  0.00    -0.248 NA
ATOM     16  C   UNL A   1      37.719  31.901  31.938  1.00  0.00     0.031 C 
ATOM     17  C   UNL A   1      38.905  29.254  27.818  1.00  0.00     0.029 A 
ATOM     18  N   UNL A   1      40.233  29.022  29.601  1.00  0.00    -0.354 N 
ATOM     19  C   UNL A   1      39.501  31.251  33.224  1.00  0.00     0.074 A 
ATOM     20  C   UNL A   1      38.333  32.099  33.098  1.00  0.00     0.031 C 
ATOM     21  C   UNL A   1      39.857  28.370  27.492  1.00  0.00     0.029 A 
ATOM     22  C   UNL A   1      40.756  28.203  28.627  1.00  0.00     0.049 A 
ATOM     23  H   UNL A   1      40.638  29.128  30.492  1.00  0.00     0.167 HD
ATOM     24  C   UNL A   1      40.283  31.185  34.328  1.00  0.00     0.034 A 
ATOM     25  C   UNL A   1      41.840  27.403  28.639  1.00  0.00     0.034 A 
ATOM     26  C   UNL A   1      41.423  30.315  34.462  1.00  0.00     0.049 A 
ATOM     27  C   UNL A   1      42.646  27.300  29.899  1.00  0.00     0.074 A 
ATOM     28  C   UNL A   1      42.258  30.150  35.554  1.00  0.00     0.029 A 
ATOM     29  N   UNL A   1      41.889  29.460  33.474  1.00  0.00    -0.354 N 
ATOM     30  N   UNL A   1      42.447  27.888  31.054  1.00  0.00    -0.248 NA
ATOM     31  C   UNL A   1      43.809  26.404  29.870  1.00  0.00     0.031 C 
ATOM     32  C   UNL A   1      43.231  29.200  35.225  1.00  0.00     0.029 A 
ATOM     33  C   UNL A   1      42.996  28.763  33.931  1.00  0.00     0.049 A 
ATOM     34  H   UNL A   1      41.491  29.363  32.579  1.00  0.00     0.167 HD
ATOM     35  C   UNL A   1      43.456  27.431  31.891  1.00  0.00     0.074 A 
ATOM     36  C   UNL A   1      44.234  26.478  31.124  1.00  0.00     0.031 C 
ATOM     37  C   UNL A   1      43.734  27.790  33.169  1.00  0.00     0.034 A 
BRANCH  24  38
ATOM     38  C   UNL A   1      39.902  32.033  35.515  1.00  0.00     0.023 A 
ATOM     39  C   UNL A   1      40.448  33.328  35.637  1.00  0.00     0.012 A 
ATOM     40  C   UNL A   1      38.952  31.593  36.457  1.00  0.00     0.148 A 
ATOM     41  C   UNL A   1      40.069  34.163  36.687  1.00  0.00     0.002 A 
ATOM     42  C   UNL A   1      38.552  32.445  37.482  1.00  0.00     0.091 A 
ATOM     43  F   UNL A   1      38.459  30.352  36.337  1.00  0.00    -0.205 F 
ATOM     44  C   UNL A   1      39.115  33.726  37.602  1.00  0.00     0.022 A 
BRANCH  42  45
ATOM     45  S   UNL A   1      37.277  32.006  38.670  1.00  0.00     0.127 S 
ATOM     46  O   UNL A   1      37.915  32.369  39.934  1.00  0.00    -0.237 OA
ATOM     47  O   UNL A   1      36.171  32.877  38.273  1.00  0.00    -0.237 OA
ATOM     48  O   UNL A   1      37.026  30.583  38.481  1.00  0.00    -0.744 OA
ENDBRANCH  42  45
ENDBRANCH  24  38
BRANCH  25  49
ATOM     49  C   UNL A   1      42.180  26.608  27.428  1.00  0.00     0.023 A 
ATOM     50  C   UNL A   1      42.824  27.228  26.341  1.00  0.00     0.012 A 
ATOM     51  C   UNL A   1      41.925  25.223  27.374  1.00  0.00     0.148 A 
ATOM     52  C   UNL A   1      43.186  26.488  25.214  1.00  0.00     0.002 A 
ATOM     53  C   UNL A   1      42.348  24.481  26.279  1.00  0.00     0.091 A 
ATOM     54  F   UNL A   1      41.290  24.651  28.407  1.00  0.00    -0.205 F 
ATOM     55  C   UNL A   1      42.963  25.114  25.189  1.00  0.00     0.022 A 
BRANCH  53  56
ATOM     56  S   UNL A   1      42.242  22.689  26.265  1.00  0.00     0.127 S 
ATOM     57  O   UNL A   1      40.810  22.469  26.439  1.00  0.00    -0.237 OA
ATOM     58  O   UNL A   1      42.761  22.354  24.939  1.00  0.00    -0.237 OA
ATOM     59  O   UNL A   1      43.099  22.252  27.362  1.00  0.00    -0.744 OA
ENDBRANCH  53  56
ENDBRANCH  25  49
BRANCH  37  60
ATOM     60  C   UNL A   1      44.936  27.152  33.810  1.00  0.00     0.023 A 
ATOM     61  C   UNL A   1      46.197  27.767  33.679  1.00  0.00     0.012 A 
ATOM     62  C   UNL A   1      44.817  25.971  34.567  1.00  0.00     0.148 A 
ATOM     63  C   UNL A   1      47.329  27.198  34.261  1.00  0.00     0.002 A 
ATOM     64  C   UNL A   1      45.942  25.431  35.179  1.00  0.00     0.091 A 
ATOM     65  F   UNL A   1      43.613  25.386  34.660  1.00  0.00    -0.205 F 
ATOM     66  C   UNL A   1      47.200  26.036  35.019  1.00  0.00     0.022 A 
BRANCH  64  67
ATOM     67  S   UNL A   1      45.847  23.983  36.238  1.00  0.00     0.127 S 
ATOM     68  O   UNL A   1      45.344  22.969  35.313  1.00  0.00    -0.237 OA
ATOM     69  O   UNL A   1      47.240  23.799  36.649  1.00  0.00    -0.237 OA
ATOM     70  O   UNL A   1      44.946  24.350  37.324  1.00  0.00    -0.744 OA
ENDBRANCH  64  67
ENDBRANCH  37  60
ENDBRANCH  11  12
ENDBRANCH   4   6
ENDBRANCH   1   2
BRANCH   1  71
ATOM     71  C   UNL A   1      31.729  28.839  25.865  1.00  0.00     0.042 C 
BRANCH  71  72
ATOM     72  C   UNL A   1      32.258  29.172  24.478  1.00  0.00     0.118 C 
BRANCH  72  73
ATOM     73  N   UNL A   1      31.188  29.489  23.537  1.00  0.00    -0.352 N 
ATOM     74  C   UNL A   1      30.524  28.664  22.666  1.00  0.00     0.251 C 
ATOM     75  H   UNL A   1      30.902  30.431  23.526  1.00  0.00     0.163 HD
ATOM     76  O   UNL A   1      29.774  29.123  21.810  1.00  0.00    -0.269 OA
BRANCH  74  77
ATOM     77  C   UNL A   1      30.732  27.208  22.749  1.00  0.00     0.039 A 
ATOM     78  C   UNL A   1      31.707  26.614  21.944  1.00  0.00     0.015 A 
ATOM     79  C   UNL A   1      29.978  26.438  23.640  1.00  0.00     0.015 A 
ATOM     80  C   UNL A   1      31.994  25.257  22.104  1.00  0.00     0.018 A 
ATOM     81  C   UNL A   1      30.277  25.088  23.807  1.00  0.00     0.018 A 
ATOM     82  C   UNL A   1      31.294  24.496  23.050  1.00  0.00     0.039 A 
BRANCH  82  83
ATOM     83  S   UNL A   1      31.789  22.799  23.368  1.00  0.00     0.056 S 
ATOM     84  O   UNL A   1      32.617  22.390  22.183  1.00  0.00    -0.254 OA
BRANCH  83  85
ATOM     85  C   UNL A   1      32.936  22.958  24.779  1.00  0.00     0.089 C 
ATOM     86  C   UNL A   1      32.393  22.620  26.160  1.00  0.00     0.046 C 
ATOM     87  C   UNL A   1      34.162  22.092  24.493  1.00  0.00     0.053 C 
ATOM     88  C   UNL A   1      33.495  22.784  27.197  1.00  0.00     0.162 C 
ATOM     89  C   UNL A   1      35.226  22.268  25.581  1.00  0.00     0.069 C 
ATOM     90  O   UNL A   1      34.651  22.015  26.871  1.00  0.00    -0.375 OA
ATOM     91  C   UNL A   1      36.371  21.244  25.391  1.00  0.00     0.035 C 
ATOM     92  C   UNL A   1      35.916  23.649  25.521  1.00  0.00     0.035 C 
ATOM     93  C   UNL A   1      37.625  22.060  25.099  1.00  0.00     0.003 C 
ATOM     94  C   UNL A   1      37.379  23.366  25.827  1.00  0.00     0.003 C 
ENDBRANCH  83  85
ENDBRANCH  82  83
ENDBRANCH  74  77
ENDBRANCH  72  73
ENDBRANCH  71  72
ENDBRANCH   1  71
TORSDOF 15
ENDMDL
