MODEL 1
REMARK VINA RESULT:     -12.4      0.000      0.000
REMARK SMILES O=C(CSc1nc(O)cc(=O)[nH]1)Nc1cccc(C(=O)NCCCNC(=O)c2ccc(-c3c4nc(c(-c5cccc(S(=O)(=O)[O-])c5F)c5ccc([nH]5)c(-c5cccc(S(=O)(=O)[O-])c5F)c5nc(c(-c6cccc(S(=O)(=O)[O-])c6F)c6ccc3[nH]6)C=C5)C=C4)cc2)c1
REMARK SMILES IDX 22 1 21 2 19 3 20 4 18 6 14 7 15 8 91 9 16 10 17 11 13 12
REMARK SMILES IDX 1 13 2 14 3 16 4 17 5 18 6 19 12 20 7 21 10 22 9 24 11 25
REMARK SMILES IDX 8 26 23 28 24 29 25 30 26 31 27 33 28 34 29 35 90 36 30 37
REMARK SMILES IDX 89 38 31 39 32 40 33 41 83 42 34 43 88 44 82 45 84 46 35 47
REMARK SMILES IDX 87 48 81 49 80 50 36 52 68 53 48 54 67 55 49 56 52 57 66 58
REMARK SMILES IDX 85 59 50 60 51 61 65 63 86 64 53 65 37 66 38 67 46 68 39 69
REMARK SMILES IDX 41 70 47 71 40 72 42 73 43 74 44 75 45 76 69 77 70 78 78 79
REMARK SMILES IDX 71 80 73 81 79 82 72 83 74 84 75 85 76 86 77 87 54 88 55 89
REMARK SMILES IDX 63 90 56 91 58 92 64 93 57 94 59 95 60 96 61 97 62 98
REMARK H PARENT 21 5 13 15 12 23 8 27 25 32 84 51 52 62
REMARK Flexibility Score: inf
ROOT
ATOM      1  C   UNL A   1      31.470  30.490  26.423  1.00  0.00     0.118 C 
ENDROOT
BRANCH   1   2
ATOM      2  N   UNL A   1      32.321  30.110  25.297  1.00  0.00    -0.352 N 
ATOM      3  C   UNL A   1      32.174  29.168  24.298  1.00  0.00     0.251 C 
ATOM      4  O   UNL A   1      33.070  29.051  23.462  1.00  0.00    -0.269 OA
ATOM      5  H   UNL A   1      33.160  30.623  25.240  1.00  0.00     0.163 HD
BRANCH   3   6
ATOM      6  C   UNL A   1      31.007  28.248  24.236  1.00  0.00     0.041 A 
ATOM      7  C   UNL A   1      30.117  26.011  24.444  1.00  0.00     0.041 A 
ATOM      8  C   UNL A   1      28.990  26.395  23.713  1.00  0.00     0.026 A 
ATOM      9  C   UNL A   1      31.030  26.987  24.825  1.00  0.00     0.040 A 
ATOM     10  C   UNL A   1      28.841  27.721  23.298  1.00  0.00     0.003 A 
ATOM     11  C   UNL A   1      29.872  28.637  23.519  1.00  0.00     0.014 A 
BRANCH   7  12
ATOM     12  N   UNL A   1      30.347  24.635  24.660  1.00  0.00    -0.325 N 
ATOM     13  O   UNL A   1      30.962  24.606  26.911  1.00  0.00    -0.274 OA
ATOM     14  C   UNL A   1      30.809  24.040  25.828  1.00  0.00     0.234 C 
ATOM     15  H   UNL A   1      30.161  24.033  23.903  1.00  0.00     0.169 HD
BRANCH  14  16
ATOM     16  C   UNL A   1      31.239  22.588  25.679  1.00  0.00     0.178 C 
BRANCH  16  17
ATOM     17  S   UNL A   1      32.015  22.196  24.087  1.00  0.00    -0.078 SA
BRANCH  17  18
ATOM     18  C   UNL A   1      32.297  20.494  24.265  1.00  0.00     0.172 A 
ATOM     19  N   UNL A   1      32.473  19.931  25.408  1.00  0.00    -0.189 NA
ATOM     20  N   UNL A   1      32.261  19.832  23.083  1.00  0.00    -0.301 N 
ATOM     21  C   UNL A   1      32.606  18.578  25.409  1.00  0.00     0.218 A 
ATOM     22  C   UNL A   1      32.388  18.477  23.024  1.00  0.00     0.255 A 
ATOM     23  H   UNL A   1      32.140  20.341  22.249  1.00  0.00     0.172 HD
ATOM     24  C   UNL A   1      32.571  17.809  24.320  1.00  0.00     0.139 A 
ATOM     25  O   UNL A   1      32.343  17.849  21.977  1.00  0.00    -0.269 OA
BRANCH  21  26
ATOM     26  O   UNL A   1      32.759  18.010  26.644  1.00  0.00    -0.493 OA
ATOM     27  H   UNL A   1      32.620  18.522  27.417  1.00  0.00     0.295 HD
ENDBRANCH  21  26
ENDBRANCH  17  18
ENDBRANCH  16  17
ENDBRANCH  14  16
ENDBRANCH   7  12
ENDBRANCH   3   6
ENDBRANCH   1   2
BRANCH   1  28
ATOM     28  C   UNL A   1      31.463  31.975  26.739  1.00  0.00     0.042 C 
BRANCH  28  29
ATOM     29  C   UNL A   1      32.827  32.572  27.021  1.00  0.00     0.118 C 
BRANCH  29  30
ATOM     30  N   UNL A   1      32.757  33.927  27.559  1.00  0.00    -0.352 N 
ATOM     31  C   UNL A   1      33.438  34.521  28.595  1.00  0.00     0.251 C 
ATOM     32  H   UNL A   1      32.114  34.516  27.101  1.00  0.00     0.163 HD
ATOM     33  O   UNL A   1      33.087  35.630  28.989  1.00  0.00    -0.269 OA
BRANCH  31  34
ATOM     34  C   UNL A   1      34.574  33.834  29.250  1.00  0.00     0.039 A 
ATOM     35  C   UNL A   1      34.316  32.823  30.183  1.00  0.00     0.014 A 
ATOM     36  C   UNL A   1      35.892  34.195  28.972  1.00  0.00     0.014 A 
ATOM     37  C   UNL A   1      35.380  32.137  30.777  1.00  0.00     0.010 A 
ATOM     38  C   UNL A   1      36.943  33.435  29.470  1.00  0.00     0.010 A 
ATOM     39  C   UNL A   1      36.702  32.412  30.397  1.00  0.00    -0.014 A 
BRANCH  39  40
ATOM     40  C   UNL A   1      37.856  31.670  30.971  1.00  0.00     0.031 A 
ATOM     41  C   UNL A   1      38.368  32.026  32.343  1.00  0.00     0.074 A 
ATOM     42  C   UNL A   1      38.499  30.748  30.227  1.00  0.00     0.049 A 
ATOM     43  N   UNL A   1      39.414  31.565  32.980  1.00  0.00    -0.248 NA
ATOM     44  C   UNL A   1      37.631  33.065  33.084  1.00  0.00     0.031 C 
ATOM     45  C   UNL A   1      38.148  30.369  28.857  1.00  0.00     0.029 A 
ATOM     46  N   UNL A   1      39.602  29.982  30.509  1.00  0.00    -0.354 N 
ATOM     47  C   UNL A   1      39.483  32.284  34.168  1.00  0.00     0.074 A 
ATOM     48  C   UNL A   1      38.403  33.243  34.145  1.00  0.00     0.031 C 
ATOM     49  C   UNL A   1      39.010  29.436  28.422  1.00  0.00     0.029 A 
ATOM     50  C   UNL A   1      39.997  29.178  29.464  1.00  0.00     0.049 A 
ATOM     51  H   UNL A   1      40.067  30.004  31.377  1.00  0.00     0.167 HD
ATOM     52  C   UNL A   1      40.345  32.138  35.202  1.00  0.00     0.034 A 
ATOM     53  C   UNL A   1      41.044  28.336  29.356  1.00  0.00     0.034 A 
ATOM     54  C   UNL A   1      41.388  31.150  35.240  1.00  0.00     0.049 A 
ATOM     55  C   UNL A   1      41.966  28.165  30.533  1.00  0.00     0.074 A 
ATOM     56  C   UNL A   1      42.262  30.861  36.271  1.00  0.00     0.029 A 
ATOM     57  N   UNL A   1      41.702  30.293  34.196  1.00  0.00    -0.354 N 
ATOM     58  N   UNL A   1      41.927  28.752  31.705  1.00  0.00    -0.248 NA
ATOM     59  C   UNL A   1      43.055  27.188  30.389  1.00  0.00     0.031 C 
ATOM     60  C   UNL A   1      43.126  29.850  35.841  1.00  0.00     0.029 A 
ATOM     61  C   UNL A   1      42.761  29.480  34.556  1.00  0.00     0.049 A 
ATOM     62  H   UNL A   1      41.239  30.268  33.328  1.00  0.00     0.167 HD
ATOM     63  C   UNL A   1      42.953  28.184  32.451  1.00  0.00     0.074 A 
ATOM     64  C   UNL A   1      43.586  27.195  31.603  1.00  0.00     0.031 C 
ATOM     65  C   UNL A   1      43.343  28.462  33.719  1.00  0.00     0.034 A 
BRANCH  52  66
ATOM     66  C   UNL A   1      40.165  33.038  36.399  1.00  0.00     0.023 A 
ATOM     67  C   UNL A   1      40.787  34.303  36.424  1.00  0.00     0.012 A 
ATOM     68  C   UNL A   1      39.341  32.654  37.475  1.00  0.00     0.148 A 
ATOM     69  C   UNL A   1      40.628  35.153  37.517  1.00  0.00     0.002 A 
ATOM     70  C   UNL A   1      39.145  33.529  38.537  1.00  0.00     0.091 A 
ATOM     71  F   UNL A   1      38.772  31.440  37.444  1.00  0.00    -0.205 F 
ATOM     72  C   UNL A   1      39.799  34.771  38.566  1.00  0.00     0.022 A 
BRANCH  70  73
ATOM     73  S   UNL A   1      38.029  33.168  39.898  1.00  0.00     0.127 S 
ATOM     74  O   UNL A   1      38.129  34.392  40.692  1.00  0.00    -0.237 OA
ATOM     75  O   UNL A   1      36.751  32.993  39.208  1.00  0.00    -0.237 OA
ATOM     76  O   UNL A   1      38.547  31.966  40.537  1.00  0.00    -0.744 OA
ENDBRANCH  70  73
ENDBRANCH  52  66
BRANCH  53  77
ATOM     77  C   UNL A   1      41.240  27.541  28.109  1.00  0.00     0.023 A 
ATOM     78  C   UNL A   1      41.797  28.162  26.974  1.00  0.00     0.012 A 
ATOM     79  C   UNL A   1      40.895  26.177  28.044  1.00  0.00     0.148 A 
ATOM     80  C   UNL A   1      41.968  27.452  25.785  1.00  0.00     0.002 A 
ATOM     81  C   UNL A   1      41.123  25.460  26.875  1.00  0.00     0.091 A 
ATOM     82  F   UNL A   1      40.361  25.606  29.133  1.00  0.00    -0.205 F 
ATOM     83  C   UNL A   1      41.639  26.100  25.738  1.00  0.00     0.022 A 
BRANCH  81  84
ATOM     84  S   UNL A   1      40.855  23.688  26.764  1.00  0.00     0.127 S 
ATOM     85  O   UNL A   1      39.428  23.619  26.460  1.00  0.00    -0.237 OA
ATOM     86  O   UNL A   1      41.740  23.318  25.658  1.00  0.00    -0.237 OA
ATOM     87  O   UNL A   1      41.253  23.146  28.055  1.00  0.00    -0.744 OA
ENDBRANCH  81  84
ENDBRANCH  53  77
BRANCH  65  88
ATOM     88  C   UNL A   1      44.470  27.647  34.299  1.00  0.00     0.023 A 
ATOM     89  C   UNL A   1      45.797  28.114  34.220  1.00  0.00     0.012 A 
ATOM     90  C   UNL A   1      44.198  26.450  34.992  1.00  0.00     0.148 A 
ATOM     91  C   UNL A   1      46.839  27.384  34.788  1.00  0.00     0.002 A 
ATOM     92  C   UNL A   1      45.234  25.756  35.603  1.00  0.00     0.091 A 
ATOM     93  F   UNL A   1      42.930  26.015  35.041  1.00  0.00    -0.205 F 
ATOM     94  C   UNL A   1      46.556  26.213  35.490  1.00  0.00     0.022 A 
BRANCH  92  95
ATOM     95  S   UNL A   1      44.952  24.297  36.612  1.00  0.00     0.127 S 
ATOM     96  O   UNL A   1      44.235  24.860  37.755  1.00  0.00    -0.237 OA
ATOM     97  O   UNL A   1      44.134  23.465  35.729  1.00  0.00    -0.237 OA
ATOM     98  O   UNL A   1      46.269  23.752  36.908  1.00  0.00    -0.744 OA
ENDBRANCH  92  95
ENDBRANCH  65  88
ENDBRANCH  39  40
ENDBRANCH  31  34
ENDBRANCH  29  30
ENDBRANCH  28  29
ENDBRANCH   1  28
TORSDOF 18
ENDMDL
MODEL 2
REMARK VINA RESULT:     -12.4      6.269     10.183
REMARK SMILES O=C(CSc1nc(O)cc(=O)[nH]1)Nc1cccc(C(=O)NCCCNC(=O)c2ccc(-c3c4nc(c(-c5cccc(S(=O)(=O)[O-])c5F)c5ccc([nH]5)c(-c5cccc(S(=O)(=O)[O-])c5F)c5nc(c(-c6cccc(S(=O)(=O)[O-])c6F)c6ccc3[nH]6)C=C5)C=C4)cc2)c1
REMARK SMILES IDX 22 1 21 2 19 3 20 4 18 6 14 7 15 8 91 9 16 10 17 11 13 12
REMARK SMILES IDX 1 13 2 14 3 16 4 17 5 18 6 19 12 20 7 21 10 22 9 24 11 25
REMARK SMILES IDX 8 26 23 28 24 29 25 30 26 31 27 33 28 34 29 35 90 36 30 37
REMARK SMILES IDX 89 38 31 39 32 40 33 41 83 42 34 43 88 44 82 45 84 46 35 47
REMARK SMILES IDX 87 48 81 49 80 50 36 52 68 53 48 54 67 55 49 56 52 57 66 58
REMARK SMILES IDX 85 59 50 60 51 61 65 63 86 64 53 65 37 66 38 67 46 68 39 69
REMARK SMILES IDX 41 70 47 71 40 72 42 73 43 74 44 75 45 76 69 77 70 78 78 79
REMARK SMILES IDX 71 80 73 81 79 82 72 83 74 84 75 85 76 86 77 87 54 88 55 89
REMARK SMILES IDX 63 90 56 91 58 92 64 93 57 94 59 95 60 96 61 97 62 98
REMARK H PARENT 21 5 13 15 12 23 8 27 25 32 84 51 52 62
REMARK Flexibility Score: inf
ROOT
ATOM      1  C   UNL A   1      37.312  21.065  24.673  1.00  0.00     0.118 C 
ENDROOT
BRANCH   1   2
ATOM      2  N   UNL A   1      36.463  21.287  25.843  1.00  0.00    -0.352 N 
ATOM      3  C   UNL A   1      35.092  21.317  26.004  1.00  0.00     0.251 C 
ATOM      4  O   UNL A   1      34.635  21.538  27.126  1.00  0.00    -0.269 OA
ATOM      5  H   UNL A   1      36.965  21.446  26.675  1.00  0.00     0.163 HD
BRANCH   3   6
ATOM      6  C   UNL A   1      34.152  21.160  24.862  1.00  0.00     0.041 A 
ATOM      7  C   UNL A   1      32.656  22.168  23.254  1.00  0.00     0.041 A 
ATOM      8  C   UNL A   1      32.059  20.924  23.035  1.00  0.00     0.026 A 
ATOM      9  C   UNL A   1      33.795  22.231  24.048  1.00  0.00     0.040 A 
ATOM     10  C   UNL A   1      32.550  19.787  23.681  1.00  0.00     0.003 A 
ATOM     11  C   UNL A   1      33.567  19.912  24.631  1.00  0.00     0.014 A 
BRANCH   7  12
ATOM     12  N   UNL A   1      32.011  23.324  22.764  1.00  0.00    -0.325 N 
ATOM     13  O   UNL A   1      33.827  24.682  22.212  1.00  0.00    -0.274 OA
ATOM     14  C   UNL A   1      32.617  24.504  22.349  1.00  0.00     0.234 C 
ATOM     15  H   UNL A   1      31.028  23.291  22.712  1.00  0.00     0.169 HD
BRANCH  14  16
ATOM     16  C   UNL A   1      31.665  25.675  22.151  1.00  0.00     0.178 C 
BRANCH  16  17
ATOM     17  S   UNL A   1      30.571  25.998  23.561  1.00  0.00    -0.078 SA
BRANCH  17  18
ATOM     18  C   UNL A   1      29.796  27.464  23.050  1.00  0.00     0.172 A 
ATOM     19  N   UNL A   1      30.383  28.349  22.326  1.00  0.00    -0.189 NA
ATOM     20  N   UNL A   1      28.505  27.539  23.455  1.00  0.00    -0.301 N 
ATOM     21  C   UNL A   1      29.633  29.413  21.932  1.00  0.00     0.218 A 
ATOM     22  C   UNL A   1      27.707  28.582  23.091  1.00  0.00     0.255 A 
ATOM     23  H   UNL A   1      28.135  26.827  24.025  1.00  0.00     0.172 HD
ATOM     24  C   UNL A   1      28.351  29.597  22.246  1.00  0.00     0.139 A 
ATOM     25  O   UNL A   1      26.535  28.672  23.426  1.00  0.00    -0.269 OA
BRANCH  21  26
ATOM     26  O   UNL A   1      30.281  30.318  21.137  1.00  0.00    -0.493 OA
ATOM     27  H   UNL A   1      30.932  30.884  21.504  1.00  0.00     0.295 HD
ENDBRANCH  21  26
ENDBRANCH  17  18
ENDBRANCH  16  17
ENDBRANCH  14  16
ENDBRANCH   7  12
ENDBRANCH   3   6
ENDBRANCH   1   2
BRANCH   1  28
ATOM     28  C   UNL A   1      38.317  19.938  24.825  1.00  0.00     0.042 C 
BRANCH  28  29
ATOM     29  C   UNL A   1      39.194  20.028  26.057  1.00  0.00     0.118 C 
BRANCH  29  30
ATOM     30  N   UNL A   1      40.379  19.180  25.978  1.00  0.00    -0.352 N 
ATOM     31  C   UNL A   1      41.717  19.496  26.013  1.00  0.00     0.251 C 
ATOM     32  H   UNL A   1      40.188  18.218  25.885  1.00  0.00     0.163 HD
ATOM     33  O   UNL A   1      42.547  18.629  25.750  1.00  0.00    -0.269 OA
BRANCH  31  34
ATOM     34  C   UNL A   1      42.164  20.867  26.347  1.00  0.00     0.039 A 
ATOM     35  C   UNL A   1      42.497  21.174  27.671  1.00  0.00     0.014 A 
ATOM     36  C   UNL A   1      42.234  21.860  25.371  1.00  0.00     0.014 A 
ATOM     37  C   UNL A   1      42.962  22.453  27.994  1.00  0.00     0.010 A 
ATOM     38  C   UNL A   1      42.808  23.090  25.668  1.00  0.00     0.010 A 
ATOM     39  C   UNL A   1      43.157  23.411  26.987  1.00  0.00    -0.014 A 
BRANCH  39  40
ATOM     40  C   UNL A   1      43.695  24.764  27.284  1.00  0.00     0.031 A 
ATOM     41  C   UNL A   1      42.778  25.836  27.815  1.00  0.00     0.074 A 
ATOM     42  C   UNL A   1      44.977  25.057  26.988  1.00  0.00     0.049 A 
ATOM     43  N   UNL A   1      43.030  27.098  28.048  1.00  0.00    -0.248 NA
ATOM     44  C   UNL A   1      41.381  25.448  28.085  1.00  0.00     0.031 C 
ATOM     45  C   UNL A   1      45.945  24.130  26.399  1.00  0.00     0.029 A 
ATOM     46  N   UNL A   1      45.680  26.229  27.118  1.00  0.00    -0.354 N 
ATOM     47  C   UNL A   1      41.821  27.659  28.448  1.00  0.00     0.074 A 
ATOM     48  C   UNL A   1      40.827  26.613  28.382  1.00  0.00     0.031 C 
ATOM     49  C   UNL A   1      47.116  24.763  26.228  1.00  0.00     0.029 A 
ATOM     50  C   UNL A   1      46.974  26.150  26.657  1.00  0.00     0.049 A 
ATOM     51  H   UNL A   1      45.295  27.049  27.503  1.00  0.00     0.167 HD
ATOM     52  C   UNL A   1      41.566  28.922  28.865  1.00  0.00     0.034 A 
ATOM     53  C   UNL A   1      47.935  27.093  26.581  1.00  0.00     0.034 A 
ATOM     54  C   UNL A   1      42.569  29.946  28.973  1.00  0.00     0.049 A 
ATOM     55  C   UNL A   1      47.637  28.479  27.085  1.00  0.00     0.074 A 
ATOM     56  C   UNL A   1      42.435  31.232  29.464  1.00  0.00     0.029 A 
ATOM     57  N   UNL A   1      43.890  29.802  28.580  1.00  0.00    -0.354 N 
ATOM     58  N   UNL A   1      46.525  28.950  27.596  1.00  0.00    -0.248 NA
ATOM     59  C   UNL A   1      48.736  29.454  27.040  1.00  0.00     0.031 C 
ATOM     60  C   UNL A   1      43.669  31.876  29.338  1.00  0.00     0.029 A 
ATOM     61  C   UNL A   1      44.582  30.977  28.809  1.00  0.00     0.049 A 
ATOM     62  H   UNL A   1      44.279  28.983  28.195  1.00  0.00     0.167 HD
ATOM     63  C   UNL A   1      46.803  30.259  27.973  1.00  0.00     0.074 A 
ATOM     64  C   UNL A   1      48.193  30.500  27.647  1.00  0.00     0.031 C 
ATOM     65  C   UNL A   1      45.981  31.181  28.530  1.00  0.00     0.034 A 
BRANCH  52  66
ATOM     66  C   UNL A   1      40.155  29.252  29.282  1.00  0.00     0.023 A 
ATOM     67  C   UNL A   1      39.207  29.626  28.307  1.00  0.00     0.012 A 
ATOM     68  C   UNL A   1      39.754  29.145  30.628  1.00  0.00     0.148 A 
ATOM     69  C   UNL A   1      37.895  29.928  28.670  1.00  0.00     0.002 A 
ATOM     70  C   UNL A   1      38.432  29.397  30.974  1.00  0.00     0.091 A 
ATOM     71  F   UNL A   1      40.673  28.806  31.544  1.00  0.00    -0.205 F 
ATOM     72  C   UNL A   1      37.505  29.803  29.999  1.00  0.00     0.022 A 
BRANCH  70  73
ATOM     73  S   UNL A   1      37.808  29.180  32.644  1.00  0.00     0.127 S 
ATOM     74  O   UNL A   1      38.749  29.990  33.418  1.00  0.00    -0.237 OA
ATOM     75  O   UNL A   1      36.461  29.743  32.543  1.00  0.00    -0.237 OA
ATOM     76  O   UNL A   1      37.853  27.749  32.910  1.00  0.00    -0.744 OA
ENDBRANCH  70  73
ENDBRANCH  52  66
BRANCH  53  77
ATOM     77  C   UNL A   1      49.289  26.742  26.064  1.00  0.00     0.023 A 
ATOM     78  C   UNL A   1      50.141  25.937  26.846  1.00  0.00     0.012 A 
ATOM     79  C   UNL A   1      49.732  27.183  24.802  1.00  0.00     0.148 A 
ATOM     80  C   UNL A   1      51.423  25.614  26.401  1.00  0.00     0.002 A 
ATOM     81  C   UNL A   1      50.988  26.809  24.338  1.00  0.00     0.091 A 
ATOM     82  F   UNL A   1      48.909  27.953  24.075  1.00  0.00    -0.205 F 
ATOM     83  C   UNL A   1      51.843  26.042  25.144  1.00  0.00     0.022 A 
BRANCH  81  84
ATOM     84  S   UNL A   1      51.560  27.201  22.682  1.00  0.00     0.127 S 
ATOM     85  O   UNL A   1      52.873  26.559  22.658  1.00  0.00    -0.237 OA
ATOM     86  O   UNL A   1      50.543  26.557  21.850  1.00  0.00    -0.237 OA
ATOM     87  O   UNL A   1      51.567  28.655  22.600  1.00  0.00    -0.744 OA
ENDBRANCH  81  84
ENDBRANCH  53  77
BRANCH  65  88
ATOM     88  C   UNL A   1      46.570  32.522  28.884  1.00  0.00     0.023 A 
ATOM     89  C   UNL A   1      47.151  32.729  30.151  1.00  0.00     0.012 A 
ATOM     90  C   UNL A   1      46.613  33.555  27.926  1.00  0.00     0.148 A 
ATOM     91  C   UNL A   1      47.733  33.955  30.471  1.00  0.00     0.002 A 
ATOM     92  C   UNL A   1      47.241  34.754  28.233  1.00  0.00     0.091 A 
ATOM     93  F   UNL A   1      46.038  33.343  26.733  1.00  0.00    -0.205 F 
ATOM     94  C   UNL A   1      47.789  34.962  29.509  1.00  0.00     0.022 A 
BRANCH  92  95
ATOM     95  S   UNL A   1      47.452  36.067  27.025  1.00  0.00     0.127 S 
ATOM     96  O   UNL A   1      47.528  35.312  25.776  1.00  0.00    -0.237 OA
ATOM     97  O   UNL A   1      46.222  36.842  27.196  1.00  0.00    -0.237 OA
ATOM     98  O   UNL A   1      48.669  36.771  27.404  1.00  0.00    -0.744 OA
ENDBRANCH  92  95
ENDBRANCH  65  88
ENDBRANCH  39  40
ENDBRANCH  31  34
ENDBRANCH  29  30
ENDBRANCH  28  29
ENDBRANCH   1  28
TORSDOF 18
ENDMDL
MODEL 3
REMARK VINA RESULT:     -12.3      2.200      7.927
REMARK SMILES O=C(CSc1nc(O)cc(=O)[nH]1)Nc1cccc(C(=O)NCCCNC(=O)c2ccc(-c3c4nc(c(-c5cccc(S(=O)(=O)[O-])c5F)c5ccc([nH]5)c(-c5cccc(S(=O)(=O)[O-])c5F)c5nc(c(-c6cccc(S(=O)(=O)[O-])c6F)c6ccc3[nH]6)C=C5)C=C4)cc2)c1
REMARK SMILES IDX 22 1 21 2 19 3 20 4 18 6 14 7 15 8 91 9 16 10 17 11 13 12
REMARK SMILES IDX 1 13 2 14 3 16 4 17 5 18 6 19 12 20 7 21 10 22 9 24 11 25
REMARK SMILES IDX 8 26 23 28 24 29 25 30 26 31 27 33 28 34 29 35 90 36 30 37
REMARK SMILES IDX 89 38 31 39 32 40 33 41 83 42 34 43 88 44 82 45 84 46 35 47
REMARK SMILES IDX 87 48 81 49 80 50 36 52 68 53 48 54 67 55 49 56 52 57 66 58
REMARK SMILES IDX 85 59 50 60 51 61 65 63 86 64 53 65 37 66 38 67 46 68 39 69
REMARK SMILES IDX 41 70 47 71 40 72 42 73 43 74 44 75 45 76 69 77 70 78 78 79
REMARK SMILES IDX 71 80 73 81 79 82 72 83 74 84 75 85 76 86 77 87 54 88 55 89
REMARK SMILES IDX 63 90 56 91 58 92 64 93 57 94 59 95 60 96 61 97 62 98
REMARK H PARENT 21 5 13 15 12 23 8 27 25 32 84 51 52 62
REMARK Flexibility Score: inf
ROOT
ATOM      1  C   UNL A   1      31.815  30.629  26.924  1.00  0.00     0.118 C 
ENDROOT
BRANCH   1   2
ATOM      2  N   UNL A   1      33.143  30.221  27.381  1.00  0.00    -0.352 N 
ATOM      3  C   UNL A   1      33.981  29.193  27.000  1.00  0.00     0.251 C 
ATOM      4  O   UNL A   1      35.065  29.074  27.571  1.00  0.00    -0.269 OA
ATOM      5  H   UNL A   1      33.508  30.787  28.099  1.00  0.00     0.163 HD
BRANCH   3   6
ATOM      6  C   UNL A   1      33.594  28.187  25.974  1.00  0.00     0.041 A 
ATOM      7  C   UNL A   1      33.261  25.874  25.359  1.00  0.00     0.041 A 
ATOM      8  C   UNL A   1      33.319  26.228  24.010  1.00  0.00     0.026 A 
ATOM      9  C   UNL A   1      33.243  26.885  26.314  1.00  0.00     0.040 A 
ATOM     10  C   UNL A   1      33.451  27.569  23.640  1.00  0.00     0.003 A 
ATOM     11  C   UNL A   1      33.635  28.545  24.623  1.00  0.00     0.014 A 
BRANCH   7  12
ATOM     12  N   UNL A   1      33.347  24.508  25.706  1.00  0.00    -0.325 N 
ATOM     13  O   UNL A   1      31.464  24.243  27.060  1.00  0.00    -0.274 OA
ATOM     14  C   UNL A   1      32.506  23.812  26.566  1.00  0.00     0.234 C 
ATOM     15  H   UNL A   1      34.080  23.995  25.296  1.00  0.00     0.169 HD
BRANCH  14  16
ATOM     16  C   UNL A   1      33.011  22.436  26.977  1.00  0.00     0.178 C 
BRANCH  16  17
ATOM     17  S   UNL A   1      33.075  21.227  25.627  1.00  0.00    -0.078 SA
BRANCH  17  18
ATOM     18  C   UNL A   1      34.756  21.289  25.204  1.00  0.00     0.172 A 
ATOM     19  N   UNL A   1      35.374  22.390  24.958  1.00  0.00    -0.189 NA
ATOM     20  N   UNL A   1      35.343  20.068  25.216  1.00  0.00    -0.301 N 
ATOM     21  C   UNL A   1      36.709  22.301  24.717  1.00  0.00     0.218 A 
ATOM     22  C   UNL A   1      36.677  19.919  24.982  1.00  0.00     0.255 A 
ATOM     23  H   UNL A   1      34.794  19.271  25.397  1.00  0.00     0.172 HD
ATOM     24  C   UNL A   1      37.408  21.166  24.716  1.00  0.00     0.139 A 
ATOM     25  O   UNL A   1      37.239  18.834  25.002  1.00  0.00    -0.269 OA
BRANCH  21  26
ATOM     26  O   UNL A   1      37.339  23.494  24.489  1.00  0.00    -0.493 OA
ATOM     27  H   UNL A   1      37.134  24.242  25.016  1.00  0.00     0.295 HD
ENDBRANCH  21  26
ENDBRANCH  17  18
ENDBRANCH  16  17
ENDBRANCH  14  16
ENDBRANCH   7  12
ENDBRANCH   3   6
ENDBRANCH   1   2
BRANCH   1  28
ATOM     28  C   UNL A   1      31.599  32.130  26.864  1.00  0.00     0.042 C 
BRANCH  28  29
ATOM     29  C   UNL A   1      32.843  32.962  27.103  1.00  0.00     0.118 C 
BRANCH  29  30
ATOM     30  N   UNL A   1      32.549  34.288  27.639  1.00  0.00    -0.352 N 
ATOM     31  C   UNL A   1      33.056  34.950  28.732  1.00  0.00     0.251 C 
ATOM     32  H   UNL A   1      31.874  34.794  27.130  1.00  0.00     0.163 HD
ATOM     33  O   UNL A   1      32.529  35.998  29.098  1.00  0.00    -0.269 OA
BRANCH  31  34
ATOM     34  C   UNL A   1      34.214  34.409  29.478  1.00  0.00     0.039 A 
ATOM     35  C   UNL A   1      33.998  33.765  30.702  1.00  0.00     0.014 A 
ATOM     36  C   UNL A   1      35.514  34.553  28.995  1.00  0.00     0.014 A 
ATOM     37  C   UNL A   1      35.078  33.212  31.397  1.00  0.00     0.010 A 
ATOM     38  C   UNL A   1      36.567  33.900  29.624  1.00  0.00     0.010 A 
ATOM     39  C   UNL A   1      36.368  33.242  30.845  1.00  0.00    -0.014 A 
BRANCH  39  40
ATOM     40  C   UNL A   1      37.532  32.622  31.531  1.00  0.00     0.031 A 
ATOM     41  C   UNL A   1      38.268  31.482  30.874  1.00  0.00     0.074 A 
ATOM     42  C   UNL A   1      37.866  33.015  32.776  1.00  0.00     0.049 A 
ATOM     43  N   UNL A   1      39.245  30.750  31.344  1.00  0.00    -0.248 NA
ATOM     44  C   UNL A   1      37.826  31.089  29.524  1.00  0.00     0.031 C 
ATOM     45  C   UNL A   1      37.183  34.054  33.549  1.00  0.00     0.029 A 
ATOM     46  N   UNL A   1      38.850  32.566  33.621  1.00  0.00    -0.354 N 
ATOM     47  C   UNL A   1      39.500  29.788  30.372  1.00  0.00     0.074 A 
ATOM     48  C   UNL A   1      38.548  30.001  29.306  1.00  0.00     0.031 C 
ATOM     49  C   UNL A   1      37.773  34.170  34.749  1.00  0.00     0.029 A 
ATOM     50  C   UNL A   1      38.849  33.191  34.848  1.00  0.00     0.049 A 
ATOM     51  H   UNL A   1      39.494  31.864  33.375  1.00  0.00     0.167 HD
ATOM     52  C   UNL A   1      40.462  28.835  30.350  1.00  0.00     0.034 A 
ATOM     53  C   UNL A   1      39.624  32.989  35.933  1.00  0.00     0.034 A 
ATOM     54  C   UNL A   1      41.437  28.659  31.392  1.00  0.00     0.049 A 
ATOM     55  C   UNL A   1      40.709  31.949  35.869  1.00  0.00     0.074 A 
ATOM     56  C   UNL A   1      42.504  27.781  31.431  1.00  0.00     0.029 A 
ATOM     57  N   UNL A   1      41.459  29.371  32.581  1.00  0.00    -0.354 N 
ATOM     58  N   UNL A   1      41.027  31.147  34.882  1.00  0.00    -0.248 NA
ATOM     59  C   UNL A   1      41.568  31.811  37.054  1.00  0.00     0.031 C 
ATOM     60  C   UNL A   1      43.154  27.940  32.658  1.00  0.00     0.029 A 
ATOM     61  C   UNL A   1      42.516  28.948  33.365  1.00  0.00     0.049 A 
ATOM     62  H   UNL A   1      40.816  30.074  32.830  1.00  0.00     0.167 HD
ATOM     63  C   UNL A   1      42.148  30.443  35.308  1.00  0.00     0.074 A 
ATOM     64  C   UNL A   1      42.462  30.926  36.636  1.00  0.00     0.031 C 
ATOM     65  C   UNL A   1      42.848  29.479  34.663  1.00  0.00     0.034 A 
BRANCH  52  66
ATOM     66  C   UNL A   1      40.537  27.941  29.138  1.00  0.00     0.023 A 
ATOM     67  C   UNL A   1      39.653  26.849  29.019  1.00  0.00     0.012 A 
ATOM     68  C   UNL A   1      41.446  28.209  28.096  1.00  0.00     0.148 A 
ATOM     69  C   UNL A   1      39.700  26.013  27.904  1.00  0.00     0.002 A 
ATOM     70  C   UNL A   1      41.451  27.404  26.964  1.00  0.00     0.091 A 
ATOM     71  F   UNL A   1      42.291  29.241  28.234  1.00  0.00    -0.205 F 
ATOM     72  C   UNL A   1      40.590  26.297  26.872  1.00  0.00     0.022 A 
BRANCH  70  73
ATOM     73  S   UNL A   1      42.498  27.734  25.542  1.00  0.00     0.127 S 
ATOM     74  O   UNL A   1      42.277  26.539  24.729  1.00  0.00    -0.237 OA
ATOM     75  O   UNL A   1      41.903  28.957  25.001  1.00  0.00    -0.237 OA
ATOM     76  O   UNL A   1      43.848  27.892  26.064  1.00  0.00    -0.744 OA
ENDBRANCH  70  73
ENDBRANCH  52  66
BRANCH  53  77
ATOM     77  C   UNL A   1      39.443  33.833  37.149  1.00  0.00     0.023 A 
ATOM     78  C   UNL A   1      39.913  35.162  37.146  1.00  0.00     0.012 A 
ATOM     79  C   UNL A   1      38.799  33.337  38.299  1.00  0.00     0.148 A 
ATOM     80  C   UNL A   1      39.782  35.967  38.277  1.00  0.00     0.002 A 
ATOM     81  C   UNL A   1      38.619  34.164  39.403  1.00  0.00     0.091 A 
ATOM     82  F   UNL A   1      38.364  32.069  38.285  1.00  0.00    -0.205 F 
ATOM     83  C   UNL A   1      39.128  35.471  39.402  1.00  0.00     0.022 A 
BRANCH  81  84
ATOM     84  S   UNL A   1      37.673  33.656  40.843  1.00  0.00     0.127 S 
ATOM     85  O   UNL A   1      37.461  34.930  41.526  1.00  0.00    -0.237 OA
ATOM     86  O   UNL A   1      36.477  33.078  40.230  1.00  0.00    -0.237 OA
ATOM     87  O   UNL A   1      38.510  32.694  41.547  1.00  0.00    -0.744 OA
ENDBRANCH  81  84
ENDBRANCH  53  77
BRANCH  65  88
ATOM     88  C   UNL A   1      44.064  28.917  35.352  1.00  0.00     0.023 A 
ATOM     89  C   UNL A   1      45.333  29.487  35.129  1.00  0.00     0.012 A 
ATOM     90  C   UNL A   1      43.932  27.866  36.282  1.00  0.00     0.148 A 
ATOM     91  C   UNL A   1      46.457  28.997  35.793  1.00  0.00     0.002 A 
ATOM     92  C   UNL A   1      45.046  27.418  36.980  1.00  0.00     0.091 A 
ATOM     93  F   UNL A   1      42.719  27.325  36.466  1.00  0.00    -0.205 F 
ATOM     94  C   UNL A   1      46.311  27.972  36.726  1.00  0.00     0.022 A 
BRANCH  92  95
ATOM     95  S   UNL A   1      44.937  26.176  38.273  1.00  0.00     0.127 S 
ATOM     96  O   UNL A   1      45.133  24.941  37.516  1.00  0.00    -0.237 OA
ATOM     97  O   UNL A   1      46.053  26.541  39.145  1.00  0.00    -0.237 OA
ATOM     98  O   UNL A   1      43.620  26.337  38.875  1.00  0.00    -0.744 OA
ENDBRANCH  92  95
ENDBRANCH  65  88
ENDBRANCH  39  40
ENDBRANCH  31  34
ENDBRANCH  29  30
ENDBRANCH  28  29
ENDBRANCH   1  28
TORSDOF 18
ENDMDL
