MODEL 1
REMARK VINA RESULT:     -11.4      0.000      0.000
REMARK SMILES COc1ncccc1Cn1ccc(C(=O)NCCCNC(=O)c2ccc(-c3c4nc(c(-c5cccc(S(=O)(=O)[O-])c5F)c5ccc([nH]5)c(-c5cccc(S(=O)(=O)[O-])c5F)c5nc(c(-c6cccc(S(=O)(=O)[O-])c6F)c6ccc3[nH]6)C=C5)C=C4)cc2)n1
REMARK SMILES IDX 18 1 17 2 16 3 14 4 15 5 13 7 10 8 11 9 86 10 12 11 9 12
REMARK SMILES IDX 8 13 3 14 4 15 5 16 7 17 6 18 2 19 1 20 19 21 20 22 21 23
REMARK SMILES IDX 22 25 23 26 24 27 85 28 25 29 84 30 26 31 27 32 28 33 78 34
REMARK SMILES IDX 29 35 83 36 77 37 79 38 30 39 82 40 76 41 75 42 31 44 63 45
REMARK SMILES IDX 43 46 62 47 44 48 47 49 61 50 80 51 45 52 46 53 60 55 81 56
REMARK SMILES IDX 48 57 32 58 33 59 41 60 34 61 36 62 42 63 35 64 37 65 38 66
REMARK SMILES IDX 39 67 40 68 64 69 65 70 73 71 66 72 68 73 74 74 67 75 69 76
REMARK SMILES IDX 70 77 71 78 72 79 49 80 50 81 58 82 51 83 53 84 59 85 52 86
REMARK SMILES IDX 54 87 55 88 56 89 57 90
REMARK H PARENT 16 6 20 24 79 43 47 54
REMARK Flexibility Score: inf
ROOT
ATOM      1  C   UNL A   1      37.799  19.614  25.034  1.00  0.00     0.042 C 
ENDROOT
BRANCH   1   2
ATOM      2  C   UNL A   1      36.678  20.652  24.998  1.00  0.00     0.118 C 
BRANCH   2   3
ATOM      3  N   UNL A   1      36.903  21.668  23.987  1.00  0.00    -0.351 N 
ATOM      4  C   UNL A   1      36.081  22.705  23.611  1.00  0.00     0.271 C 
ATOM      5  O   UNL A   1      36.528  23.550  22.837  1.00  0.00    -0.267 OA
ATOM      6  H   UNL A   1      37.760  21.607  23.506  1.00  0.00     0.163 HD
BRANCH   4   7
ATOM      7  C   UNL A   1      34.761  22.857  24.238  1.00  0.00     0.150 A 
ATOM      8  N   UNL A   1      33.163  23.613  25.432  1.00  0.00    -0.267 N 
ATOM      9  C   UNL A   1      32.558  22.910  24.429  1.00  0.00     0.110 A 
ATOM     10  N   UNL A   1      34.506  23.595  25.339  1.00  0.00    -0.167 NA
ATOM     11  C   UNL A   1      33.563  22.315  23.711  1.00  0.00     0.056 A 
BRANCH   8  12
ATOM     12  C   UNL A   1      32.524  24.509  26.391  1.00  0.00     0.185 C 
BRANCH  12  13
ATOM     13  C   UNL A   1      32.523  25.939  25.935  1.00  0.00     0.036 A 
ATOM     14  C   UNL A   1      31.379  26.556  25.430  1.00  0.00     0.218 A 
ATOM     15  N   UNL A   1      31.326  27.838  25.009  1.00  0.00    -0.222 NA
ATOM     16  C   UNL A   1      32.472  28.549  25.090  1.00  0.00     0.115 A 
ATOM     17  C   UNL A   1      33.693  26.709  25.981  1.00  0.00     0.013 A 
ATOM     18  C   UNL A   1      33.673  28.029  25.541  1.00  0.00     0.021 A 
BRANCH  14  19
ATOM     19  O   UNL A   1      30.285  25.791  25.116  1.00  0.00    -0.481 OA
ATOM     20  C   UNL A   1      30.121  25.669  23.709  1.00  0.00     0.280 C 
ENDBRANCH  14  19
ENDBRANCH  12  13
ENDBRANCH   8  12
ENDBRANCH   4   7
ENDBRANCH   2   3
ENDBRANCH   1   2
BRANCH   1  21
ATOM     21  C   UNL A   1      39.042  20.156  25.725  1.00  0.00     0.118 C 
BRANCH  21  22
ATOM     22  N   UNL A   1      40.130  19.170  25.735  1.00  0.00    -0.352 N 
ATOM     23  C   UNL A   1      41.473  19.363  25.966  1.00  0.00     0.251 C 
ATOM     24  H   UNL A   1      39.861  18.240  25.553  1.00  0.00     0.163 HD
ATOM     25  O   UNL A   1      42.292  18.502  25.650  1.00  0.00    -0.269 OA
BRANCH  23  26
ATOM     26  C   UNL A   1      41.912  20.619  26.586  1.00  0.00     0.039 A 
ATOM     27  C   UNL A   1      42.440  21.654  25.810  1.00  0.00     0.014 A 
ATOM     28  C   UNL A   1      41.720  20.772  27.956  1.00  0.00     0.014 A 
ATOM     29  C   UNL A   1      42.688  22.885  26.411  1.00  0.00     0.010 A 
ATOM     30  C   UNL A   1      41.823  22.023  28.511  1.00  0.00     0.010 A 
ATOM     31  C   UNL A   1      42.352  23.070  27.760  1.00  0.00    -0.014 A 
BRANCH  31  32
ATOM     32  C   UNL A   1      42.446  24.390  28.376  1.00  0.00     0.031 A 
ATOM     33  C   UNL A   1      41.267  25.280  28.168  1.00  0.00     0.074 A 
ATOM     34  C   UNL A   1      43.405  24.692  29.278  1.00  0.00     0.049 A 
ATOM     35  N   UNL A   1      41.225  26.411  27.544  1.00  0.00    -0.248 NA
ATOM     36  C   UNL A   1      39.950  24.798  28.613  1.00  0.00     0.031 C 
ATOM     37  C   UNL A   1      44.424  23.795  29.842  1.00  0.00     0.029 A 
ATOM     38  N   UNL A   1      43.562  25.824  30.015  1.00  0.00    -0.354 N 
ATOM     39  C   UNL A   1      39.925  26.892  27.715  1.00  0.00     0.074 A 
ATOM     40  C   UNL A   1      39.149  25.782  28.198  1.00  0.00     0.031 C 
ATOM     41  C   UNL A   1      44.883  24.312  31.002  1.00  0.00     0.029 A 
ATOM     42  C   UNL A   1      44.341  25.647  31.154  1.00  0.00     0.049 A 
ATOM     43  H   UNL A   1      43.161  26.688  29.766  1.00  0.00     0.167 HD
ATOM     44  C   UNL A   1      39.646  28.225  27.676  1.00  0.00     0.034 A 
ATOM     45  C   UNL A   1      44.490  26.520  32.177  1.00  0.00     0.034 A 
ATOM     46  C   UNL A   1      40.748  28.976  27.130  1.00  0.00     0.049 A 
ATOM     47  C   UNL A   1      44.092  27.852  31.673  1.00  0.00     0.074 A 
ATOM     48  C   UNL A   1      41.438  28.984  25.935  1.00  0.00     0.029 A 
ATOM     49  N   UNL A   1      41.538  29.649  28.030  1.00  0.00    -0.354 N 
ATOM     50  N   UNL A   1      44.743  28.498  30.746  1.00  0.00    -0.248 NA
ATOM     51  C   UNL A   1      42.729  28.296  31.908  1.00  0.00     0.031 C 
ATOM     52  C   UNL A   1      42.795  29.233  26.301  1.00  0.00     0.029 A 
ATOM     53  C   UNL A   1      42.842  29.423  27.684  1.00  0.00     0.049 A 
ATOM     54  H   UNL A   1      41.223  30.196  28.786  1.00  0.00     0.167 HD
ATOM     55  C   UNL A   1      43.750  29.097  29.983  1.00  0.00     0.074 A 
ATOM     56  C   UNL A   1      42.552  29.050  30.819  1.00  0.00     0.031 C 
ATOM     57  C   UNL A   1      43.920  29.305  28.643  1.00  0.00     0.034 A 
BRANCH  44  58
ATOM     58  C   UNL A   1      38.545  28.926  28.450  1.00  0.00     0.023 A 
ATOM     59  C   UNL A   1      37.686  29.784  27.721  1.00  0.00     0.012 A 
ATOM     60  C   UNL A   1      38.477  29.010  29.859  1.00  0.00     0.148 A 
ATOM     61  C   UNL A   1      36.857  30.715  28.355  1.00  0.00     0.002 A 
ATOM     62  C   UNL A   1      37.588  29.880  30.487  1.00  0.00     0.091 A 
ATOM     63  F   UNL A   1      39.360  28.356  30.616  1.00  0.00    -0.205 F 
ATOM     64  C   UNL A   1      36.803  30.760  29.741  1.00  0.00     0.022 A 
BRANCH  62  65
ATOM     65  S   UNL A   1      37.432  29.930  32.277  1.00  0.00     0.127 S 
ATOM     66  O   UNL A   1      38.722  30.491  32.668  1.00  0.00    -0.237 OA
ATOM     67  O   UNL A   1      36.288  30.825  32.455  1.00  0.00    -0.237 OA
ATOM     68  O   UNL A   1      37.177  28.553  32.682  1.00  0.00    -0.744 OA
ENDBRANCH  62  65
ENDBRANCH  44  58
BRANCH  45  69
ATOM     69  C   UNL A   1      44.738  26.262  33.611  1.00  0.00     0.023 A 
ATOM     70  C   UNL A   1      46.050  26.339  34.114  1.00  0.00     0.012 A 
ATOM     71  C   UNL A   1      43.668  26.212  34.534  1.00  0.00     0.148 A 
ATOM     72  C   UNL A   1      46.291  26.404  35.492  1.00  0.00     0.002 A 
ATOM     73  C   UNL A   1      43.913  26.273  35.903  1.00  0.00     0.091 A 
ATOM     74  F   UNL A   1      42.413  26.200  34.065  1.00  0.00    -0.205 F 
ATOM     75  C   UNL A   1      45.223  26.382  36.384  1.00  0.00     0.022 A 
BRANCH  73  76
ATOM     76  S   UNL A   1      42.588  26.279  37.118  1.00  0.00     0.127 S 
ATOM     77  O   UNL A   1      41.846  27.487  36.750  1.00  0.00    -0.237 OA
ATOM     78  O   UNL A   1      41.902  25.025  36.820  1.00  0.00    -0.237 OA
ATOM     79  O   UNL A   1      43.245  26.351  38.416  1.00  0.00    -0.744 OA
ENDBRANCH  73  76
ENDBRANCH  45  69
BRANCH  57  80
ATOM     80  C   UNL A   1      45.302  29.128  28.062  1.00  0.00     0.023 A 
ATOM     81  C   UNL A   1      46.291  30.131  28.149  1.00  0.00     0.012 A 
ATOM     82  C   UNL A   1      45.668  27.855  27.594  1.00  0.00     0.148 A 
ATOM     83  C   UNL A   1      47.609  29.875  27.759  1.00  0.00     0.002 A 
ATOM     84  C   UNL A   1      46.989  27.589  27.255  1.00  0.00     0.091 A 
ATOM     85  F   UNL A   1      44.718  26.911  27.520  1.00  0.00    -0.205 F 
ATOM     86  C   UNL A   1      47.962  28.599  27.327  1.00  0.00     0.022 A 
BRANCH  84  87
ATOM     87  S   UNL A   1      47.527  25.933  26.825  1.00  0.00     0.127 S 
ATOM     88  O   UNL A   1      48.951  26.131  26.561  1.00  0.00    -0.237 OA
ATOM     89  O   UNL A   1      47.231  25.178  28.045  1.00  0.00    -0.237 OA
ATOM     90  O   UNL A   1      46.722  25.537  25.676  1.00  0.00    -0.744 OA
ENDBRANCH  84  87
ENDBRANCH  57  80
ENDBRANCH  31  32
ENDBRANCH  23  26
ENDBRANCH  21  22
ENDBRANCH   1  21
TORSDOF 16
ENDMDL
MODEL 2
REMARK VINA RESULT:     -11.4      4.095      9.582
REMARK SMILES COc1ncccc1Cn1ccc(C(=O)NCCCNC(=O)c2ccc(-c3c4nc(c(-c5cccc(S(=O)(=O)[O-])c5F)c5ccc([nH]5)c(-c5cccc(S(=O)(=O)[O-])c5F)c5nc(c(-c6cccc(S(=O)(=O)[O-])c6F)c6ccc3[nH]6)C=C5)C=C4)cc2)n1
REMARK SMILES IDX 18 1 17 2 16 3 14 4 15 5 13 7 10 8 11 9 86 10 12 11 9 12
REMARK SMILES IDX 8 13 3 14 4 15 5 16 7 17 6 18 2 19 1 20 19 21 20 22 21 23
REMARK SMILES IDX 22 25 23 26 24 27 85 28 25 29 84 30 26 31 27 32 28 33 78 34
REMARK SMILES IDX 29 35 83 36 77 37 79 38 30 39 82 40 76 41 75 42 31 44 63 45
REMARK SMILES IDX 43 46 62 47 44 48 47 49 61 50 80 51 45 52 46 53 60 55 81 56
REMARK SMILES IDX 48 57 32 58 33 59 41 60 34 61 36 62 42 63 35 64 37 65 38 66
REMARK SMILES IDX 39 67 40 68 64 69 65 70 73 71 66 72 68 73 74 74 67 75 69 76
REMARK SMILES IDX 70 77 71 78 72 79 49 80 50 81 58 82 51 83 53 84 59 85 52 86
REMARK SMILES IDX 54 87 55 88 56 89 57 90
REMARK H PARENT 16 6 20 24 79 43 47 54
REMARK Flexibility Score: inf
ROOT
ATOM      1  C   UNL A   1      31.408  32.093  26.429  1.00  0.00     0.042 C 
ENDROOT
BRANCH   1   2
ATOM      2  C   UNL A   1      31.451  30.573  26.270  1.00  0.00     0.118 C 
BRANCH   2   3
ATOM      3  N   UNL A   1      32.668  30.000  26.812  1.00  0.00    -0.351 N 
ATOM      4  C   UNL A   1      33.524  29.091  26.231  1.00  0.00     0.271 C 
ATOM      5  O   UNL A   1      34.587  28.849  26.801  1.00  0.00    -0.267 OA
ATOM      6  H   UNL A   1      32.915  30.301  27.715  1.00  0.00     0.163 HD
BRANCH   4   7
ATOM      7  C   UNL A   1      33.221  28.547  24.901  1.00  0.00     0.150 A 
ATOM      8  N   UNL A   1      32.287  27.451  23.328  1.00  0.00    -0.267 N 
ATOM      9  C   UNL A   1      32.910  28.497  22.712  1.00  0.00     0.110 A 
ATOM     10  N   UNL A   1      32.461  27.458  24.663  1.00  0.00    -0.167 NA
ATOM     11  C   UNL A   1      33.617  29.156  23.685  1.00  0.00     0.056 A 
BRANCH   8  12
ATOM     12  C   UNL A   1      31.324  26.524  22.738  1.00  0.00     0.185 C 
BRANCH  12  13
ATOM     13  C   UNL A   1      31.849  25.120  22.654  1.00  0.00     0.036 A 
ATOM     14  C   UNL A   1      32.863  24.759  21.769  1.00  0.00     0.218 A 
ATOM     15  N   UNL A   1      33.370  23.513  21.657  1.00  0.00    -0.222 NA
ATOM     16  C   UNL A   1      32.842  22.569  22.467  1.00  0.00     0.115 A 
ATOM     17  C   UNL A   1      31.316  24.105  23.459  1.00  0.00     0.013 A 
ATOM     18  C   UNL A   1      31.809  22.808  23.357  1.00  0.00     0.021 A 
BRANCH  14  19
ATOM     19  O   UNL A   1      33.238  25.635  20.782  1.00  0.00    -0.481 OA
ATOM     20  C   UNL A   1      32.490  25.428  19.591  1.00  0.00     0.280 C 
ENDBRANCH  14  19
ENDBRANCH  12  13
ENDBRANCH   8  12
ENDBRANCH   4   7
ENDBRANCH   2   3
ENDBRANCH   1   2
BRANCH   1  21
ATOM     21  C   UNL A   1      32.577  32.603  27.260  1.00  0.00     0.118 C 
BRANCH  21  22
ATOM     22  N   UNL A   1      32.353  33.977  27.725  1.00  0.00    -0.352 N 
ATOM     23  C   UNL A   1      33.044  34.694  28.675  1.00  0.00     0.251 C 
ATOM     24  H   UNL A   1      31.604  34.453  27.297  1.00  0.00     0.163 HD
ATOM     25  O   UNL A   1      32.560  35.713  29.165  1.00  0.00    -0.269 OA
BRANCH  23  26
ATOM     26  C   UNL A   1      34.365  34.216  29.102  1.00  0.00     0.039 A 
ATOM     27  C   UNL A   1      34.503  33.418  30.240  1.00  0.00     0.014 A 
ATOM     28  C   UNL A   1      35.460  34.523  28.299  1.00  0.00     0.014 A 
ATOM     29  C   UNL A   1      35.744  32.850  30.515  1.00  0.00     0.010 A 
ATOM     30  C   UNL A   1      36.638  33.845  28.487  1.00  0.00     0.010 A 
ATOM     31  C   UNL A   1      36.803  33.048  29.618  1.00  0.00    -0.014 A 
BRANCH  31  32
ATOM     32  C   UNL A   1      38.066  32.337  29.789  1.00  0.00     0.031 A 
ATOM     33  C   UNL A   1      38.103  30.952  29.236  1.00  0.00     0.074 A 
ATOM     34  C   UNL A   1      39.195  32.966  30.184  1.00  0.00     0.049 A 
ATOM     35  N   UNL A   1      38.265  29.842  29.878  1.00  0.00    -0.248 NA
ATOM     36  C   UNL A   1      37.810  30.771  27.805  1.00  0.00     0.031 C 
ATOM     37  C   UNL A   1      39.385  34.404  30.424  1.00  0.00     0.029 A 
ATOM     38  N   UNL A   1      40.459  32.476  30.284  1.00  0.00    -0.354 N 
ATOM     39  C   UNL A   1      38.323  28.844  28.905  1.00  0.00     0.074 A 
ATOM     40  C   UNL A   1      37.844  29.443  27.689  1.00  0.00     0.031 C 
ATOM     41  C   UNL A   1      40.701  34.698  30.354  1.00  0.00     0.029 A 
ATOM     42  C   UNL A   1      41.444  33.458  30.262  1.00  0.00     0.049 A 
ATOM     43  H   UNL A   1      40.658  31.515  30.363  1.00  0.00     0.167 HD
ATOM     44  C   UNL A   1      38.989  27.673  29.120  1.00  0.00     0.034 A 
ATOM     45  C   UNL A   1      42.776  33.266  30.127  1.00  0.00     0.034 A 
ATOM     46  C   UNL A   1      39.301  27.497  30.515  1.00  0.00     0.049 A 
ATOM     47  C   UNL A   1      43.051  31.858  30.487  1.00  0.00     0.074 A 
ATOM     48  C   UNL A   1      38.573  27.414  31.685  1.00  0.00     0.029 A 
ATOM     49  N   UNL A   1      40.597  27.755  30.893  1.00  0.00    -0.354 N 
ATOM     50  N   UNL A   1      42.888  31.374  31.687  1.00  0.00    -0.248 NA
ATOM     51  C   UNL A   1      43.120  30.877  29.418  1.00  0.00     0.031 C 
ATOM     52  C   UNL A   1      39.365  28.096  32.656  1.00  0.00     0.029 A 
ATOM     53  C   UNL A   1      40.552  28.499  32.040  1.00  0.00     0.049 A 
ATOM     54  H   UNL A   1      41.409  27.458  30.423  1.00  0.00     0.167 HD
ATOM     55  C   UNL A   1      42.379  30.100  31.476  1.00  0.00     0.074 A 
ATOM     56  C   UNL A   1      42.671  29.804  30.076  1.00  0.00     0.031 C 
ATOM     57  C   UNL A   1      41.513  29.531  32.368  1.00  0.00     0.034 A 
BRANCH  44  58
ATOM     58  C   UNL A   1      39.693  26.844  28.063  1.00  0.00     0.023 A 
ATOM     59  C   UNL A   1      39.386  25.462  28.014  1.00  0.00     0.012 A 
ATOM     60  C   UNL A   1      40.815  27.269  27.317  1.00  0.00     0.148 A 
ATOM     61  C   UNL A   1      40.186  24.549  27.318  1.00  0.00     0.002 A 
ATOM     62  C   UNL A   1      41.559  26.369  26.557  1.00  0.00     0.091 A 
ATOM     63  F   UNL A   1      41.267  28.519  27.434  1.00  0.00    -0.205 F 
ATOM     64  C   UNL A   1      41.271  25.004  26.583  1.00  0.00     0.022 A 
BRANCH  62  65
ATOM     65  S   UNL A   1      42.934  26.916  25.537  1.00  0.00     0.127 S 
ATOM     66  O   UNL A   1      42.285  27.894  24.670  1.00  0.00    -0.237 OA
ATOM     67  O   UNL A   1      43.845  27.478  26.535  1.00  0.00    -0.237 OA
ATOM     68  O   UNL A   1      43.437  25.711  24.887  1.00  0.00    -0.744 OA
ENDBRANCH  62  65
ENDBRANCH  44  58
BRANCH  45  69
ATOM     69  C   UNL A   1      43.798  34.134  29.504  1.00  0.00     0.023 A 
ATOM     70  C   UNL A   1      44.582  34.975  30.315  1.00  0.00     0.012 A 
ATOM     71  C   UNL A   1      44.192  33.940  28.161  1.00  0.00     0.148 A 
ATOM     72  C   UNL A   1      45.746  35.575  29.817  1.00  0.00     0.002 A 
ATOM     73  C   UNL A   1      45.347  34.542  27.670  1.00  0.00     0.091 A 
ATOM     74  F   UNL A   1      43.486  33.094  27.398  1.00  0.00    -0.205 F 
ATOM     75  C   UNL A   1      46.133  35.350  28.500  1.00  0.00     0.022 A 
BRANCH  73  76
ATOM     76  S   UNL A   1      45.930  34.279  25.990  1.00  0.00     0.127 S 
ATOM     77  O   UNL A   1      47.052  35.216  25.908  1.00  0.00    -0.237 OA
ATOM     78  O   UNL A   1      46.311  32.869  26.022  1.00  0.00    -0.237 OA
ATOM     79  O   UNL A   1      44.806  34.613  25.126  1.00  0.00    -0.744 OA
ENDBRANCH  73  76
ENDBRANCH  45  69
BRANCH  57  80
ATOM     80  C   UNL A   1      41.338  30.191  33.714  1.00  0.00     0.023 A 
ATOM     81  C   UNL A   1      42.246  29.995  34.776  1.00  0.00     0.012 A 
ATOM     82  C   UNL A   1      40.347  31.178  33.845  1.00  0.00     0.148 A 
ATOM     83  C   UNL A   1      42.156  30.751  35.947  1.00  0.00     0.002 A 
ATOM     84  C   UNL A   1      40.291  31.963  34.991  1.00  0.00     0.091 A 
ATOM     85  F   UNL A   1      39.492  31.356  32.827  1.00  0.00    -0.205 F 
ATOM     86  C   UNL A   1      41.187  31.747  36.049  1.00  0.00     0.022 A 
BRANCH  84  87
ATOM     87  S   UNL A   1      39.157  33.348  35.119  1.00  0.00     0.127 S 
ATOM     88  O   UNL A   1      39.282  33.717  36.528  1.00  0.00    -0.237 OA
ATOM     89  O   UNL A   1      39.730  34.314  34.181  1.00  0.00    -0.237 OA
ATOM     90  O   UNL A   1      37.853  32.834  34.716  1.00  0.00    -0.744 OA
ENDBRANCH  84  87
ENDBRANCH  57  80
ENDBRANCH  31  32
ENDBRANCH  23  26
ENDBRANCH  21  22
ENDBRANCH   1  21
TORSDOF 16
ENDMDL
MODEL 3
REMARK VINA RESULT:     -11.2      3.232      7.905
REMARK SMILES COc1ncccc1Cn1ccc(C(=O)NCCCNC(=O)c2ccc(-c3c4nc(c(-c5cccc(S(=O)(=O)[O-])c5F)c5ccc([nH]5)c(-c5cccc(S(=O)(=O)[O-])c5F)c5nc(c(-c6cccc(S(=O)(=O)[O-])c6F)c6ccc3[nH]6)C=C5)C=C4)cc2)n1
REMARK SMILES IDX 18 1 17 2 16 3 14 4 15 5 13 7 10 8 11 9 86 10 12 11 9 12
REMARK SMILES IDX 8 13 3 14 4 15 5 16 7 17 6 18 2 19 1 20 19 21 20 22 21 23
REMARK SMILES IDX 22 25 23 26 24 27 85 28 25 29 84 30 26 31 27 32 28 33 78 34
REMARK SMILES IDX 29 35 83 36 77 37 79 38 30 39 82 40 76 41 75 42 31 44 63 45
REMARK SMILES IDX 43 46 62 47 44 48 47 49 61 50 80 51 45 52 46 53 60 55 81 56
REMARK SMILES IDX 48 57 32 58 33 59 41 60 34 61 36 62 42 63 35 64 37 65 38 66
REMARK SMILES IDX 39 67 40 68 64 69 65 70 73 71 66 72 68 73 74 74 67 75 69 76
REMARK SMILES IDX 70 77 71 78 72 79 49 80 50 81 58 82 51 83 53 84 59 85 52 86
REMARK SMILES IDX 54 87 55 88 56 89 57 90
REMARK H PARENT 16 6 20 24 79 43 47 54
REMARK Flexibility Score: inf
ROOT
ATOM      1  C   UNL A   1      33.210  29.634  26.920  1.00  0.00     0.042 C 
ENDROOT
BRANCH   1   2
ATOM      2  C   UNL A   1      33.189  29.465  25.401  1.00  0.00     0.118 C 
BRANCH   2   3
ATOM      3  N   UNL A   1      31.934  29.902  24.818  1.00  0.00    -0.351 N 
ATOM      4  C   UNL A   1      31.012  29.166  24.109  1.00  0.00     0.271 C 
ATOM      5  O   UNL A   1      29.936  29.694  23.834  1.00  0.00    -0.267 OA
ATOM      6  H   UNL A   1      31.713  30.852  24.947  1.00  0.00     0.163 HD
BRANCH   4   7
ATOM      7  C   UNL A   1      31.270  27.748  23.826  1.00  0.00     0.150 A 
ATOM      8  N   UNL A   1      31.193  25.619  23.923  1.00  0.00    -0.267 N 
ATOM      9  C   UNL A   1      31.601  25.903  22.651  1.00  0.00     0.110 A 
ATOM     10  N   UNL A   1      30.985  26.726  24.660  1.00  0.00    -0.167 NA
ATOM     11  C   UNL A   1      31.771  27.263  22.593  1.00  0.00     0.056 A 
BRANCH   8  12
ATOM     12  C   UNL A   1      30.769  24.322  24.445  1.00  0.00     0.185 C 
BRANCH  12  13
ATOM     13  C   UNL A   1      31.711  23.778  25.479  1.00  0.00     0.036 A 
ATOM     14  C   UNL A   1      31.282  23.411  26.754  1.00  0.00     0.218 A 
ATOM     15  N   UNL A   1      32.088  22.917  27.717  1.00  0.00    -0.222 NA
ATOM     16  C   UNL A   1      33.395  22.778  27.401  1.00  0.00     0.115 A 
ATOM     17  C   UNL A   1      33.078  23.638  25.204  1.00  0.00     0.013 A 
ATOM     18  C   UNL A   1      33.936  23.143  26.181  1.00  0.00     0.021 A 
BRANCH  14  19
ATOM     19  O   UNL A   1      30.024  23.768  27.169  1.00  0.00    -0.481 OA
ATOM     20  C   UNL A   1      29.219  22.626  27.431  1.00  0.00     0.280 C 
ENDBRANCH  14  19
ENDBRANCH  12  13
ENDBRANCH   8  12
ENDBRANCH   4   7
ENDBRANCH   2   3
ENDBRANCH   1   2
BRANCH   1  21
ATOM     21  C   UNL A   1      34.515  30.254  27.396  1.00  0.00     0.118 C 
BRANCH  21  22
ATOM     22  N   UNL A   1      34.279  31.404  28.279  1.00  0.00    -0.352 N 
ATOM     23  C   UNL A   1      34.925  31.749  29.444  1.00  0.00     0.251 C 
ATOM     24  H   UNL A   1      33.559  32.013  27.997  1.00  0.00     0.163 HD
ATOM     25  O   UNL A   1      34.425  32.562  30.219  1.00  0.00    -0.269 OA
BRANCH  23  26
ATOM     26  C   UNL A   1      36.217  31.122  29.751  1.00  0.00     0.039 A 
ATOM     27  C   UNL A   1      36.308  29.747  29.978  1.00  0.00     0.014 A 
ATOM     28  C   UNL A   1      37.352  31.928  29.737  1.00  0.00     0.014 A 
ATOM     29  C   UNL A   1      37.569  29.169  30.100  1.00  0.00     0.010 A 
ATOM     30  C   UNL A   1      38.591  31.338  29.708  1.00  0.00     0.010 A 
ATOM     31  C   UNL A   1      38.709  29.968  29.938  1.00  0.00    -0.014 A 
BRANCH  31  32
ATOM     32  C   UNL A   1      40.039  29.369  29.897  1.00  0.00     0.031 A 
ATOM     33  C   UNL A   1      40.683  29.146  31.224  1.00  0.00     0.074 A 
ATOM     34  C   UNL A   1      40.543  28.821  28.770  1.00  0.00     0.049 A 
ATOM     35  N   UNL A   1      41.767  29.680  31.682  1.00  0.00    -0.248 NA
ATOM     36  C   UNL A   1      39.972  28.312  32.206  1.00  0.00     0.031 C 
ATOM     37  C   UNL A   1      39.873  28.655  27.473  1.00  0.00     0.029 A 
ATOM     38  N   UNL A   1      41.705  28.135  28.597  1.00  0.00    -0.354 N 
ATOM     39  C   UNL A   1      41.996  29.075  32.919  1.00  0.00     0.074 A 
ATOM     40  C   UNL A   1      40.773  28.405  33.269  1.00  0.00     0.031 C 
ATOM     41  C   UNL A   1      40.500  27.692  26.765  1.00  0.00     0.029 A 
ATOM     42  C   UNL A   1      41.711  27.321  27.468  1.00  0.00     0.049 A 
ATOM     43  H   UNL A   1      42.469  28.207  29.213  1.00  0.00     0.167 HD
ATOM     44  C   UNL A   1      43.251  28.971  33.443  1.00  0.00     0.034 A 
ATOM     45  C   UNL A   1      42.625  26.373  27.158  1.00  0.00     0.034 A 
ATOM     46  C   UNL A   1      44.182  29.820  32.744  1.00  0.00     0.049 A 
ATOM     47  C   UNL A   1      43.842  26.669  27.944  1.00  0.00     0.074 A 
ATOM     48  C   UNL A   1      44.288  31.174  32.499  1.00  0.00     0.029 A 
ATOM     49  N   UNL A   1      45.018  29.205  31.844  1.00  0.00    -0.354 N 
ATOM     50  N   UNL A   1      44.574  27.733  27.768  1.00  0.00    -0.248 NA
ATOM     51  C   UNL A   1      44.025  25.985  29.212  1.00  0.00     0.031 C 
ATOM     52  C   UNL A   1      44.801  31.264  31.171  1.00  0.00     0.029 A 
ATOM     53  C   UNL A   1      45.034  29.967  30.708  1.00  0.00     0.049 A 
ATOM     54  H   UNL A   1      45.516  28.368  31.990  1.00  0.00     0.167 HD
ATOM     55  C   UNL A   1      44.952  28.106  29.051  1.00  0.00     0.074 A 
ATOM     56  C   UNL A   1      44.701  26.927  29.876  1.00  0.00     0.031 C 
ATOM     57  C   UNL A   1      45.151  29.420  29.373  1.00  0.00     0.034 A 
BRANCH  44  58
ATOM     58  C   UNL A   1      43.750  27.854  34.339  1.00  0.00     0.023 A 
ATOM     59  C   UNL A   1      44.440  28.228  35.518  1.00  0.00     0.012 A 
ATOM     60  C   UNL A   1      43.829  26.493  33.966  1.00  0.00     0.148 A 
ATOM     61  C   UNL A   1      45.214  27.318  36.245  1.00  0.00     0.002 A 
ATOM     62  C   UNL A   1      44.532  25.573  34.740  1.00  0.00     0.091 A 
ATOM     63  F   UNL A   1      43.344  26.089  32.790  1.00  0.00    -0.205 F 
ATOM     64  C   UNL A   1      45.256  25.986  35.859  1.00  0.00     0.022 A 
BRANCH  62  65
ATOM     65  S   UNL A   1      44.564  23.825  34.320  1.00  0.00     0.127 S 
ATOM     66  O   UNL A   1      45.264  23.843  33.040  1.00  0.00    -0.237 OA
ATOM     67  O   UNL A   1      45.325  23.261  35.436  1.00  0.00    -0.237 OA
ATOM     68  O   UNL A   1      43.166  23.410  34.286  1.00  0.00    -0.744 OA
ENDBRANCH  62  65
ENDBRANCH  44  58
BRANCH  45  69
ATOM     69  C   UNL A   1      42.458  25.109  26.409  1.00  0.00     0.023 A 
ATOM     70  C   UNL A   1      43.409  24.750  25.435  1.00  0.00     0.012 A 
ATOM     71  C   UNL A   1      41.532  24.131  26.834  1.00  0.00     0.148 A 
ATOM     72  C   UNL A   1      43.461  23.446  24.927  1.00  0.00     0.002 A 
ATOM     73  C   UNL A   1      41.585  22.837  26.323  1.00  0.00     0.091 A 
ATOM     74  F   UNL A   1      40.662  24.446  27.805  1.00  0.00    -0.205 F 
ATOM     75  C   UNL A   1      42.558  22.489  25.378  1.00  0.00     0.022 A 
BRANCH  73  76
ATOM     76  S   UNL A   1      40.473  21.537  26.876  1.00  0.00     0.127 S 
ATOM     77  O   UNL A   1      40.957  20.383  26.115  1.00  0.00    -0.237 OA
ATOM     78  O   UNL A   1      40.755  21.489  28.308  1.00  0.00    -0.237 OA
ATOM     79  O   UNL A   1      39.136  21.980  26.506  1.00  0.00    -0.744 OA
ENDBRANCH  73  76
ENDBRANCH  45  69
BRANCH  57  80
ATOM     80  C   UNL A   1      45.224  30.428  28.252  1.00  0.00     0.023 A 
ATOM     81  C   UNL A   1      44.071  30.946  27.626  1.00  0.00     0.012 A 
ATOM     82  C   UNL A   1      46.470  31.005  27.958  1.00  0.00     0.148 A 
ATOM     83  C   UNL A   1      44.161  32.002  26.715  1.00  0.00     0.002 A 
ATOM     84  C   UNL A   1      46.551  32.088  27.090  1.00  0.00     0.091 A 
ATOM     85  F   UNL A   1      47.558  30.504  28.563  1.00  0.00    -0.205 F 
ATOM     86  C   UNL A   1      45.400  32.584  26.458  1.00  0.00     0.022 A 
BRANCH  84  87
ATOM     87  S   UNL A   1      48.096  32.963  26.831  1.00  0.00     0.127 S 
ATOM     88  O   UNL A   1      48.356  33.525  28.154  1.00  0.00    -0.237 OA
ATOM     89  O   UNL A   1      49.006  31.886  26.434  1.00  0.00    -0.237 OA
ATOM     90  O   UNL A   1      47.833  33.933  25.775  1.00  0.00    -0.744 OA
ENDBRANCH  84  87
ENDBRANCH  57  80
ENDBRANCH  31  32
ENDBRANCH  23  26
ENDBRANCH  21  22
ENDBRANCH   1  21
TORSDOF 16
ENDMDL
