MODEL 1
REMARK VINA RESULT:     -11.5      0.000      0.000
REMARK SMILES CC[C@H](C)[C@@H](Nc1ccc(Cl)c(Br)c1)C(=O)NCCCNC(=O)c1ccc(-c2c3nc(c(-c4cccc(S(=O)(=O)[O-])c4F)c4ccc([nH]4)c(-c4cccc(S(=O)(=O)[O-])c4F)c4nc(c(-c5cccc(S(=O)(=O)[O-])c5F)c5ccc2[nH]5)C=C4)C=C3)cc1
REMARK SMILES IDX 19 1 18 2 17 3 15 4 16 5 5 7 3 8 4 9 2 10 1 11 6 12 7 14
REMARK SMILES IDX 8 15 14 16 9 17 12 18 10 19 13 20 11 21 20 22 21 23 22 24
REMARK SMILES IDX 23 26 24 27 25 28 86 29 26 30 85 31 27 32 28 33 29 34 79 35
REMARK SMILES IDX 30 36 84 37 78 38 80 39 31 40 83 41 77 42 76 43 32 45 64 46
REMARK SMILES IDX 44 47 63 48 45 49 48 50 62 51 81 52 46 53 47 54 61 56 82 57
REMARK SMILES IDX 49 58 33 59 34 60 42 61 35 62 37 63 43 64 36 65 38 66 39 67
REMARK SMILES IDX 40 68 41 69 65 70 66 71 74 72 67 73 69 74 75 75 68 76 70 77
REMARK SMILES IDX 71 78 72 79 73 80 50 81 51 82 59 83 52 84 54 85 60 86 53 87
REMARK SMILES IDX 55 88 56 89 57 90 58 91
REMARK H PARENT 17 6 6 13 21 25 80 44 48 55
REMARK Flexibility Score: inf
ROOT
ATOM      1  C   UNL A   1      31.772  29.339  26.515  1.00  0.00     0.042 C 
ENDROOT
BRANCH   1   2
ATOM      2  C   UNL A   1      32.054  28.144  27.399  1.00  0.00     0.117 C 
BRANCH   2   3
ATOM      3  N   UNL A   1      31.073  27.087  27.238  1.00  0.00    -0.354 N 
ATOM      4  C   UNL A   1      31.083  26.032  26.370  1.00  0.00     0.242 C 
ATOM      5  O   UNL A   1      30.208  25.169  26.507  1.00  0.00    -0.273 OA
ATOM      6  H   UNL A   1      30.293  27.137  27.836  1.00  0.00     0.163 HD
BRANCH   4   7
ATOM      7  C   UNL A   1      32.123  25.930  25.222  1.00  0.00     0.171 C 
BRANCH   7   8
ATOM      8  C   UNL A   1      33.018  24.660  25.441  1.00  0.00     0.018 C 
ATOM      9  C   UNL A   1      32.727  23.555  24.418  1.00  0.00     0.010 C 
BRANCH   8  10
ATOM     10  C   UNL A   1      34.520  25.062  25.448  1.00  0.00     0.002 C 
ATOM     11  C   UNL A   1      35.514  23.921  25.613  1.00  0.00     0.004 C 
ENDBRANCH   8  10
ENDBRANCH   7   8
BRANCH   7  12
ATOM     12  N   UNL A   1      31.521  25.961  23.865  1.00  0.00    -0.373 N 
ATOM     13  H   UNL A   1      31.551  25.124  23.348  1.00  0.00     0.161 HD
BRANCH  12  14
ATOM     14  C   UNL A   1      30.923  27.050  23.255  1.00  0.00     0.036 A 
ATOM     15  C   UNL A   1      31.634  28.121  22.708  1.00  0.00     0.027 A 
ATOM     16  C   UNL A   1      29.530  27.179  23.368  1.00  0.00     0.043 A 
ATOM     17  C   UNL A   1      30.990  29.315  22.366  1.00  0.00     0.024 A 
ATOM     18  C   UNL A   1      28.878  28.375  23.043  1.00  0.00     0.038 A 
ATOM     19  C   UNL A   1      29.614  29.455  22.554  1.00  0.00     0.055 A 
ATOM     20  Br  UNL A   1      27.011  28.471  23.380  1.00  0.00    -0.049 Br
ATOM     21  Cl  UNL A   1      28.906  30.987  22.195  1.00  0.00    -0.083 Cl
ENDBRANCH  12  14
ENDBRANCH   7  12
ENDBRANCH   4   7
ENDBRANCH   2   3
ENDBRANCH   1   2
BRANCH   1  22
ATOM     22  C   UNL A   1      32.986  30.226  26.304  1.00  0.00     0.118 C 
BRANCH  22  23
ATOM     23  N   UNL A   1      32.781  31.596  26.762  1.00  0.00    -0.352 N 
ATOM     24  C   UNL A   1      33.557  32.374  27.591  1.00  0.00     0.251 C 
ATOM     25  H   UNL A   1      31.964  32.030  26.428  1.00  0.00     0.163 HD
ATOM     26  O   UNL A   1      33.131  33.455  27.986  1.00  0.00    -0.269 OA
BRANCH  24  27
ATOM     27  C   UNL A   1      34.882  31.885  28.030  1.00  0.00     0.039 A 
ATOM     28  C   UNL A   1      35.052  30.551  28.399  1.00  0.00     0.014 A 
ATOM     29  C   UNL A   1      35.959  32.773  28.104  1.00  0.00     0.014 A 
ATOM     30  C   UNL A   1      36.214  30.164  29.049  1.00  0.00     0.010 A 
ATOM     31  C   UNL A   1      37.177  32.343  28.642  1.00  0.00     0.010 A 
ATOM     32  C   UNL A   1      37.297  31.051  29.173  1.00  0.00    -0.014 A 
BRANCH  32  33
ATOM     33  C   UNL A   1      38.537  30.568  29.836  1.00  0.00     0.031 A 
ATOM     34  C   UNL A   1      38.867  30.947  31.255  1.00  0.00     0.074 A 
ATOM     35  C   UNL A   1      39.333  29.712  29.164  1.00  0.00     0.049 A 
ATOM     36  N   UNL A   1      39.850  30.518  32.005  1.00  0.00    -0.248 NA
ATOM     37  C   UNL A   1      37.998  31.930  31.924  1.00  0.00     0.031 C 
ATOM     38  C   UNL A   1      39.134  29.300  27.771  1.00  0.00     0.029 A 
ATOM     39  N   UNL A   1      40.438  29.004  29.561  1.00  0.00    -0.354 N 
ATOM     40  C   UNL A   1      39.748  31.210  33.205  1.00  0.00     0.074 A 
ATOM     41  C   UNL A   1      38.607  32.089  33.092  1.00  0.00     0.031 C 
ATOM     42  C   UNL A   1      40.029  28.353  27.458  1.00  0.00     0.029 A 
ATOM     43  C   UNL A   1      40.905  28.134  28.603  1.00  0.00     0.049 A 
ATOM     44  H   UNL A   1      40.856  29.108  30.446  1.00  0.00     0.167 HD
ATOM     45  C   UNL A   1      40.523  31.103  34.309  1.00  0.00     0.034 A 
ATOM     46  C   UNL A   1      41.921  27.251  28.637  1.00  0.00     0.034 A 
ATOM     47  C   UNL A   1      41.611  30.175  34.446  1.00  0.00     0.049 A 
ATOM     48  C   UNL A   1      42.739  27.129  29.887  1.00  0.00     0.074 A 
ATOM     49  C   UNL A   1      42.405  29.946  35.557  1.00  0.00     0.029 A 
ATOM     50  N   UNL A   1      42.055  29.321  33.451  1.00  0.00    -0.354 N 
ATOM     51  N   UNL A   1      42.564  27.723  31.041  1.00  0.00    -0.248 NA
ATOM     52  C   UNL A   1      43.890  26.215  29.847  1.00  0.00     0.031 C 
ATOM     53  C   UNL A   1      43.334  28.957  35.231  1.00  0.00     0.029 A 
ATOM     54  C   UNL A   1      43.115  28.568  33.919  1.00  0.00     0.049 A 
ATOM     55  H   UNL A   1      41.673  29.259  32.546  1.00  0.00     0.167 HD
ATOM     56  C   UNL A   1      43.575  27.255  31.867  1.00  0.00     0.074 A 
ATOM     57  C   UNL A   1      44.349  26.308  31.089  1.00  0.00     0.031 C 
ATOM     58  C   UNL A   1      43.846  27.596  33.148  1.00  0.00     0.034 A 
BRANCH  45  59
ATOM     59  C   UNL A   1      40.200  31.967  35.497  1.00  0.00     0.023 A 
ATOM     60  C   UNL A   1      40.894  33.179  35.674  1.00  0.00     0.012 A 
ATOM     61  C   UNL A   1      39.130  31.645  36.356  1.00  0.00     0.148 A 
ATOM     62  C   UNL A   1      40.534  34.059  36.694  1.00  0.00     0.002 A 
ATOM     63  C   UNL A   1      38.759  32.539  37.353  1.00  0.00     0.091 A 
ATOM     64  F   UNL A   1      38.491  30.482  36.170  1.00  0.00    -0.205 F 
ATOM     65  C   UNL A   1      39.461  33.744  37.525  1.00  0.00     0.022 A 
BRANCH  63  66
ATOM     66  S   UNL A   1      37.356  32.260  38.441  1.00  0.00     0.127 S 
ATOM     67  O   UNL A   1      37.800  32.923  39.667  1.00  0.00    -0.237 OA
ATOM     68  O   UNL A   1      36.276  32.947  37.732  1.00  0.00    -0.237 OA
ATOM     69  O   UNL A   1      37.202  30.816  38.540  1.00  0.00    -0.744 OA
ENDBRANCH  63  66
ENDBRANCH  45  59
BRANCH  46  70
ATOM     70  C   UNL A   1      42.163  26.378  27.457  1.00  0.00     0.023 A 
ATOM     71  C   UNL A   1      42.922  26.876  26.381  1.00  0.00     0.012 A 
ATOM     72  C   UNL A   1      41.734  25.038  27.439  1.00  0.00     0.148 A 
ATOM     73  C   UNL A   1      43.252  26.051  25.306  1.00  0.00     0.002 A 
ATOM     74  C   UNL A   1      42.103  24.208  26.388  1.00  0.00     0.091 A 
ATOM     75  F   UNL A   1      41.007  24.593  28.474  1.00  0.00    -0.205 F 
ATOM     76  C   UNL A   1      42.854  24.715  25.315  1.00  0.00     0.022 A 
BRANCH  74  77
ATOM     77  S   UNL A   1      41.745  22.448  26.372  1.00  0.00     0.127 S 
ATOM     78  O   UNL A   1      40.286  22.442  26.303  1.00  0.00    -0.237 OA
ATOM     79  O   UNL A   1      42.424  22.016  25.150  1.00  0.00    -0.237 OA
ATOM     80  O   UNL A   1      42.319  21.918  27.601  1.00  0.00    -0.744 OA
ENDBRANCH  74  77
ENDBRANCH  46  70
BRANCH  58  81
ATOM     81  C   UNL A   1      45.028  26.958  33.819  1.00  0.00     0.023 A 
ATOM     82  C   UNL A   1      46.264  27.632  33.806  1.00  0.00     0.012 A 
ATOM     83  C   UNL A   1      44.871  25.795  34.596  1.00  0.00     0.148 A 
ATOM     84  C   UNL A   1      47.331  27.157  34.566  1.00  0.00     0.002 A 
ATOM     85  C   UNL A   1      45.929  25.347  35.375  1.00  0.00     0.091 A 
ATOM     86  F   UNL A   1      43.680  25.180  34.587  1.00  0.00    -0.205 F 
ATOM     87  C   UNL A   1      47.160  26.024  35.360  1.00  0.00     0.022 A 
BRANCH  85  88
ATOM     88  S   UNL A   1      45.787  23.946  36.490  1.00  0.00     0.127 S 
ATOM     89  O   UNL A   1      45.256  22.911  35.604  1.00  0.00    -0.237 OA
ATOM     90  O   UNL A   1      47.175  23.742  36.904  1.00  0.00    -0.237 OA
ATOM     91  O   UNL A   1      44.884  24.363  37.555  1.00  0.00    -0.744 OA
ENDBRANCH  85  88
ENDBRANCH  58  81
ENDBRANCH  32  33
ENDBRANCH  24  27
ENDBRANCH  22  23
ENDBRANCH   1  22
TORSDOF 17
ENDMDL
MODEL 2
REMARK VINA RESULT:     -11.4      2.540      3.478
REMARK SMILES CC[C@H](C)[C@@H](Nc1ccc(Cl)c(Br)c1)C(=O)NCCCNC(=O)c1ccc(-c2c3nc(c(-c4cccc(S(=O)(=O)[O-])c4F)c4ccc([nH]4)c(-c4cccc(S(=O)(=O)[O-])c4F)c4nc(c(-c5cccc(S(=O)(=O)[O-])c5F)c5ccc2[nH]5)C=C4)C=C3)cc1
REMARK SMILES IDX 19 1 18 2 17 3 15 4 16 5 5 7 3 8 4 9 2 10 1 11 6 12 7 14
REMARK SMILES IDX 8 15 14 16 9 17 12 18 10 19 13 20 11 21 20 22 21 23 22 24
REMARK SMILES IDX 23 26 24 27 25 28 86 29 26 30 85 31 27 32 28 33 29 34 79 35
REMARK SMILES IDX 30 36 84 37 78 38 80 39 31 40 83 41 77 42 76 43 32 45 64 46
REMARK SMILES IDX 44 47 63 48 45 49 48 50 62 51 81 52 46 53 47 54 61 56 82 57
REMARK SMILES IDX 49 58 33 59 34 60 42 61 35 62 37 63 43 64 36 65 38 66 39 67
REMARK SMILES IDX 40 68 41 69 65 70 66 71 74 72 67 73 69 74 75 75 68 76 70 77
REMARK SMILES IDX 71 78 72 79 73 80 50 81 51 82 59 83 52 84 54 85 60 86 53 87
REMARK SMILES IDX 55 88 56 89 57 90 58 91
REMARK H PARENT 17 6 6 13 21 25 80 44 48 55
REMARK Flexibility Score: inf
ROOT
ATOM      1  C   UNL A   1      31.774  29.112  27.091  1.00  0.00     0.042 C 
ENDROOT
BRANCH   1   2
ATOM      2  C   UNL A   1      32.249  27.693  26.876  1.00  0.00     0.117 C 
BRANCH   2   3
ATOM      3  N   UNL A   1      31.158  26.737  26.852  1.00  0.00    -0.354 N 
ATOM      4  C   UNL A   1      31.108  25.506  26.264  1.00  0.00     0.242 C 
ATOM      5  O   UNL A   1      30.121  24.799  26.495  1.00  0.00    -0.273 OA
ATOM      6  H   UNL A   1      30.340  27.015  27.325  1.00  0.00     0.163 HD
BRANCH   4   7
ATOM      7  C   UNL A   1      32.225  25.015  25.303  1.00  0.00     0.171 C 
BRANCH   7   8
ATOM      8  C   UNL A   1      32.292  25.963  24.054  1.00  0.00     0.018 C 
ATOM      9  C   UNL A   1      33.710  26.490  23.795  1.00  0.00     0.010 C 
BRANCH   8  10
ATOM     10  C   UNL A   1      31.704  25.244  22.808  1.00  0.00     0.002 C 
ATOM     11  C   UNL A   1      31.887  25.961  21.477  1.00  0.00     0.004 C 
ENDBRANCH   8  10
ENDBRANCH   7   8
BRANCH   7  12
ATOM     12  N   UNL A   1      33.549  24.857  25.956  1.00  0.00    -0.373 N 
ATOM     13  H   UNL A   1      33.900  25.638  26.440  1.00  0.00     0.161 HD
BRANCH  12  14
ATOM     14  C   UNL A   1      34.339  23.720  25.949  1.00  0.00     0.036 A 
ATOM     15  C   UNL A   1      35.735  23.744  25.994  1.00  0.00     0.027 A 
ATOM     16  C   UNL A   1      33.714  22.491  25.684  1.00  0.00     0.043 A 
ATOM     17  C   UNL A   1      36.486  22.602  25.698  1.00  0.00     0.024 A 
ATOM     18  C   UNL A   1      34.457  21.346  25.372  1.00  0.00     0.038 A 
ATOM     19  C   UNL A   1      35.852  21.405  25.364  1.00  0.00     0.055 A 
ATOM     20  Br  UNL A   1      33.491  19.784  24.889  1.00  0.00    -0.049 Br
ATOM     21  Cl  UNL A   1      36.845  20.064  24.923  1.00  0.00    -0.083 Cl
ENDBRANCH  12  14
ENDBRANCH   7  12
ENDBRANCH   4   7
ENDBRANCH   2   3
ENDBRANCH   1   2
BRANCH   1  22
ATOM     22  C   UNL A   1      32.379  30.101  26.111  1.00  0.00     0.118 C 
BRANCH  22  23
ATOM     23  N   UNL A   1      32.122  31.492  26.467  1.00  0.00    -0.352 N 
ATOM     24  C   UNL A   1      32.855  32.351  27.253  1.00  0.00     0.251 C 
ATOM     25  H   UNL A   1      31.298  31.875  26.087  1.00  0.00     0.163 HD
ATOM     26  O   UNL A   1      32.388  33.443  27.563  1.00  0.00    -0.269 OA
BRANCH  24  27
ATOM     27  C   UNL A   1      34.186  31.938  27.750  1.00  0.00     0.039 A 
ATOM     28  C   UNL A   1      34.424  30.609  28.098  1.00  0.00     0.014 A 
ATOM     29  C   UNL A   1      35.196  32.891  27.901  1.00  0.00     0.014 A 
ATOM     30  C   UNL A   1      35.575  30.281  28.799  1.00  0.00     0.010 A 
ATOM     31  C   UNL A   1      36.410  32.528  28.492  1.00  0.00     0.010 A 
ATOM     32  C   UNL A   1      36.589  31.232  28.999  1.00  0.00    -0.014 A 
BRANCH  32  33
ATOM     33  C   UNL A   1      37.822  30.814  29.717  1.00  0.00     0.031 A 
ATOM     34  C   UNL A   1      38.083  31.229  31.139  1.00  0.00     0.074 A 
ATOM     35  C   UNL A   1      38.678  29.982  29.089  1.00  0.00     0.049 A 
ATOM     36  N   UNL A   1      39.055  30.856  31.932  1.00  0.00    -0.248 NA
ATOM     37  C   UNL A   1      37.149  32.186  31.758  1.00  0.00     0.031 C 
ATOM     38  C   UNL A   1      38.548  29.538  27.697  1.00  0.00     0.029 A 
ATOM     39  N   UNL A   1      39.796  29.328  29.539  1.00  0.00    -0.354 N 
ATOM     40  C   UNL A   1      38.880  31.562  33.115  1.00  0.00     0.074 A 
ATOM     41  C   UNL A   1      37.707  32.390  32.945  1.00  0.00     0.031 C 
ATOM     42  C   UNL A   1      39.493  28.625  27.435  1.00  0.00     0.029 A 
ATOM     43  C   UNL A   1      40.334  28.463  28.615  1.00  0.00     0.049 A 
ATOM     44  H   UNL A   1      40.176  29.464  30.437  1.00  0.00     0.167 HD
ATOM     45  C   UNL A   1      39.616  31.507  34.248  1.00  0.00     0.034 A 
ATOM     46  C   UNL A   1      41.385  27.624  28.702  1.00  0.00     0.034 A 
ATOM     47  C   UNL A   1      40.737  30.628  34.442  1.00  0.00     0.049 A 
ATOM     48  C   UNL A   1      42.160  27.558  29.983  1.00  0.00     0.074 A 
ATOM     49  C   UNL A   1      41.497  30.452  35.585  1.00  0.00     0.029 A 
ATOM     50  N   UNL A   1      41.252  29.777  33.479  1.00  0.00    -0.354 N 
ATOM     51  N   UNL A   1      41.917  28.163  31.118  1.00  0.00    -0.248 NA
ATOM     52  C   UNL A   1      43.348  26.693  30.001  1.00  0.00     0.031 C 
ATOM     53  C   UNL A   1      42.479  29.497  35.311  1.00  0.00     0.029 A 
ATOM     54  C   UNL A   1      42.326  29.078  33.999  1.00  0.00     0.049 A 
ATOM     55  H   UNL A   1      40.907  29.684  32.562  1.00  0.00     0.167 HD
ATOM     56  C   UNL A   1      42.915  27.751  31.990  1.00  0.00     0.074 A 
ATOM     57  C   UNL A   1      43.757  26.826  31.258  1.00  0.00     0.031 C 
ATOM     58  C   UNL A   1      43.125  28.126  33.273  1.00  0.00     0.034 A 
BRANCH  45  59
ATOM     59  C   UNL A   1      39.213  32.376  35.408  1.00  0.00     0.023 A 
ATOM     60  C   UNL A   1      38.440  31.822  36.446  1.00  0.00     0.012 A 
ATOM     61  C   UNL A   1      39.704  33.691  35.530  1.00  0.00     0.148 A 
ATOM     62  C   UNL A   1      38.155  32.565  37.590  1.00  0.00     0.002 A 
ATOM     63  C   UNL A   1      39.438  34.416  36.686  1.00  0.00     0.091 A 
ATOM     64  F   UNL A   1      40.431  34.197  34.524  1.00  0.00    -0.205 F 
ATOM     65  C   UNL A   1      38.662  33.856  37.714  1.00  0.00     0.022 A 
BRANCH  63  66
ATOM     66  S   UNL A   1      40.091  36.065  36.974  1.00  0.00     0.127 S 
ATOM     67  O   UNL A   1      39.317  36.487  38.141  1.00  0.00    -0.237 OA
ATOM     68  O   UNL A   1      41.503  35.793  37.244  1.00  0.00    -0.237 OA
ATOM     69  O   UNL A   1      39.835  36.821  35.756  1.00  0.00    -0.744 OA
ENDBRANCH  63  66
ENDBRANCH  45  59
BRANCH  46  70
ATOM     70  C   UNL A   1      41.706  26.743  27.547  1.00  0.00     0.023 A 
ATOM     71  C   UNL A   1      42.475  27.258  26.486  1.00  0.00     0.012 A 
ATOM     72  C   UNL A   1      41.344  25.383  27.543  1.00  0.00     0.148 A 
ATOM     73  C   UNL A   1      42.879  26.431  25.438  1.00  0.00     0.002 A 
ATOM     74  C   UNL A   1      41.787  24.554  26.520  1.00  0.00     0.091 A 
ATOM     75  F   UNL A   1      40.606  24.922  28.562  1.00  0.00    -0.205 F 
ATOM     76  C   UNL A   1      42.546  25.077  25.461  1.00  0.00     0.022 A 
BRANCH  74  77
ATOM     77  S   UNL A   1      41.515  22.779  26.528  1.00  0.00     0.127 S 
ATOM     78  O   UNL A   1      42.107  22.392  27.806  1.00  0.00    -0.237 OA
ATOM     79  O   UNL A   1      40.055  22.700  26.474  1.00  0.00    -0.237 OA
ATOM     80  O   UNL A   1      42.191  22.270  25.342  1.00  0.00    -0.744 OA
ENDBRANCH  74  77
ENDBRANCH  46  70
BRANCH  58  81
ATOM     81  C   UNL A   1      44.306  27.549  33.998  1.00  0.00     0.023 A 
ATOM     82  C   UNL A   1      45.504  28.288  34.043  1.00  0.00     0.012 A 
ATOM     83  C   UNL A   1      44.175  26.378  34.767  1.00  0.00     0.148 A 
ATOM     84  C   UNL A   1      46.558  27.868  34.851  1.00  0.00     0.002 A 
ATOM     85  C   UNL A   1      45.219  25.984  35.594  1.00  0.00     0.091 A 
ATOM     86  F   UNL A   1      43.020  25.700  34.703  1.00  0.00    -0.205 F 
ATOM     87  C   UNL A   1      46.412  26.726  35.636  1.00  0.00     0.022 A 
BRANCH  85  88
ATOM     88  S   UNL A   1      45.100  24.575  36.701  1.00  0.00     0.127 S 
ATOM     89  O   UNL A   1      46.469  24.477  37.208  1.00  0.00    -0.237 OA
ATOM     90  O   UNL A   1      44.118  25.037  37.681  1.00  0.00    -0.237 OA
ATOM     91  O   UNL A   1      44.668  23.450  35.882  1.00  0.00    -0.744 OA
ENDBRANCH  85  88
ENDBRANCH  58  81
ENDBRANCH  32  33
ENDBRANCH  24  27
ENDBRANCH  22  23
ENDBRANCH   1  22
TORSDOF 17
ENDMDL
MODEL 3
REMARK VINA RESULT:     -11.4      2.284      3.326
REMARK SMILES CC[C@H](C)[C@@H](Nc1ccc(Cl)c(Br)c1)C(=O)NCCCNC(=O)c1ccc(-c2c3nc(c(-c4cccc(S(=O)(=O)[O-])c4F)c4ccc([nH]4)c(-c4cccc(S(=O)(=O)[O-])c4F)c4nc(c(-c5cccc(S(=O)(=O)[O-])c5F)c5ccc2[nH]5)C=C4)C=C3)cc1
REMARK SMILES IDX 19 1 18 2 17 3 15 4 16 5 5 7 3 8 4 9 2 10 1 11 6 12 7 14
REMARK SMILES IDX 8 15 14 16 9 17 12 18 10 19 13 20 11 21 20 22 21 23 22 24
REMARK SMILES IDX 23 26 24 27 25 28 86 29 26 30 85 31 27 32 28 33 29 34 79 35
REMARK SMILES IDX 30 36 84 37 78 38 80 39 31 40 83 41 77 42 76 43 32 45 64 46
REMARK SMILES IDX 44 47 63 48 45 49 48 50 62 51 81 52 46 53 47 54 61 56 82 57
REMARK SMILES IDX 49 58 33 59 34 60 42 61 35 62 37 63 43 64 36 65 38 66 39 67
REMARK SMILES IDX 40 68 41 69 65 70 66 71 74 72 67 73 69 74 75 75 68 76 70 77
REMARK SMILES IDX 71 78 72 79 73 80 50 81 51 82 59 83 52 84 54 85 60 86 53 87
REMARK SMILES IDX 55 88 56 89 57 90 58 91
REMARK H PARENT 17 6 6 13 21 25 80 44 48 55
REMARK Flexibility Score: inf
ROOT
ATOM      1  C   UNL A   1      32.998  28.973  24.311  1.00  0.00     0.042 C 
ENDROOT
BRANCH   1   2
ATOM      2  C   UNL A   1      33.513  27.600  23.941  1.00  0.00     0.117 C 
BRANCH   2   3
ATOM      3  N   UNL A   1      32.969  27.121  22.684  1.00  0.00    -0.354 N 
ATOM      4  C   UNL A   1      31.706  26.679  22.409  1.00  0.00     0.242 C 
ATOM      5  O   UNL A   1      31.423  26.454  21.227  1.00  0.00    -0.273 OA
ATOM      6  H   UNL A   1      33.596  27.113  21.925  1.00  0.00     0.163 HD
BRANCH   4   7
ATOM      7  C   UNL A   1      30.667  26.425  23.534  1.00  0.00     0.171 C 
BRANCH   7   8
ATOM      8  C   UNL A   1      29.360  27.237  23.230  1.00  0.00     0.018 C 
ATOM      9  C   UNL A   1      28.145  26.700  23.997  1.00  0.00     0.010 C 
BRANCH   8  10
ATOM     10  C   UNL A   1      29.597  28.749  23.506  1.00  0.00     0.002 C 
ATOM     11  C   UNL A   1      29.166  29.703  22.400  1.00  0.00     0.004 C 
ENDBRANCH   8  10
ENDBRANCH   7   8
BRANCH   7  12
ATOM     12  N   UNL A   1      30.387  24.987  23.776  1.00  0.00    -0.373 N 
ATOM     13  H   UNL A   1      29.655  24.585  23.256  1.00  0.00     0.161 HD
BRANCH  12  14
ATOM     14  C   UNL A   1      31.053  24.156  24.661  1.00  0.00     0.036 A 
ATOM     15  C   UNL A   1      30.702  24.012  26.005  1.00  0.00     0.027 A 
ATOM     16  C   UNL A   1      32.262  23.583  24.235  1.00  0.00     0.043 A 
ATOM     17  C   UNL A   1      31.567  23.393  26.914  1.00  0.00     0.024 A 
ATOM     18  C   UNL A   1      33.141  22.975  25.140  1.00  0.00     0.038 A 
ATOM     19  C   UNL A   1      32.799  22.894  26.491  1.00  0.00     0.055 A 
ATOM     20  Br  UNL A   1      34.809  22.370  24.464  1.00  0.00    -0.049 Br
ATOM     21  Cl  UNL A   1      33.849  22.227  27.686  1.00  0.00    -0.083 Cl
ENDBRANCH  12  14
ENDBRANCH   7  12
ENDBRANCH   4   7
ENDBRANCH   2   3
ENDBRANCH   1   2
BRANCH   1  22
ATOM     22  C   UNL A   1      32.689  29.116  25.791  1.00  0.00     0.118 C 
BRANCH  22  23
ATOM     23  N   UNL A   1      32.313  30.474  26.169  1.00  0.00    -0.352 N 
ATOM     24  C   UNL A   1      32.958  31.372  26.990  1.00  0.00     0.251 C 
ATOM     25  H   UNL A   1      31.470  30.798  25.779  1.00  0.00     0.163 HD
ATOM     26  O   UNL A   1      32.398  32.415  27.311  1.00  0.00    -0.269 OA
BRANCH  24  27
ATOM     27  C   UNL A   1      34.307  31.055  27.509  1.00  0.00     0.039 A 
ATOM     28  C   UNL A   1      34.616  29.758  27.916  1.00  0.00     0.014 A 
ATOM     29  C   UNL A   1      35.262  32.068  27.621  1.00  0.00     0.014 A 
ATOM     30  C   UNL A   1      35.779  29.525  28.635  1.00  0.00     0.010 A 
ATOM     31  C   UNL A   1      36.491  31.799  28.231  1.00  0.00     0.010 A 
ATOM     32  C   UNL A   1      36.738  30.539  28.796  1.00  0.00    -0.014 A 
BRANCH  32  33
ATOM     33  C   UNL A   1      37.988  30.222  29.535  1.00  0.00     0.031 A 
ATOM     34  C   UNL A   1      38.192  30.662  30.959  1.00  0.00     0.074 A 
ATOM     35  C   UNL A   1      38.917  29.457  28.925  1.00  0.00     0.049 A 
ATOM     36  N   UNL A   1      39.177  30.369  31.770  1.00  0.00    -0.248 NA
ATOM     37  C   UNL A   1      37.176  31.545  31.558  1.00  0.00     0.031 C 
ATOM     38  C   UNL A   1      38.846  29.000  27.534  1.00  0.00     0.029 A 
ATOM     39  N   UNL A   1      40.076  28.895  29.397  1.00  0.00    -0.354 N 
ATOM     40  C   UNL A   1      38.928  31.064  32.947  1.00  0.00     0.074 A 
ATOM     41  C   UNL A   1      37.697  31.796  32.753  1.00  0.00     0.031 C 
ATOM     42  C   UNL A   1      39.863  28.163  27.292  1.00  0.00     0.029 A 
ATOM     43  C   UNL A   1      40.695  28.072  28.485  1.00  0.00     0.049 A 
ATOM     44  H   UNL A   1      40.429  29.064  30.300  1.00  0.00     0.167 HD
ATOM     45  C   UNL A   1      39.648  31.071  34.091  1.00  0.00     0.034 A 
ATOM     46  C   UNL A   1      41.807  27.319  28.593  1.00  0.00     0.034 A 
ATOM     47  C   UNL A   1      40.831  30.284  34.307  1.00  0.00     0.049 A 
ATOM     48  C   UNL A   1      42.564  27.318  29.887  1.00  0.00     0.074 A 
ATOM     49  C   UNL A   1      41.584  30.173  35.463  1.00  0.00     0.029 A 
ATOM     50  N   UNL A   1      41.428  29.473  33.357  1.00  0.00    -0.354 N 
ATOM     51  N   UNL A   1      42.256  27.907  31.015  1.00  0.00    -0.248 NA
ATOM     52  C   UNL A   1      43.816  26.550  29.929  1.00  0.00     0.031 C 
ATOM     53  C   UNL A   1      42.642  29.297  35.210  1.00  0.00     0.029 A 
ATOM     54  C   UNL A   1      42.544  28.862  33.897  1.00  0.00     0.049 A 
ATOM     55  H   UNL A   1      41.106  29.349  32.435  1.00  0.00     0.167 HD
ATOM     56  C   UNL A   1      43.269  27.579  31.905  1.00  0.00     0.074 A 
ATOM     57  C   UNL A   1      44.192  26.719  31.191  1.00  0.00     0.031 C 
ATOM     58  C   UNL A   1      43.427  27.973  33.189  1.00  0.00     0.034 A 
BRANCH  45  59
ATOM     59  C   UNL A   1      39.159  31.910  35.240  1.00  0.00     0.023 A 
ATOM     60  C   UNL A   1      38.315  31.328  36.205  1.00  0.00     0.012 A 
ATOM     61  C   UNL A   1      39.635  33.222  35.430  1.00  0.00     0.148 A 
ATOM     62  C   UNL A   1      37.944  32.042  37.344  1.00  0.00     0.002 A 
ATOM     63  C   UNL A   1      39.283  33.918  36.581  1.00  0.00     0.091 A 
ATOM     64  F   UNL A   1      40.431  33.755  34.493  1.00  0.00    -0.205 F 
ATOM     65  C   UNL A   1      38.437  33.331  37.536  1.00  0.00     0.022 A 
BRANCH  63  66
ATOM     66  S   UNL A   1      39.908  35.560  36.957  1.00  0.00     0.127 S 
ATOM     67  O   UNL A   1      39.545  36.296  35.745  1.00  0.00    -0.237 OA
ATOM     68  O   UNL A   1      39.133  35.920  38.144  1.00  0.00    -0.237 OA
ATOM     69  O   UNL A   1      41.338  35.408  37.182  1.00  0.00    -0.744 OA
ENDBRANCH  63  66
ENDBRANCH  45  59
BRANCH  46  70
ATOM     70  C   UNL A   1      42.216  26.462  27.448  1.00  0.00     0.023 A 
ATOM     71  C   UNL A   1      43.099  26.982  26.484  1.00  0.00     0.012 A 
ATOM     72  C   UNL A   1      41.818  25.114  27.366  1.00  0.00     0.148 A 
ATOM     73  C   UNL A   1      43.581  26.173  25.455  1.00  0.00     0.002 A 
ATOM     74  C   UNL A   1      42.336  24.301  26.366  1.00  0.00     0.091 A 
ATOM     75  F   UNL A   1      40.971  24.647  28.294  1.00  0.00    -0.205 F 
ATOM     76  C   UNL A   1      43.210  24.830  25.403  1.00  0.00     0.022 A 
BRANCH  74  77
ATOM     77  S   UNL A   1      42.015  22.535  26.292  1.00  0.00     0.127 S 
ATOM     78  O   UNL A   1      42.699  22.160  25.056  1.00  0.00    -0.237 OA
ATOM     79  O   UNL A   1      42.656  22.064  27.520  1.00  0.00    -0.237 OA
ATOM     80  O   UNL A   1      40.566  22.398  26.276  1.00  0.00    -0.744 OA
ENDBRANCH  74  77
ENDBRANCH  46  70
BRANCH  58  81
ATOM     81  C   UNL A   1      44.638  27.494  33.936  1.00  0.00     0.023 A 
ATOM     82  C   UNL A   1      45.761  28.339  34.026  1.00  0.00     0.012 A 
ATOM     83  C   UNL A   1      44.597  26.301  34.681  1.00  0.00     0.148 A 
ATOM     84  C   UNL A   1      46.829  28.003  34.855  1.00  0.00     0.002 A 
ATOM     85  C   UNL A   1      45.652  25.989  35.529  1.00  0.00     0.091 A 
ATOM     86  F   UNL A   1      43.513  25.520  34.574  1.00  0.00    -0.205 F 
ATOM     87  C   UNL A   1      46.769  26.837  35.616  1.00  0.00     0.022 A 
BRANCH  85  88
ATOM     88  S   UNL A   1      45.636  24.554  36.608  1.00  0.00     0.127 S 
ATOM     89  O   UNL A   1      45.592  23.455  35.643  1.00  0.00    -0.237 OA
ATOM     90  O   UNL A   1      46.907  24.691  37.319  1.00  0.00    -0.237 OA
ATOM     91  O   UNL A   1      44.448  24.684  37.442  1.00  0.00    -0.744 OA
ENDBRANCH  85  88
ENDBRANCH  58  81
ENDBRANCH  32  33
ENDBRANCH  24  27
ENDBRANCH  22  23
ENDBRANCH   1  22
TORSDOF 17
ENDMDL
