MODEL 1
REMARK VINA RESULT:     -12.7      0.000      0.000
REMARK SMILES O=C(CN1C(=O)c2ccccc2[C@@H]1O)NCCCNC(=O)c1ccc(-c2c3nc(c(-c4cccc(S(=O)(=O)[O-])c4F)c4ccc([nH]4)c(-c4cccc(S(=O)(=O)[O-])c4F)c4nc(c(-c5cccc(S(=O)(=O)[O-])c5F)c5ccc2[nH]5)C=C4)C=C3)cc1
REMARK SMILES IDX 17 1 16 2 15 3 1 4 2 5 3 7 4 8 5 9 13 10 6 11 7 12 12 13
REMARK SMILES IDX 8 14 11 15 9 16 10 17 14 18 18 20 19 21 20 22 21 24 22 25
REMARK SMILES IDX 23 26 84 27 24 28 83 29 25 30 26 31 27 32 77 33 28 34 82 35
REMARK SMILES IDX 76 36 78 37 29 38 81 39 75 40 74 41 30 43 62 44 42 45 61 46
REMARK SMILES IDX 43 47 46 48 60 49 79 50 44 51 45 52 59 54 80 55 47 56 31 57
REMARK SMILES IDX 32 58 40 59 33 60 35 61 41 62 34 63 36 64 37 65 38 66 39 67
REMARK SMILES IDX 63 68 64 69 72 70 65 71 67 72 73 73 66 74 68 75 69 76 70 77
REMARK SMILES IDX 71 78 48 79 49 80 57 81 50 82 52 83 58 84 51 85 53 86 54 87
REMARK SMILES IDX 55 88 56 89
REMARK H PARENT 15 6 14 19 19 23 78 42 46 53
REMARK Flexibility Score: inf
ROOT
ATOM      1  C   UNL A   1      31.759  28.990  27.187  1.00  0.00     0.042 C 
ENDROOT
BRANCH   1   2
ATOM      2  C   UNL A   1      32.192  27.535  27.070  1.00  0.00     0.117 C 
BRANCH   2   3
ATOM      3  N   UNL A   1      31.871  26.953  25.784  1.00  0.00    -0.354 N 
ATOM      4  O   UNL A   1      30.515  25.265  26.564  1.00  0.00    -0.273 OA
ATOM      5  C   UNL A   1      30.988  25.907  25.632  1.00  0.00     0.239 C 
ATOM      6  H   UNL A   1      32.305  27.321  24.980  1.00  0.00     0.163 HD
BRANCH   5   7
ATOM      7  C   UNL A   1      30.642  25.598  24.173  1.00  0.00     0.222 C 
BRANCH   7   8
ATOM      8  N   UNL A   1      30.053  26.700  23.419  1.00  0.00    -0.299 N 
ATOM      9  C   UNL A   1      28.748  27.113  23.626  1.00  0.00     0.257 C 
ATOM     10  C   UNL A   1      30.833  27.685  22.708  1.00  0.00     0.247 C 
ATOM     11  O   UNL A   1      27.869  26.552  24.251  1.00  0.00    -0.269 OA
ATOM     12  C   UNL A   1      28.609  28.427  22.988  1.00  0.00     0.047 A 
ATOM     13  C   UNL A   1      29.852  28.786  22.472  1.00  0.00     0.014 A 
ATOM     14  C   UNL A   1      27.496  29.236  22.871  1.00  0.00     0.014 A 
ATOM     15  C   UNL A   1      30.018  29.988  21.806  1.00  0.00     0.009 A 
ATOM     16  C   UNL A   1      27.653  30.449  22.196  1.00  0.00     0.001 A 
ATOM     17  C   UNL A   1      28.905  30.822  21.670  1.00  0.00     0.001 A 
BRANCH  10  18
ATOM     18  O   UNL A   1      31.204  27.124  21.467  1.00  0.00    -0.369 OA
ATOM     19  H   UNL A   1      30.906  26.201  21.426  1.00  0.00     0.213 HD
ENDBRANCH  10  18
ENDBRANCH   7   8
ENDBRANCH   5   7
ENDBRANCH   2   3
ENDBRANCH   1   2
BRANCH   1  20
ATOM     20  C   UNL A   1      32.540  29.971  26.320  1.00  0.00     0.118 C 
BRANCH  20  21
ATOM     21  N   UNL A   1      32.305  31.372  26.652  1.00  0.00    -0.352 N 
ATOM     22  C   UNL A   1      33.103  32.243  27.361  1.00  0.00     0.251 C 
ATOM     23  H   UNL A   1      31.456  31.748  26.324  1.00  0.00     0.163 HD
ATOM     24  O   UNL A   1      32.698  33.371  27.628  1.00  0.00    -0.269 OA
BRANCH  22  25
ATOM     25  C   UNL A   1      34.436  31.804  27.834  1.00  0.00     0.039 A 
ATOM     26  C   UNL A   1      35.445  32.757  28.001  1.00  0.00     0.014 A 
ATOM     27  C   UNL A   1      34.677  30.466  28.151  1.00  0.00     0.014 A 
ATOM     28  C   UNL A   1      36.664  32.384  28.578  1.00  0.00     0.010 A 
ATOM     29  C   UNL A   1      35.861  30.111  28.792  1.00  0.00     0.010 A 
ATOM     30  C   UNL A   1      36.863  31.069  29.026  1.00  0.00    -0.014 A 
BRANCH  30  31
ATOM     31  C   UNL A   1      38.083  30.667  29.779  1.00  0.00     0.031 A 
ATOM     32  C   UNL A   1      39.044  29.674  29.185  1.00  0.00     0.074 A 
ATOM     33  C   UNL A   1      38.255  31.092  31.047  1.00  0.00     0.049 A 
ATOM     34  N   UNL A   1      40.075  29.090  29.738  1.00  0.00    -0.248 NA
ATOM     35  C   UNL A   1      38.797  29.260  27.793  1.00  0.00     0.031 C 
ATOM     36  C   UNL A   1      37.360  32.002  31.766  1.00  0.00     0.029 A 
ATOM     37  N   UNL A   1      39.222  30.783  31.973  1.00  0.00    -0.354 N 
ATOM     38  C   UNL A   1      40.571  28.209  28.785  1.00  0.00     0.074 A 
ATOM     39  C   UNL A   1      39.713  28.318  27.624  1.00  0.00     0.031 C 
ATOM     40  C   UNL A   1      37.812  32.169  33.019  1.00  0.00     0.029 A 
ATOM     41  C   UNL A   1      39.006  31.351  33.208  1.00  0.00     0.049 A 
ATOM     42  H   UNL A   1      39.998  30.209  31.772  1.00  0.00     0.167 HD
ATOM     43  C   UNL A   1      41.654  27.399  28.858  1.00  0.00     0.034 A 
ATOM     44  C   UNL A   1      39.679  31.215  34.369  1.00  0.00     0.034 A 
ATOM     45  C   UNL A   1      42.533  27.329  29.993  1.00  0.00     0.049 A 
ATOM     46  C   UNL A   1      40.899  30.335  34.413  1.00  0.00     0.074 A 
ATOM     47  C   UNL A   1      43.706  26.606  30.128  1.00  0.00     0.029 A 
ATOM     48  N   UNL A   1      42.338  28.000  31.190  1.00  0.00    -0.354 N 
ATOM     49  N   UNL A   1      41.436  29.623  33.453  1.00  0.00    -0.248 NA
ATOM     50  C   UNL A   1      41.627  30.264  35.690  1.00  0.00     0.031 C 
ATOM     51  C   UNL A   1      44.209  26.825  31.414  1.00  0.00     0.029 A 
ATOM     52  C   UNL A   1      43.364  27.705  32.070  1.00  0.00     0.049 A 
ATOM     53  H   UNL A   1      41.581  28.598  31.385  1.00  0.00     0.167 HD
ATOM     54  C   UNL A   1      42.585  29.057  33.994  1.00  0.00     0.074 A 
ATOM     55  C   UNL A   1      42.673  29.516  35.363  1.00  0.00     0.031 C 
ATOM     56  C   UNL A   1      43.479  28.223  33.409  1.00  0.00     0.034 A 
BRANCH  43  57
ATOM     57  C   UNL A   1      41.985  26.558  27.653  1.00  0.00     0.023 A 
ATOM     58  C   UNL A   1      42.665  27.142  26.565  1.00  0.00     0.012 A 
ATOM     59  C   UNL A   1      41.684  25.183  27.622  1.00  0.00     0.148 A 
ATOM     60  C   UNL A   1      43.011  26.379  25.451  1.00  0.00     0.002 A 
ATOM     61  C   UNL A   1      42.072  24.418  26.527  1.00  0.00     0.091 A 
ATOM     62  F   UNL A   1      41.018  24.649  28.657  1.00  0.00    -0.205 F 
ATOM     63  C   UNL A   1      42.724  25.016  25.437  1.00  0.00     0.022 A 
BRANCH  61  64
ATOM     64  S   UNL A   1      41.820  22.641  26.449  1.00  0.00     0.127 S 
ATOM     65  O   UNL A   1      42.507  22.193  27.660  1.00  0.00    -0.237 OA
ATOM     66  O   UNL A   1      40.361  22.534  26.501  1.00  0.00    -0.237 OA
ATOM     67  O   UNL A   1      42.415  22.207  25.193  1.00  0.00    -0.744 OA
ENDBRANCH  61  64
ENDBRANCH  43  57
BRANCH  44  68
ATOM     68  C   UNL A   1      39.247  31.980  35.575  1.00  0.00     0.023 A 
ATOM     69  C   UNL A   1      39.587  33.342  35.684  1.00  0.00     0.012 A 
ATOM     70  C   UNL A   1      38.484  31.378  36.594  1.00  0.00     0.148 A 
ATOM     71  C   UNL A   1      39.203  34.085  36.800  1.00  0.00     0.002 A 
ATOM     72  C   UNL A   1      38.057  32.138  37.678  1.00  0.00     0.091 A 
ATOM     73  F   UNL A   1      38.181  30.078  36.479  1.00  0.00    -0.205 F 
ATOM     74  C   UNL A   1      38.429  33.487  37.792  1.00  0.00     0.022 A 
BRANCH  72  75
ATOM     75  S   UNL A   1      36.951  31.486  38.936  1.00  0.00     0.127 S 
ATOM     76  O   UNL A   1      37.776  31.583  40.137  1.00  0.00    -0.237 OA
ATOM     77  O   UNL A   1      35.835  32.432  38.876  1.00  0.00    -0.237 OA
ATOM     78  O   UNL A   1      36.617  30.137  38.501  1.00  0.00    -0.744 OA
ENDBRANCH  72  75
ENDBRANCH  44  68
BRANCH  56  79
ATOM     79  C   UNL A   1      44.673  27.786  34.216  1.00  0.00     0.023 A 
ATOM     80  C   UNL A   1      45.844  28.568  34.221  1.00  0.00     0.012 A 
ATOM     81  C   UNL A   1      44.591  26.657  35.054  1.00  0.00     0.148 A 
ATOM     82  C   UNL A   1      46.924  28.221  35.032  1.00  0.00     0.002 A 
ATOM     83  C   UNL A   1      45.652  26.344  35.896  1.00  0.00     0.091 A 
ATOM     84  F   UNL A   1      43.473  25.916  35.021  1.00  0.00    -0.205 F 
ATOM     85  C   UNL A   1      46.823  27.118  35.878  1.00  0.00     0.022 A 
BRANCH  83  86
ATOM     86  S   UNL A   1      45.574  25.003  37.089  1.00  0.00     0.127 S 
ATOM     87  O   UNL A   1      45.673  23.829  36.225  1.00  0.00    -0.237 OA
ATOM     88  O   UNL A   1      46.756  25.255  37.915  1.00  0.00    -0.237 OA
ATOM     89  O   UNL A   1      44.305  25.158  37.787  1.00  0.00    -0.744 OA
ENDBRANCH  83  86
ENDBRANCH  56  79
ENDBRANCH  30  31
ENDBRANCH  22  25
ENDBRANCH  20  21
ENDBRANCH   1  20
TORSDOF 15
ENDMDL
MODEL 2
REMARK VINA RESULT:     -12.4      6.043     10.937
REMARK SMILES O=C(CN1C(=O)c2ccccc2[C@@H]1O)NCCCNC(=O)c1ccc(-c2c3nc(c(-c4cccc(S(=O)(=O)[O-])c4F)c4ccc([nH]4)c(-c4cccc(S(=O)(=O)[O-])c4F)c4nc(c(-c5cccc(S(=O)(=O)[O-])c5F)c5ccc2[nH]5)C=C4)C=C3)cc1
REMARK SMILES IDX 17 1 16 2 15 3 1 4 2 5 3 7 4 8 5 9 13 10 6 11 7 12 12 13
REMARK SMILES IDX 8 14 11 15 9 16 10 17 14 18 18 20 19 21 20 22 21 24 22 25
REMARK SMILES IDX 23 26 84 27 24 28 83 29 25 30 26 31 27 32 77 33 28 34 82 35
REMARK SMILES IDX 76 36 78 37 29 38 81 39 75 40 74 41 30 43 62 44 42 45 61 46
REMARK SMILES IDX 43 47 46 48 60 49 79 50 44 51 45 52 59 54 80 55 47 56 31 57
REMARK SMILES IDX 32 58 40 59 33 60 35 61 41 62 34 63 36 64 37 65 38 66 39 67
REMARK SMILES IDX 63 68 64 69 72 70 65 71 67 72 73 73 66 74 68 75 69 76 70 77
REMARK SMILES IDX 71 78 48 79 49 80 57 81 50 82 52 83 58 84 51 85 53 86 54 87
REMARK SMILES IDX 55 88 56 89
REMARK H PARENT 15 6 14 19 19 23 78 42 46 53
REMARK Flexibility Score: inf
ROOT
ATOM      1  C   UNL A   1      36.532  22.874  24.197  1.00  0.00     0.042 C 
ENDROOT
BRANCH   1   2
ATOM      2  C   UNL A   1      35.591  24.070  24.211  1.00  0.00     0.117 C 
BRANCH   2   3
ATOM      3  N   UNL A   1      34.194  23.689  24.249  1.00  0.00    -0.354 N 
ATOM      4  O   UNL A   1      33.776  23.913  21.998  1.00  0.00    -0.273 OA
ATOM      5  C   UNL A   1      33.420  23.564  23.118  1.00  0.00     0.239 C 
ATOM      6  H   UNL A   1      33.780  23.512  25.124  1.00  0.00     0.163 HD
BRANCH   5   7
ATOM      7  C   UNL A   1      32.042  22.948  23.378  1.00  0.00     0.222 C 
BRANCH   7   8
ATOM      8  N   UNL A   1      32.039  21.521  23.683  1.00  0.00    -0.299 N 
ATOM      9  C   UNL A   1      32.150  20.561  22.691  1.00  0.00     0.257 C 
ATOM     10  C   UNL A   1      32.312  20.986  24.995  1.00  0.00     0.247 C 
ATOM     11  O   UNL A   1      32.057  20.705  21.487  1.00  0.00    -0.269 OA
ATOM     12  C   UNL A   1      32.471  19.293  23.357  1.00  0.00     0.047 A 
ATOM     13  C   UNL A   1      32.601  19.547  24.719  1.00  0.00     0.014 A 
ATOM     14  C   UNL A   1      32.634  18.032  22.818  1.00  0.00     0.014 A 
ATOM     15  C   UNL A   1      32.902  18.523  25.602  1.00  0.00     0.009 A 
ATOM     16  C   UNL A   1      32.933  16.992  23.701  1.00  0.00     0.001 A 
ATOM     17  C   UNL A   1      33.068  17.236  25.081  1.00  0.00     0.001 A 
BRANCH  10  18
ATOM     18  O   UNL A   1      31.124  21.081  25.753  1.00  0.00    -0.369 OA
ATOM     19  H   UNL A   1      30.837  20.192  26.016  1.00  0.00     0.213 HD
ENDBRANCH  10  18
ENDBRANCH   7   8
ENDBRANCH   5   7
ENDBRANCH   2   3
ENDBRANCH   1   2
BRANCH   1  20
ATOM     20  C   UNL A   1      36.618  22.101  25.508  1.00  0.00     0.118 C 
BRANCH  20  21
ATOM     21  N   UNL A   1      37.622  21.042  25.506  1.00  0.00    -0.352 N 
ATOM     22  C   UNL A   1      38.937  21.091  25.914  1.00  0.00     0.251 C 
ATOM     23  H   UNL A   1      37.317  20.170  25.165  1.00  0.00     0.163 HD
ATOM     24  O   UNL A   1      39.669  20.118  25.751  1.00  0.00    -0.269 OA
BRANCH  22  25
ATOM     25  C   UNL A   1      39.477  22.331  26.517  1.00  0.00     0.039 A 
ATOM     26  C   UNL A   1      40.492  22.235  27.474  1.00  0.00     0.014 A 
ATOM     27  C   UNL A   1      39.015  23.584  26.110  1.00  0.00     0.014 A 
ATOM     28  C   UNL A   1      41.110  23.397  27.950  1.00  0.00     0.010 A 
ATOM     29  C   UNL A   1      39.679  24.734  26.528  1.00  0.00     0.010 A 
ATOM     30  C   UNL A   1      40.744  24.653  27.442  1.00  0.00    -0.014 A 
BRANCH  30  31
ATOM     31  C   UNL A   1      41.476  25.896  27.808  1.00  0.00     0.031 A 
ATOM     32  C   UNL A   1      40.773  26.992  28.564  1.00  0.00     0.074 A 
ATOM     33  C   UNL A   1      42.727  26.096  27.347  1.00  0.00     0.049 A 
ATOM     34  N   UNL A   1      41.189  28.199  28.845  1.00  0.00    -0.248 NA
ATOM     35  C   UNL A   1      39.412  26.700  29.044  1.00  0.00     0.031 C 
ATOM     36  C   UNL A   1      43.496  25.143  26.543  1.00  0.00     0.029 A 
ATOM     37  N   UNL A   1      43.559  27.185  27.451  1.00  0.00    -0.354 N 
ATOM     38  C   UNL A   1      40.129  28.826  29.490  1.00  0.00     0.074 A 
ATOM     39  C   UNL A   1      39.042  27.872  29.539  1.00  0.00     0.031 C 
ATOM     40  C   UNL A   1      44.679  25.690  26.220  1.00  0.00     0.029 A 
ATOM     41  C   UNL A   1      44.740  27.046  26.759  1.00  0.00     0.049 A 
ATOM     42  H   UNL A   1      43.332  27.989  27.973  1.00  0.00     0.167 HD
ATOM     43  C   UNL A   1      40.073  30.074  30.013  1.00  0.00     0.034 A 
ATOM     44  C   UNL A   1      45.752  27.915  26.560  1.00  0.00     0.034 A 
ATOM     45  C   UNL A   1      41.170  31.002  30.007  1.00  0.00     0.049 A 
ATOM     46  C   UNL A   1      45.677  29.284  27.184  1.00  0.00     0.074 A 
ATOM     47  C   UNL A   1      41.238  32.255  30.591  1.00  0.00     0.029 A 
ATOM     48  N   UNL A   1      42.389  30.784  29.384  1.00  0.00    -0.354 N 
ATOM     49  N   UNL A   1      44.723  29.804  27.916  1.00  0.00    -0.248 NA
ATOM     50  C   UNL A   1      46.831  30.174  26.981  1.00  0.00     0.031 C 
ATOM     51  C   UNL A   1      42.493  32.803  30.304  1.00  0.00     0.029 A 
ATOM     52  C   UNL A   1      43.214  31.880  29.565  1.00  0.00     0.049 A 
ATOM     53  H   UNL A   1      42.632  29.971  28.887  1.00  0.00     0.167 HD
ATOM     54  C   UNL A   1      45.179  31.061  28.298  1.00  0.00     0.074 A 
ATOM     55  C   UNL A   1      46.498  31.221  27.725  1.00  0.00     0.031 C 
ATOM     56  C   UNL A   1      44.553  32.001  29.048  1.00  0.00     0.034 A 
BRANCH  43  57
ATOM     57  C   UNL A   1      38.794  30.493  30.690  1.00  0.00     0.023 A 
ATOM     58  C   UNL A   1      38.626  30.251  32.069  1.00  0.00     0.012 A 
ATOM     59  C   UNL A   1      37.790  31.183  29.982  1.00  0.00     0.148 A 
ATOM     60  C   UNL A   1      37.466  30.657  32.725  1.00  0.00     0.002 A 
ATOM     61  C   UNL A   1      36.655  31.626  30.654  1.00  0.00     0.091 A 
ATOM     62  F   UNL A   1      37.958  31.387  28.667  1.00  0.00    -0.205 F 
ATOM     63  C   UNL A   1      36.487  31.353  32.021  1.00  0.00     0.022 A 
BRANCH  61  64
ATOM     64  S   UNL A   1      35.375  32.599  29.854  1.00  0.00     0.127 S 
ATOM     65  O   UNL A   1      34.511  32.934  30.984  1.00  0.00    -0.237 OA
ATOM     66  O   UNL A   1      36.137  33.726  29.313  1.00  0.00    -0.237 OA
ATOM     67  O   UNL A   1      34.782  31.731  28.847  1.00  0.00    -0.744 OA
ENDBRANCH  61  64
ENDBRANCH  43  57
BRANCH  44  68
ATOM     68  C   UNL A   1      46.954  27.496  25.783  1.00  0.00     0.023 A 
ATOM     69  C   UNL A   1      47.941  26.714  26.413  1.00  0.00     0.012 A 
ATOM     70  C   UNL A   1      47.111  27.841  24.427  1.00  0.00     0.148 A 
ATOM     71  C   UNL A   1      49.080  26.309  25.715  1.00  0.00     0.002 A 
ATOM     72  C   UNL A   1      48.221  27.389  23.723  1.00  0.00     0.091 A 
ATOM     73  F   UNL A   1      46.167  28.597  23.849  1.00  0.00    -0.205 F 
ATOM     74  C   UNL A   1      49.215  26.636  24.369  1.00  0.00     0.022 A 
BRANCH  72  75
ATOM     75  S   UNL A   1      48.415  27.652  21.956  1.00  0.00     0.127 S 
ATOM     76  O   UNL A   1      49.550  28.570  21.914  1.00  0.00    -0.237 OA
ATOM     77  O   UNL A   1      48.699  26.298  21.478  1.00  0.00    -0.237 OA
ATOM     78  O   UNL A   1      47.143  28.194  21.500  1.00  0.00    -0.744 OA
ENDBRANCH  72  75
ENDBRANCH  44  68
BRANCH  56  79
ATOM     79  C   UNL A   1      45.297  33.274  29.353  1.00  0.00     0.023 A 
ATOM     80  C   UNL A   1      46.163  33.336  30.462  1.00  0.00     0.012 A 
ATOM     81  C   UNL A   1      45.217  34.373  28.474  1.00  0.00     0.148 A 
ATOM     82  C   UNL A   1      46.924  34.479  30.703  1.00  0.00     0.002 A 
ATOM     83  C   UNL A   1      46.013  35.491  28.694  1.00  0.00     0.091 A 
ATOM     84  F   UNL A   1      44.373  34.300  27.435  1.00  0.00    -0.205 F 
ATOM     85  C   UNL A   1      46.859  35.550  29.813  1.00  0.00     0.022 A 
BRANCH  83  86
ATOM     86  S   UNL A   1      46.070  36.874  27.549  1.00  0.00     0.127 S 
ATOM     87  O   UNL A   1      46.379  36.204  26.287  1.00  0.00    -0.237 OA
ATOM     88  O   UNL A   1      44.710  37.408  27.640  1.00  0.00    -0.237 OA
ATOM     89  O   UNL A   1      47.106  37.768  28.048  1.00  0.00    -0.744 OA
ENDBRANCH  83  86
ENDBRANCH  56  79
ENDBRANCH  30  31
ENDBRANCH  22  25
ENDBRANCH  20  21
ENDBRANCH   1  20
TORSDOF 15
ENDMDL
MODEL 3
REMARK VINA RESULT:     -12.3      5.985      8.516
REMARK SMILES O=C(CN1C(=O)c2ccccc2[C@@H]1O)NCCCNC(=O)c1ccc(-c2c3nc(c(-c4cccc(S(=O)(=O)[O-])c4F)c4ccc([nH]4)c(-c4cccc(S(=O)(=O)[O-])c4F)c4nc(c(-c5cccc(S(=O)(=O)[O-])c5F)c5ccc2[nH]5)C=C4)C=C3)cc1
REMARK SMILES IDX 17 1 16 2 15 3 1 4 2 5 3 7 4 8 5 9 13 10 6 11 7 12 12 13
REMARK SMILES IDX 8 14 11 15 9 16 10 17 14 18 18 20 19 21 20 22 21 24 22 25
REMARK SMILES IDX 23 26 84 27 24 28 83 29 25 30 26 31 27 32 77 33 28 34 82 35
REMARK SMILES IDX 76 36 78 37 29 38 81 39 75 40 74 41 30 43 62 44 42 45 61 46
REMARK SMILES IDX 43 47 46 48 60 49 79 50 44 51 45 52 59 54 80 55 47 56 31 57
REMARK SMILES IDX 32 58 40 59 33 60 35 61 41 62 34 63 36 64 37 65 38 66 39 67
REMARK SMILES IDX 63 68 64 69 72 70 65 71 67 72 73 73 66 74 68 75 69 76 70 77
REMARK SMILES IDX 71 78 48 79 49 80 57 81 50 82 52 83 58 84 51 85 53 86 54 87
REMARK SMILES IDX 55 88 56 89
REMARK H PARENT 15 6 14 19 19 23 78 42 46 53
REMARK Flexibility Score: inf
ROOT
ATOM      1  C   UNL A   1      36.814  22.133  23.807  1.00  0.00     0.042 C 
ENDROOT
BRANCH   1   2
ATOM      2  C   UNL A   1      35.934  23.340  23.520  1.00  0.00     0.117 C 
BRANCH   2   3
ATOM      3  N   UNL A   1      34.538  23.108  23.828  1.00  0.00    -0.354 N 
ATOM      4  O   UNL A   1      33.655  24.311  22.077  1.00  0.00    -0.273 OA
ATOM      5  C   UNL A   1      33.509  23.550  23.027  1.00  0.00     0.239 C 
ATOM      6  H   UNL A   1      34.315  22.610  24.648  1.00  0.00     0.163 HD
BRANCH   5   7
ATOM      7  C   UNL A   1      32.135  23.008  23.432  1.00  0.00     0.222 C 
BRANCH   7   8
ATOM      8  N   UNL A   1      32.085  21.581  23.733  1.00  0.00    -0.299 N 
ATOM      9  C   UNL A   1      32.123  20.621  22.736  1.00  0.00     0.257 C 
ATOM     10  C   UNL A   1      32.382  21.030  25.034  1.00  0.00     0.247 C 
ATOM     11  O   UNL A   1      31.994  20.775  21.536  1.00  0.00    -0.269 OA
ATOM     12  C   UNL A   1      32.415  19.339  23.386  1.00  0.00     0.047 A 
ATOM     13  C   UNL A   1      32.603  19.582  24.744  1.00  0.00     0.014 A 
ATOM     14  C   UNL A   1      32.509  18.075  22.838  1.00  0.00     0.014 A 
ATOM     15  C   UNL A   1      32.893  18.543  25.613  1.00  0.00     0.009 A 
ATOM     16  C   UNL A   1      32.796  17.019  23.708  1.00  0.00     0.001 A 
ATOM     17  C   UNL A   1      32.988  17.253  25.083  1.00  0.00     0.001 A 
BRANCH  10  18
ATOM     18  O   UNL A   1      31.225  21.169  25.832  1.00  0.00    -0.369 OA
ATOM     19  H   UNL A   1      30.454  20.837  25.346  1.00  0.00     0.213 HD
ENDBRANCH  10  18
ENDBRANCH   7   8
ENDBRANCH   5   7
ENDBRANCH   2   3
ENDBRANCH   1   2
BRANCH   1  20
ATOM     20  C   UNL A   1      36.947  21.762  25.280  1.00  0.00     0.118 C 
BRANCH  20  21
ATOM     21  N   UNL A   1      37.983  20.771  25.551  1.00  0.00    -0.352 N 
ATOM     22  C   UNL A   1      39.228  20.946  26.113  1.00  0.00     0.251 C 
ATOM     23  H   UNL A   1      37.761  19.846  25.294  1.00  0.00     0.163 HD
ATOM     24  O   UNL A   1      40.013  20.004  26.177  1.00  0.00    -0.269 OA
BRANCH  22  25
ATOM     25  C   UNL A   1      39.633  22.283  26.606  1.00  0.00     0.039 A 
ATOM     26  C   UNL A   1      40.713  22.382  27.489  1.00  0.00     0.014 A 
ATOM     27  C   UNL A   1      38.981  23.435  26.165  1.00  0.00     0.014 A 
ATOM     28  C   UNL A   1      41.197  23.643  27.854  1.00  0.00     0.010 A 
ATOM     29  C   UNL A   1      39.509  24.687  26.470  1.00  0.00     0.010 A 
ATOM     30  C   UNL A   1      40.632  24.806  27.306  1.00  0.00    -0.014 A 
BRANCH  30  31
ATOM     31  C   UNL A   1      41.211  26.155  27.549  1.00  0.00     0.031 A 
ATOM     32  C   UNL A   1      42.628  26.454  27.139  1.00  0.00     0.074 A 
ATOM     33  C   UNL A   1      40.512  27.065  28.257  1.00  0.00     0.049 A 
ATOM     34  N   UNL A   1      43.357  27.509  27.394  1.00  0.00    -0.248 NA
ATOM     35  C   UNL A   1      43.328  25.416  26.363  1.00  0.00     0.031 C 
ATOM     36  C   UNL A   1      39.155  26.876  28.774  1.00  0.00     0.029 A 
ATOM     37  N   UNL A   1      40.861  28.318  28.700  1.00  0.00    -0.354 N 
ATOM     38  C   UNL A   1      44.610  27.246  26.854  1.00  0.00     0.074 A 
ATOM     39  C   UNL A   1      44.550  25.921  26.276  1.00  0.00     0.031 C 
ATOM     40  C   UNL A   1      38.791  27.965  29.470  1.00  0.00     0.029 A 
ATOM     41  C   UNL A   1      39.899  28.915  29.483  1.00  0.00     0.049 A 
ATOM     42  H   UNL A   1      41.719  28.749  28.478  1.00  0.00     0.167 HD
ATOM     43  C   UNL A   1      45.705  28.043  26.822  1.00  0.00     0.034 A 
ATOM     44  C   UNL A   1      39.912  30.085  30.154  1.00  0.00     0.034 A 
ATOM     45  C   UNL A   1      45.747  29.377  27.353  1.00  0.00     0.049 A 
ATOM     46  C   UNL A   1      41.129  30.966  30.071  1.00  0.00     0.074 A 
ATOM     47  C   UNL A   1      46.781  30.295  27.288  1.00  0.00     0.029 A 
ATOM     48  N   UNL A   1      44.715  29.987  28.049  1.00  0.00    -0.354 N 
ATOM     49  N   UNL A   1      42.253  30.760  29.430  1.00  0.00    -0.248 NA
ATOM     50  C   UNL A   1      41.070  32.255  30.778  1.00  0.00     0.031 C 
ATOM     51  C   UNL A   1      46.381  31.453  27.963  1.00  0.00     0.029 A 
ATOM     52  C   UNL A   1      45.089  31.265  28.425  1.00  0.00     0.049 A 
ATOM     53  H   UNL A   1      43.846  29.571  28.248  1.00  0.00     0.167 HD
ATOM     54  C   UNL A   1      43.015  31.908  29.617  1.00  0.00     0.074 A 
ATOM     55  C   UNL A   1      42.221  32.810  30.424  1.00  0.00     0.031 C 
ATOM     56  C   UNL A   1      44.264  32.182  29.168  1.00  0.00     0.034 A 
BRANCH  43  57
ATOM     57  C   UNL A   1      46.938  27.512  26.139  1.00  0.00     0.023 A 
ATOM     58  C   UNL A   1      47.150  27.790  24.774  1.00  0.00     0.012 A 
ATOM     59  C   UNL A   1      47.917  26.799  26.860  1.00  0.00     0.148 A 
ATOM     60  C   UNL A   1      48.299  27.338  24.127  1.00  0.00     0.002 A 
ATOM     61  C   UNL A   1      49.081  26.390  26.218  1.00  0.00     0.091 A 
ATOM     62  F   UNL A   1      47.689  26.526  28.153  1.00  0.00    -0.205 F 
ATOM     63  C   UNL A   1      49.268  26.648  24.851  1.00  0.00     0.022 A 
BRANCH  61  64
ATOM     64  S   UNL A   1      50.423  25.567  27.082  1.00  0.00     0.127 S 
ATOM     65  O   UNL A   1      50.797  26.573  28.074  1.00  0.00    -0.237 OA
ATOM     66  O   UNL A   1      49.757  24.385  27.633  1.00  0.00    -0.237 OA
ATOM     67  O   UNL A   1      51.431  25.277  26.072  1.00  0.00    -0.744 OA
ENDBRANCH  61  64
ENDBRANCH  43  57
BRANCH  44  68
ATOM     68  C   UNL A   1      38.705  30.520  30.915  1.00  0.00     0.023 A 
ATOM     69  C   UNL A   1      38.639  30.273  32.300  1.00  0.00     0.012 A 
ATOM     70  C   UNL A   1      37.642  31.196  30.286  1.00  0.00     0.148 A 
ATOM     71  C   UNL A   1      37.523  30.663  33.040  1.00  0.00     0.002 A 
ATOM     72  C   UNL A   1      36.557  31.631  31.039  1.00  0.00     0.091 A 
ATOM     73  F   UNL A   1      37.717  31.411  28.965  1.00  0.00    -0.205 F 
ATOM     74  C   UNL A   1      36.487  31.351  32.414  1.00  0.00     0.022 A 
BRANCH  72  75
ATOM     75  S   UNL A   1      35.240  32.636  30.342  1.00  0.00     0.127 S 
ATOM     76  O   UNL A   1      34.333  32.769  31.479  1.00  0.00    -0.237 OA
ATOM     77  O   UNL A   1      35.955  33.859  29.977  1.00  0.00    -0.237 OA
ATOM     78  O   UNL A   1      34.730  31.878  29.207  1.00  0.00    -0.744 OA
ENDBRANCH  72  75
ENDBRANCH  44  68
BRANCH  56  79
ATOM     79  C   UNL A   1      44.847  33.535  29.482  1.00  0.00     0.023 A 
ATOM     80  C   UNL A   1      45.612  33.718  30.650  1.00  0.00     0.012 A 
ATOM     81  C   UNL A   1      44.724  34.594  28.561  1.00  0.00     0.148 A 
ATOM     82  C   UNL A   1      46.230  34.942  30.906  1.00  0.00     0.002 A 
ATOM     83  C   UNL A   1      45.382  35.795  28.799  1.00  0.00     0.091 A 
ATOM     84  F   UNL A   1      43.976  34.404  27.464  1.00  0.00    -0.205 F 
ATOM     85  C   UNL A   1      46.126  35.974  29.976  1.00  0.00     0.022 A 
BRANCH  83  86
ATOM     86  S   UNL A   1      45.387  37.144  27.613  1.00  0.00     0.127 S 
ATOM     87  O   UNL A   1      45.962  38.232  28.401  1.00  0.00    -0.237 OA
ATOM     88  O   UNL A   1      46.261  36.626  26.559  1.00  0.00    -0.237 OA
ATOM     89  O   UNL A   1      44.000  37.333  27.210  1.00  0.00    -0.744 OA
ENDBRANCH  83  86
ENDBRANCH  56  79
ENDBRANCH  30  31
ENDBRANCH  22  25
ENDBRANCH  20  21
ENDBRANCH   1  20
TORSDOF 15
ENDMDL
