MODEL 1
REMARK VINA RESULT:     -11.4      0.000      0.000
REMARK SMILES C[C@@H]1[C@H](C(=O)NCCCNC(=O)c2ccc(-c3c4nc(c(-c5cccc(S(=O)(=O)[O-])c5F)c5ccc([nH]5)c(-c5cccc(S(=O)(=O)[O-])c5F)c5nc(c(-c6cccc(S(=O)(=O)[O-])c6F)c6ccc3[nH]6)C=C5)C=C4)cc2)CCN1C(=O)C1CC1
REMARK SMILES IDX 8 1 7 2 6 3 4 4 5 5 3 7 1 8 2 9 78 10 76 11 77 12 79 13
REMARK SMILES IDX 80 14 81 15 82 16 83 17 9 18 10 19 11 20 12 22 13 23 14 24
REMARK SMILES IDX 75 25 15 26 74 27 16 28 17 29 18 30 68 31 19 32 73 33 67 34
REMARK SMILES IDX 69 35 20 36 72 37 66 38 65 39 21 41 53 42 33 43 52 44 34 45
REMARK SMILES IDX 37 46 51 47 70 48 35 49 36 50 50 52 71 53 38 54 22 55 23 56
REMARK SMILES IDX 31 57 24 58 26 59 32 60 25 61 27 62 28 63 29 64 30 65 54 66
REMARK SMILES IDX 55 67 63 68 56 69 58 70 64 71 57 72 59 73 60 74 61 75 62 76
REMARK SMILES IDX 39 77 40 78 48 79 41 80 43 81 49 82 42 83 44 84 45 85 46 86
REMARK SMILES IDX 47 87
REMARK H PARENT 6 6 10 21 69 40 37 51
REMARK Flexibility Score: inf
ROOT
ATOM      1  C   UNL A   1      31.724  28.034  26.465  1.00  0.00     0.042 C 
ENDROOT
BRANCH   1   2
ATOM      2  C   UNL A   1      30.982  26.929  25.710  1.00  0.00     0.117 C 
BRANCH   2   3
ATOM      3  N   UNL A   1      30.749  25.722  26.497  1.00  0.00    -0.356 N 
ATOM      4  C   UNL A   1      31.069  24.410  26.345  1.00  0.00     0.225 C 
ATOM      5  O   UNL A   1      30.707  23.657  27.258  1.00  0.00    -0.275 OA
ATOM      6  H   UNL A   1      30.248  25.898  27.326  1.00  0.00     0.163 HD
BRANCH   4   7
ATOM      7  C   UNL A   1      31.813  23.815  25.153  1.00  0.00     0.102 C 
ATOM      8  C   UNL A   1      34.003  24.741  26.119  1.00  0.00     0.032 C 
ATOM      9  C   UNL A   1      33.259  24.289  24.876  1.00  0.00     0.094 C 
ATOM     10  N   UNL A   1      33.904  23.137  24.232  1.00  0.00    -0.339 N 
ATOM     11  C   UNL A   1      31.823  22.296  25.078  1.00  0.00     0.037 C 
ATOM     12  C   UNL A   1      33.041  21.966  24.241  1.00  0.00     0.120 C 
BRANCH  10  13
ATOM     13  C   UNL A   1      35.117  23.003  23.565  1.00  0.00     0.225 C 
ATOM     14  O   UNL A   1      35.197  23.320  22.377  1.00  0.00    -0.275 OA
BRANCH  13  15
ATOM     15  C   UNL A   1      36.392  22.551  24.191  1.00  0.00     0.079 C 
ATOM     16  C   UNL A   1      36.911  22.609  25.594  1.00  0.00     0.014 C 
ATOM     17  C   UNL A   1      36.380  21.309  25.055  1.00  0.00     0.014 C 
ENDBRANCH  13  15
ENDBRANCH  10  13
ENDBRANCH   4   7
ENDBRANCH   2   3
ENDBRANCH   1   2
BRANCH   1  18
ATOM     18  C   UNL A   1      32.535  28.980  25.596  1.00  0.00     0.118 C 
BRANCH  18  19
ATOM     19  N   UNL A   1      32.181  30.367  25.832  1.00  0.00    -0.352 N 
ATOM     20  C   UNL A   1      32.658  31.247  26.775  1.00  0.00     0.251 C 
ATOM     21  H   UNL A   1      31.496  30.732  25.226  1.00  0.00     0.163 HD
ATOM     22  O   UNL A   1      32.038  32.288  26.979  1.00  0.00    -0.269 OA
BRANCH  20  23
ATOM     23  C   UNL A   1      33.893  30.959  27.549  1.00  0.00     0.039 A 
ATOM     24  C   UNL A   1      34.705  32.027  27.944  1.00  0.00     0.014 A 
ATOM     25  C   UNL A   1      34.297  29.652  27.830  1.00  0.00     0.014 A 
ATOM     26  C   UNL A   1      35.892  31.786  28.647  1.00  0.00     0.010 A 
ATOM     27  C   UNL A   1      35.429  29.416  28.611  1.00  0.00     0.010 A 
ATOM     28  C   UNL A   1      36.256  30.477  29.005  1.00  0.00    -0.014 A 
BRANCH  28  29
ATOM     29  C   UNL A   1      37.510  30.195  29.756  1.00  0.00     0.031 A 
ATOM     30  C   UNL A   1      38.561  29.287  29.165  1.00  0.00     0.074 A 
ATOM     31  C   UNL A   1      37.678  30.690  30.998  1.00  0.00     0.049 A 
ATOM     32  N   UNL A   1      39.686  28.875  29.689  1.00  0.00    -0.248 NA
ATOM     33  C   UNL A   1      38.299  28.749  27.819  1.00  0.00     0.031 C 
ATOM     34  C   UNL A   1      36.709  31.519  31.717  1.00  0.00     0.029 A 
ATOM     35  N   UNL A   1      38.715  30.547  31.888  1.00  0.00    -0.354 N 
ATOM     36  C   UNL A   1      40.243  28.000  28.761  1.00  0.00     0.074 A 
ATOM     37  C   UNL A   1      39.315  27.913  27.656  1.00  0.00     0.031 C 
ATOM     38  C   UNL A   1      37.199  31.816  32.932  1.00  0.00     0.029 A 
ATOM     39  C   UNL A   1      38.502  31.178  33.092  1.00  0.00     0.049 A 
ATOM     40  H   UNL A   1      39.534  30.040  31.683  1.00  0.00     0.167 HD
ATOM     41  C   UNL A   1      41.433  27.355  28.805  1.00  0.00     0.034 A 
ATOM     42  C   UNL A   1      39.266  31.234  34.201  1.00  0.00     0.034 A 
ATOM     43  C   UNL A   1      42.384  27.489  29.875  1.00  0.00     0.049 A 
ATOM     44  C   UNL A   1      40.607  30.549  34.203  1.00  0.00     0.074 A 
ATOM     45  C   UNL A   1      43.655  26.950  29.968  1.00  0.00     0.029 A 
ATOM     46  N   UNL A   1      42.170  28.213  31.036  1.00  0.00    -0.354 N 
ATOM     47  N   UNL A   1      41.181  29.854  33.251  1.00  0.00    -0.248 NA
ATOM     48  C   UNL A   1      41.423  30.688  35.419  1.00  0.00     0.031 C 
ATOM     49  C   UNL A   1      44.203  27.335  31.197  1.00  0.00     0.029 A 
ATOM     50  C   UNL A   1      43.281  28.132  31.857  1.00  0.00     0.049 A 
ATOM     51  H   UNL A   1      41.347  28.712  31.247  1.00  0.00     0.167 HD
ATOM     52  C   UNL A   1      42.436  29.505  33.737  1.00  0.00     0.074 A 
ATOM     53  C   UNL A   1      42.547  30.083  35.061  1.00  0.00     0.031 C 
ATOM     54  C   UNL A   1      43.403  28.760  33.147  1.00  0.00     0.034 A 
BRANCH  41  55
ATOM     55  C   UNL A   1      41.806  26.492  27.625  1.00  0.00     0.023 A 
ATOM     56  C   UNL A   1      42.438  27.078  26.509  1.00  0.00     0.012 A 
ATOM     57  C   UNL A   1      41.588  25.100  27.643  1.00  0.00     0.148 A 
ATOM     58  C   UNL A   1      42.813  26.300  25.414  1.00  0.00     0.002 A 
ATOM     59  C   UNL A   1      42.006  24.324  26.567  1.00  0.00     0.091 A 
ATOM     60  F   UNL A   1      40.969  24.562  28.704  1.00  0.00    -0.205 F 
ATOM     61  C   UNL A   1      42.606  24.924  25.447  1.00  0.00     0.022 A 
BRANCH  59  62
ATOM     62  S   UNL A   1      41.857  22.534  26.546  1.00  0.00     0.127 S 
ATOM     63  O   UNL A   1      42.459  22.202  25.256  1.00  0.00    -0.237 OA
ATOM     64  O   UNL A   1      42.655  22.145  27.710  1.00  0.00    -0.237 OA
ATOM     65  O   UNL A   1      40.434  22.249  26.665  1.00  0.00    -0.744 OA
ENDBRANCH  59  62
ENDBRANCH  41  55
BRANCH  42  66
ATOM     66  C   UNL A   1      38.814  32.032  35.376  1.00  0.00     0.023 A 
ATOM     67  C   UNL A   1      38.937  33.435  35.346  1.00  0.00     0.012 A 
ATOM     68  C   UNL A   1      38.238  31.417  36.505  1.00  0.00     0.148 A 
ATOM     69  C   UNL A   1      38.523  34.209  36.430  1.00  0.00     0.002 A 
ATOM     70  C   UNL A   1      37.778  32.199  37.558  1.00  0.00     0.091 A 
ATOM     71  F   UNL A   1      38.143  30.081  36.522  1.00  0.00    -0.205 F 
ATOM     72  C   UNL A   1      37.934  33.594  37.531  1.00  0.00     0.022 A 
BRANCH  70  73
ATOM     73  S   UNL A   1      36.889  31.502  38.956  1.00  0.00     0.127 S 
ATOM     74  O   UNL A   1      37.857  31.660  40.036  1.00  0.00    -0.237 OA
ATOM     75  O   UNL A   1      35.721  32.379  39.040  1.00  0.00    -0.237 OA
ATOM     76  O   UNL A   1      36.579  30.129  38.575  1.00  0.00    -0.744 OA
ENDBRANCH  70  73
ENDBRANCH  42  66
BRANCH  54  77
ATOM     77  C   UNL A   1      44.687  28.550  33.906  1.00  0.00     0.023 A 
ATOM     78  C   UNL A   1      45.736  29.482  33.778  1.00  0.00     0.012 A 
ATOM     79  C   UNL A   1      44.822  27.475  34.807  1.00  0.00     0.148 A 
ATOM     80  C   UNL A   1      46.912  29.330  34.512  1.00  0.00     0.002 A 
ATOM     81  C   UNL A   1      45.977  27.356  35.569  1.00  0.00     0.091 A 
ATOM     82  F   UNL A   1      43.820  26.589  34.900  1.00  0.00    -0.205 F 
ATOM     83  C   UNL A   1      47.027  28.275  35.415  1.00  0.00     0.022 A 
BRANCH  81  84
ATOM     84  S   UNL A   1      46.174  26.086  36.825  1.00  0.00     0.127 S 
ATOM     85  O   UNL A   1      47.502  26.393  37.352  1.00  0.00    -0.237 OA
ATOM     86  O   UNL A   1      45.071  26.381  37.741  1.00  0.00    -0.237 OA
ATOM     87  O   UNL A   1      46.055  24.813  36.129  1.00  0.00    -0.744 OA
ENDBRANCH  81  84
ENDBRANCH  54  77
ENDBRANCH  28  29
ENDBRANCH  20  23
ENDBRANCH  18  19
ENDBRANCH   1  18
TORSDOF 15
ENDMDL
MODEL 2
REMARK VINA RESULT:     -11.4      2.793      8.196
REMARK SMILES C[C@@H]1[C@H](C(=O)NCCCNC(=O)c2ccc(-c3c4nc(c(-c5cccc(S(=O)(=O)[O-])c5F)c5ccc([nH]5)c(-c5cccc(S(=O)(=O)[O-])c5F)c5nc(c(-c6cccc(S(=O)(=O)[O-])c6F)c6ccc3[nH]6)C=C5)C=C4)cc2)CCN1C(=O)C1CC1
REMARK SMILES IDX 8 1 7 2 6 3 4 4 5 5 3 7 1 8 2 9 78 10 76 11 77 12 79 13
REMARK SMILES IDX 80 14 81 15 82 16 83 17 9 18 10 19 11 20 12 22 13 23 14 24
REMARK SMILES IDX 75 25 15 26 74 27 16 28 17 29 18 30 68 31 19 32 73 33 67 34
REMARK SMILES IDX 69 35 20 36 72 37 66 38 65 39 21 41 53 42 33 43 52 44 34 45
REMARK SMILES IDX 37 46 51 47 70 48 35 49 36 50 50 52 71 53 38 54 22 55 23 56
REMARK SMILES IDX 31 57 24 58 26 59 32 60 25 61 27 62 28 63 29 64 30 65 54 66
REMARK SMILES IDX 55 67 63 68 56 69 58 70 64 71 57 72 59 73 60 74 61 75 62 76
REMARK SMILES IDX 39 77 40 78 48 79 41 80 43 81 49 82 42 83 44 84 45 85 46 86
REMARK SMILES IDX 47 87
REMARK H PARENT 6 6 10 21 69 40 37 51
REMARK Flexibility Score: inf
ROOT
ATOM      1  C   UNL A   1      33.455  28.961  24.661  1.00  0.00     0.042 C 
ENDROOT
BRANCH   1   2
ATOM      2  C   UNL A   1      31.937  28.805  24.544  1.00  0.00     0.117 C 
BRANCH   2   3
ATOM      3  N   UNL A   1      31.355  27.895  25.527  1.00  0.00    -0.356 N 
ATOM      4  C   UNL A   1      31.243  26.544  25.623  1.00  0.00     0.225 C 
ATOM      5  O   UNL A   1      30.683  26.121  26.643  1.00  0.00    -0.275 OA
ATOM      6  H   UNL A   1      30.953  28.367  26.292  1.00  0.00     0.163 HD
BRANCH   4   7
ATOM      7  C   UNL A   1      31.735  25.541  24.585  1.00  0.00     0.102 C 
ATOM      8  C   UNL A   1      33.968  25.406  25.843  1.00  0.00     0.032 C 
ATOM      9  C   UNL A   1      33.250  25.233  24.518  1.00  0.00     0.094 C 
ATOM     10  N   UNL A   1      33.320  23.850  24.026  1.00  0.00    -0.339 N 
ATOM     11  C   UNL A   1      31.011  24.204  24.569  1.00  0.00     0.037 C 
ATOM     12  C   UNL A   1      32.000  23.243  23.944  1.00  0.00     0.120 C 
BRANCH  10  13
ATOM     13  C   UNL A   1      34.382  23.081  23.561  1.00  0.00     0.225 C 
ATOM     14  O   UNL A   1      34.718  23.160  22.378  1.00  0.00    -0.275 OA
BRANCH  13  15
ATOM     15  C   UNL A   1      35.219  22.181  24.403  1.00  0.00     0.079 C 
ATOM     16  C   UNL A   1      35.072  21.674  25.804  1.00  0.00     0.014 C 
ATOM     17  C   UNL A   1      34.746  20.766  24.651  1.00  0.00     0.014 C 
ENDBRANCH  13  15
ENDBRANCH  10  13
ENDBRANCH   4   7
ENDBRANCH   2   3
ENDBRANCH   1   2
BRANCH   1  18
ATOM     18  C   UNL A   1      33.987  29.078  26.079  1.00  0.00     0.118 C 
BRANCH  18  19
ATOM     19  N   UNL A   1      33.859  30.427  26.595  1.00  0.00    -0.352 N 
ATOM     20  C   UNL A   1      34.535  31.043  27.622  1.00  0.00     0.251 C 
ATOM     21  H   UNL A   1      33.185  30.985  26.143  1.00  0.00     0.163 HD
ATOM     22  O   UNL A   1      34.092  32.095  28.075  1.00  0.00    -0.269 OA
BRANCH  20  23
ATOM     23  C   UNL A   1      35.776  30.457  28.193  1.00  0.00     0.039 A 
ATOM     24  C   UNL A   1      36.979  30.618  27.497  1.00  0.00     0.014 A 
ATOM     25  C   UNL A   1      35.760  29.696  29.364  1.00  0.00     0.014 A 
ATOM     26  C   UNL A   1      38.159  30.050  27.991  1.00  0.00     0.010 A 
ATOM     27  C   UNL A   1      36.950  29.212  29.906  1.00  0.00     0.010 A 
ATOM     28  C   UNL A   1      38.160  29.358  29.213  1.00  0.00    -0.014 A 
BRANCH  28  29
ATOM     29  C   UNL A   1      39.403  28.749  29.763  1.00  0.00     0.031 A 
ATOM     30  C   UNL A   1      40.050  29.328  30.997  1.00  0.00     0.074 A 
ATOM     31  C   UNL A   1      39.995  27.725  29.116  1.00  0.00     0.049 A 
ATOM     32  N   UNL A   1      41.163  28.976  31.588  1.00  0.00    -0.248 NA
ATOM     33  C   UNL A   1      39.373  30.469  31.634  1.00  0.00     0.031 C 
ATOM     34  C   UNL A   1      39.517  27.120  27.872  1.00  0.00     0.029 A 
ATOM     35  N   UNL A   1      41.144  27.028  29.402  1.00  0.00    -0.354 N 
ATOM     36  C   UNL A   1      41.340  29.876  32.635  1.00  0.00     0.074 A 
ATOM     37  C   UNL A   1      40.239  30.811  32.577  1.00  0.00     0.031 C 
ATOM     38  C   UNL A   1      40.360  26.140  27.506  1.00  0.00     0.029 A 
ATOM     39  C   UNL A   1      41.452  26.063  28.471  1.00  0.00     0.049 A 
ATOM     40  H   UNL A   1      41.695  27.203  30.199  1.00  0.00     0.167 HD
ATOM     41  C   UNL A   1      42.309  29.902  33.582  1.00  0.00     0.034 A 
ATOM     42  C   UNL A   1      42.498  25.216  28.398  1.00  0.00     0.034 A 
ATOM     43  C   UNL A   1      43.369  28.937  33.676  1.00  0.00     0.049 A 
ATOM     44  C   UNL A   1      43.534  25.234  29.491  1.00  0.00     0.074 A 
ATOM     45  C   UNL A   1      44.346  28.824  34.652  1.00  0.00     0.029 A 
ATOM     46  N   UNL A   1      43.594  27.917  32.766  1.00  0.00    -0.354 N 
ATOM     47  N   UNL A   1      43.596  25.993  30.558  1.00  0.00    -0.248 NA
ATOM     48  C   UNL A   1      44.623  24.251  29.390  1.00  0.00     0.031 C 
ATOM     49  C   UNL A   1      45.171  27.744  34.320  1.00  0.00     0.029 A 
ATOM     50  C   UNL A   1      44.695  27.172  33.151  1.00  0.00     0.049 A 
ATOM     51  H   UNL A   1      43.050  27.747  31.963  1.00  0.00     0.167 HD
ATOM     52  C   UNL A   1      44.706  25.558  31.272  1.00  0.00     0.074 A 
ATOM     53  C   UNL A   1      45.275  24.453  30.527  1.00  0.00     0.031 C 
ATOM     54  C   UNL A   1      45.218  26.039  32.432  1.00  0.00     0.034 A 
BRANCH  41  55
ATOM     55  C   UNL A   1      42.230  30.979  34.635  1.00  0.00     0.023 A 
ATOM     56  C   UNL A   1      41.568  30.712  35.851  1.00  0.00     0.012 A 
ATOM     57  C   UNL A   1      42.857  32.227  34.450  1.00  0.00     0.148 A 
ATOM     58  C   UNL A   1      41.498  31.681  36.851  1.00  0.00     0.002 A 
ATOM     59  C   UNL A   1      42.822  33.172  35.470  1.00  0.00     0.091 A 
ATOM     60  F   UNL A   1      43.466  32.471  33.280  1.00  0.00    -0.205 F 
ATOM     61  C   UNL A   1      42.133  32.906  36.665  1.00  0.00     0.022 A 
BRANCH  59  62
ATOM     62  S   UNL A   1      43.675  34.750  35.360  1.00  0.00     0.127 S 
ATOM     63  O   UNL A   1      45.052  34.324  35.115  1.00  0.00    -0.237 OA
ATOM     64  O   UNL A   1      43.017  35.376  34.212  1.00  0.00    -0.237 OA
ATOM     65  O   UNL A   1      43.444  35.420  36.631  1.00  0.00    -0.744 OA
ENDBRANCH  59  62
ENDBRANCH  41  55
BRANCH  42  66
ATOM     66  C   UNL A   1      42.577  24.225  27.287  1.00  0.00     0.023 A 
ATOM     67  C   UNL A   1      43.313  24.545  26.129  1.00  0.00     0.012 A 
ATOM     68  C   UNL A   1      41.956  22.964  27.380  1.00  0.00     0.148 A 
ATOM     69  C   UNL A   1      43.405  23.640  25.072  1.00  0.00     0.002 A 
ATOM     70  C   UNL A   1      42.098  22.046  26.346  1.00  0.00     0.091 A 
ATOM     71  F   UNL A   1      41.249  22.685  28.483  1.00  0.00    -0.205 F 
ATOM     72  C   UNL A   1      42.807  22.388  25.183  1.00  0.00     0.022 A 
BRANCH  70  73
ATOM     73  S   UNL A   1      41.473  20.366  26.461  1.00  0.00     0.127 S 
ATOM     74  O   UNL A   1      41.890  19.981  27.804  1.00  0.00    -0.237 OA
ATOM     75  O   UNL A   1      40.034  20.566  26.292  1.00  0.00    -0.237 OA
ATOM     76  O   UNL A   1      42.107  19.639  25.366  1.00  0.00    -0.744 OA
ENDBRANCH  70  73
ENDBRANCH  42  66
BRANCH  54  77
ATOM     77  C   UNL A   1      46.437  25.357  32.996  1.00  0.00     0.023 A 
ATOM     78  C   UNL A   1      47.719  25.857  32.699  1.00  0.00     0.012 A 
ATOM     79  C   UNL A   1      46.306  24.271  33.885  1.00  0.00     0.148 A 
ATOM     80  C   UNL A   1      48.855  25.269  33.254  1.00  0.00     0.002 A 
ATOM     81  C   UNL A   1      47.438  23.719  34.470  1.00  0.00     0.091 A 
ATOM     82  F   UNL A   1      45.077  23.797  34.140  1.00  0.00    -0.205 F 
ATOM     83  C   UNL A   1      48.714  24.209  34.147  1.00  0.00     0.022 A 
BRANCH  81  84
ATOM     84  S   UNL A   1      47.346  22.417  35.705  1.00  0.00     0.127 S 
ATOM     85  O   UNL A   1      46.623  21.373  34.982  1.00  0.00    -0.237 OA
ATOM     86  O   UNL A   1      48.758  22.122  35.952  1.00  0.00    -0.237 OA
ATOM     87  O   UNL A   1      46.643  22.993  36.843  1.00  0.00    -0.744 OA
ENDBRANCH  81  84
ENDBRANCH  54  77
ENDBRANCH  28  29
ENDBRANCH  20  23
ENDBRANCH  18  19
ENDBRANCH   1  18
TORSDOF 15
ENDMDL
MODEL 3
REMARK VINA RESULT:     -11.3      1.201      7.985
REMARK SMILES C[C@@H]1[C@H](C(=O)NCCCNC(=O)c2ccc(-c3c4nc(c(-c5cccc(S(=O)(=O)[O-])c5F)c5ccc([nH]5)c(-c5cccc(S(=O)(=O)[O-])c5F)c5nc(c(-c6cccc(S(=O)(=O)[O-])c6F)c6ccc3[nH]6)C=C5)C=C4)cc2)CCN1C(=O)C1CC1
REMARK SMILES IDX 8 1 7 2 6 3 4 4 5 5 3 7 1 8 2 9 78 10 76 11 77 12 79 13
REMARK SMILES IDX 80 14 81 15 82 16 83 17 9 18 10 19 11 20 12 22 13 23 14 24
REMARK SMILES IDX 75 25 15 26 74 27 16 28 17 29 18 30 68 31 19 32 73 33 67 34
REMARK SMILES IDX 69 35 20 36 72 37 66 38 65 39 21 41 53 42 33 43 52 44 34 45
REMARK SMILES IDX 37 46 51 47 70 48 35 49 36 50 50 52 71 53 38 54 22 55 23 56
REMARK SMILES IDX 31 57 24 58 26 59 32 60 25 61 27 62 28 63 29 64 30 65 54 66
REMARK SMILES IDX 55 67 63 68 56 69 58 70 64 71 57 72 59 73 60 74 61 75 62 76
REMARK SMILES IDX 39 77 40 78 48 79 41 80 43 81 49 82 42 83 44 84 45 85 46 86
REMARK SMILES IDX 47 87
REMARK H PARENT 6 6 10 21 69 40 37 51
REMARK Flexibility Score: inf
ROOT
ATOM      1  C   UNL A   1      31.600  28.513  25.208  1.00  0.00     0.042 C 
ENDROOT
BRANCH   1   2
ATOM      2  C   UNL A   1      31.244  28.136  23.769  1.00  0.00     0.117 C 
BRANCH   2   3
ATOM      3  N   UNL A   1      32.400  27.834  22.929  1.00  0.00    -0.356 N 
ATOM      4  C   UNL A   1      32.997  26.688  22.509  1.00  0.00     0.225 C 
ATOM      5  O   UNL A   1      33.978  26.831  21.767  1.00  0.00    -0.275 OA
ATOM      6  H   UNL A   1      32.847  28.643  22.591  1.00  0.00     0.163 HD
BRANCH   4   7
ATOM      7  C   UNL A   1      32.562  25.275  22.886  1.00  0.00     0.102 C 
ATOM      8  C   UNL A   1      33.846  25.520  25.095  1.00  0.00     0.032 C 
ATOM      9  C   UNL A   1      33.289  24.568  24.054  1.00  0.00     0.094 C 
ATOM     10  N   UNL A   1      32.280  23.660  24.616  1.00  0.00    -0.339 N 
ATOM     11  C   UNL A   1      31.070  25.087  23.115  1.00  0.00     0.037 C 
ATOM     12  C   UNL A   1      30.974  23.869  24.009  1.00  0.00     0.120 C 
BRANCH  10  13
ATOM     13  C   UNL A   1      32.373  22.618  25.533  1.00  0.00     0.225 C 
ATOM     14  O   UNL A   1      32.362  22.867  26.740  1.00  0.00    -0.275 OA
BRANCH  13  15
ATOM     15  C   UNL A   1      32.428  21.171  25.181  1.00  0.00     0.079 C 
ATOM     16  C   UNL A   1      32.527  20.447  23.874  1.00  0.00     0.014 C 
ATOM     17  C   UNL A   1      33.749  20.578  24.743  1.00  0.00     0.014 C 
ENDBRANCH  13  15
ENDBRANCH  10  13
ENDBRANCH   4   7
ENDBRANCH   2   3
ENDBRANCH   1   2
BRANCH   1  18
ATOM     18  C   UNL A   1      32.834  29.384  25.364  1.00  0.00     0.118 C 
BRANCH  18  19
ATOM     19  N   UNL A   1      32.496  30.727  25.798  1.00  0.00    -0.352 N 
ATOM     20  C   UNL A   1      32.961  31.445  26.876  1.00  0.00     0.251 C 
ATOM     21  H   UNL A   1      31.834  31.193  25.239  1.00  0.00     0.163 HD
ATOM     22  O   UNL A   1      32.352  32.455  27.220  1.00  0.00    -0.269 OA
BRANCH  20  23
ATOM     23  C   UNL A   1      34.170  31.018  27.627  1.00  0.00     0.039 A 
ATOM     24  C   UNL A   1      35.159  31.966  27.907  1.00  0.00     0.014 A 
ATOM     25  C   UNL A   1      34.374  29.687  27.998  1.00  0.00     0.014 A 
ATOM     26  C   UNL A   1      36.324  31.589  28.585  1.00  0.00     0.010 A 
ATOM     27  C   UNL A   1      35.489  29.330  28.756  1.00  0.00     0.010 A 
ATOM     28  C   UNL A   1      36.492  30.269  29.034  1.00  0.00    -0.014 A 
BRANCH  28  29
ATOM     29  C   UNL A   1      37.719  29.843  29.762  1.00  0.00     0.031 A 
ATOM     30  C   UNL A   1      38.004  30.373  31.145  1.00  0.00     0.074 A 
ATOM     31  C   UNL A   1      38.618  29.041  29.156  1.00  0.00     0.049 A 
ATOM     32  N   UNL A   1      39.045  30.168  31.911  1.00  0.00    -0.248 NA
ATOM     33  C   UNL A   1      37.001  31.274  31.736  1.00  0.00     0.031 C 
ATOM     34  C   UNL A   1      38.502  28.518  27.794  1.00  0.00     0.029 A 
ATOM     35  N   UNL A   1      39.819  28.545  29.599  1.00  0.00    -0.354 N 
ATOM     36  C   UNL A   1      38.844  30.944  33.048  1.00  0.00     0.074 A 
ATOM     37  C   UNL A   1      37.598  31.653  32.857  1.00  0.00     0.031 C 
ATOM     38  C   UNL A   1      39.584  27.771  27.515  1.00  0.00     0.029 A 
ATOM     39  C   UNL A   1      40.482  27.783  28.665  1.00  0.00     0.049 A 
ATOM     40  H   UNL A   1      40.174  28.719  30.501  1.00  0.00     0.167 HD
ATOM     41  C   UNL A   1      39.605  31.034  34.165  1.00  0.00     0.034 A 
ATOM     42  C   UNL A   1      41.679  27.166  28.725  1.00  0.00     0.034 A 
ATOM     43  C   UNL A   1      40.812  30.284  34.380  1.00  0.00     0.049 A 
ATOM     44  C   UNL A   1      42.481  27.242  29.997  1.00  0.00     0.074 A 
ATOM     45  C   UNL A   1      41.604  30.237  35.514  1.00  0.00     0.029 A 
ATOM     46  N   UNL A   1      41.402  29.450  33.445  1.00  0.00    -0.354 N 
ATOM     47  N   UNL A   1      42.195  27.858  31.118  1.00  0.00    -0.248 NA
ATOM     48  C   UNL A   1      43.754  26.506  30.026  1.00  0.00     0.031 C 
ATOM     49  C   UNL A   1      42.684  29.385  35.257  1.00  0.00     0.029 A 
ATOM     50  C   UNL A   1      42.551  28.886  33.971  1.00  0.00     0.049 A 
ATOM     51  H   UNL A   1      41.054  29.282  32.538  1.00  0.00     0.167 HD
ATOM     52  C   UNL A   1      43.229  27.555  31.995  1.00  0.00     0.074 A 
ATOM     53  C   UNL A   1      44.140  26.682  31.282  1.00  0.00     0.031 C 
ATOM     54  C   UNL A   1      43.418  27.973  33.271  1.00  0.00     0.034 A 
BRANCH  41  55
ATOM     55  C   UNL A   1      39.118  31.934  35.273  1.00  0.00     0.023 A 
ATOM     56  C   UNL A   1      39.270  33.330  35.150  1.00  0.00     0.012 A 
ATOM     57  C   UNL A   1      38.459  31.408  36.402  1.00  0.00     0.148 A 
ATOM     58  C   UNL A   1      38.810  34.187  36.149  1.00  0.00     0.002 A 
ATOM     59  C   UNL A   1      37.962  32.272  37.373  1.00  0.00     0.091 A 
ATOM     60  F   UNL A   1      38.339  30.077  36.512  1.00  0.00    -0.205 F 
ATOM     61  C   UNL A   1      38.148  33.659  37.255  1.00  0.00     0.022 A 
BRANCH  59  62
ATOM     62  S   UNL A   1      37.026  31.697  38.795  1.00  0.00     0.127 S 
ATOM     63  O   UNL A   1      37.995  31.869  39.875  1.00  0.00    -0.237 OA
ATOM     64  O   UNL A   1      35.905  32.638  38.826  1.00  0.00    -0.237 OA
ATOM     65  O   UNL A   1      36.654  30.321  38.500  1.00  0.00    -0.744 OA
ENDBRANCH  59  62
ENDBRANCH  41  55
BRANCH  42  66
ATOM     66  C   UNL A   1      42.158  26.357  27.567  1.00  0.00     0.023 A 
ATOM     67  C   UNL A   1      42.977  26.964  26.594  1.00  0.00     0.012 A 
ATOM     68  C   UNL A   1      41.834  24.993  27.439  1.00  0.00     0.148 A 
ATOM     69  C   UNL A   1      43.440  26.234  25.499  1.00  0.00     0.002 A 
ATOM     70  C   UNL A   1      42.345  24.258  26.375  1.00  0.00     0.091 A 
ATOM     71  F   UNL A   1      41.043  24.438  28.367  1.00  0.00    -0.205 F 
ATOM     72  C   UNL A   1      43.134  24.881  25.394  1.00  0.00     0.022 A 
BRANCH  70  73
ATOM     73  S   UNL A   1      42.110  22.483  26.232  1.00  0.00     0.127 S 
ATOM     74  O   UNL A   1      40.659  22.379  26.127  1.00  0.00    -0.237 OA
ATOM     75  O   UNL A   1      42.843  22.179  25.002  1.00  0.00    -0.237 OA
ATOM     76  O   UNL A   1      42.703  21.913  27.436  1.00  0.00    -0.744 OA
ENDBRANCH  70  73
ENDBRANCH  42  66
BRANCH  54  77
ATOM     77  C   UNL A   1      44.635  27.469  34.002  1.00  0.00     0.023 A 
ATOM     78  C   UNL A   1      45.825  28.222  33.981  1.00  0.00     0.012 A 
ATOM     79  C   UNL A   1      44.574  26.292  34.773  1.00  0.00     0.148 A 
ATOM     80  C   UNL A   1      46.946  27.797  34.693  1.00  0.00     0.002 A 
ATOM     81  C   UNL A   1      45.679  25.898  35.517  1.00  0.00     0.091 A 
ATOM     82  F   UNL A   1      43.439  25.579  34.764  1.00  0.00    -0.205 F 
ATOM     83  C   UNL A   1      46.869  26.642  35.469  1.00  0.00     0.022 A 
BRANCH  81  84
ATOM     84  S   UNL A   1      45.640  24.480  36.620  1.00  0.00     0.127 S 
ATOM     85  O   UNL A   1      44.548  24.835  37.523  1.00  0.00    -0.237 OA
ATOM     86  O   UNL A   1      45.341  23.380  35.703  1.00  0.00    -0.237 OA
ATOM     87  O   UNL A   1      46.961  24.413  37.231  1.00  0.00    -0.744 OA
ENDBRANCH  81  84
ENDBRANCH  54  77
ENDBRANCH  28  29
ENDBRANCH  20  23
ENDBRANCH  18  19
ENDBRANCH   1  18
TORSDOF 15
ENDMDL
