MODEL 1
REMARK VINA RESULT:     -15.8      0.000      0.000
REMARK SMILES O=C(NCCCNC(=O)[C@@H]1CCCN1S(=O)(=O)c1ccc2c3c(cccc13)C(=O)N2)c1ccc(-c2c3nc(c(-c4cccc(S(=O)(=O)[O-])c4F)c4ccc([nH]4)c(-c4cccc(S(=O)(=O)[O-])c4F)c4nc(c(-c5cccc(S(=O)(=O)[O-])c5F)c5ccc2[nH]5)C=C4)C=C3)cc1
REMARK SMILES IDX 4 1 3 2 1 3 2 4 31 6 32 7 93 8 33 9 92 10 34 11 35 12 36 13
REMARK SMILES IDX 86 14 37 15 91 16 85 17 87 18 38 19 90 20 84 21 83 22 39 24
REMARK SMILES IDX 71 25 51 26 70 27 52 28 55 29 69 30 88 31 53 32 54 33 68 35
REMARK SMILES IDX 89 36 56 37 40 38 41 39 49 40 42 41 44 42 50 43 43 44 45 45
REMARK SMILES IDX 46 46 47 47 48 48 72 49 73 50 81 51 74 52 76 53 82 54 75 55
REMARK SMILES IDX 77 56 78 57 79 58 80 59 57 60 58 61 66 62 59 63 61 64 67 65
REMARK SMILES IDX 60 66 62 67 63 68 64 69 65 70 5 71 6 72 7 73 8 74 9 76 10 77
REMARK SMILES IDX 11 78 14 79 12 80 13 81 15 82 16 83 17 84 18 85 19 86 27 87
REMARK SMILES IDX 20 88 22 89 26 90 21 91 23 92 25 93 30 94 24 95 28 96 29 98
REMARK H PARENT 3 5 87 23 55 34 7 75 30 97
REMARK Flexibility Score: inf
ROOT
ATOM      1  C   UNL A   1      32.376  30.121  26.066  1.00  0.00     0.118 C 
ENDROOT
BRANCH   1   2
ATOM      2  N   UNL A   1      32.066  31.305  26.861  1.00  0.00    -0.352 N 
ATOM      3  O   UNL A   1      32.881  33.377  27.420  1.00  0.00    -0.269 OA
ATOM      4  C   UNL A   1      33.077  32.166  27.344  1.00  0.00     0.251 C 
ATOM      5  H   UNL A   1      31.126  31.509  27.067  1.00  0.00     0.163 HD
BRANCH   4   6
ATOM      6  C   UNL A   1      34.393  31.623  27.821  1.00  0.00     0.039 A 
ATOM      7  C   UNL A   1      34.640  30.258  28.008  1.00  0.00     0.014 A 
ATOM      8  C   UNL A   1      35.458  32.508  27.981  1.00  0.00     0.014 A 
ATOM      9  C   UNL A   1      35.886  29.815  28.533  1.00  0.00     0.010 A 
ATOM     10  C   UNL A   1      36.709  32.056  28.454  1.00  0.00     0.010 A 
ATOM     11  C   UNL A   1      36.925  30.717  28.834  1.00  0.00    -0.014 A 
BRANCH  11  12
ATOM     12  C   UNL A   1      38.171  30.343  29.620  1.00  0.00     0.031 A 
ATOM     13  C   UNL A   1      39.168  29.337  29.036  1.00  0.00     0.074 A 
ATOM     14  C   UNL A   1      38.477  30.847  30.839  1.00  0.00     0.049 A 
ATOM     15  N   UNL A   1      40.232  28.794  29.584  1.00  0.00    -0.248 NA
ATOM     16  C   UNL A   1      38.943  28.896  27.649  1.00  0.00     0.031 C 
ATOM     17  C   UNL A   1      37.707  31.851  31.569  1.00  0.00     0.029 A 
ATOM     18  N   UNL A   1      39.525  30.555  31.697  1.00  0.00    -0.354 N 
ATOM     19  C   UNL A   1      40.770  27.930  28.632  1.00  0.00     0.074 A 
ATOM     20  C   UNL A   1      39.918  28.015  27.468  1.00  0.00     0.031 C 
ATOM     21  C   UNL A   1      38.297  32.086  32.755  1.00  0.00     0.029 A 
ATOM     22  C   UNL A   1      39.458  31.209  32.910  1.00  0.00     0.049 A 
ATOM     23  H   UNL A   1      40.253  29.935  31.462  1.00  0.00     0.167 HD
ATOM     24  C   UNL A   1      41.873  27.142  28.694  1.00  0.00     0.034 A 
ATOM     25  C   UNL A   1      40.201  31.105  34.037  1.00  0.00     0.034 A 
ATOM     26  C   UNL A   1      42.766  27.033  29.817  1.00  0.00     0.049 A 
ATOM     27  C   UNL A   1      41.362  30.146  34.125  1.00  0.00     0.074 A 
ATOM     28  C   UNL A   1      43.907  26.251  29.927  1.00  0.00     0.029 A 
ATOM     29  N   UNL A   1      42.626  27.698  31.020  1.00  0.00    -0.354 N 
ATOM     30  N   UNL A   1      41.872  29.380  33.193  1.00  0.00    -0.248 NA
ATOM     31  C   UNL A   1      42.057  30.042  35.423  1.00  0.00     0.031 C 
ATOM     32  C   UNL A   1      44.435  26.415  31.209  1.00  0.00     0.029 A 
ATOM     33  C   UNL A   1      43.642  27.324  31.885  1.00  0.00     0.049 A 
ATOM     34  H   UNL A   1      41.911  28.342  31.231  1.00  0.00     0.167 HD
ATOM     35  C   UNL A   1      42.949  28.723  33.783  1.00  0.00     0.074 A 
ATOM     36  C   UNL A   1      43.037  29.190  35.148  1.00  0.00     0.031 C 
ATOM     37  C   UNL A   1      43.777  27.802  33.234  1.00  0.00     0.034 A 
BRANCH  24  38
ATOM     38  C   UNL A   1      42.233  26.313  27.487  1.00  0.00     0.023 A 
ATOM     39  C   UNL A   1      43.087  26.858  26.509  1.00  0.00     0.012 A 
ATOM     40  C   UNL A   1      41.865  24.954  27.414  1.00  0.00     0.148 A 
ATOM     41  C   UNL A   1      43.578  26.058  25.477  1.00  0.00     0.002 A 
ATOM     42  C   UNL A   1      42.377  24.159  26.396  1.00  0.00     0.091 A 
ATOM     43  F   UNL A   1      41.053  24.463  28.361  1.00  0.00    -0.205 F 
ATOM     44  C   UNL A   1      43.234  24.709  25.428  1.00  0.00     0.022 A 
BRANCH  42  45
ATOM     45  S   UNL A   1      42.033  22.401  26.265  1.00  0.00     0.127 S 
ATOM     46  O   UNL A   1      42.723  22.062  25.020  1.00  0.00    -0.237 OA
ATOM     47  O   UNL A   1      42.664  21.874  27.475  1.00  0.00    -0.237 OA
ATOM     48  O   UNL A   1      40.584  22.273  26.218  1.00  0.00    -0.744 OA
ENDBRANCH  42  45
ENDBRANCH  24  38
BRANCH  25  49
ATOM     49  C   UNL A   1      39.861  31.948  35.222  1.00  0.00     0.023 A 
ATOM     50  C   UNL A   1      40.429  33.231  35.352  1.00  0.00     0.012 A 
ATOM     51  C   UNL A   1      38.971  31.486  36.212  1.00  0.00     0.148 A 
ATOM     52  C   UNL A   1      40.113  34.039  36.446  1.00  0.00     0.002 A 
ATOM     53  C   UNL A   1      38.628  32.312  37.276  1.00  0.00     0.091 A 
ATOM     54  F   UNL A   1      38.468  30.250  36.082  1.00  0.00    -0.205 F 
ATOM     55  C   UNL A   1      39.204  33.586  37.398  1.00  0.00     0.022 A 
BRANCH  53  56
ATOM     56  S   UNL A   1      37.406  31.850  38.508  1.00  0.00     0.127 S 
ATOM     57  O   UNL A   1      38.139  32.071  39.753  1.00  0.00    -0.237 OA
ATOM     58  O   UNL A   1      36.339  32.815  38.243  1.00  0.00    -0.237 OA
ATOM     59  O   UNL A   1      37.058  30.466  38.225  1.00  0.00    -0.744 OA
ENDBRANCH  53  56
ENDBRANCH  25  49
BRANCH  37  60
ATOM     60  C   UNL A   1      44.880  27.215  34.077  1.00  0.00     0.023 A 
ATOM     61  C   UNL A   1      46.155  27.815  34.069  1.00  0.00     0.012 A 
ATOM     62  C   UNL A   1      44.626  26.148  34.965  1.00  0.00     0.148 A 
ATOM     63  C   UNL A   1      47.162  27.355  34.919  1.00  0.00     0.002 A 
ATOM     64  C   UNL A   1      45.626  25.714  35.829  1.00  0.00     0.091 A 
ATOM     65  F   UNL A   1      43.406  25.591  34.958  1.00  0.00    -0.205 F 
ATOM     66  C   UNL A   1      46.895  26.313  35.805  1.00  0.00     0.022 A 
BRANCH  64  67
ATOM     67  S   UNL A   1      45.367  24.415  37.046  1.00  0.00     0.127 S 
ATOM     68  O   UNL A   1      44.982  23.287  36.198  1.00  0.00    -0.237 OA
ATOM     69  O   UNL A   1      46.690  24.295  37.657  1.00  0.00    -0.237 OA
ATOM     70  O   UNL A   1      44.323  24.899  37.939  1.00  0.00    -0.744 OA
ENDBRANCH  64  67
ENDBRANCH  37  60
ENDBRANCH  11  12
ENDBRANCH   4   6
ENDBRANCH   1   2
BRANCH   1  71
ATOM     71  C   UNL A   1      31.489  28.786  26.026  1.00  0.00     0.042 C 
BRANCH  71  72
ATOM     72  C   UNL A   1      31.828  27.269  26.754  1.00  0.00     0.117 C 
BRANCH  72  73
ATOM     73  N   UNL A   1      31.006  25.966  26.672  1.00  0.00    -0.355 N 
ATOM     74  C   UNL A   1      31.371  24.658  26.292  1.00  0.00     0.238 C 
ATOM     75  H   UNL A   1      30.062  26.065  26.931  1.00  0.00     0.163 HD
ATOM     76  O   UNL A   1      30.591  23.717  26.245  1.00  0.00    -0.273 OA
BRANCH  74  77
ATOM     77  C   UNL A   1      32.828  24.566  25.998  1.00  0.00     0.162 C 
ATOM     78  C   UNL A   1      33.917  25.596  25.774  1.00  0.00     0.032 C 
ATOM     79  N   UNL A   1      32.859  23.753  24.755  1.00  0.00    -0.185 NA
ATOM     80  C   UNL A   1      35.042  24.626  25.387  1.00  0.00     0.019 C 
ATOM     81  C   UNL A   1      34.328  23.525  24.563  1.00  0.00     0.103 C 
BRANCH  79  82
ATOM     82  S   UNL A   1      31.840  24.240  23.424  1.00  0.00     0.244 S 
ATOM     83  O   UNL A   1      32.667  24.001  22.253  1.00  0.00    -0.207 OA
ATOM     84  O   UNL A   1      30.609  23.486  23.540  1.00  0.00    -0.207 OA
BRANCH  82  85
ATOM     85  C   UNL A   1      31.297  26.198  23.273  1.00  0.00     0.090 A 
ATOM     86  C   UNL A   1      32.440  26.905  22.824  1.00  0.00     0.024 A 
ATOM     87  C   UNL A   1      29.922  26.957  23.336  1.00  0.00     0.005 A 
ATOM     88  C   UNL A   1      32.373  28.227  22.377  1.00  0.00     0.028 A 
ATOM     89  C   UNL A   1      29.984  28.211  22.800  1.00  0.00     0.019 A 
ATOM     90  C   UNL A   1      28.504  26.830  23.775  1.00  0.00     0.010 A 
ATOM     91  C   UNL A   1      31.131  28.815  22.338  1.00  0.00     0.050 A 
ATOM     92  C   UNL A   1      28.943  29.133  22.581  1.00  0.00     0.050 A 
ATOM     93  C   UNL A   1      27.407  27.699  23.577  1.00  0.00     0.002 A 
ATOM     94  N   UNL A   1      30.793  30.060  21.843  1.00  0.00    -0.321 N 
ATOM     95  C   UNL A   1      27.628  28.889  22.945  1.00  0.00     0.014 A 
ATOM     96  C   UNL A   1      29.430  30.327  21.933  1.00  0.00     0.256 C 
ATOM     97  H   UNL A   1      31.446  30.692  21.466  1.00  0.00     0.170 HD
ATOM     98  O   UNL A   1      28.880  31.331  21.537  1.00  0.00    -0.269 OA
ENDBRANCH  82  85
ENDBRANCH  79  82
ENDBRANCH  74  77
ENDBRANCH  72  73
ENDBRANCH  71  72
ENDBRANCH   1  71
TORSDOF 15
ENDMDL
MODEL 2
REMARK VINA RESULT:     -15.1      5.127     10.070
REMARK SMILES O=C(NCCCNC(=O)[C@@H]1CCCN1S(=O)(=O)c1ccc2c3c(cccc13)C(=O)N2)c1ccc(-c2c3nc(c(-c4cccc(S(=O)(=O)[O-])c4F)c4ccc([nH]4)c(-c4cccc(S(=O)(=O)[O-])c4F)c4nc(c(-c5cccc(S(=O)(=O)[O-])c5F)c5ccc2[nH]5)C=C4)C=C3)cc1
REMARK SMILES IDX 4 1 3 2 1 3 2 4 31 6 32 7 93 8 33 9 92 10 34 11 35 12 36 13
REMARK SMILES IDX 86 14 37 15 91 16 85 17 87 18 38 19 90 20 84 21 83 22 39 24
REMARK SMILES IDX 71 25 51 26 70 27 52 28 55 29 69 30 88 31 53 32 54 33 68 35
REMARK SMILES IDX 89 36 56 37 40 38 41 39 49 40 42 41 44 42 50 43 43 44 45 45
REMARK SMILES IDX 46 46 47 47 48 48 72 49 73 50 81 51 74 52 76 53 82 54 75 55
REMARK SMILES IDX 77 56 78 57 79 58 80 59 57 60 58 61 66 62 59 63 61 64 67 65
REMARK SMILES IDX 60 66 62 67 63 68 64 69 65 70 5 71 6 72 7 73 8 74 9 76 10 77
REMARK SMILES IDX 11 78 14 79 12 80 13 81 15 82 16 83 17 84 18 85 19 86 27 87
REMARK SMILES IDX 20 88 22 89 26 90 21 91 23 92 25 93 30 94 24 95 28 96 29 98
REMARK H PARENT 3 5 87 23 55 34 7 75 30 97
REMARK Flexibility Score: inf
ROOT
ATOM      1  C   UNL A   1      36.204  21.984  24.799  1.00  0.00     0.118 C 
ENDROOT
BRANCH   1   2
ATOM      2  N   UNL A   1      37.309  21.049  24.608  1.00  0.00    -0.352 N 
ATOM      3  O   UNL A   1      38.943  19.916  25.755  1.00  0.00    -0.269 OA
ATOM      4  C   UNL A   1      38.400  20.990  25.504  1.00  0.00     0.251 C 
ATOM      5  H   UNL A   1      37.294  20.444  23.832  1.00  0.00     0.163 HD
BRANCH   4   6
ATOM      6  C   UNL A   1      38.954  22.236  26.132  1.00  0.00     0.039 A 
ATOM      7  C   UNL A   1      38.315  23.479  26.069  1.00  0.00     0.014 A 
ATOM      8  C   UNL A   1      40.106  22.132  26.910  1.00  0.00     0.014 A 
ATOM      9  C   UNL A   1      38.930  24.637  26.622  1.00  0.00     0.010 A 
ATOM     10  C   UNL A   1      40.686  23.277  27.499  1.00  0.00     0.010 A 
ATOM     11  C   UNL A   1      40.167  24.569  27.290  1.00  0.00    -0.014 A 
BRANCH  11  12
ATOM     12  C   UNL A   1      40.989  25.788  27.679  1.00  0.00     0.031 A 
ATOM     13  C   UNL A   1      40.348  26.907  28.505  1.00  0.00     0.074 A 
ATOM     14  C   UNL A   1      42.287  25.967  27.338  1.00  0.00     0.049 A 
ATOM     15  N   UNL A   1      40.831  28.080  28.849  1.00  0.00    -0.248 NA
ATOM     16  C   UNL A   1      38.990  26.666  29.025  1.00  0.00     0.031 C 
ATOM     17  C   UNL A   1      43.116  25.019  26.598  1.00  0.00     0.029 A 
ATOM     18  N   UNL A   1      43.136  27.040  27.555  1.00  0.00    -0.354 N 
ATOM     19  C   UNL A   1      39.833  28.721  29.580  1.00  0.00     0.074 A 
ATOM     20  C   UNL A   1      38.712  27.811  29.633  1.00  0.00     0.031 C 
ATOM     21  C   UNL A   1      44.341  25.548  26.418  1.00  0.00     0.029 A 
ATOM     22  C   UNL A   1      44.379  26.901  26.974  1.00  0.00     0.049 A 
ATOM     23  H   UNL A   1      42.874  27.832  28.079  1.00  0.00     0.167 HD
ATOM     24  C   UNL A   1      39.832  29.943  30.169  1.00  0.00     0.034 A 
ATOM     25  C   UNL A   1      45.423  27.754  26.853  1.00  0.00     0.034 A 
ATOM     26  C   UNL A   1      40.924  30.880  30.164  1.00  0.00     0.049 A 
ATOM     27  C   UNL A   1      45.365  29.150  27.425  1.00  0.00     0.074 A 
ATOM     28  C   UNL A   1      40.976  32.133  30.758  1.00  0.00     0.029 A 
ATOM     29  N   UNL A   1      42.140  30.689  29.536  1.00  0.00    -0.354 N 
ATOM     30  N   UNL A   1      44.427  29.706  28.150  1.00  0.00    -0.248 NA
ATOM     31  C   UNL A   1      46.518  30.034  27.168  1.00  0.00     0.031 C 
ATOM     32  C   UNL A   1      42.208  32.716  30.455  1.00  0.00     0.029 A 
ATOM     33  C   UNL A   1      42.936  31.812  29.703  1.00  0.00     0.049 A 
ATOM     34  H   UNL A   1      42.402  29.878  29.044  1.00  0.00     0.167 HD
ATOM     35  C   UNL A   1      44.881  30.988  28.447  1.00  0.00     0.074 A 
ATOM     36  C   UNL A   1      46.187  31.128  27.844  1.00  0.00     0.031 C 
ATOM     37  C   UNL A   1      44.253  31.962  29.148  1.00  0.00     0.034 A 
BRANCH  24  38
ATOM     38  C   UNL A   1      38.600  30.376  30.923  1.00  0.00     0.023 A 
ATOM     39  C   UNL A   1      38.560  30.221  32.323  1.00  0.00     0.012 A 
ATOM     40  C   UNL A   1      37.571  31.084  30.270  1.00  0.00     0.148 A 
ATOM     41  C   UNL A   1      37.514  30.772  33.063  1.00  0.00     0.002 A 
ATOM     42  C   UNL A   1      36.545  31.649  31.019  1.00  0.00     0.091 A 
ATOM     43  F   UNL A   1      37.638  31.219  28.938  1.00  0.00    -0.205 F 
ATOM     44  C   UNL A   1      36.516  31.494  32.414  1.00  0.00     0.022 A 
BRANCH  42  45
ATOM     45  S   UNL A   1      35.234  32.636  30.288  1.00  0.00     0.127 S 
ATOM     46  O   UNL A   1      34.337  32.817  31.429  1.00  0.00    -0.237 OA
ATOM     47  O   UNL A   1      35.951  33.844  29.879  1.00  0.00    -0.237 OA
ATOM     48  O   UNL A   1      34.688  31.843  29.197  1.00  0.00    -0.744 OA
ENDBRANCH  42  45
ENDBRANCH  24  38
BRANCH  25  49
ATOM     49  C   UNL A   1      46.654  27.313  26.131  1.00  0.00     0.023 A 
ATOM     50  C   UNL A   1      46.776  27.552  24.748  1.00  0.00     0.012 A 
ATOM     51  C   UNL A   1      47.705  26.669  26.814  1.00  0.00     0.148 A 
ATOM     52  C   UNL A   1      47.924  27.160  24.059  1.00  0.00     0.002 A 
ATOM     53  C   UNL A   1      48.864  26.319  26.130  1.00  0.00     0.091 A 
ATOM     54  F   UNL A   1      47.553  26.425  28.123  1.00  0.00    -0.205 F 
ATOM     55  C   UNL A   1      48.972  26.557  24.751  1.00  0.00     0.022 A 
BRANCH  53  56
ATOM     56  S   UNL A   1      50.298  25.613  26.948  1.00  0.00     0.127 S 
ATOM     57  O   UNL A   1      51.220  25.428  25.829  1.00  0.00    -0.237 OA
ATOM     58  O   UNL A   1      50.665  26.681  27.877  1.00  0.00    -0.237 OA
ATOM     59  O   UNL A   1      49.832  24.388  27.582  1.00  0.00    -0.744 OA
ENDBRANCH  53  56
ENDBRANCH  25  49
BRANCH  37  60
ATOM     60  C   UNL A   1      44.944  33.289  29.336  1.00  0.00     0.023 A 
ATOM     61  C   UNL A   1      45.771  33.489  30.459  1.00  0.00     0.012 A 
ATOM     62  C   UNL A   1      44.871  34.292  28.346  1.00  0.00     0.148 A 
ATOM     63  C   UNL A   1      46.503  34.669  30.601  1.00  0.00     0.002 A 
ATOM     64  C   UNL A   1      45.626  35.453  28.481  1.00  0.00     0.091 A 
ATOM     65  F   UNL A   1      44.079  34.083  27.285  1.00  0.00    -0.205 F 
ATOM     66  C   UNL A   1      46.439  35.644  29.609  1.00  0.00     0.022 A 
BRANCH  64  67
ATOM     67  S   UNL A   1      45.655  36.748  27.232  1.00  0.00     0.127 S 
ATOM     68  O   UNL A   1      46.594  37.704  27.817  1.00  0.00    -0.237 OA
ATOM     69  O   UNL A   1      46.161  36.035  26.060  1.00  0.00    -0.237 OA
ATOM     70  O   UNL A   1      44.284  37.225  27.112  1.00  0.00    -0.744 OA
ENDBRANCH  64  67
ENDBRANCH  37  60
ENDBRANCH  11  12
ENDBRANCH   4   6
ENDBRANCH   1   2
BRANCH   1  71
ATOM     71  C   UNL A   1      35.528  22.853  23.633  1.00  0.00     0.042 C 
BRANCH  71  72
ATOM     72  C   UNL A   1      34.824  24.415  23.752  1.00  0.00     0.117 C 
BRANCH  72  73
ATOM     73  N   UNL A   1      33.746  25.046  22.847  1.00  0.00    -0.355 N 
ATOM     74  C   UNL A   1      32.872  26.132  23.061  1.00  0.00     0.238 C 
ATOM     75  H   UNL A   1      33.652  24.617  21.967  1.00  0.00     0.163 HD
ATOM     76  O   UNL A   1      32.034  26.505  22.251  1.00  0.00    -0.273 OA
BRANCH  74  77
ATOM     77  C   UNL A   1      33.127  26.783  24.375  1.00  0.00     0.162 C 
ATOM     78  C   UNL A   1      34.038  26.460  25.543  1.00  0.00     0.032 C 
ATOM     79  N   UNL A   1      31.776  26.821  24.990  1.00  0.00    -0.185 NA
ATOM     80  C   UNL A   1      33.539  27.550  26.502  1.00  0.00     0.019 C 
ATOM     81  C   UNL A   1      32.015  27.625  26.231  1.00  0.00     0.103 C 
BRANCH  79  82
ATOM     82  S   UNL A   1      30.849  25.342  25.037  1.00  0.00     0.244 S 
ATOM     83  O   UNL A   1      30.111  25.439  26.285  1.00  0.00    -0.207 OA
ATOM     84  O   UNL A   1      30.083  25.287  23.809  1.00  0.00    -0.207 OA
BRANCH  82  85
ATOM     85  C   UNL A   1      31.842  23.569  25.170  1.00  0.00     0.090 A 
ATOM     86  C   UNL A   1      32.279  23.445  26.513  1.00  0.00     0.024 A 
ATOM     87  C   UNL A   1      32.000  22.332  24.213  1.00  0.00     0.005 A 
ATOM     88  C   UNL A   1      32.782  22.248  27.028  1.00  0.00     0.028 A 
ATOM     89  C   UNL A   1      32.430  21.211  24.863  1.00  0.00     0.019 A 
ATOM     90  C   UNL A   1      31.852  21.886  22.800  1.00  0.00     0.010 A 
ATOM     91  C   UNL A   1      32.793  21.158  26.190  1.00  0.00     0.050 A 
ATOM     92  C   UNL A   1      32.580  19.901  24.366  1.00  0.00     0.050 A 
ATOM     93  C   UNL A   1      31.967  20.596  22.234  1.00  0.00     0.002 A 
ATOM     94  N   UNL A   1      33.140  19.855  26.490  1.00  0.00    -0.321 N 
ATOM     95  C   UNL A   1      32.330  19.561  23.046  1.00  0.00     0.014 A 
ATOM     96  C   UNL A   1      33.006  18.994  25.405  1.00  0.00     0.256 C 
ATOM     97  H   UNL A   1      33.447  19.565  27.379  1.00  0.00     0.170 HD
ATOM     98  O   UNL A   1      33.212  17.801  25.421  1.00  0.00    -0.269 OA
ENDBRANCH  82  85
ENDBRANCH  79  82
ENDBRANCH  74  77
ENDBRANCH  72  73
ENDBRANCH  71  72
ENDBRANCH   1  71
TORSDOF 15
ENDMDL
MODEL 3
REMARK VINA RESULT:     -15.1      1.697      2.022
REMARK SMILES O=C(NCCCNC(=O)[C@@H]1CCCN1S(=O)(=O)c1ccc2c3c(cccc13)C(=O)N2)c1ccc(-c2c3nc(c(-c4cccc(S(=O)(=O)[O-])c4F)c4ccc([nH]4)c(-c4cccc(S(=O)(=O)[O-])c4F)c4nc(c(-c5cccc(S(=O)(=O)[O-])c5F)c5ccc2[nH]5)C=C4)C=C3)cc1
REMARK SMILES IDX 4 1 3 2 1 3 2 4 31 6 32 7 93 8 33 9 92 10 34 11 35 12 36 13
REMARK SMILES IDX 86 14 37 15 91 16 85 17 87 18 38 19 90 20 84 21 83 22 39 24
REMARK SMILES IDX 71 25 51 26 70 27 52 28 55 29 69 30 88 31 53 32 54 33 68 35
REMARK SMILES IDX 89 36 56 37 40 38 41 39 49 40 42 41 44 42 50 43 43 44 45 45
REMARK SMILES IDX 46 46 47 47 48 48 72 49 73 50 81 51 74 52 76 53 82 54 75 55
REMARK SMILES IDX 77 56 78 57 79 58 80 59 57 60 58 61 66 62 59 63 61 64 67 65
REMARK SMILES IDX 60 66 62 67 63 68 64 69 65 70 5 71 6 72 7 73 8 74 9 76 10 77
REMARK SMILES IDX 11 78 14 79 12 80 13 81 15 82 16 83 17 84 18 85 19 86 27 87
REMARK SMILES IDX 20 88 22 89 26 90 21 91 23 92 25 93 30 94 24 95 28 96 29 98
REMARK H PARENT 3 5 87 23 55 34 7 75 30 97
REMARK Flexibility Score: inf
ROOT
ATOM      1  C   UNL A   1      32.140  30.430  25.931  1.00  0.00     0.118 C 
ENDROOT
BRANCH   1   2
ATOM      2  N   UNL A   1      31.786  31.570  26.771  1.00  0.00    -0.352 N 
ATOM      3  O   UNL A   1      32.551  33.622  27.458  1.00  0.00    -0.269 OA
ATOM      4  C   UNL A   1      32.767  32.419  27.331  1.00  0.00     0.251 C 
ATOM      5  H   UNL A   1      30.836  31.752  26.954  1.00  0.00     0.163 HD
BRANCH   4   6
ATOM      6  C   UNL A   1      34.073  31.869  27.827  1.00  0.00     0.039 A 
ATOM      7  C   UNL A   1      34.309  30.503  28.021  1.00  0.00     0.014 A 
ATOM      8  C   UNL A   1      35.141  32.748  27.999  1.00  0.00     0.014 A 
ATOM      9  C   UNL A   1      35.545  30.055  28.564  1.00  0.00     0.010 A 
ATOM     10  C   UNL A   1      36.382  32.290  28.491  1.00  0.00     0.010 A 
ATOM     11  C   UNL A   1      36.585  30.950  28.877  1.00  0.00    -0.014 A 
BRANCH  11  12
ATOM     12  C   UNL A   1      37.818  30.571  29.681  1.00  0.00     0.031 A 
ATOM     13  C   UNL A   1      38.844  29.599  29.091  1.00  0.00     0.074 A 
ATOM     14  C   UNL A   1      38.087  31.041  30.923  1.00  0.00     0.049 A 
ATOM     15  N   UNL A   1      39.904  29.056  29.647  1.00  0.00    -0.248 NA
ATOM     16  C   UNL A   1      38.660  29.199  27.685  1.00  0.00     0.031 C 
ATOM     17  C   UNL A   1      37.283  32.010  31.664  1.00  0.00     0.029 A 
ATOM     18  N   UNL A   1      39.119  30.738  31.796  1.00  0.00    -0.354 N 
ATOM     19  C   UNL A   1      40.479  28.231  28.682  1.00  0.00     0.074 A 
ATOM     20  C   UNL A   1      39.653  28.340  27.501  1.00  0.00     0.031 C 
ATOM     21  C   UNL A   1      37.841  32.216  32.872  1.00  0.00     0.029 A 
ATOM     22  C   UNL A   1      39.012  31.352  33.027  1.00  0.00     0.049 A 
ATOM     23  H   UNL A   1      39.862  30.138  31.560  1.00  0.00     0.167 HD
ATOM     24  C   UNL A   1      41.592  27.459  28.747  1.00  0.00     0.034 A 
ATOM     25  C   UNL A   1      39.729  31.224  34.168  1.00  0.00     0.034 A 
ATOM     26  C   UNL A   1      42.460  27.328  29.887  1.00  0.00     0.049 A 
ATOM     27  C   UNL A   1      40.904  30.281  34.254  1.00  0.00     0.074 A 
ATOM     28  C   UNL A   1      43.611  26.561  29.999  1.00  0.00     0.029 A 
ATOM     29  N   UNL A   1      42.280  27.953  31.106  1.00  0.00    -0.354 N 
ATOM     30  N   UNL A   1      41.448  29.553  33.312  1.00  0.00    -0.248 NA
ATOM     31  C   UNL A   1      41.569  30.147  35.565  1.00  0.00     0.031 C 
ATOM     32  C   UNL A   1      44.105  26.692  31.299  1.00  0.00     0.029 A 
ATOM     33  C   UNL A   1      43.281  27.567  31.983  1.00  0.00     0.049 A 
ATOM     34  H   UNL A   1      41.551  28.579  31.319  1.00  0.00     0.167 HD
ATOM     35  C   UNL A   1      42.521  28.894  33.907  1.00  0.00     0.074 A 
ATOM     36  C   UNL A   1      42.569  29.319  35.288  1.00  0.00     0.031 C 
ATOM     37  C   UNL A   1      43.377  28.005  33.349  1.00  0.00     0.034 A 
BRANCH  24  38
ATOM     38  C   UNL A   1      41.994  26.674  27.523  1.00  0.00     0.023 A 
ATOM     39  C   UNL A   1      42.794  27.292  26.542  1.00  0.00     0.012 A 
ATOM     40  C   UNL A   1      41.725  25.293  27.436  1.00  0.00     0.148 A 
ATOM     41  C   UNL A   1      43.326  26.543  25.492  1.00  0.00     0.002 A 
ATOM     42  C   UNL A   1      42.279  24.551  26.399  1.00  0.00     0.091 A 
ATOM     43  F   UNL A   1      40.964  24.732  28.386  1.00  0.00    -0.205 F 
ATOM     44  C   UNL A   1      43.080  25.174  25.428  1.00  0.00     0.022 A 
BRANCH  42  45
ATOM     45  S   UNL A   1      42.061  22.774  26.248  1.00  0.00     0.127 S 
ATOM     46  O   UNL A   1      40.604  22.666  26.164  1.00  0.00    -0.237 OA
ATOM     47  O   UNL A   1      42.766  22.484  24.999  1.00  0.00    -0.237 OA
ATOM     48  O   UNL A   1      42.653  22.189  27.442  1.00  0.00    -0.744 OA
ENDBRANCH  42  45
ENDBRANCH  24  38
BRANCH  25  49
ATOM     49  C   UNL A   1      39.348  32.025  35.370  1.00  0.00     0.023 A 
ATOM     50  C   UNL A   1      38.500  31.460  36.344  1.00  0.00     0.012 A 
ATOM     51  C   UNL A   1      39.830  33.336  35.554  1.00  0.00     0.148 A 
ATOM     52  C   UNL A   1      38.143  32.187  37.481  1.00  0.00     0.002 A 
ATOM     53  C   UNL A   1      39.505  34.038  36.709  1.00  0.00     0.091 A 
ATOM     54  F   UNL A   1      40.610  33.862  34.599  1.00  0.00    -0.205 F 
ATOM     55  C   UNL A   1      38.656  33.468  37.670  1.00  0.00     0.022 A 
BRANCH  53  56
ATOM     56  S   UNL A   1      40.181  35.660  37.080  1.00  0.00     0.127 S 
ATOM     57  O   UNL A   1      39.654  36.463  35.978  1.00  0.00    -0.237 OA
ATOM     58  O   UNL A   1      39.583  35.939  38.385  1.00  0.00    -0.237 OA
ATOM     59  O   UNL A   1      41.627  35.496  37.096  1.00  0.00    -0.744 OA
ENDBRANCH  53  56
ENDBRANCH  25  49
BRANCH  37  60
ATOM     60  C   UNL A   1      44.469  27.408  34.200  1.00  0.00     0.023 A 
ATOM     61  C   UNL A   1      44.249  26.176  34.847  1.00  0.00     0.012 A 
ATOM     62  C   UNL A   1      45.747  28.002  34.264  1.00  0.00     0.148 A 
ATOM     63  C   UNL A   1      45.279  25.552  35.554  1.00  0.00     0.002 A 
ATOM     64  C   UNL A   1      46.776  27.360  34.947  1.00  0.00     0.091 A 
ATOM     65  F   UNL A   1      45.936  29.174  33.641  1.00  0.00    -0.205 F 
ATOM     66  C   UNL A   1      46.542  26.138  35.595  1.00  0.00     0.022 A 
BRANCH  64  67
ATOM     67  S   UNL A   1      48.453  28.005  35.013  1.00  0.00     0.127 S 
ATOM     68  O   UNL A   1      49.145  26.957  35.763  1.00  0.00    -0.237 OA
ATOM     69  O   UNL A   1      48.812  28.080  33.597  1.00  0.00    -0.237 OA
ATOM     70  O   UNL A   1      48.365  29.292  35.690  1.00  0.00    -0.744 OA
ENDBRANCH  64  67
ENDBRANCH  37  60
ENDBRANCH  11  12
ENDBRANCH   4   6
ENDBRANCH   1   2
BRANCH   1  71
ATOM     71  C   UNL A   1      31.383  29.016  25.939  1.00  0.00     0.042 C 
BRANCH  71  72
ATOM     72  C   UNL A   1      31.933  27.527  26.595  1.00  0.00     0.117 C 
BRANCH  72  73
ATOM     73  N   UNL A   1      31.153  26.204  26.742  1.00  0.00    -0.355 N 
ATOM     74  C   UNL A   1      31.535  24.869  26.500  1.00  0.00     0.238 C 
ATOM     75  H   UNL A   1      30.228  26.311  27.059  1.00  0.00     0.163 HD
ATOM     76  O   UNL A   1      30.787  23.909  26.632  1.00  0.00    -0.273 OA
BRANCH  74  77
ATOM     77  C   UNL A   1      32.968  24.777  26.105  1.00  0.00     0.162 C 
ATOM     78  C   UNL A   1      34.023  25.806  25.751  1.00  0.00     0.032 C 
ATOM     79  N   UNL A   1      32.921  23.903  24.906  1.00  0.00    -0.185 NA
ATOM     80  C   UNL A   1      35.131  24.830  25.332  1.00  0.00     0.019 C 
ATOM     81  C   UNL A   1      34.375  23.680  24.619  1.00  0.00     0.103 C 
BRANCH  79  82
ATOM     82  S   UNL A   1      31.801  24.310  23.630  1.00  0.00     0.244 S 
ATOM     83  O   UNL A   1      32.538  24.003  22.416  1.00  0.00    -0.207 OA
ATOM     84  O   UNL A   1      30.586  23.562  23.883  1.00  0.00    -0.207 OA
BRANCH  82  85
ATOM     85  C   UNL A   1      31.238  26.254  23.406  1.00  0.00     0.090 A 
ATOM     86  C   UNL A   1      32.376  26.957  22.937  1.00  0.00     0.024 A 
ATOM     87  C   UNL A   1      29.855  27.000  23.437  1.00  0.00     0.005 A 
ATOM     88  C   UNL A   1      32.296  28.261  22.442  1.00  0.00     0.028 A 
ATOM     89  C   UNL A   1      29.906  28.235  22.856  1.00  0.00     0.019 A 
ATOM     90  C   UNL A   1      28.437  26.874  23.874  1.00  0.00     0.010 A 
ATOM     91  C   UNL A   1      31.049  28.834  22.376  1.00  0.00     0.050 A 
ATOM     92  C   UNL A   1      28.856  29.138  22.600  1.00  0.00     0.050 A 
ATOM     93  C   UNL A   1      27.332  27.724  23.641  1.00  0.00     0.002 A 
ATOM     94  N   UNL A   1      30.699  30.057  21.836  1.00  0.00    -0.321 N 
ATOM     95  C   UNL A   1      27.542  28.892  22.967  1.00  0.00     0.014 A 
ATOM     96  C   UNL A   1      29.333  30.313  21.911  1.00  0.00     0.256 C 
ATOM     97  H   UNL A   1      31.348  30.682  21.439  1.00  0.00     0.170 HD
ATOM     98  O   UNL A   1      28.774  31.296  21.477  1.00  0.00    -0.269 OA
ENDBRANCH  82  85
ENDBRANCH  79  82
ENDBRANCH  74  77
ENDBRANCH  72  73
ENDBRANCH  71  72
ENDBRANCH   1  71
TORSDOF 15
ENDMDL
