MODEL 1
REMARK VINA RESULT:     -12.9      0.000      0.000
REMARK SMILES COc1ccccc1N1C(=O)[C@@H]2[C@@H](C1=O)[C@@](Cc1ccccc1)(C(=O)NCCCNC(=O)c1ccc(-c3c4nc(c(-c5cccc(S(=O)(=O)[O-])c5F)c5ccc([nH]5)c(-c5cccc(S(=O)(=O)[O-])c5F)c5nc(c(-c6cccc(S(=O)(=O)[O-])c6F)c6ccc3[nH]6)C=C5)C=C4)cc1)[NH2+][C@H]2c1ccc(C)cc1
REMARK SMILES IDX 28 1 27 2 26 3 24 4 25 5 16 7 9 8 10 9 14 10 11 11 12 12
REMARK SMILES IDX 13 13 15 14 97 15 96 16 8 19 3 20 4 21 5 22 7 23 6 24 2 25
REMARK SMILES IDX 1 26 98 27 99 28 104 29 100 30 103 31 101 32 102 33 17 34
REMARK SMILES IDX 18 35 19 36 23 37 20 38 22 39 21 40 29 41 30 42 31 43 32 45
REMARK SMILES IDX 33 46 34 47 95 48 35 49 94 50 36 51 37 52 38 53 88 54 39 55
REMARK SMILES IDX 93 56 87 57 89 58 40 59 92 60 86 61 85 62 41 64 73 65 53 66
REMARK SMILES IDX 72 67 54 68 57 69 71 70 90 71 55 72 56 73 70 75 91 76 58 77
REMARK SMILES IDX 42 78 43 79 51 80 44 81 46 82 52 83 45 84 47 85 48 86 49 87
REMARK SMILES IDX 50 88 74 89 75 90 83 91 76 92 78 93 84 94 77 95 79 96 80 97
REMARK SMILES IDX 81 98 82 99 59 100 60 101 68 102 61 103 63 104 69 105 62 106
REMARK SMILES IDX 64 107 65 108 66 109 67 110
REMARK H PARENT 26 6 96 17 96 18 30 44 89 63 57 74
REMARK Flexibility Score: inf
ROOT
ATOM      1  C   UNL A   1      35.370  23.741  24.374  1.00  0.00     0.042 C 
ENDROOT
BRANCH   1   2
ATOM      2  C   UNL A   1      34.628  25.058  24.211  1.00  0.00     0.118 C 
BRANCH   2   3
ATOM      3  N   UNL A   1      34.154  25.233  22.857  1.00  0.00    -0.351 N 
ATOM      4  C   UNL A   1      33.083  25.813  22.279  1.00  0.00     0.282 C 
ATOM      5  O   UNL A   1      33.055  25.674  21.043  1.00  0.00    -0.268 OA
ATOM      6  H   UNL A   1      34.763  24.831  22.195  1.00  0.00     0.163 HD
BRANCH   4   7
ATOM      7  C   UNL A   1      31.901  26.580  22.961  1.00  0.00     0.192 C 
ATOM      8  N   UNL A   1      32.927  28.303  26.073  1.00  0.00    -0.246 N 
ATOM      9  C   UNL A   1      32.399  27.086  26.511  1.00  0.00     0.244 C 
ATOM     10  C   UNL A   1      32.858  28.431  24.690  1.00  0.00     0.245 C 
ATOM     11  O   UNL A   1      32.163  26.726  27.650  1.00  0.00    -0.273 OA
ATOM     12  C   UNL A   1      32.269  26.248  25.270  1.00  0.00     0.162 C 
ATOM     13  C   UNL A   1      31.959  27.328  24.258  1.00  0.00     0.170 C 
ATOM     14  O   UNL A   1      33.419  29.227  23.963  1.00  0.00    -0.273 OA
ATOM     15  C   UNL A   1      31.245  25.190  24.919  1.00  0.00     0.228 C 
ATOM     16  N   UNL A   1      30.940  25.489  23.471  1.00  0.00    -0.326 N 
ATOM     17  H   UNL A   1      31.060  24.642  22.917  1.00  0.00     0.347 HD
ATOM     18  H   UNL A   1      29.977  25.816  23.387  1.00  0.00     0.347 HD
BRANCH   8  19
ATOM     19  C   UNL A   1      33.592  29.254  26.883  1.00  0.00     0.094 A 
ATOM     20  C   UNL A   1      33.037  30.517  27.171  1.00  0.00     0.143 A 
ATOM     21  C   UNL A   1      33.806  31.503  27.802  1.00  0.00     0.048 A 
ATOM     22  C   UNL A   1      35.123  31.240  28.169  1.00  0.00     0.004 A 
ATOM     23  C   UNL A   1      34.909  28.992  27.295  1.00  0.00     0.031 A 
ATOM     24  C   UNL A   1      35.674  29.986  27.917  1.00  0.00     0.002 A 
BRANCH  20  25
ATOM     25  O   UNL A   1      31.765  30.911  26.838  1.00  0.00    -0.495 OA
ATOM     26  C   UNL A   1      31.599  32.326  26.793  1.00  0.00     0.278 C 
ENDBRANCH  20  25
ENDBRANCH   8  19
BRANCH  15  27
ATOM     27  C   UNL A   1      31.730  23.763  25.143  1.00  0.00     0.010 A 
ATOM     28  C   UNL A   1      31.717  22.790  24.129  1.00  0.00     0.010 A 
ATOM     29  C   UNL A   1      32.256  23.377  26.385  1.00  0.00     0.010 A 
ATOM     30  C   UNL A   1      32.225  21.504  24.324  1.00  0.00     0.004 A 
ATOM     31  C   UNL A   1      32.760  22.081  26.590  1.00  0.00     0.004 A 
ATOM     32  C   UNL A   1      32.751  21.136  25.558  1.00  0.00    -0.051 A 
ATOM     33  C   UNL A   1      33.338  19.767  25.738  1.00  0.00     0.044 C 
ENDBRANCH  15  27
BRANCH   7  34
ATOM     34  C   UNL A   1      31.190  27.389  21.831  1.00  0.00     0.115 C 
BRANCH  34  35
ATOM     35  C   UNL A   1      30.105  28.355  22.280  1.00  0.00    -0.041 A 
ATOM     36  C   UNL A   1      30.295  29.735  22.122  1.00  0.00     0.004 A 
ATOM     37  C   UNL A   1      28.903  27.920  22.861  1.00  0.00     0.004 A 
ATOM     38  C   UNL A   1      29.286  30.641  22.464  1.00  0.00     0.000 A 
ATOM     39  C   UNL A   1      27.882  28.821  23.169  1.00  0.00     0.000 A 
ATOM     40  C   UNL A   1      28.071  30.183  22.964  1.00  0.00     0.000 A 
ENDBRANCH  34  35
ENDBRANCH   7  34
ENDBRANCH   4   7
ENDBRANCH   2   3
ENDBRANCH   1   2
BRANCH   1  41
ATOM     41  C   UNL A   1      36.249  23.764  25.603  1.00  0.00     0.118 C 
BRANCH  41  42
ATOM     42  N   UNL A   1      36.923  22.483  25.779  1.00  0.00    -0.352 N 
ATOM     43  C   UNL A   1      38.243  22.257  26.090  1.00  0.00     0.251 C 
ATOM     44  H   UNL A   1      36.365  21.680  25.658  1.00  0.00     0.163 HD
ATOM     45  O   UNL A   1      38.742  21.148  25.934  1.00  0.00    -0.269 OA
BRANCH  43  46
ATOM     46  C   UNL A   1      39.044  23.387  26.598  1.00  0.00     0.039 A 
ATOM     47  C   UNL A   1      39.954  23.181  27.636  1.00  0.00     0.014 A 
ATOM     48  C   UNL A   1      38.937  24.634  25.979  1.00  0.00     0.014 A 
ATOM     49  C   UNL A   1      40.806  24.223  28.010  1.00  0.00     0.010 A 
ATOM     50  C   UNL A   1      39.868  25.616  26.262  1.00  0.00     0.010 A 
ATOM     51  C   UNL A   1      40.794  25.434  27.300  1.00  0.00    -0.014 A 
BRANCH  51  52
ATOM     52  C   UNL A   1      41.701  26.557  27.633  1.00  0.00     0.031 A 
ATOM     53  C   UNL A   1      41.168  27.711  28.444  1.00  0.00     0.074 A 
ATOM     54  C   UNL A   1      42.944  26.599  27.117  1.00  0.00     0.049 A 
ATOM     55  N   UNL A   1      41.732  28.855  28.719  1.00  0.00    -0.248 NA
ATOM     56  C   UNL A   1      39.798  27.577  28.974  1.00  0.00     0.031 C 
ATOM     57  C   UNL A   1      43.542  25.577  26.255  1.00  0.00     0.029 A 
ATOM     58  N   UNL A   1      43.918  27.561  27.215  1.00  0.00    -0.354 N 
ATOM     59  C   UNL A   1      40.773  29.593  29.402  1.00  0.00     0.074 A 
ATOM     60  C   UNL A   1      39.575  28.788  29.456  1.00  0.00     0.031 C 
ATOM     61  C   UNL A   1      44.782  25.961  25.910  1.00  0.00     0.029 A 
ATOM     62  C   UNL A   1      45.049  27.275  26.486  1.00  0.00     0.049 A 
ATOM     63  H   UNL A   1      43.818  28.377  27.755  1.00  0.00     0.167 HD
ATOM     64  C   UNL A   1      40.888  30.818  29.964  1.00  0.00     0.034 A 
ATOM     65  C   UNL A   1      46.168  28.001  26.290  1.00  0.00     0.034 A 
ATOM     66  C   UNL A   1      42.101  31.585  29.954  1.00  0.00     0.049 A 
ATOM     67  C   UNL A   1      46.286  29.345  26.959  1.00  0.00     0.074 A 
ATOM     68  C   UNL A   1      42.358  32.793  30.574  1.00  0.00     0.029 A 
ATOM     69  N   UNL A   1      43.259  31.217  29.287  1.00  0.00    -0.354 N 
ATOM     70  N   UNL A   1      45.420  29.966  27.722  1.00  0.00    -0.248 NA
ATOM     71  C   UNL A   1      47.547  30.075  26.767  1.00  0.00     0.031 C 
ATOM     72  C   UNL A   1      43.663  33.174  30.253  1.00  0.00     0.029 A 
ATOM     73  C   UNL A   1      44.232  32.182  29.469  1.00  0.00     0.049 A 
ATOM     74  H   UNL A   1      43.371  30.393  28.761  1.00  0.00     0.167 HD
ATOM     75  C   UNL A   1      46.044  31.137  28.134  1.00  0.00     0.074 A 
ATOM     76  C   UNL A   1      47.367  31.133  27.546  1.00  0.00     0.031 C 
ATOM     77  C   UNL A   1      45.563  32.130  28.921  1.00  0.00     0.034 A 
BRANCH  64  78
ATOM     78  C   UNL A   1      39.684  31.380  30.674  1.00  0.00     0.023 A 
ATOM     79  C   UNL A   1      38.636  31.960  29.927  1.00  0.00     0.012 A 
ATOM     80  C   UNL A   1      39.569  31.294  32.074  1.00  0.00     0.148 A 
ATOM     81  C   UNL A   1      37.513  32.483  30.566  1.00  0.00     0.002 A 
ATOM     82  C   UNL A   1      38.422  31.770  32.700  1.00  0.00     0.091 A 
ATOM     83  F   UNL A   1      40.583  30.762  32.768  1.00  0.00    -0.205 F 
ATOM     84  C   UNL A   1      37.401  32.378  31.950  1.00  0.00     0.022 A 
BRANCH  82  85
ATOM     85  S   UNL A   1      38.142  31.607  34.465  1.00  0.00     0.127 S 
ATOM     86  O   UNL A   1      38.214  30.158  34.642  1.00  0.00    -0.237 OA
ATOM     87  O   UNL A   1      39.274  32.347  35.024  1.00  0.00    -0.237 OA
ATOM     88  O   UNL A   1      36.838  32.202  34.724  1.00  0.00    -0.744 OA
ENDBRANCH  82  85
ENDBRANCH  64  78
BRANCH  65  89
ATOM     89  C   UNL A   1      47.282  27.451  25.467  1.00  0.00     0.023 A 
ATOM     90  C   UNL A   1      48.169  26.518  26.040  1.00  0.00     0.012 A 
ATOM     91  C   UNL A   1      47.454  27.825  24.121  1.00  0.00     0.148 A 
ATOM     92  C   UNL A   1      49.229  25.997  25.298  1.00  0.00     0.002 A 
ATOM     93  C   UNL A   1      48.479  27.261  23.371  1.00  0.00     0.091 A 
ATOM     94  F   UNL A   1      46.602  28.718  23.596  1.00  0.00    -0.205 F 
ATOM     95  C   UNL A   1      49.378  26.360  23.962  1.00  0.00     0.022 A 
BRANCH  93  96
ATOM     96  S   UNL A   1      48.674  27.577  21.613  1.00  0.00     0.127 S 
ATOM     97  O   UNL A   1      47.292  27.791  21.194  1.00  0.00    -0.237 OA
ATOM     98  O   UNL A   1      49.511  28.777  21.616  1.00  0.00    -0.237 OA
ATOM     99  O   UNL A   1      49.323  26.392  21.066  1.00  0.00    -0.744 OA
ENDBRANCH  93  96
ENDBRANCH  65  89
BRANCH  77 100
ATOM    100  C   UNL A   1      46.481  33.275  29.250  1.00  0.00     0.023 A 
ATOM    101  C   UNL A   1      47.347  33.191  30.358  1.00  0.00     0.012 A 
ATOM    102  C   UNL A   1      46.561  34.388  28.388  1.00  0.00     0.148 A 
ATOM    103  C   UNL A   1      48.263  34.211  30.616  1.00  0.00     0.002 A 
ATOM    104  C   UNL A   1      47.512  35.371  28.620  1.00  0.00     0.091 A 
ATOM    105  F   UNL A   1      45.716  34.451  27.349  1.00  0.00    -0.205 F 
ATOM    106  C   UNL A   1      48.356  35.292  29.740  1.00  0.00     0.022 A 
BRANCH 104 107
ATOM    107  S   UNL A   1      47.776  36.743  27.492  1.00  0.00     0.127 S 
ATOM    108  O   UNL A   1      48.008  36.048  26.227  1.00  0.00    -0.237 OA
ATOM    109  O   UNL A   1      46.502  37.457  27.573  1.00  0.00    -0.237 OA
ATOM    110  O   UNL A   1      48.919  37.480  28.012  1.00  0.00    -0.744 OA
ENDBRANCH 104 107
ENDBRANCH  77 100
ENDBRANCH  51  52
ENDBRANCH  43  46
ENDBRANCH  41  42
ENDBRANCH   1  41
TORSDOF 18
ENDMDL
MODEL 2
REMARK VINA RESULT:     -12.7      1.882      2.129
REMARK SMILES COc1ccccc1N1C(=O)[C@@H]2[C@@H](C1=O)[C@@](Cc1ccccc1)(C(=O)NCCCNC(=O)c1ccc(-c3c4nc(c(-c5cccc(S(=O)(=O)[O-])c5F)c5ccc([nH]5)c(-c5cccc(S(=O)(=O)[O-])c5F)c5nc(c(-c6cccc(S(=O)(=O)[O-])c6F)c6ccc3[nH]6)C=C5)C=C4)cc1)[NH2+][C@H]2c1ccc(C)cc1
REMARK SMILES IDX 28 1 27 2 26 3 24 4 25 5 16 7 9 8 10 9 14 10 11 11 12 12
REMARK SMILES IDX 13 13 15 14 97 15 96 16 8 19 3 20 4 21 5 22 7 23 6 24 2 25
REMARK SMILES IDX 1 26 98 27 99 28 104 29 100 30 103 31 101 32 102 33 17 34
REMARK SMILES IDX 18 35 19 36 23 37 20 38 22 39 21 40 29 41 30 42 31 43 32 45
REMARK SMILES IDX 33 46 34 47 95 48 35 49 94 50 36 51 37 52 38 53 88 54 39 55
REMARK SMILES IDX 93 56 87 57 89 58 40 59 92 60 86 61 85 62 41 64 73 65 53 66
REMARK SMILES IDX 72 67 54 68 57 69 71 70 90 71 55 72 56 73 70 75 91 76 58 77
REMARK SMILES IDX 42 78 43 79 51 80 44 81 46 82 52 83 45 84 47 85 48 86 49 87
REMARK SMILES IDX 50 88 74 89 75 90 83 91 76 92 78 93 84 94 77 95 79 96 80 97
REMARK SMILES IDX 81 98 82 99 59 100 60 101 68 102 61 103 63 104 69 105 62 106
REMARK SMILES IDX 64 107 65 108 66 109 67 110
REMARK H PARENT 26 6 96 17 96 18 30 44 89 63 57 74
REMARK Flexibility Score: inf
ROOT
ATOM      1  C   UNL A   1      35.251  23.588  23.914  1.00  0.00     0.042 C 
ENDROOT
BRANCH   1   2
ATOM      2  C   UNL A   1      34.444  24.876  23.876  1.00  0.00     0.118 C 
BRANCH   2   3
ATOM      3  N   UNL A   1      33.890  25.114  22.562  1.00  0.00    -0.351 N 
ATOM      4  C   UNL A   1      32.793  25.730  22.077  1.00  0.00     0.282 C 
ATOM      5  O   UNL A   1      32.686  25.644  20.840  1.00  0.00    -0.268 OA
ATOM      6  H   UNL A   1      34.451  24.734  21.848  1.00  0.00     0.163 HD
BRANCH   4   7
ATOM      7  C   UNL A   1      31.666  26.480  22.863  1.00  0.00     0.192 C 
ATOM      8  N   UNL A   1      32.907  28.064  25.971  1.00  0.00    -0.246 N 
ATOM      9  C   UNL A   1      32.393  26.836  26.391  1.00  0.00     0.244 C 
ATOM     10  C   UNL A   1      32.753  28.249  24.601  1.00  0.00     0.245 C 
ATOM     11  O   UNL A   1      32.224  26.431  27.528  1.00  0.00    -0.273 OA
ATOM     12  C   UNL A   1      32.174  26.050  25.128  1.00  0.00     0.162 C 
ATOM     13  C   UNL A   1      31.815  27.174  24.183  1.00  0.00     0.170 C 
ATOM     14  O   UNL A   1      33.278  29.069  23.872  1.00  0.00    -0.273 OA
ATOM     15  C   UNL A   1      31.117  25.019  24.801  1.00  0.00     0.228 C 
ATOM     16  N   UNL A   1      30.725  25.380  23.389  1.00  0.00    -0.326 N 
ATOM     17  H   UNL A   1      30.799  24.555  22.794  1.00  0.00     0.347 HD
ATOM     18  H   UNL A   1      29.763  25.719  23.379  1.00  0.00     0.347 HD
BRANCH   8  19
ATOM     19  C   UNL A   1      33.635  28.975  26.774  1.00  0.00     0.094 A 
ATOM     20  C   UNL A   1      33.072  30.177  27.246  1.00  0.00     0.143 A 
ATOM     21  C   UNL A   1      33.876  31.142  27.864  1.00  0.00     0.048 A 
ATOM     22  C   UNL A   1      35.240  30.918  28.035  1.00  0.00     0.004 A 
ATOM     23  C   UNL A   1      35.004  28.746  26.989  1.00  0.00     0.031 A 
ATOM     24  C   UNL A   1      35.803  29.721  27.598  1.00  0.00     0.002 A 
BRANCH  20  25
ATOM     25  O   UNL A   1      31.752  30.532  27.117  1.00  0.00    -0.495 OA
ATOM     26  C   UNL A   1      31.555  31.746  26.397  1.00  0.00     0.278 C 
ENDBRANCH  20  25
ENDBRANCH   8  19
BRANCH  15  27
ATOM     27  C   UNL A   1      31.597  23.578  24.937  1.00  0.00     0.010 A 
ATOM     28  C   UNL A   1      31.601  22.676  23.859  1.00  0.00     0.010 A 
ATOM     29  C   UNL A   1      32.100  23.108  26.158  1.00  0.00     0.010 A 
ATOM     30  C   UNL A   1      32.105  21.380  23.975  1.00  0.00     0.004 A 
ATOM     31  C   UNL A   1      32.598  21.800  26.284  1.00  0.00     0.004 A 
ATOM     32  C   UNL A   1      32.608  20.928  25.191  1.00  0.00    -0.051 A 
ATOM     33  C   UNL A   1      33.191  19.548  25.288  1.00  0.00     0.044 C 
ENDBRANCH  15  27
BRANCH   7  34
ATOM     34  C   UNL A   1      30.896  27.342  21.814  1.00  0.00     0.115 C 
BRANCH  34  35
ATOM     35  C   UNL A   1      29.862  28.310  22.370  1.00  0.00    -0.041 A 
ATOM     36  C   UNL A   1      30.093  29.691  22.296  1.00  0.00     0.004 A 
ATOM     37  C   UNL A   1      28.670  27.875  22.970  1.00  0.00     0.004 A 
ATOM     38  C   UNL A   1      29.130  30.603  22.738  1.00  0.00     0.000 A 
ATOM     39  C   UNL A   1      27.693  28.784  23.379  1.00  0.00     0.000 A 
ATOM     40  C   UNL A   1      27.921  30.150  23.256  1.00  0.00     0.000 A 
ENDBRANCH  34  35
ENDBRANCH   7  34
ENDBRANCH   4   7
ENDBRANCH   2   3
ENDBRANCH   1   2
BRANCH   1  41
ATOM     41  C   UNL A   1      35.853  23.368  25.281  1.00  0.00     0.118 C 
BRANCH  41  42
ATOM     42  N   UNL A   1      36.546  22.086  25.339  1.00  0.00    -0.352 N 
ATOM     43  C   UNL A   1      37.855  21.846  25.684  1.00  0.00     0.251 C 
ATOM     44  H   UNL A   1      36.011  21.294  25.099  1.00  0.00     0.163 HD
ATOM     45  O   UNL A   1      38.384  20.771  25.425  1.00  0.00    -0.269 OA
BRANCH  43  46
ATOM     46  C   UNL A   1      38.608  22.921  26.358  1.00  0.00     0.039 A 
ATOM     47  C   UNL A   1      39.696  22.602  27.171  1.00  0.00     0.014 A 
ATOM     48  C   UNL A   1      38.268  24.252  26.110  1.00  0.00     0.014 A 
ATOM     49  C   UNL A   1      40.486  23.632  27.687  1.00  0.00     0.010 A 
ATOM     50  C   UNL A   1      39.126  25.260  26.512  1.00  0.00     0.010 A 
ATOM     51  C   UNL A   1      40.227  24.965  27.329  1.00  0.00    -0.014 A 
BRANCH  51  52
ATOM     52  C   UNL A   1      41.055  26.092  27.820  1.00  0.00     0.031 A 
ATOM     53  C   UNL A   1      40.411  27.155  28.672  1.00  0.00     0.074 A 
ATOM     54  C   UNL A   1      42.332  26.223  27.410  1.00  0.00     0.049 A 
ATOM     55  N   UNL A   1      40.901  28.294  29.079  1.00  0.00    -0.248 NA
ATOM     56  C   UNL A   1      39.012  26.927  29.078  1.00  0.00     0.031 C 
ATOM     57  C   UNL A   1      43.039  25.296  26.523  1.00  0.00     0.029 A 
ATOM     58  N   UNL A   1      43.252  27.210  27.660  1.00  0.00    -0.354 N 
ATOM     59  C   UNL A   1      39.860  28.938  29.738  1.00  0.00     0.074 A 
ATOM     60  C   UNL A   1      38.698  28.086  29.634  1.00  0.00     0.031 C 
ATOM     61  C   UNL A   1      44.283  25.755  26.308  1.00  0.00     0.029 A 
ATOM     62  C   UNL A   1      44.447  27.027  27.003  1.00  0.00     0.049 A 
ATOM     63  H   UNL A   1      43.073  27.976  28.251  1.00  0.00     0.167 HD
ATOM     64  C   UNL A   1      39.877  30.117  30.400  1.00  0.00     0.034 A 
ATOM     65  C   UNL A   1      45.544  27.808  26.955  1.00  0.00     0.034 A 
ATOM     66  C   UNL A   1      41.052  30.928  30.546  1.00  0.00     0.049 A 
ATOM     67  C   UNL A   1      45.550  29.098  27.732  1.00  0.00     0.074 A 
ATOM     68  C   UNL A   1      41.207  32.091  31.277  1.00  0.00     0.029 A 
ATOM     69  N   UNL A   1      42.273  30.660  29.947  1.00  0.00    -0.354 N 
ATOM     70  N   UNL A   1      44.602  29.622  28.469  1.00  0.00    -0.248 NA
ATOM     71  C   UNL A   1      46.789  29.889  27.699  1.00  0.00     0.031 C 
ATOM     72  C   UNL A   1      42.515  32.547  31.091  1.00  0.00     0.029 A 
ATOM     73  C   UNL A   1      43.186  31.643  30.281  1.00  0.00     0.049 A 
ATOM     74  H   UNL A   1      42.462  29.885  29.370  1.00  0.00     0.167 HD
ATOM     75  C   UNL A   1      45.139  30.779  29.019  1.00  0.00     0.074 A 
ATOM     76  C   UNL A   1      46.502  30.873  28.540  1.00  0.00     0.031 C 
ATOM     77  C   UNL A   1      44.556  31.686  29.839  1.00  0.00     0.034 A 
BRANCH  64  78
ATOM     78  C   UNL A   1      38.599  30.574  31.052  1.00  0.00     0.023 A 
ATOM     79  C   UNL A   1      38.128  29.918  32.210  1.00  0.00     0.012 A 
ATOM     80  C   UNL A   1      37.887  31.678  30.547  1.00  0.00     0.148 A 
ATOM     81  C   UNL A   1      36.948  30.328  32.829  1.00  0.00     0.002 A 
ATOM     82  C   UNL A   1      36.740  32.115  31.200  1.00  0.00     0.091 A 
ATOM     83  F   UNL A   1      38.336  32.274  29.434  1.00  0.00    -0.205 F 
ATOM     84  C   UNL A   1      36.261  31.432  32.330  1.00  0.00     0.022 A 
BRANCH  82  85
ATOM     85  S   UNL A   1      35.831  33.576  30.690  1.00  0.00     0.127 S 
ATOM     86  O   UNL A   1      34.450  33.101  30.754  1.00  0.00    -0.237 OA
ATOM     87  O   UNL A   1      36.194  34.540  31.730  1.00  0.00    -0.237 OA
ATOM     88  O   UNL A   1      36.316  33.907  29.357  1.00  0.00    -0.744 OA
ENDBRANCH  82  85
ENDBRANCH  64  78
BRANCH  65  89
ATOM     89  C   UNL A   1      46.741  27.369  26.183  1.00  0.00     0.023 A 
ATOM     90  C   UNL A   1      46.806  27.630  24.800  1.00  0.00     0.012 A 
ATOM     91  C   UNL A   1      47.820  26.719  26.811  1.00  0.00     0.148 A 
ATOM     92  C   UNL A   1      47.908  27.219  24.050  1.00  0.00     0.002 A 
ATOM     93  C   UNL A   1      48.939  26.361  26.068  1.00  0.00     0.091 A 
ATOM     94  F   UNL A   1      47.737  26.475  28.127  1.00  0.00    -0.205 F 
ATOM     95  C   UNL A   1      48.978  26.594  24.685  1.00  0.00     0.022 A 
BRANCH  93  96
ATOM     96  S   UNL A   1      50.413  25.661  26.821  1.00  0.00     0.127 S 
ATOM     97  O   UNL A   1      49.897  24.417  27.384  1.00  0.00    -0.237 OA
ATOM     98  O   UNL A   1      51.292  25.496  25.663  1.00  0.00    -0.237 OA
ATOM     99  O   UNL A   1      50.872  26.649  27.789  1.00  0.00    -0.744 OA
ENDBRANCH  93  96
ENDBRANCH  65  89
BRANCH  77 100
ATOM    100  C   UNL A   1      45.394  32.836  30.328  1.00  0.00     0.023 A 
ATOM    101  C   UNL A   1      46.175  32.696  31.492  1.00  0.00     0.012 A 
ATOM    102  C   UNL A   1      45.490  34.016  29.563  1.00  0.00     0.148 A 
ATOM    103  C   UNL A   1      47.022  33.726  31.900  1.00  0.00     0.002 A 
ATOM    104  C   UNL A   1      46.376  35.013  29.946  1.00  0.00     0.091 A 
ATOM    105  F   UNL A   1      44.726  34.131  28.468  1.00  0.00    -0.205 F 
ATOM    106  C   UNL A   1      47.134  34.876  31.121  1.00  0.00     0.022 A 
BRANCH 104 107
ATOM    107  S   UNL A   1      46.666  36.481  28.952  1.00  0.00     0.127 S 
ATOM    108  O   UNL A   1      47.104  35.899  27.684  1.00  0.00    -0.237 OA
ATOM    109  O   UNL A   1      45.338  37.095  28.917  1.00  0.00    -0.237 OA
ATOM    110  O   UNL A   1      47.674  37.256  29.659  1.00  0.00    -0.744 OA
ENDBRANCH 104 107
ENDBRANCH  77 100
ENDBRANCH  51  52
ENDBRANCH  43  46
ENDBRANCH  41  42
ENDBRANCH   1  41
TORSDOF 18
ENDMDL
MODEL 3
REMARK VINA RESULT:     -11.3      8.341     16.321
REMARK SMILES COc1ccccc1N1C(=O)[C@@H]2[C@@H](C1=O)[C@@](Cc1ccccc1)(C(=O)NCCCNC(=O)c1ccc(-c3c4nc(c(-c5cccc(S(=O)(=O)[O-])c5F)c5ccc([nH]5)c(-c5cccc(S(=O)(=O)[O-])c5F)c5nc(c(-c6cccc(S(=O)(=O)[O-])c6F)c6ccc3[nH]6)C=C5)C=C4)cc1)[NH2+][C@H]2c1ccc(C)cc1
REMARK SMILES IDX 28 1 27 2 26 3 24 4 25 5 16 7 9 8 10 9 14 10 11 11 12 12
REMARK SMILES IDX 13 13 15 14 97 15 96 16 8 19 3 20 4 21 5 22 7 23 6 24 2 25
REMARK SMILES IDX 1 26 98 27 99 28 104 29 100 30 103 31 101 32 102 33 17 34
REMARK SMILES IDX 18 35 19 36 23 37 20 38 22 39 21 40 29 41 30 42 31 43 32 45
REMARK SMILES IDX 33 46 34 47 95 48 35 49 94 50 36 51 37 52 38 53 88 54 39 55
REMARK SMILES IDX 93 56 87 57 89 58 40 59 92 60 86 61 85 62 41 64 73 65 53 66
REMARK SMILES IDX 72 67 54 68 57 69 71 70 90 71 55 72 56 73 70 75 91 76 58 77
REMARK SMILES IDX 42 78 43 79 51 80 44 81 46 82 52 83 45 84 47 85 48 86 49 87
REMARK SMILES IDX 50 88 74 89 75 90 83 91 76 92 78 93 84 94 77 95 79 96 80 97
REMARK SMILES IDX 81 98 82 99 59 100 60 101 68 102 61 103 63 104 69 105 62 106
REMARK SMILES IDX 64 107 65 108 66 109 67 110
REMARK H PARENT 26 6 96 17 96 18 30 44 89 63 57 74
REMARK Flexibility Score: inf
ROOT
ATOM      1  C   UNL A   1      47.170  38.776  25.201  1.00  0.00     0.042 C 
ENDROOT
BRANCH   1   2
ATOM      2  C   UNL A   1      46.115  39.643  25.870  1.00  0.00     0.118 C 
BRANCH   2   3
ATOM      3  N   UNL A   1      46.236  39.607  27.309  1.00  0.00    -0.351 N 
ATOM      4  C   UNL A   1      45.607  40.202  28.343  1.00  0.00     0.282 C 
ATOM      5  O   UNL A   1      46.093  39.905  29.451  1.00  0.00    -0.268 OA
ATOM      6  H   UNL A   1      46.950  38.998  27.607  1.00  0.00     0.163 HD
BRANCH   4   7
ATOM      7  C   UNL A   1      44.409  41.208  28.310  1.00  0.00     0.192 C 
ATOM      8  N   UNL A   1      43.965  42.786  24.991  1.00  0.00    -0.246 N 
ATOM      9  C   UNL A   1      44.728  43.708  25.711  1.00  0.00     0.244 C 
ATOM     10  C   UNL A   1      43.643  41.670  25.754  1.00  0.00     0.245 C 
ATOM     11  O   UNL A   1      45.040  44.844  25.402  1.00  0.00    -0.273 OA
ATOM     12  C   UNL A   1      45.184  42.965  26.936  1.00  0.00     0.162 C 
ATOM     13  C   UNL A   1      43.994  42.056  27.147  1.00  0.00     0.170 C 
ATOM     14  O   UNL A   1      43.207  40.593  25.396  1.00  0.00    -0.273 OA
ATOM     15  C   UNL A   1      45.438  43.473  28.338  1.00  0.00     0.228 C 
ATOM     16  N   UNL A   1      44.837  42.390  29.200  1.00  0.00    -0.326 N 
ATOM     17  H   UNL A   1      45.528  42.073  29.879  1.00  0.00     0.347 HD
ATOM     18  H   UNL A   1      44.023  42.760  29.692  1.00  0.00     0.347 HD
BRANCH   8  19
ATOM     19  C   UNL A   1      43.658  42.867  23.611  1.00  0.00     0.094 A 
ATOM     20  C   UNL A   1      44.656  42.850  22.617  1.00  0.00     0.143 A 
ATOM     21  C   UNL A   1      44.334  43.134  21.284  1.00  0.00     0.048 A 
ATOM     22  C   UNL A   1      43.020  43.419  20.922  1.00  0.00     0.004 A 
ATOM     23  C   UNL A   1      42.331  43.117  23.224  1.00  0.00     0.031 A 
ATOM     24  C   UNL A   1      42.019  43.410  21.891  1.00  0.00     0.002 A 
BRANCH  20  25
ATOM     25  O   UNL A   1      45.989  42.611  22.844  1.00  0.00    -0.495 OA
ATOM     26  C   UNL A   1      46.842  43.123  21.824  1.00  0.00     0.278 C 
ENDBRANCH  20  25
ENDBRANCH   8  19
BRANCH  15  27
ATOM     27  C   UNL A   1      46.909  43.730  28.644  1.00  0.00     0.010 A 
ATOM     28  C   UNL A   1      47.677  44.673  27.939  1.00  0.00     0.010 A 
ATOM     29  C   UNL A   1      47.548  43.048  29.690  1.00  0.00     0.010 A 
ATOM     30  C   UNL A   1      49.005  44.949  28.269  1.00  0.00     0.004 A 
ATOM     31  C   UNL A   1      48.888  43.315  30.021  1.00  0.00     0.004 A 
ATOM     32  C   UNL A   1      49.625  44.271  29.314  1.00  0.00    -0.051 A 
ATOM     33  C   UNL A   1      51.037  44.614  29.689  1.00  0.00     0.044 C 
ENDBRANCH  15  27
BRANCH   7  34
ATOM     34  C   UNL A   1      43.204  40.481  28.984  1.00  0.00     0.115 C 
BRANCH  34  35
ATOM     35  C   UNL A   1      42.918  40.856  30.431  1.00  0.00    -0.041 A 
ATOM     36  C   UNL A   1      43.355  40.016  31.465  1.00  0.00     0.004 A 
ATOM     37  C   UNL A   1      42.220  42.022  30.782  1.00  0.00     0.004 A 
ATOM     38  C   UNL A   1      43.165  40.371  32.804  1.00  0.00     0.000 A 
ATOM     39  C   UNL A   1      42.062  42.394  32.118  1.00  0.00     0.000 A 
ATOM     40  C   UNL A   1      42.541  41.571  33.130  1.00  0.00     0.000 A 
ENDBRANCH  34  35
ENDBRANCH   7  34
ENDBRANCH   4   7
ENDBRANCH   2   3
ENDBRANCH   1   2
BRANCH   1  41
ATOM     41  C   UNL A   1      47.362  37.481  25.954  1.00  0.00     0.118 C 
BRANCH  41  42
ATOM     42  N   UNL A   1      46.690  36.382  25.269  1.00  0.00    -0.352 N 
ATOM     43  C   UNL A   1      45.924  35.382  25.821  1.00  0.00     0.251 C 
ATOM     44  H   UNL A   1      46.801  36.350  24.291  1.00  0.00     0.163 HD
ATOM     45  O   UNL A   1      45.654  34.374  25.178  1.00  0.00    -0.269 OA
BRANCH  43  46
ATOM     46  C   UNL A   1      45.453  35.549  27.209  1.00  0.00     0.039 A 
ATOM     47  C   UNL A   1      44.449  36.475  27.495  1.00  0.00     0.014 A 
ATOM     48  C   UNL A   1      45.964  34.720  28.209  1.00  0.00     0.014 A 
ATOM     49  C   UNL A   1      43.913  36.522  28.784  1.00  0.00     0.010 A 
ATOM     50  C   UNL A   1      45.343  34.679  29.443  1.00  0.00     0.010 A 
ATOM     51  C   UNL A   1      44.331  35.598  29.755  1.00  0.00    -0.014 A 
BRANCH  51  52
ATOM     52  C   UNL A   1      43.769  35.582  31.126  1.00  0.00     0.031 A 
ATOM     53  C   UNL A   1      42.472  34.857  31.376  1.00  0.00     0.074 A 
ATOM     54  C   UNL A   1      44.349  36.306  32.104  1.00  0.00     0.049 A 
ATOM     55  N   UNL A   1      41.730  34.841  32.450  1.00  0.00    -0.248 NA
ATOM     56  C   UNL A   1      41.912  34.086  30.251  1.00  0.00     0.031 C 
ATOM     57  C   UNL A   1      45.565  37.110  31.959  1.00  0.00     0.029 A 
ATOM     58  N   UNL A   1      43.970  36.509  33.407  1.00  0.00    -0.354 N 
ATOM     59  C   UNL A   1      40.597  34.110  32.113  1.00  0.00     0.074 A 
ATOM     60  C   UNL A   1      40.725  33.741  30.722  1.00  0.00     0.031 C 
ATOM     61  C   UNL A   1      45.835  37.713  33.128  1.00  0.00     0.029 A 
ATOM     62  C   UNL A   1      44.790  37.376  34.090  1.00  0.00     0.049 A 
ATOM     63  H   UNL A   1      43.186  36.076  33.814  1.00  0.00     0.167 HD
ATOM     64  C   UNL A   1      39.557  33.749  32.899  1.00  0.00     0.034 A 
ATOM     65  C   UNL A   1      44.699  37.859  35.345  1.00  0.00     0.034 A 
ATOM     66  C   UNL A   1      39.468  34.072  34.294  1.00  0.00     0.049 A 
ATOM     67  C   UNL A   1      43.552  37.410  36.212  1.00  0.00     0.074 A 
ATOM     68  C   UNL A   1      38.509  33.676  35.208  1.00  0.00     0.029 A 
ATOM     69  N   UNL A   1      40.370  34.872  34.976  1.00  0.00    -0.354 N 
ATOM     70  N   UNL A   1      42.564  36.601  35.919  1.00  0.00    -0.248 NA
ATOM     71  C   UNL A   1      43.525  37.914  37.593  1.00  0.00     0.031 C 
ATOM     72  C   UNL A   1      38.813  34.266  36.437  1.00  0.00     0.029 A 
ATOM     73  C   UNL A   1      39.985  34.994  36.298  1.00  0.00     0.049 A 
ATOM     74  H   UNL A   1      41.167  35.293  34.578  1.00  0.00     0.167 HD
ATOM     75  C   UNL A   1      41.821  36.465  37.085  1.00  0.00     0.074 A 
ATOM     76  C   UNL A   1      42.482  37.267  38.094  1.00  0.00     0.031 C 
ATOM     77  C   UNL A   1      40.691  35.750  37.301  1.00  0.00     0.034 A 
BRANCH  64  78
ATOM     78  C   UNL A   1      38.460  32.925  32.277  1.00  0.00     0.023 A 
ATOM     79  C   UNL A   1      38.518  31.517  32.339  1.00  0.00     0.012 A 
ATOM     80  C   UNL A   1      37.351  33.545  31.670  1.00  0.00     0.148 A 
ATOM     81  C   UNL A   1      37.511  30.738  31.771  1.00  0.00     0.002 A 
ATOM     82  C   UNL A   1      36.324  32.762  31.153  1.00  0.00     0.091 A 
ATOM     83  F   UNL A   1      37.324  34.882  31.600  1.00  0.00    -0.205 F 
ATOM     84  C   UNL A   1      36.410  31.361  31.188  1.00  0.00     0.022 A 
BRANCH  82  85
ATOM     85  S   UNL A   1      34.826  33.466  30.459  1.00  0.00     0.127 S 
ATOM     86  O   UNL A   1      35.367  34.417  29.491  1.00  0.00    -0.237 OA
ATOM     87  O   UNL A   1      34.183  32.292  29.867  1.00  0.00    -0.237 OA
ATOM     88  O   UNL A   1      34.103  34.057  31.577  1.00  0.00    -0.744 OA
ENDBRANCH  82  85
ENDBRANCH  64  78
BRANCH  65  89
ATOM     89  C   UNL A   1      45.746  38.779  35.871  1.00  0.00     0.023 A 
ATOM     90  C   UNL A   1      47.001  38.256  36.246  1.00  0.00     0.012 A 
ATOM     91  C   UNL A   1      45.520  40.163  35.980  1.00  0.00     0.148 A 
ATOM     92  C   UNL A   1      47.995  39.091  36.754  1.00  0.00     0.002 A 
ATOM     93  C   UNL A   1      46.534  40.998  36.436  1.00  0.00     0.091 A 
ATOM     94  F   UNL A   1      44.318  40.640  35.623  1.00  0.00    -0.205 F 
ATOM     95  C   UNL A   1      47.766  40.462  36.840  1.00  0.00     0.022 A 
BRANCH  93  96
ATOM     96  S   UNL A   1      46.370  42.787  36.466  1.00  0.00     0.127 S 
ATOM     97  O   UNL A   1      47.691  43.198  36.933  1.00  0.00    -0.237 OA
ATOM     98  O   UNL A   1      46.093  43.086  35.061  1.00  0.00    -0.237 OA
ATOM     99  O   UNL A   1      45.264  43.070  37.371  1.00  0.00    -0.744 OA
ENDBRANCH  93  96
ENDBRANCH  65  89
BRANCH  77 100
ATOM    100  C   UNL A   1      40.115  35.744  38.691  1.00  0.00     0.023 A 
ATOM    101  C   UNL A   1      39.276  36.793  39.113  1.00  0.00     0.012 A 
ATOM    102  C   UNL A   1      40.320  34.634  39.535  1.00  0.00     0.148 A 
ATOM    103  C   UNL A   1      38.668  36.748  40.367  1.00  0.00     0.002 A 
ATOM    104  C   UNL A   1      39.668  34.571  40.759  1.00  0.00     0.091 A 
ATOM    105  F   UNL A   1      41.134  33.655  39.116  1.00  0.00    -0.205 F 
ATOM    106  C   UNL A   1      38.852  35.633  41.183  1.00  0.00     0.022 A 
BRANCH 104 107
ATOM    107  S   UNL A   1      39.759  33.131  41.828  1.00  0.00     0.127 S 
ATOM    108  O   UNL A   1      39.337  32.062  40.924  1.00  0.00    -0.237 OA
ATOM    109  O   UNL A   1      41.178  33.104  42.187  1.00  0.00    -0.237 OA
ATOM    110  O   UNL A   1      38.857  33.395  42.940  1.00  0.00    -0.744 OA
ENDBRANCH 104 107
ENDBRANCH  77 100
ENDBRANCH  51  52
ENDBRANCH  43  46
ENDBRANCH  41  42
ENDBRANCH   1  41
TORSDOF 18
ENDMDL
