MODEL 1
REMARK VINA RESULT:     -10.8      0.000      0.000
REMARK SMILES CC(C)(C(=O)NCCCNC(=O)c1ccc(-c2c3nc(c(-c4cccc(S(=O)(=O)[O-])c4F)c4ccc([nH]4)c(-c4cccc(S(=O)(=O)[O-])c4F)c4nc(c(-c5cccc(S(=O)(=O)[O-])c5F)c5ccc2[nH]5)C=C4)C=C3)cc1)C1CCCCC1
REMARK SMILES IDX 9 1 8 2 7 3 6 4 4 5 5 6 2 8 1 9 3 10 76 11 77 12 81 13 78 14
REMARK SMILES IDX 80 15 79 16 10 17 11 18 12 20 13 21 14 22 75 23 15 24 74 25
REMARK SMILES IDX 16 26 17 27 18 28 68 29 19 30 73 31 67 32 69 33 20 34 72 35
REMARK SMILES IDX 66 36 65 37 21 39 53 40 33 41 52 42 34 43 37 44 51 45 70 46
REMARK SMILES IDX 35 47 36 48 50 50 71 51 38 52 22 53 23 54 31 55 24 56 26 57
REMARK SMILES IDX 32 58 25 59 27 60 28 61 29 62 30 63 54 64 55 65 63 66 56 67
REMARK SMILES IDX 58 68 64 69 57 70 59 71 60 72 61 73 62 74 39 75 40 76 48 77
REMARK SMILES IDX 41 78 43 79 49 80 42 81 44 82 45 83 46 84 47 85
REMARK H PARENT 6 7 10 19 69 38 37 49
REMARK Flexibility Score: inf
ROOT
ATOM      1  C   UNL A   1      34.999  33.415  28.343  1.00  0.00     0.118 C 
ENDROOT
BRANCH   1   2
ATOM      2  C   UNL A   1      34.268  34.748  28.236  1.00  0.00     0.042 C 
BRANCH   2   3
ATOM      3  C   UNL A   1      33.102  34.902  29.203  1.00  0.00     0.117 C 
BRANCH   3   4
ATOM      4  N   UNL A   1      33.019  36.236  29.765  1.00  0.00    -0.356 N 
ATOM      5  C   UNL A   1      33.155  36.737  31.018  1.00  0.00     0.225 C 
ATOM      6  O   UNL A   1      33.048  37.966  31.089  1.00  0.00    -0.275 OA
ATOM      7  H   UNL A   1      32.822  36.927  29.092  1.00  0.00     0.163 HD
BRANCH   5   8
ATOM      8  C   UNL A   1      33.452  35.859  32.261  1.00  0.00     0.046 C 
ATOM      9  C   UNL A   1      33.904  36.740  33.444  1.00  0.00     0.022 C 
ATOM     10  C   UNL A   1      32.178  35.079  32.653  1.00  0.00     0.022 C 
BRANCH   8  11
ATOM     11  C   UNL A   1      34.605  34.801  31.967  1.00  0.00     0.004 C 
ATOM     12  C   UNL A   1      35.932  35.105  32.705  1.00  0.00     0.005 C 
ATOM     13  C   UNL A   1      34.176  33.325  32.158  1.00  0.00     0.005 C 
ATOM     14  C   UNL A   1      37.024  34.085  32.395  1.00  0.00     0.000 C 
ATOM     15  C   UNL A   1      35.308  32.338  31.879  1.00  0.00     0.000 C 
ATOM     16  C   UNL A   1      36.558  32.667  32.684  1.00  0.00     0.000 C 
ENDBRANCH   8  11
ENDBRANCH   5   8
ENDBRANCH   3   4
ENDBRANCH   2   3
ENDBRANCH   1   2
BRANCH   1  17
ATOM     17  N   UNL A   1      34.148  32.280  28.015  1.00  0.00    -0.352 N 
ATOM     18  C   UNL A   1      34.448  30.949  27.862  1.00  0.00     0.251 C 
ATOM     19  H   UNL A   1      33.198  32.504  27.879  1.00  0.00     0.163 HD
ATOM     20  O   UNL A   1      33.604  30.203  27.370  1.00  0.00    -0.269 OA
BRANCH  18  21
ATOM     21  C   UNL A   1      35.761  30.408  28.276  1.00  0.00     0.039 A 
ATOM     22  C   UNL A   1      35.851  29.710  29.484  1.00  0.00     0.014 A 
ATOM     23  C   UNL A   1      36.915  30.637  27.523  1.00  0.00     0.014 A 
ATOM     24  C   UNL A   1      37.085  29.218  29.916  1.00  0.00     0.010 A 
ATOM     25  C   UNL A   1      38.124  30.063  27.904  1.00  0.00     0.010 A 
ATOM     26  C   UNL A   1      38.232  29.377  29.120  1.00  0.00    -0.014 A 
BRANCH  26  27
ATOM     27  C   UNL A   1      39.557  28.879  29.571  1.00  0.00     0.031 A 
ATOM     28  C   UNL A   1      40.284  29.578  30.691  1.00  0.00     0.074 A 
ATOM     29  C   UNL A   1      40.134  27.841  28.935  1.00  0.00     0.049 A 
ATOM     30  N   UNL A   1      41.455  29.307  31.209  1.00  0.00    -0.248 NA
ATOM     31  C   UNL A   1      39.628  30.755  31.287  1.00  0.00     0.031 C 
ATOM     32  C   UNL A   1      39.572  27.136  27.780  1.00  0.00     0.029 A 
ATOM     33  N   UNL A   1      41.332  27.210  29.158  1.00  0.00    -0.354 N 
ATOM     34  C   UNL A   1      41.690  30.298  32.156  1.00  0.00     0.074 A 
ATOM     35  C   UNL A   1      40.563  31.201  32.112  1.00  0.00     0.031 C 
ATOM     36  C   UNL A   1      40.418  26.164  27.405  1.00  0.00     0.029 A 
ATOM     37  C   UNL A   1      41.588  26.185  28.276  1.00  0.00     0.049 A 
ATOM     38  H   UNL A   1      41.949  27.466  29.881  1.00  0.00     0.167 HD
ATOM     39  C   UNL A   1      42.730  30.426  33.014  1.00  0.00     0.034 A 
ATOM     40  C   UNL A   1      42.645  25.353  28.187  1.00  0.00     0.034 A 
ATOM     41  C   UNL A   1      43.818  29.492  33.098  1.00  0.00     0.049 A 
ATOM     42  C   UNL A   1      43.748  25.466  29.205  1.00  0.00     0.074 A 
ATOM     43  C   UNL A   1      44.877  29.479  33.989  1.00  0.00     0.029 A 
ATOM     44  N   UNL A   1      43.986  28.398  32.261  1.00  0.00    -0.354 N 
ATOM     45  N   UNL A   1      43.873  26.314  30.198  1.00  0.00    -0.248 NA
ATOM     46  C   UNL A   1      44.834  24.478  29.120  1.00  0.00     0.031 C 
ATOM     47  C   UNL A   1      45.691  28.383  33.683  1.00  0.00     0.029 A 
ATOM     48  C   UNL A   1      45.127  27.702  32.617  1.00  0.00     0.049 A 
ATOM     49  H   UNL A   1      43.382  28.155  31.523  1.00  0.00     0.167 HD
ATOM     50  C   UNL A   1      45.022  25.934  30.881  1.00  0.00     0.074 A 
ATOM     51  C   UNL A   1      45.548  24.770  30.199  1.00  0.00     0.031 C 
ATOM     52  C   UNL A   1      45.599  26.505  31.967  1.00  0.00     0.034 A 
BRANCH  39  53
ATOM     53  C   UNL A   1      42.704  31.586  33.976  1.00  0.00     0.023 A 
ATOM     54  C   UNL A   1      43.221  32.835  33.573  1.00  0.00     0.012 A 
ATOM     55  C   UNL A   1      42.128  31.460  35.256  1.00  0.00     0.148 A 
ATOM     56  C   UNL A   1      43.203  33.927  34.439  1.00  0.00     0.002 A 
ATOM     57  C   UNL A   1      42.072  32.566  36.097  1.00  0.00     0.091 A 
ATOM     58  F   UNL A   1      41.661  30.261  35.632  1.00  0.00    -0.205 F 
ATOM     59  C   UNL A   1      42.620  33.796  35.695  1.00  0.00     0.022 A 
BRANCH  57  60
ATOM     60  S   UNL A   1      41.267  32.522  37.702  1.00  0.00     0.127 S 
ATOM     61  O   UNL A   1      41.322  33.929  38.099  1.00  0.00    -0.237 OA
ATOM     62  O   UNL A   1      39.929  32.037  37.364  1.00  0.00    -0.237 OA
ATOM     63  O   UNL A   1      42.054  31.610  38.520  1.00  0.00    -0.744 OA
ENDBRANCH  57  60
ENDBRANCH  39  53
BRANCH  40  64
ATOM     64  C   UNL A   1      42.660  24.277  27.156  1.00  0.00     0.023 A 
ATOM     65  C   UNL A   1      43.354  24.489  25.949  1.00  0.00     0.012 A 
ATOM     66  C   UNL A   1      42.020  23.042  27.372  1.00  0.00     0.148 A 
ATOM     67  C   UNL A   1      43.382  23.505  24.961  1.00  0.00     0.002 A 
ATOM     68  C   UNL A   1      42.097  22.045  26.406  1.00  0.00     0.091 A 
ATOM     69  F   UNL A   1      41.357  22.863  28.523  1.00  0.00    -0.205 F 
ATOM     70  C   UNL A   1      42.762  22.280  25.193  1.00  0.00     0.022 A 
BRANCH  68  71
ATOM     71  S   UNL A   1      41.441  20.394  26.676  1.00  0.00     0.127 S 
ATOM     72  O   UNL A   1      42.157  19.981  27.882  1.00  0.00    -0.237 OA
ATOM     73  O   UNL A   1      40.015  20.665  26.871  1.00  0.00    -0.237 OA
ATOM     74  O   UNL A   1      41.749  19.648  25.468  1.00  0.00    -0.744 OA
ENDBRANCH  68  71
ENDBRANCH  40  64
BRANCH  52  75
ATOM     75  C   UNL A   1      46.838  25.855  32.524  1.00  0.00     0.023 A 
ATOM     76  C   UNL A   1      48.109  26.267  32.081  1.00  0.00     0.012 A 
ATOM     77  C   UNL A   1      46.740  24.883  33.540  1.00  0.00     0.148 A 
ATOM     78  C   UNL A   1      49.264  25.696  32.614  1.00  0.00     0.002 A 
ATOM     79  C   UNL A   1      47.896  24.355  34.101  1.00  0.00     0.091 A 
ATOM     80  F   UNL A   1      45.521  24.488  33.934  1.00  0.00    -0.205 F 
ATOM     81  C   UNL A   1      49.158  24.750  33.631  1.00  0.00     0.022 A 
BRANCH  79  82
ATOM     82  S   UNL A   1      47.848  23.207  35.482  1.00  0.00     0.127 S 
ATOM     83  O   UNL A   1      47.072  23.960  36.467  1.00  0.00    -0.237 OA
ATOM     84  O   UNL A   1      47.151  22.054  34.909  1.00  0.00    -0.237 OA
ATOM     85  O   UNL A   1      49.237  22.953  35.836  1.00  0.00    -0.744 OA
ENDBRANCH  79  82
ENDBRANCH  52  75
ENDBRANCH  26  27
ENDBRANCH  18  21
ENDBRANCH   1  17
TORSDOF 14
ENDMDL
MODEL 2
REMARK VINA RESULT:     -10.6      3.617      6.037
REMARK SMILES CC(C)(C(=O)NCCCNC(=O)c1ccc(-c2c3nc(c(-c4cccc(S(=O)(=O)[O-])c4F)c4ccc([nH]4)c(-c4cccc(S(=O)(=O)[O-])c4F)c4nc(c(-c5cccc(S(=O)(=O)[O-])c5F)c5ccc2[nH]5)C=C4)C=C3)cc1)C1CCCCC1
REMARK SMILES IDX 9 1 8 2 7 3 6 4 4 5 5 6 2 8 1 9 3 10 76 11 77 12 81 13 78 14
REMARK SMILES IDX 80 15 79 16 10 17 11 18 12 20 13 21 14 22 75 23 15 24 74 25
REMARK SMILES IDX 16 26 17 27 18 28 68 29 19 30 73 31 67 32 69 33 20 34 72 35
REMARK SMILES IDX 66 36 65 37 21 39 53 40 33 41 52 42 34 43 37 44 51 45 70 46
REMARK SMILES IDX 35 47 36 48 50 50 71 51 38 52 22 53 23 54 31 55 24 56 26 57
REMARK SMILES IDX 32 58 25 59 27 60 28 61 29 62 30 63 54 64 55 65 63 66 56 67
REMARK SMILES IDX 58 68 64 69 57 70 59 71 60 72 61 73 62 74 39 75 40 76 48 77
REMARK SMILES IDX 41 78 43 79 49 80 42 81 44 82 45 83 46 84 47 85
REMARK H PARENT 6 7 10 19 69 38 37 49
REMARK Flexibility Score: inf
ROOT
ATOM      1  C   UNL A   1      32.824  29.285  25.480  1.00  0.00     0.118 C 
ENDROOT
BRANCH   1   2
ATOM      2  C   UNL A   1      31.877  28.240  26.058  1.00  0.00     0.042 C 
BRANCH   2   3
ATOM      3  C   UNL A   1      32.041  26.848  25.463  1.00  0.00     0.117 C 
BRANCH   3   4
ATOM      4  N   UNL A   1      31.545  25.806  26.341  1.00  0.00    -0.356 N 
ATOM      5  C   UNL A   1      31.482  24.454  26.252  1.00  0.00     0.225 C 
ATOM      6  O   UNL A   1      31.011  23.899  27.251  1.00  0.00    -0.275 OA
ATOM      7  H   UNL A   1      31.174  26.156  27.184  1.00  0.00     0.163 HD
BRANCH   5   8
ATOM      8  C   UNL A   1      31.984  23.655  25.022  1.00  0.00     0.046 C 
ATOM      9  C   UNL A   1      31.778  22.142  25.245  1.00  0.00     0.022 C 
ATOM     10  C   UNL A   1      31.206  24.105  23.766  1.00  0.00     0.022 C 
BRANCH   8  11
ATOM     11  C   UNL A   1      33.534  23.906  24.755  1.00  0.00     0.004 C 
ATOM     12  C   UNL A   1      34.407  23.820  26.031  1.00  0.00     0.005 C 
ATOM     13  C   UNL A   1      34.126  23.054  23.605  1.00  0.00     0.005 C 
ATOM     14  C   UNL A   1      35.884  24.078  25.751  1.00  0.00     0.000 C 
ATOM     15  C   UNL A   1      35.616  23.310  23.384  1.00  0.00     0.000 C 
ATOM     16  C   UNL A   1      36.416  23.150  24.670  1.00  0.00     0.000 C 
ENDBRANCH   8  11
ENDBRANCH   5   8
ENDBRANCH   3   4
ENDBRANCH   2   3
ENDBRANCH   1   2
BRANCH   1  17
ATOM     17  N   UNL A   1      32.503  30.636  25.917  1.00  0.00    -0.352 N 
ATOM     18  C   UNL A   1      33.040  31.405  26.919  1.00  0.00     0.251 C 
ATOM     19  H   UNL A   1      31.779  31.071  25.410  1.00  0.00     0.163 HD
ATOM     20  O   UNL A   1      32.463  32.439  27.248  1.00  0.00    -0.269 OA
BRANCH  18  21
ATOM     21  C   UNL A   1      34.292  31.008  27.602  1.00  0.00     0.039 A 
ATOM     22  C   UNL A   1      34.390  29.717  28.131  1.00  0.00     0.014 A 
ATOM     23  C   UNL A   1      35.340  31.912  27.786  1.00  0.00     0.014 A 
ATOM     24  C   UNL A   1      35.547  29.328  28.811  1.00  0.00     0.010 A 
ATOM     25  C   UNL A   1      36.528  31.494  28.376  1.00  0.00     0.010 A 
ATOM     26  C   UNL A   1      36.634  30.209  28.926  1.00  0.00    -0.014 A 
BRANCH  26  27
ATOM     27  C   UNL A   1      37.865  29.821  29.662  1.00  0.00     0.031 A 
ATOM     28  C   UNL A   1      38.116  30.358  31.047  1.00  0.00     0.074 A 
ATOM     29  C   UNL A   1      38.785  29.039  29.064  1.00  0.00     0.049 A 
ATOM     30  N   UNL A   1      39.138  30.153  31.839  1.00  0.00    -0.248 NA
ATOM     31  C   UNL A   1      37.105  31.272  31.607  1.00  0.00     0.031 C 
ATOM     32  C   UNL A   1      38.700  28.528  27.694  1.00  0.00     0.029 A 
ATOM     33  N   UNL A   1      39.982  28.554  29.526  1.00  0.00    -0.354 N 
ATOM     34  C   UNL A   1      38.911  30.939  32.964  1.00  0.00     0.074 A 
ATOM     35  C   UNL A   1      37.679  31.659  32.736  1.00  0.00     0.031 C 
ATOM     36  C   UNL A   1      39.792  27.791  27.432  1.00  0.00     0.029 A 
ATOM     37  C   UNL A   1      40.661  27.791  28.604  1.00  0.00     0.049 A 
ATOM     38  H   UNL A   1      40.323  28.734  30.432  1.00  0.00     0.167 HD
ATOM     39  C   UNL A   1      39.640  31.026  34.102  1.00  0.00     0.034 A 
ATOM     40  C   UNL A   1      41.848  27.159  28.697  1.00  0.00     0.034 A 
ATOM     41  C   UNL A   1      40.832  30.262  34.350  1.00  0.00     0.049 A 
ATOM     42  C   UNL A   1      42.598  27.207  30.001  1.00  0.00     0.074 A 
ATOM     43  C   UNL A   1      41.598  30.209  35.502  1.00  0.00     0.029 A 
ATOM     44  N   UNL A   1      41.429  29.412  33.432  1.00  0.00    -0.354 N 
ATOM     45  N   UNL A   1      42.284  27.829  31.113  1.00  0.00    -0.248 NA
ATOM     46  C   UNL A   1      43.841  26.427  30.082  1.00  0.00     0.031 C 
ATOM     47  C   UNL A   1      42.665  29.334  35.275  1.00  0.00     0.029 A 
ATOM     48  C   UNL A   1      42.551  28.826  33.991  1.00  0.00     0.049 A 
ATOM     49  H   UNL A   1      41.103  29.250  32.518  1.00  0.00     0.167 HD
ATOM     50  C   UNL A   1      43.264  27.480  32.035  1.00  0.00     0.074 A 
ATOM     51  C   UNL A   1      44.172  26.577  31.357  1.00  0.00     0.031 C 
ATOM     52  C   UNL A   1      43.406  27.879  33.323  1.00  0.00     0.034 A 
BRANCH  39  53
ATOM     53  C   UNL A   1      39.131  31.935  35.191  1.00  0.00     0.023 A 
ATOM     54  C   UNL A   1      39.259  33.332  35.047  1.00  0.00     0.012 A 
ATOM     55  C   UNL A   1      38.482  31.416  36.330  1.00  0.00     0.148 A 
ATOM     56  C   UNL A   1      38.789  34.196  36.035  1.00  0.00     0.002 A 
ATOM     57  C   UNL A   1      37.975  32.286  37.289  1.00  0.00     0.091 A 
ATOM     58  F   UNL A   1      38.387  30.086  36.461  1.00  0.00    -0.205 F 
ATOM     59  C   UNL A   1      38.138  33.675  37.149  1.00  0.00     0.022 A 
BRANCH  57  60
ATOM     60  S   UNL A   1      37.048  31.718  38.718  1.00  0.00     0.127 S 
ATOM     61  O   UNL A   1      38.008  31.941  39.800  1.00  0.00    -0.237 OA
ATOM     62  O   UNL A   1      35.902  32.627  38.725  1.00  0.00    -0.237 OA
ATOM     63  O   UNL A   1      36.716  30.326  38.454  1.00  0.00    -0.744 OA
ENDBRANCH  57  60
ENDBRANCH  39  53
BRANCH  40  64
ATOM     64  C   UNL A   1      42.350  26.345  27.553  1.00  0.00     0.023 A 
ATOM     65  C   UNL A   1      43.206  26.941  26.606  1.00  0.00     0.012 A 
ATOM     66  C   UNL A   1      42.010  24.986  27.413  1.00  0.00     0.148 A 
ATOM     67  C   UNL A   1      43.687  26.208  25.522  1.00  0.00     0.002 A 
ATOM     68  C   UNL A   1      42.537  24.247  26.360  1.00  0.00     0.091 A 
ATOM     69  F   UNL A   1      41.188  24.440  28.319  1.00  0.00    -0.205 F 
ATOM     70  C   UNL A   1      43.361  24.861  25.403  1.00  0.00     0.022 A 
BRANCH  68  71
ATOM     71  S   UNL A   1      42.276  22.477  26.205  1.00  0.00     0.127 S 
ATOM     72  O   UNL A   1      43.024  22.169  24.987  1.00  0.00    -0.237 OA
ATOM     73  O   UNL A   1      42.880  21.973  27.441  1.00  0.00    -0.237 OA
ATOM     74  O   UNL A   1      40.836  22.298  26.127  1.00  0.00    -0.744 OA
ENDBRANCH  68  71
ENDBRANCH  40  64
BRANCH  52  75
ATOM     75  C   UNL A   1      44.558  27.308  34.108  1.00  0.00     0.023 A 
ATOM     76  C   UNL A   1      45.810  27.953  34.090  1.00  0.00     0.012 A 
ATOM     77  C   UNL A   1      44.376  26.171  34.919  1.00  0.00     0.148 A 
ATOM     78  C   UNL A   1      46.874  27.453  34.839  1.00  0.00     0.002 A 
ATOM     79  C   UNL A   1      45.427  25.708  35.702  1.00  0.00     0.091 A 
ATOM     80  F   UNL A   1      43.183  25.558  34.908  1.00  0.00    -0.205 F 
ATOM     81  C   UNL A   1      46.680  26.339  35.654  1.00  0.00     0.022 A 
BRANCH  79  82
ATOM     82  S   UNL A   1      45.230  24.342  36.852  1.00  0.00     0.127 S 
ATOM     83  O   UNL A   1      44.149  24.828  37.709  1.00  0.00    -0.237 OA
ATOM     84  O   UNL A   1      44.858  23.237  35.967  1.00  0.00    -0.237 OA
ATOM     85  O   UNL A   1      46.523  24.181  37.502  1.00  0.00    -0.744 OA
ENDBRANCH  79  82
ENDBRANCH  52  75
ENDBRANCH  26  27
ENDBRANCH  18  21
ENDBRANCH   1  17
TORSDOF 14
ENDMDL
MODEL 3
REMARK VINA RESULT:     -10.6      3.238      5.707
REMARK SMILES CC(C)(C(=O)NCCCNC(=O)c1ccc(-c2c3nc(c(-c4cccc(S(=O)(=O)[O-])c4F)c4ccc([nH]4)c(-c4cccc(S(=O)(=O)[O-])c4F)c4nc(c(-c5cccc(S(=O)(=O)[O-])c5F)c5ccc2[nH]5)C=C4)C=C3)cc1)C1CCCCC1
REMARK SMILES IDX 9 1 8 2 7 3 6 4 4 5 5 6 2 8 1 9 3 10 76 11 77 12 81 13 78 14
REMARK SMILES IDX 80 15 79 16 10 17 11 18 12 20 13 21 14 22 75 23 15 24 74 25
REMARK SMILES IDX 16 26 17 27 18 28 68 29 19 30 73 31 67 32 69 33 20 34 72 35
REMARK SMILES IDX 66 36 65 37 21 39 53 40 33 41 52 42 34 43 37 44 51 45 70 46
REMARK SMILES IDX 35 47 36 48 50 50 71 51 38 52 22 53 23 54 31 55 24 56 26 57
REMARK SMILES IDX 32 58 25 59 27 60 28 61 29 62 30 63 54 64 55 65 63 66 56 67
REMARK SMILES IDX 58 68 64 69 57 70 59 71 60 72 61 73 62 74 39 75 40 76 48 77
REMARK SMILES IDX 41 78 43 79 49 80 42 81 44 82 45 83 46 84 47 85
REMARK H PARENT 6 7 10 19 69 38 37 49
REMARK Flexibility Score: inf
ROOT
ATOM      1  C   UNL A   1      34.030  28.620  25.802  1.00  0.00     0.118 C 
ENDROOT
BRANCH   1   2
ATOM      2  C   UNL A   1      33.218  27.588  26.578  1.00  0.00     0.042 C 
BRANCH   2   3
ATOM      3  C   UNL A   1      32.489  26.578  25.703  1.00  0.00     0.117 C 
BRANCH   3   4
ATOM      4  N   UNL A   1      31.762  25.593  26.479  1.00  0.00    -0.356 N 
ATOM      5  C   UNL A   1      31.534  24.263  26.332  1.00  0.00     0.225 C 
ATOM      6  O   UNL A   1      30.882  23.754  27.250  1.00  0.00    -0.275 OA
ATOM      7  H   UNL A   1      31.345  25.969  27.287  1.00  0.00     0.163 HD
BRANCH   5   8
ATOM      8  C   UNL A   1      32.068  23.432  25.137  1.00  0.00     0.046 C 
ATOM      9  C   UNL A   1      31.865  21.925  25.399  1.00  0.00     0.022 C 
ATOM     10  C   UNL A   1      31.315  23.841  23.852  1.00  0.00     0.022 C 
BRANCH   8  11
ATOM     11  C   UNL A   1      33.622  23.685  24.898  1.00  0.00     0.004 C 
ATOM     12  C   UNL A   1      34.497  23.412  26.146  1.00  0.00     0.005 C 
ATOM     13  C   UNL A   1      34.193  22.981  23.641  1.00  0.00     0.005 C 
ATOM     14  C   UNL A   1      35.978  23.676  25.894  1.00  0.00     0.000 C 
ATOM     15  C   UNL A   1      35.687  23.234  23.447  1.00  0.00     0.000 C 
ATOM     16  C   UNL A   1      36.487  22.889  24.696  1.00  0.00     0.000 C 
ENDBRANCH   8  11
ENDBRANCH   5   8
ENDBRANCH   3   4
ENDBRANCH   2   3
ENDBRANCH   1   2
BRANCH   1  17
ATOM     17  N   UNL A   1      33.844  29.973  26.306  1.00  0.00    -0.352 N 
ATOM     18  C   UNL A   1      34.489  30.652  27.310  1.00  0.00     0.251 C 
ATOM     19  H   UNL A   1      33.139  30.488  25.851  1.00  0.00     0.163 HD
ATOM     20  O   UNL A   1      34.018  31.715  27.706  1.00  0.00    -0.269 OA
BRANCH  18  21
ATOM     21  C   UNL A   1      35.732  30.123  27.916  1.00  0.00     0.039 A 
ATOM     22  C   UNL A   1      36.934  30.258  27.215  1.00  0.00     0.014 A 
ATOM     23  C   UNL A   1      35.715  29.439  29.134  1.00  0.00     0.014 A 
ATOM     24  C   UNL A   1      38.115  29.737  27.748  1.00  0.00     0.010 A 
ATOM     25  C   UNL A   1      36.906  29.008  29.710  1.00  0.00     0.010 A 
ATOM     26  C   UNL A   1      38.115  29.121  29.010  1.00  0.00    -0.014 A 
BRANCH  26  27
ATOM     27  C   UNL A   1      39.356  28.543  29.585  1.00  0.00     0.031 A 
ATOM     28  C   UNL A   1      39.953  29.133  30.837  1.00  0.00     0.074 A 
ATOM     29  C   UNL A   1      39.983  27.533  28.949  1.00  0.00     0.049 A 
ATOM     30  N   UNL A   1      41.040  28.783  31.476  1.00  0.00    -0.248 NA
ATOM     31  C   UNL A   1      39.259  30.287  31.433  1.00  0.00     0.031 C 
ATOM     32  C   UNL A   1      39.554  26.934  27.683  1.00  0.00     0.029 A 
ATOM     33  N   UNL A   1      41.124  26.844  29.273  1.00  0.00    -0.354 N 
ATOM     34  C   UNL A   1      41.179  29.694  32.518  1.00  0.00     0.074 A 
ATOM     35  C   UNL A   1      40.091  30.639  32.401  1.00  0.00     0.031 C 
ATOM     36  C   UNL A   1      40.414  25.961  27.345  1.00  0.00     0.029 A 
ATOM     37  C   UNL A   1      41.463  25.876  28.355  1.00  0.00     0.049 A 
ATOM     38  H   UNL A   1      41.650  27.025  30.085  1.00  0.00     0.167 HD
ATOM     39  C   UNL A   1      42.103  29.722  33.507  1.00  0.00     0.034 A 
ATOM     40  C   UNL A   1      42.499  25.015  28.338  1.00  0.00     0.034 A 
ATOM     41  C   UNL A   1      43.146  28.744  33.656  1.00  0.00     0.049 A 
ATOM     42  C   UNL A   1      43.466  25.014  29.491  1.00  0.00     0.074 A 
ATOM     43  C   UNL A   1      44.080  28.629  34.670  1.00  0.00     0.029 A 
ATOM     44  N   UNL A   1      43.390  27.709  32.767  1.00  0.00    -0.354 N 
ATOM     45  N   UNL A   1      43.485  25.783  30.554  1.00  0.00    -0.248 NA
ATOM     46  C   UNL A   1      44.526  23.995  29.470  1.00  0.00     0.031 C 
ATOM     47  C   UNL A   1      44.897  27.529  34.387  1.00  0.00     0.029 A 
ATOM     48  C   UNL A   1      44.456  26.947  33.210  1.00  0.00     0.049 A 
ATOM     49  H   UNL A   1      42.879  27.542  31.942  1.00  0.00     0.167 HD
ATOM     50  C   UNL A   1      44.527  25.314  31.346  1.00  0.00     0.074 A 
ATOM     51  C   UNL A   1      45.103  24.182  30.649  1.00  0.00     0.031 C 
ATOM     52  C   UNL A   1      44.974  25.784  32.536  1.00  0.00     0.034 A 
BRANCH  39  53
ATOM     53  C   UNL A   1      41.986  30.810  34.544  1.00  0.00     0.023 A 
ATOM     54  C   UNL A   1      41.204  30.590  35.697  1.00  0.00     0.012 A 
ATOM     55  C   UNL A   1      42.683  32.027  34.406  1.00  0.00     0.148 A 
ATOM     56  C   UNL A   1      41.084  31.575  36.675  1.00  0.00     0.002 A 
ATOM     57  C   UNL A   1      42.596  32.987  35.409  1.00  0.00     0.091 A 
ATOM     58  F   UNL A   1      43.405  32.229  33.295  1.00  0.00    -0.205 F 
ATOM     59  C   UNL A   1      41.788  32.768  36.537  1.00  0.00     0.022 A 
BRANCH  57  60
ATOM     60  S   UNL A   1      43.529  34.521  35.364  1.00  0.00     0.127 S 
ATOM     61  O   UNL A   1      42.949  35.184  34.196  1.00  0.00    -0.237 OA
ATOM     62  O   UNL A   1      43.180  35.132  36.647  1.00  0.00    -0.237 OA
ATOM     63  O   UNL A   1      44.927  34.137  35.235  1.00  0.00    -0.744 OA
ENDBRANCH  57  60
ENDBRANCH  39  53
BRANCH  40  64
ATOM     64  C   UNL A   1      42.617  24.016  27.238  1.00  0.00     0.023 A 
ATOM     65  C   UNL A   1      43.406  24.321  26.111  1.00  0.00     0.012 A 
ATOM     66  C   UNL A   1      41.982  22.762  27.312  1.00  0.00     0.148 A 
ATOM     67  C   UNL A   1      43.531  23.410  25.062  1.00  0.00     0.002 A 
ATOM     68  C   UNL A   1      42.156  21.837  26.288  1.00  0.00     0.091 A 
ATOM     69  F   UNL A   1      41.230  22.493  28.388  1.00  0.00    -0.205 F 
ATOM     70  C   UNL A   1      42.915  22.166  25.154  1.00  0.00     0.022 A 
BRANCH  68  71
ATOM     71  S   UNL A   1      41.507  20.165  26.385  1.00  0.00     0.127 S 
ATOM     72  O   UNL A   1      42.236  19.498  25.307  1.00  0.00    -0.237 OA
ATOM     73  O   UNL A   1      41.906  19.764  27.737  1.00  0.00    -0.237 OA
ATOM     74  O   UNL A   1      40.071  20.290  26.198  1.00  0.00    -0.744 OA
ENDBRANCH  68  71
ENDBRANCH  40  64
BRANCH  52  75
ATOM     75  C   UNL A   1      46.113  25.050  33.193  1.00  0.00     0.023 A 
ATOM     76  C   UNL A   1      47.434  25.512  33.034  1.00  0.00     0.012 A 
ATOM     77  C   UNL A   1      45.863  23.943  34.028  1.00  0.00     0.148 A 
ATOM     78  C   UNL A   1      48.493  24.861  33.665  1.00  0.00     0.002 A 
ATOM     79  C   UNL A   1      46.918  23.329  34.693  1.00  0.00     0.091 A 
ATOM     80  F   UNL A   1      44.602  23.504  34.152  1.00  0.00    -0.205 F 
ATOM     81  C   UNL A   1      48.234  23.778  34.504  1.00  0.00     0.022 A 
BRANCH  79  82
ATOM     82  S   UNL A   1      46.658  21.995  35.868  1.00  0.00     0.127 S 
ATOM     83  O   UNL A   1      46.171  20.924  34.999  1.00  0.00    -0.237 OA
ATOM     84  O   UNL A   1      48.004  21.782  36.403  1.00  0.00    -0.237 OA
ATOM     85  O   UNL A   1      45.699  22.502  36.840  1.00  0.00    -0.744 OA
ENDBRANCH  79  82
ENDBRANCH  52  75
ENDBRANCH  26  27
ENDBRANCH  18  21
ENDBRANCH   1  17
TORSDOF 14
ENDMDL
