MODEL 1
REMARK VINA RESULT:     -10.1      0.000      0.000
REMARK SMILES CC(C)[C@H](NC(=O)CC[NH3+])C(=O)NCCCNC(=O)c1ccc(-c2c3nc(c(-c4cccc(S(=O)(=O)[O-])c4F)c4ccc([nH]4)c(-c4cccc(S(=O)(=O)[O-])c4F)c4nc(c(-c5cccc(S(=O)(=O)[O-])c5F)c5ccc2[nH]5)C=C4)C=C3)cc1
REMARK SMILES IDX 14 1 13 2 11 3 12 4 4 6 2 7 1 8 3 9 5 10 6 11 7 13 8 14 9 15
REMARK SMILES IDX 10 16 15 20 16 21 17 22 18 23 19 25 20 26 21 27 82 28 22 29
REMARK SMILES IDX 81 30 23 31 24 32 25 33 75 34 26 35 80 36 74 37 76 38 27 39
REMARK SMILES IDX 79 40 73 41 72 42 28 44 60 45 40 46 59 47 41 48 44 49 58 50
REMARK SMILES IDX 77 51 42 52 43 53 57 55 78 56 45 57 29 58 30 59 38 60 31 61
REMARK SMILES IDX 33 62 39 63 32 64 34 65 35 66 36 67 37 68 61 69 62 70 70 71
REMARK SMILES IDX 63 72 65 73 71 74 64 75 66 76 67 77 68 78 69 79 46 80 47 81
REMARK SMILES IDX 55 82 48 83 50 84 56 85 49 86 51 87 52 88 53 89 54 90
REMARK H PARENT 13 5 5 12 10 17 10 18 10 19 17 24 76 43 44 54
REMARK Flexibility Score: inf
ROOT
ATOM      1  C   UNL A   1      42.439  22.730  26.029  1.00  0.00     0.117 C 
ENDROOT
BRANCH   1   2
ATOM      2  N   UNL A   1      43.026  22.805  24.705  1.00  0.00    -0.354 N 
ATOM      3  C   UNL A   1      44.329  22.663  24.334  1.00  0.00     0.242 C 
ATOM      4  O   UNL A   1      44.603  22.686  23.131  1.00  0.00    -0.273 OA
ATOM      5  H   UNL A   1      42.394  22.984  23.970  1.00  0.00     0.163 HD
BRANCH   3   6
ATOM      6  C   UNL A   1      45.432  22.418  25.380  1.00  0.00     0.173 C 
BRANCH   6   7
ATOM      7  C   UNL A   1      46.097  23.757  25.877  1.00  0.00     0.015 C 
ATOM      8  C   UNL A   1      45.613  25.041  25.190  1.00  0.00     0.010 C 
ATOM      9  C   UNL A   1      46.093  23.968  27.401  1.00  0.00     0.010 C 
ENDBRANCH   6   7
BRANCH   6  10
ATOM     10  N   UNL A   1      46.377  21.356  24.997  1.00  0.00    -0.344 N 
ATOM     11  C   UNL A   1      46.233  19.998  25.076  1.00  0.00     0.226 C 
ATOM     12  H   UNL A   1      47.236  21.668  24.630  1.00  0.00     0.164 HD
ATOM     13  O   UNL A   1      47.259  19.328  25.205  1.00  0.00    -0.275 OA
BRANCH  11  14
ATOM     14  C   UNL A   1      44.883  19.328  24.935  1.00  0.00     0.161 C 
BRANCH  14  15
ATOM     15  C   UNL A   1      44.603  18.723  23.565  1.00  0.00     0.268 C 
BRANCH  15  16
ATOM     16  N   UNL A   1      44.540  19.676  22.463  1.00  0.00    -0.357 N 
ATOM     17  H   UNL A   1      43.798  19.402  21.819  1.00  0.00     0.344 HD
ATOM     18  H   UNL A   1      45.432  19.685  21.969  1.00  0.00     0.344 HD
ATOM     19  H   UNL A   1      44.344  20.608  22.830  1.00  0.00     0.344 HD
ENDBRANCH  15  16
ENDBRANCH  14  15
ENDBRANCH  11  14
ENDBRANCH   6  10
ENDBRANCH   3   6
ENDBRANCH   1   2
BRANCH   1  20
ATOM     20  C   UNL A   1      41.796  21.387  26.326  1.00  0.00     0.042 C 
BRANCH  20  21
ATOM     21  C   UNL A   1      40.524  21.497  27.151  1.00  0.00     0.118 C 
BRANCH  21  22
ATOM     22  N   UNL A   1      39.367  21.852  26.337  1.00  0.00    -0.352 N 
ATOM     23  C   UNL A   1      38.672  23.033  26.259  1.00  0.00     0.251 C 
ATOM     24  H   UNL A   1      39.032  21.132  25.753  1.00  0.00     0.163 HD
ATOM     25  O   UNL A   1      37.575  23.057  25.711  1.00  0.00    -0.269 OA
BRANCH  23  26
ATOM     26  C   UNL A   1      39.247  24.261  26.842  1.00  0.00     0.039 A 
ATOM     27  C   UNL A   1      39.926  25.158  26.015  1.00  0.00     0.014 A 
ATOM     28  C   UNL A   1      39.115  24.524  28.206  1.00  0.00     0.014 A 
ATOM     29  C   UNL A   1      40.416  26.351  26.549  1.00  0.00     0.010 A 
ATOM     30  C   UNL A   1      39.504  25.757  28.711  1.00  0.00     0.010 A 
ATOM     31  C   UNL A   1      40.175  26.676  27.894  1.00  0.00    -0.014 A 
BRANCH  31  32
ATOM     32  C   UNL A   1      40.624  27.966  28.477  1.00  0.00     0.031 A 
ATOM     33  C   UNL A   1      42.094  28.235  28.665  1.00  0.00     0.074 A 
ATOM     34  C   UNL A   1      39.710  28.850  28.920  1.00  0.00     0.049 A 
ATOM     35  N   UNL A   1      42.678  29.263  29.222  1.00  0.00    -0.248 NA
ATOM     36  C   UNL A   1      43.031  27.197  28.199  1.00  0.00     0.031 C 
ATOM     37  C   UNL A   1      38.257  28.664  28.872  1.00  0.00     0.029 A 
ATOM     38  N   UNL A   1      39.865  30.072  29.526  1.00  0.00    -0.354 N 
ATOM     39  C   UNL A   1      44.038  28.979  29.212  1.00  0.00     0.074 A 
ATOM     40  C   UNL A   1      44.192  27.663  28.632  1.00  0.00     0.031 C 
ATOM     41  C   UNL A   1      37.657  29.735  29.415  1.00  0.00     0.029 A 
ATOM     42  C   UNL A   1      38.678  30.667  29.881  1.00  0.00     0.049 A 
ATOM     43  H   UNL A   1      40.745  30.483  29.691  1.00  0.00     0.167 HD
ATOM     44  C   UNL A   1      45.071  29.754  29.617  1.00  0.00     0.034 A 
ATOM     45  C   UNL A   1      38.439  31.830  30.520  1.00  0.00     0.034 A 
ATOM     46  C   UNL A   1      44.915  31.081  30.147  1.00  0.00     0.049 A 
ATOM     47  C   UNL A   1      39.604  32.692  30.919  1.00  0.00     0.074 A 
ATOM     48  C   UNL A   1      45.898  31.987  30.499  1.00  0.00     0.029 A 
ATOM     49  N   UNL A   1      43.697  31.688  30.409  1.00  0.00    -0.354 N 
ATOM     50  N   UNL A   1      40.886  32.475  30.755  1.00  0.00    -0.248 NA
ATOM     51  C   UNL A   1      39.291  33.977  31.561  1.00  0.00     0.031 C 
ATOM     52  C   UNL A   1      45.275  33.133  31.001  1.00  0.00     0.029 A 
ATOM     53  C   UNL A   1      43.903  32.955  30.928  1.00  0.00     0.049 A 
ATOM     54  H   UNL A   1      42.815  31.280  30.249  1.00  0.00     0.167 HD
ATOM     55  C   UNL A   1      41.530  33.609  31.235  1.00  0.00     0.074 A 
ATOM     56  C   UNL A   1      40.495  34.520  31.677  1.00  0.00     0.031 C 
ATOM     57  C   UNL A   1      42.859  33.870  31.315  1.00  0.00     0.034 A 
BRANCH  44  58
ATOM     58  C   UNL A   1      46.466  29.209  29.453  1.00  0.00     0.023 A 
ATOM     59  C   UNL A   1      47.040  28.433  30.482  1.00  0.00     0.012 A 
ATOM     60  C   UNL A   1      47.189  29.415  28.261  1.00  0.00     0.148 A 
ATOM     61  C   UNL A   1      48.321  27.904  30.346  1.00  0.00     0.002 A 
ATOM     62  C   UNL A   1      48.447  28.843  28.113  1.00  0.00     0.091 A 
ATOM     63  F   UNL A   1      46.637  30.173  27.302  1.00  0.00    -0.205 F 
ATOM     64  C   UNL A   1      49.019  28.099  29.157  1.00  0.00     0.022 A 
BRANCH  62  65
ATOM     65  S   UNL A   1      49.394  28.964  26.591  1.00  0.00     0.127 S 
ATOM     66  O   UNL A   1      50.526  28.085  26.878  1.00  0.00    -0.237 OA
ATOM     67  O   UNL A   1      48.451  28.442  25.602  1.00  0.00    -0.237 OA
ATOM     68  O   UNL A   1      49.723  30.374  26.432  1.00  0.00    -0.744 OA
ENDBRANCH  62  65
ENDBRANCH  44  58
BRANCH  45  69
ATOM     69  C   UNL A   1      37.037  32.275  30.763  1.00  0.00     0.023 A 
ATOM     70  C   UNL A   1      36.474  32.117  32.044  1.00  0.00     0.012 A 
ATOM     71  C   UNL A   1      36.269  32.870  29.744  1.00  0.00     0.148 A 
ATOM     72  C   UNL A   1      35.159  32.509  32.298  1.00  0.00     0.002 A 
ATOM     73  C   UNL A   1      34.979  33.311  30.018  1.00  0.00     0.091 A 
ATOM     74  F   UNL A   1      36.821  33.005  28.530  1.00  0.00    -0.205 F 
ATOM     75  C   UNL A   1      34.415  33.114  31.288  1.00  0.00     0.022 A 
BRANCH  73  76
ATOM     76  S   UNL A   1      33.995  34.218  28.821  1.00  0.00     0.127 S 
ATOM     77  O   UNL A   1      33.683  33.179  27.842  1.00  0.00    -0.237 OA
ATOM     78  O   UNL A   1      32.862  34.660  29.635  1.00  0.00    -0.237 OA
ATOM     79  O   UNL A   1      34.851  35.297  28.346  1.00  0.00    -0.744 OA
ENDBRANCH  73  76
ENDBRANCH  45  69
BRANCH  57  80
ATOM     80  C   UNL A   1      43.277  35.210  31.859  1.00  0.00     0.023 A 
ATOM     81  C   UNL A   1      43.456  35.382  33.247  1.00  0.00     0.012 A 
ATOM     82  C   UNL A   1      43.566  36.276  30.986  1.00  0.00     0.148 A 
ATOM     83  C   UNL A   1      43.883  36.607  33.758  1.00  0.00     0.002 A 
ATOM     84  C   UNL A   1      44.043  37.477  31.498  1.00  0.00     0.091 A 
ATOM     85  F   UNL A   1      43.373  36.096  29.671  1.00  0.00    -0.205 F 
ATOM     86  C   UNL A   1      44.188  37.648  32.884  1.00  0.00     0.022 A 
BRANCH  84  87
ATOM     87  S   UNL A   1      44.557  38.837  30.444  1.00  0.00     0.127 S 
ATOM     88  O   UNL A   1      45.559  38.194  29.596  1.00  0.00    -0.237 OA
ATOM     89  O   UNL A   1      43.311  39.185  29.759  1.00  0.00    -0.237 OA
ATOM     90  O   UNL A   1      45.064  39.869  31.337  1.00  0.00    -0.744 OA
ENDBRANCH  84  87
ENDBRANCH  57  80
ENDBRANCH  31  32
ENDBRANCH  23  26
ENDBRANCH  21  22
ENDBRANCH  20  21
ENDBRANCH   1  20
TORSDOF 18
ENDMDL
MODEL 2
REMARK VINA RESULT:     -10.1      6.537     10.352
REMARK SMILES CC(C)[C@H](NC(=O)CC[NH3+])C(=O)NCCCNC(=O)c1ccc(-c2c3nc(c(-c4cccc(S(=O)(=O)[O-])c4F)c4ccc([nH]4)c(-c4cccc(S(=O)(=O)[O-])c4F)c4nc(c(-c5cccc(S(=O)(=O)[O-])c5F)c5ccc2[nH]5)C=C4)C=C3)cc1
REMARK SMILES IDX 14 1 13 2 11 3 12 4 4 6 2 7 1 8 3 9 5 10 6 11 7 13 8 14 9 15
REMARK SMILES IDX 10 16 15 20 16 21 17 22 18 23 19 25 20 26 21 27 82 28 22 29
REMARK SMILES IDX 81 30 23 31 24 32 25 33 75 34 26 35 80 36 74 37 76 38 27 39
REMARK SMILES IDX 79 40 73 41 72 42 28 44 60 45 40 46 59 47 41 48 44 49 58 50
REMARK SMILES IDX 77 51 42 52 43 53 57 55 78 56 45 57 29 58 30 59 38 60 31 61
REMARK SMILES IDX 33 62 39 63 32 64 34 65 35 66 36 67 37 68 61 69 62 70 70 71
REMARK SMILES IDX 63 72 65 73 71 74 64 75 66 76 67 77 68 78 69 79 46 80 47 81
REMARK SMILES IDX 55 82 48 83 50 84 56 85 49 86 51 87 52 88 53 89 54 90
REMARK H PARENT 13 5 5 12 10 17 10 18 10 19 17 24 76 43 44 54
REMARK Flexibility Score: inf
ROOT
ATOM      1  C   UNL A   1      31.732  30.525  26.231  1.00  0.00     0.117 C 
ENDROOT
BRANCH   1   2
ATOM      2  N   UNL A   1      31.141  30.228  24.940  1.00  0.00    -0.354 N 
ATOM      3  C   UNL A   1      31.329  29.143  24.140  1.00  0.00     0.242 C 
ATOM      4  O   UNL A   1      30.660  29.052  23.107  1.00  0.00    -0.273 OA
ATOM      5  H   UNL A   1      30.517  30.907  24.594  1.00  0.00     0.163 HD
BRANCH   3   6
ATOM      6  C   UNL A   1      32.306  28.020  24.536  1.00  0.00     0.173 C 
BRANCH   6   7
ATOM      7  C   UNL A   1      33.058  27.412  23.293  1.00  0.00     0.015 C 
ATOM      8  C   UNL A   1      34.020  28.359  22.563  1.00  0.00     0.010 C 
ATOM      9  C   UNL A   1      33.767  26.070  23.545  1.00  0.00     0.010 C 
ENDBRANCH   6   7
BRANCH   6  10
ATOM     10  N   UNL A   1      31.719  27.031  25.457  1.00  0.00    -0.344 N 
ATOM     11  C   UNL A   1      30.552  26.327  25.343  1.00  0.00     0.226 C 
ATOM     12  H   UNL A   1      32.243  26.851  26.270  1.00  0.00     0.164 HD
ATOM     13  O   UNL A   1      30.002  25.976  26.388  1.00  0.00    -0.275 OA
BRANCH  11  14
ATOM     14  C   UNL A   1      29.991  25.922  23.996  1.00  0.00     0.161 C 
BRANCH  14  15
ATOM     15  C   UNL A   1      30.337  24.508  23.552  1.00  0.00     0.268 C 
BRANCH  15  16
ATOM     16  N   UNL A   1      30.712  23.591  24.623  1.00  0.00    -0.357 N 
ATOM     17  H   UNL A   1      31.567  23.922  25.069  1.00  0.00     0.344 HD
ATOM     18  H   UNL A   1      30.868  22.661  24.236  1.00  0.00     0.344 HD
ATOM     19  H   UNL A   1      29.962  23.550  25.314  1.00  0.00     0.344 HD
ENDBRANCH  15  16
ENDBRANCH  14  15
ENDBRANCH  11  14
ENDBRANCH   6  10
ENDBRANCH   3   6
ENDBRANCH   1   2
BRANCH   1  20
ATOM     20  C   UNL A   1      31.524  31.963  26.671  1.00  0.00     0.042 C 
BRANCH  20  21
ATOM     21  C   UNL A   1      32.736  32.565  27.362  1.00  0.00     0.118 C 
BRANCH  21  22
ATOM     22  N   UNL A   1      32.565  33.986  27.639  1.00  0.00    -0.352 N 
ATOM     23  C   UNL A   1      33.118  34.766  28.624  1.00  0.00     0.251 C 
ATOM     24  H   UNL A   1      31.957  34.460  27.025  1.00  0.00     0.163 HD
ATOM     25  O   UNL A   1      32.654  35.878  28.851  1.00  0.00    -0.269 OA
BRANCH  23  26
ATOM     26  C   UNL A   1      34.261  34.256  29.408  1.00  0.00     0.039 A 
ATOM     27  C   UNL A   1      34.020  33.513  30.565  1.00  0.00     0.014 A 
ATOM     28  C   UNL A   1      35.569  34.515  28.998  1.00  0.00     0.014 A 
ATOM     29  C   UNL A   1      35.095  32.975  31.273  1.00  0.00     0.010 A 
ATOM     30  C   UNL A   1      36.629  33.889  29.639  1.00  0.00     0.010 A 
ATOM     31  C   UNL A   1      36.407  33.128  30.794  1.00  0.00    -0.014 A 
BRANCH  31  32
ATOM     32  C   UNL A   1      37.567  32.512  31.487  1.00  0.00     0.031 A 
ATOM     33  C   UNL A   1      38.310  31.372  30.840  1.00  0.00     0.074 A 
ATOM     34  C   UNL A   1      37.890  32.914  32.731  1.00  0.00     0.049 A 
ATOM     35  N   UNL A   1      39.294  30.656  31.316  1.00  0.00    -0.248 NA
ATOM     36  C   UNL A   1      37.864  30.957  29.498  1.00  0.00     0.031 C 
ATOM     37  C   UNL A   1      37.189  33.949  33.496  1.00  0.00     0.029 A 
ATOM     38  N   UNL A   1      38.872  32.480  33.586  1.00  0.00    -0.354 N 
ATOM     39  C   UNL A   1      39.557  29.687  30.355  1.00  0.00     0.074 A 
ATOM     40  C   UNL A   1      38.601  29.877  29.288  1.00  0.00     0.031 C 
ATOM     41  C   UNL A   1      37.771  34.077  34.700  1.00  0.00     0.029 A 
ATOM     42  C   UNL A   1      38.859  33.111  34.807  1.00  0.00     0.049 A 
ATOM     43  H   UNL A   1      39.524  31.782  33.346  1.00  0.00     0.167 HD
ATOM     44  C   UNL A   1      40.527  28.743  30.345  1.00  0.00     0.034 A 
ATOM     45  C   UNL A   1      39.632  32.925  35.896  1.00  0.00     0.034 A 
ATOM     46  C   UNL A   1      41.506  28.590  31.386  1.00  0.00     0.049 A 
ATOM     47  C   UNL A   1      40.731  31.900  35.841  1.00  0.00     0.074 A 
ATOM     48  C   UNL A   1      42.587  27.730  31.430  1.00  0.00     0.029 A 
ATOM     49  N   UNL A   1      41.517  29.309  32.571  1.00  0.00    -0.354 N 
ATOM     50  N   UNL A   1      41.064  31.100  34.857  1.00  0.00    -0.248 NA
ATOM     51  C   UNL A   1      41.583  31.775  37.031  1.00  0.00     0.031 C 
ATOM     52  C   UNL A   1      43.237  27.909  32.655  1.00  0.00     0.029 A 
ATOM     53  C   UNL A   1      42.581  28.906  33.359  1.00  0.00     0.049 A 
ATOM     54  H   UNL A   1      40.864  30.005  32.816  1.00  0.00     0.167 HD
ATOM     55  C   UNL A   1      42.186  30.406  35.294  1.00  0.00     0.074 A 
ATOM     56  C   UNL A   1      42.488  30.896  36.623  1.00  0.00     0.031 C 
ATOM     57  C   UNL A   1      42.897  29.441  34.658  1.00  0.00     0.034 A 
BRANCH  44  58
ATOM     58  C   UNL A   1      40.612  27.836  29.145  1.00  0.00     0.023 A 
ATOM     59  C   UNL A   1      39.738  26.734  29.037  1.00  0.00     0.012 A 
ATOM     60  C   UNL A   1      41.516  28.103  28.097  1.00  0.00     0.148 A 
ATOM     61  C   UNL A   1      39.787  25.892  27.929  1.00  0.00     0.002 A 
ATOM     62  C   UNL A   1      41.525  27.286  26.972  1.00  0.00     0.091 A 
ATOM     63  F   UNL A   1      42.355  29.142  28.225  1.00  0.00    -0.205 F 
ATOM     64  C   UNL A   1      40.671  26.174  26.892  1.00  0.00     0.022 A 
BRANCH  62  65
ATOM     65  S   UNL A   1      42.568  27.612  25.545  1.00  0.00     0.127 S 
ATOM     66  O   UNL A   1      43.884  27.745  26.168  1.00  0.00    -0.237 OA
ATOM     67  O   UNL A   1      42.388  26.396  24.752  1.00  0.00    -0.237 OA
ATOM     68  O   UNL A   1      42.043  28.823  24.931  1.00  0.00    -0.744 OA
ENDBRANCH  62  65
ENDBRANCH  44  58
BRANCH  45  69
ATOM     69  C   UNL A   1      39.434  33.772  37.106  1.00  0.00     0.023 A 
ATOM     70  C   UNL A   1      39.923  35.093  37.114  1.00  0.00     0.012 A 
ATOM     71  C   UNL A   1      38.749  33.288  38.237  1.00  0.00     0.148 A 
ATOM     72  C   UNL A   1      39.767  35.904  38.239  1.00  0.00     0.002 A 
ATOM     73  C   UNL A   1      38.547  34.119  39.333  1.00  0.00     0.091 A 
ATOM     74  F   UNL A   1      38.297  32.026  38.213  1.00  0.00    -0.205 F 
ATOM     75  C   UNL A   1      39.072  35.421  39.344  1.00  0.00     0.022 A 
BRANCH  73  76
ATOM     76  S   UNL A   1      37.552  33.630  40.745  1.00  0.00     0.127 S 
ATOM     77  O   UNL A   1      36.384  33.038  40.097  1.00  0.00    -0.237 OA
ATOM     78  O   UNL A   1      38.434  32.676  41.419  1.00  0.00    -0.237 OA
ATOM     79  O   UNL A   1      37.307  34.855  41.496  1.00  0.00    -0.744 OA
ENDBRANCH  73  76
ENDBRANCH  45  69
BRANCH  57  80
ATOM     80  C   UNL A   1      44.100  28.877  35.367  1.00  0.00     0.023 A 
ATOM     81  C   UNL A   1      45.372  29.446  35.158  1.00  0.00     0.012 A 
ATOM     82  C   UNL A   1      43.953  27.832  36.300  1.00  0.00     0.148 A 
ATOM     83  C   UNL A   1      46.486  28.959  35.841  1.00  0.00     0.002 A 
ATOM     84  C   UNL A   1      45.058  27.388  37.017  1.00  0.00     0.091 A 
ATOM     85  F   UNL A   1      42.737  27.294  36.472  1.00  0.00    -0.205 F 
ATOM     86  C   UNL A   1      46.326  27.941  36.778  1.00  0.00     0.022 A 
BRANCH  84  87
ATOM     87  S   UNL A   1      44.931  26.153  38.314  1.00  0.00     0.127 S 
ATOM     88  O   UNL A   1      44.450  24.989  37.571  1.00  0.00    -0.237 OA
ATOM     89  O   UNL A   1      46.315  26.050  38.779  1.00  0.00    -0.237 OA
ATOM     90  O   UNL A   1      44.002  26.694  39.296  1.00  0.00    -0.744 OA
ENDBRANCH  84  87
ENDBRANCH  57  80
ENDBRANCH  31  32
ENDBRANCH  23  26
ENDBRANCH  21  22
ENDBRANCH  20  21
ENDBRANCH   1  20
TORSDOF 18
ENDMDL
MODEL 3
REMARK VINA RESULT:      -9.7      3.652      9.770
REMARK SMILES CC(C)[C@H](NC(=O)CC[NH3+])C(=O)NCCCNC(=O)c1ccc(-c2c3nc(c(-c4cccc(S(=O)(=O)[O-])c4F)c4ccc([nH]4)c(-c4cccc(S(=O)(=O)[O-])c4F)c4nc(c(-c5cccc(S(=O)(=O)[O-])c5F)c5ccc2[nH]5)C=C4)C=C3)cc1
REMARK SMILES IDX 14 1 13 2 11 3 12 4 4 6 2 7 1 8 3 9 5 10 6 11 7 13 8 14 9 15
REMARK SMILES IDX 10 16 15 20 16 21 17 22 18 23 19 25 20 26 21 27 82 28 22 29
REMARK SMILES IDX 81 30 23 31 24 32 25 33 75 34 26 35 80 36 74 37 76 38 27 39
REMARK SMILES IDX 79 40 73 41 72 42 28 44 60 45 40 46 59 47 41 48 44 49 58 50
REMARK SMILES IDX 77 51 42 52 43 53 57 55 78 56 45 57 29 58 30 59 38 60 31 61
REMARK SMILES IDX 33 62 39 63 32 64 34 65 35 66 36 67 37 68 61 69 62 70 70 71
REMARK SMILES IDX 63 72 65 73 71 74 64 75 66 76 67 77 68 78 69 79 46 80 47 81
REMARK SMILES IDX 55 82 48 83 50 84 56 85 49 86 51 87 52 88 53 89 54 90
REMARK H PARENT 13 5 5 12 10 17 10 18 10 19 17 24 76 43 44 54
REMARK Flexibility Score: inf
ROOT
ATOM      1  C   UNL A   1      36.093  22.382  25.751  1.00  0.00     0.117 C 
ENDROOT
BRANCH   1   2
ATOM      2  N   UNL A   1      35.135  22.412  26.839  1.00  0.00    -0.354 N 
ATOM      3  C   UNL A   1      33.916  21.811  26.926  1.00  0.00     0.242 C 
ATOM      4  O   UNL A   1      33.291  21.903  27.986  1.00  0.00    -0.273 OA
ATOM      5  H   UNL A   1      35.403  22.941  27.626  1.00  0.00     0.163 HD
BRANCH   3   6
ATOM      6  C   UNL A   1      33.352  20.982  25.758  1.00  0.00     0.173 C 
BRANCH   6   7
ATOM      7  C   UNL A   1      32.261  21.767  24.937  1.00  0.00     0.015 C 
ATOM      8  C   UNL A   1      32.138  23.266  25.246  1.00  0.00     0.010 C 
ATOM      9  C   UNL A   1      32.318  21.571  23.411  1.00  0.00     0.010 C 
ENDBRANCH   6   7
BRANCH   6  10
ATOM     10  N   UNL A   1      32.978  19.609  26.140  1.00  0.00    -0.344 N 
ATOM     11  C   UNL A   1      32.906  18.484  25.366  1.00  0.00     0.226 C 
ATOM     12  H   UNL A   1      32.748  19.484  27.088  1.00  0.00     0.164 HD
ATOM     13  O   UNL A   1      32.114  17.608  25.717  1.00  0.00    -0.275 OA
BRANCH  11  14
ATOM     14  C   UNL A   1      33.812  18.276  24.171  1.00  0.00     0.161 C 
BRANCH  14  15
ATOM     15  C   UNL A   1      33.237  17.396  23.070  1.00  0.00     0.268 C 
BRANCH  15  16
ATOM     16  N   UNL A   1      31.993  17.874  22.474  1.00  0.00    -0.357 N 
ATOM     17  H   UNL A   1      31.209  17.344  22.855  1.00  0.00     0.344 HD
ATOM     18  H   UNL A   1      32.029  17.747  21.463  1.00  0.00     0.344 HD
ATOM     19  H   UNL A   1      31.872  18.863  22.689  1.00  0.00     0.344 HD
ENDBRANCH  15  16
ENDBRANCH  14  15
ENDBRANCH  11  14
ENDBRANCH   6  10
ENDBRANCH   3   6
ENDBRANCH   1   2
BRANCH   1  20
ATOM     20  C   UNL A   1      36.881  21.086  25.679  1.00  0.00     0.042 C 
BRANCH  20  21
ATOM     21  C   UNL A   1      38.350  21.291  25.346  1.00  0.00     0.118 C 
BRANCH  21  22
ATOM     22  N   UNL A   1      39.208  20.320  26.015  1.00  0.00    -0.352 N 
ATOM     23  C   UNL A   1      40.417  20.494  26.641  1.00  0.00     0.251 C 
ATOM     24  H   UNL A   1      38.867  19.395  26.017  1.00  0.00     0.163 HD
ATOM     25  O   UNL A   1      41.105  19.517  26.916  1.00  0.00    -0.269 OA
BRANCH  23  26
ATOM     26  C   UNL A   1      40.882  21.856  26.969  1.00  0.00     0.039 A 
ATOM     27  C   UNL A   1      41.499  22.090  28.200  1.00  0.00     0.014 A 
ATOM     28  C   UNL A   1      40.707  22.901  26.061  1.00  0.00     0.014 A 
ATOM     29  C   UNL A   1      41.997  23.362  28.489  1.00  0.00     0.010 A 
ATOM     30  C   UNL A   1      41.299  24.132  26.303  1.00  0.00     0.010 A 
ATOM     31  C   UNL A   1      41.934  24.383  27.526  1.00  0.00    -0.014 A 
BRANCH  31  32
ATOM     32  C   UNL A   1      42.514  25.727  27.776  1.00  0.00     0.031 A 
ATOM     33  C   UNL A   1      41.678  26.797  28.428  1.00  0.00     0.074 A 
ATOM     34  C   UNL A   1      43.754  26.010  27.333  1.00  0.00     0.049 A 
ATOM     35  N   UNL A   1      41.978  28.048  28.661  1.00  0.00    -0.248 NA
ATOM     36  C   UNL A   1      40.313  26.424  28.840  1.00  0.00     0.031 C 
ATOM     37  C   UNL A   1      44.629  25.082  26.611  1.00  0.00     0.029 A 
ATOM     38  N   UNL A   1      44.487  27.168  27.399  1.00  0.00    -0.354 N 
ATOM     39  C   UNL A   1      40.833  28.618  29.204  1.00  0.00     0.074 A 
ATOM     40  C   UNL A   1      39.818  27.589  29.228  1.00  0.00     0.031 C 
ATOM     41  C   UNL A   1      45.780  25.704  26.311  1.00  0.00     0.029 A 
ATOM     42  C   UNL A   1      45.713  27.082  26.785  1.00  0.00     0.049 A 
ATOM     43  H   UNL A   1      44.162  27.985  27.845  1.00  0.00     0.167 HD
ATOM     44  C   UNL A   1      40.650  29.874  29.673  1.00  0.00     0.034 A 
ATOM     45  C   UNL A   1      46.674  28.012  26.616  1.00  0.00     0.034 A 
ATOM     46  C   UNL A   1      41.678  30.878  29.691  1.00  0.00     0.049 A 
ATOM     47  C   UNL A   1      46.463  29.388  27.185  1.00  0.00     0.074 A 
ATOM     48  C   UNL A   1      41.627  32.151  30.229  1.00  0.00     0.029 A 
ATOM     49  N   UNL A   1      42.941  30.725  29.141  1.00  0.00    -0.354 N 
ATOM     50  N   UNL A   1      45.429  29.860  27.839  1.00  0.00    -0.248 NA
ATOM     51  C   UNL A   1      47.562  30.349  27.025  1.00  0.00     0.031 C 
ATOM     52  C   UNL A   1      42.851  32.780  29.979  1.00  0.00     0.029 A 
ATOM     53  C   UNL A   1      43.677  31.885  29.317  1.00  0.00     0.049 A 
ATOM     54  H   UNL A   1      43.268  29.912  28.692  1.00  0.00     0.167 HD
ATOM     55  C   UNL A   1      45.769  31.158  28.202  1.00  0.00     0.074 A 
ATOM     56  C   UNL A   1      47.112  31.389  27.714  1.00  0.00     0.031 C 
ATOM     57  C   UNL A   1      45.031  32.080  28.870  1.00  0.00     0.034 A 
BRANCH  44  58
ATOM     58  C   UNL A   1      39.303  30.219  30.253  1.00  0.00     0.023 A 
ATOM     59  C   UNL A   1      39.099  30.133  31.646  1.00  0.00     0.012 A 
ATOM     60  C   UNL A   1      38.256  30.680  29.431  1.00  0.00     0.148 A 
ATOM     61  C   UNL A   1      37.867  30.463  32.208  1.00  0.00     0.002 A 
ATOM     62  C   UNL A   1      37.046  31.054  30.004  1.00  0.00     0.091 A 
ATOM     63  F   UNL A   1      38.460  30.735  28.106  1.00  0.00    -0.205 F 
ATOM     64  C   UNL A   1      36.845  30.934  31.388  1.00  0.00     0.022 A 
BRANCH  62  65
ATOM     65  S   UNL A   1      35.694  31.751  29.047  1.00  0.00     0.127 S 
ATOM     66  O   UNL A   1      36.335  32.915  28.437  1.00  0.00    -0.237 OA
ATOM     67  O   UNL A   1      35.388  30.665  28.115  1.00  0.00    -0.237 OA
ATOM     68  O   UNL A   1      34.637  32.050  30.002  1.00  0.00    -0.744 OA
ENDBRANCH  62  65
ENDBRANCH  44  58
BRANCH  45  69
ATOM     69  C   UNL A   1      47.949  27.654  25.930  1.00  0.00     0.023 A 
ATOM     70  C   UNL A   1      49.041  27.199  26.694  1.00  0.00     0.012 A 
ATOM     71  C   UNL A   1      48.078  27.739  24.531  1.00  0.00     0.148 A 
ATOM     72  C   UNL A   1      50.252  26.873  26.082  1.00  0.00     0.002 A 
ATOM     73  C   UNL A   1      49.268  27.358  23.922  1.00  0.00     0.091 A 
ATOM     74  F   UNL A   1      47.029  28.180  23.822  1.00  0.00    -0.205 F 
ATOM     75  C   UNL A   1      50.363  26.943  24.697  1.00  0.00     0.022 A 
BRANCH  73  76
ATOM     76  S   UNL A   1      49.460  27.290  22.137  1.00  0.00     0.127 S 
ATOM     77  O   UNL A   1      50.876  26.956  22.002  1.00  0.00    -0.237 OA
ATOM     78  O   UNL A   1      48.534  26.216  21.776  1.00  0.00    -0.237 OA
ATOM     79  O   UNL A   1      49.072  28.607  21.650  1.00  0.00    -0.744 OA
ENDBRANCH  73  76
ENDBRANCH  45  69
BRANCH  57  80
ATOM     80  C   UNL A   1      45.672  33.413  29.155  1.00  0.00     0.023 A 
ATOM     81  C   UNL A   1      46.441  33.590  30.322  1.00  0.00     0.012 A 
ATOM     82  C   UNL A   1      45.571  34.466  28.224  1.00  0.00     0.148 A 
ATOM     83  C   UNL A   1      47.073  34.808  30.574  1.00  0.00     0.002 A 
ATOM     84  C   UNL A   1      46.247  35.658  28.457  1.00  0.00     0.091 A 
ATOM     85  F   UNL A   1      44.819  34.282  27.128  1.00  0.00    -0.205 F 
ATOM     86  C   UNL A   1      46.986  35.835  29.637  1.00  0.00     0.022 A 
BRANCH  84  87
ATOM     87  S   UNL A   1      46.275  36.997  27.261  1.00  0.00     0.127 S 
ATOM     88  O   UNL A   1      46.824  36.331  26.081  1.00  0.00    -0.237 OA
ATOM     89  O   UNL A   1      44.859  37.351  27.158  1.00  0.00    -0.237 OA
ATOM     90  O   UNL A   1      47.117  38.035  27.839  1.00  0.00    -0.744 OA
ENDBRANCH  84  87
ENDBRANCH  57  80
ENDBRANCH  31  32
ENDBRANCH  23  26
ENDBRANCH  21  22
ENDBRANCH  20  21
ENDBRANCH   1  20
TORSDOF 18
ENDMDL
