MODEL 1
REMARK VINA RESULT:     -11.8      0.000      0.000
REMARK SMILES COc1ccc(C(=O)N2CC[C@@H](C(=O)NCCCNC(=O)c3ccc(-c4c5nc(c(-c6cccc(S(=O)(=O)[O-])c6F)c6ccc([nH]6)c(-c6cccc(S(=O)(=O)[O-])c6F)c6nc(c(-c7cccc(S(=O)(=O)[O-])c7F)c7ccc4[nH]7)C=C6)C=C5)cc3)[C@H]2C)cc1O
REMARK SMILES IDX 17 1 16 2 15 3 13 4 14 5 12 7 9 8 10 9 85 10 11 11 86 12
REMARK SMILES IDX 7 13 8 14 6 15 3 16 4 17 88 18 5 19 87 20 2 21 1 22 89 23
REMARK SMILES IDX 18 25 19 26 20 27 21 29 22 30 23 31 84 32 24 33 83 34 25 35
REMARK SMILES IDX 26 36 27 37 77 38 28 39 82 40 76 41 78 42 29 43 81 44 75 45
REMARK SMILES IDX 74 46 30 48 62 49 42 50 61 51 43 52 46 53 60 54 79 55 44 56
REMARK SMILES IDX 45 57 59 59 80 60 47 61 31 62 32 63 40 64 33 65 35 66 41 67
REMARK SMILES IDX 34 68 36 69 37 70 38 71 39 72 63 73 64 74 72 75 65 76 67 77
REMARK SMILES IDX 73 78 66 79 68 80 69 81 70 82 71 83 48 84 49 85 57 86 50 87
REMARK SMILES IDX 52 88 58 89 51 90 53 91 54 92 55 93 56 94
REMARK H PARENT 15 6 89 24 19 28 78 47 46 58
REMARK Flexibility Score: inf
ROOT
ATOM      1  C   UNL A   1      31.464  32.174  26.787  1.00  0.00     0.042 C 
ENDROOT
BRANCH   1   2
ATOM      2  C   UNL A   1      31.642  30.791  26.162  1.00  0.00     0.117 C 
BRANCH   2   3
ATOM      3  N   UNL A   1      31.666  29.726  27.153  1.00  0.00    -0.356 N 
ATOM      4  C   UNL A   1      31.546  28.380  27.062  1.00  0.00     0.225 C 
ATOM      5  O   UNL A   1      31.608  27.752  28.125  1.00  0.00    -0.275 OA
ATOM      6  H   UNL A   1      31.795  30.049  28.074  1.00  0.00     0.163 HD
BRANCH   4   7
ATOM      7  C   UNL A   1      31.372  27.616  25.760  1.00  0.00     0.102 C 
ATOM      8  N   UNL A   1      32.408  25.737  24.721  1.00  0.00    -0.335 N 
ATOM      9  C   UNL A   1      30.988  25.463  24.785  1.00  0.00     0.121 C 
ATOM     10  C   UNL A   1      32.624  27.171  24.971  1.00  0.00     0.094 C 
ATOM     11  C   UNL A   1      30.470  26.382  25.869  1.00  0.00     0.037 C 
ATOM     12  C   UNL A   1      33.975  27.584  25.523  1.00  0.00     0.032 C 
BRANCH   8  13
ATOM     13  C   UNL A   1      33.144  25.008  23.787  1.00  0.00     0.254 C 
ATOM     14  O   UNL A   1      32.885  25.031  22.586  1.00  0.00    -0.269 OA
BRANCH  13  15
ATOM     15  C   UNL A   1      34.192  24.081  24.291  1.00  0.00     0.043 A 
ATOM     16  C   UNL A   1      36.156  22.270  25.195  1.00  0.00     0.160 A 
ATOM     17  C   UNL A   1      36.114  22.687  23.857  1.00  0.00     0.051 A 
ATOM     18  C   UNL A   1      35.201  22.780  26.075  1.00  0.00     0.158 A 
ATOM     19  C   UNL A   1      35.150  23.590  23.404  1.00  0.00     0.018 A 
ATOM     20  C   UNL A   1      34.193  23.631  25.615  1.00  0.00     0.064 A 
BRANCH  16  21
ATOM     21  O   UNL A   1      37.165  21.390  25.429  1.00  0.00    -0.493 OA
ATOM     22  C   UNL A   1      38.467  21.833  25.777  1.00  0.00     0.278 C 
ENDBRANCH  16  21
BRANCH  18  23
ATOM     23  O   UNL A   1      35.187  22.557  27.422  1.00  0.00    -0.504 OA
ATOM     24  H   UNL A   1      35.267  23.276  28.017  1.00  0.00     0.293 HD
ENDBRANCH  18  23
ENDBRANCH  13  15
ENDBRANCH   8  13
ENDBRANCH   4   7
ENDBRANCH   2   3
ENDBRANCH   1   2
BRANCH   1  25
ATOM     25  C   UNL A   1      32.755  32.880  27.174  1.00  0.00     0.118 C 
BRANCH  25  26
ATOM     26  N   UNL A   1      32.535  34.226  27.675  1.00  0.00    -0.352 N 
ATOM     27  C   UNL A   1      33.116  34.882  28.734  1.00  0.00     0.251 C 
ATOM     28  H   UNL A   1      31.864  34.749  27.180  1.00  0.00     0.163 HD
ATOM     29  O   UNL A   1      32.643  35.955  29.102  1.00  0.00    -0.269 OA
BRANCH  27  30
ATOM     30  C   UNL A   1      34.286  34.311  29.448  1.00  0.00     0.039 A 
ATOM     31  C   UNL A   1      34.066  33.552  30.602  1.00  0.00     0.014 A 
ATOM     32  C   UNL A   1      35.597  34.551  29.026  1.00  0.00     0.014 A 
ATOM     33  C   UNL A   1      35.148  32.996  31.293  1.00  0.00     0.010 A 
ATOM     34  C   UNL A   1      36.665  33.915  29.656  1.00  0.00     0.010 A 
ATOM     35  C   UNL A   1      36.458  33.148  30.811  1.00  0.00    -0.014 A 
BRANCH  35  36
ATOM     36  C   UNL A   1      37.619  32.532  31.509  1.00  0.00     0.031 A 
ATOM     37  C   UNL A   1      38.374  31.390  30.875  1.00  0.00     0.074 A 
ATOM     38  C   UNL A   1      37.948  32.936  32.753  1.00  0.00     0.049 A 
ATOM     39  N   UNL A   1      39.374  30.695  31.354  1.00  0.00    -0.248 NA
ATOM     40  C   UNL A   1      37.926  30.949  29.543  1.00  0.00     0.031 C 
ATOM     41  C   UNL A   1      37.245  33.967  33.520  1.00  0.00     0.029 A 
ATOM     42  N   UNL A   1      38.938  32.508  33.603  1.00  0.00    -0.354 N 
ATOM     43  C   UNL A   1      39.641  29.710  30.409  1.00  0.00     0.074 A 
ATOM     44  C   UNL A   1      38.678  29.876  29.345  1.00  0.00     0.031 C 
ATOM     45  C   UNL A   1      37.825  34.090  34.724  1.00  0.00     0.029 A 
ATOM     46  C   UNL A   1      38.923  33.133  34.828  1.00  0.00     0.049 A 
ATOM     47  H   UNL A   1      39.597  31.819  33.357  1.00  0.00     0.167 HD
ATOM     48  C   UNL A   1      40.618  28.771  30.409  1.00  0.00     0.034 A 
ATOM     49  C   UNL A   1      39.699  32.952  35.916  1.00  0.00     0.034 A 
ATOM     50  C   UNL A   1      41.616  28.645  31.437  1.00  0.00     0.049 A 
ATOM     51  C   UNL A   1      40.820  31.953  35.865  1.00  0.00     0.074 A 
ATOM     52  C   UNL A   1      42.717  27.808  31.467  1.00  0.00     0.029 A 
ATOM     53  N   UNL A   1      41.631  29.369  32.618  1.00  0.00    -0.354 N 
ATOM     54  N   UNL A   1      41.168  31.154  34.884  1.00  0.00    -0.248 NA
ATOM     55  C   UNL A   1      41.681  31.855  37.052  1.00  0.00     0.031 C 
ATOM     56  C   UNL A   1      43.384  28.007  32.681  1.00  0.00     0.029 A 
ATOM     57  C   UNL A   1      42.713  28.989  33.394  1.00  0.00     0.049 A 
ATOM     58  H   UNL A   1      40.969  30.053  32.869  1.00  0.00     0.167 HD
ATOM     59  C   UNL A   1      42.303  30.483  35.325  1.00  0.00     0.074 A 
ATOM     60  C   UNL A   1      42.598  30.986  36.650  1.00  0.00     0.031 C 
ATOM     61  C   UNL A   1      43.027  29.528  34.691  1.00  0.00     0.034 A 
BRANCH  48  62
ATOM     62  C   UNL A   1      40.689  27.834  29.230  1.00  0.00     0.023 A 
ATOM     63  C   UNL A   1      39.848  26.703  29.185  1.00  0.00     0.012 A 
ATOM     64  C   UNL A   1      41.546  28.100  28.144  1.00  0.00     0.148 A 
ATOM     65  C   UNL A   1      39.887  25.829  28.099  1.00  0.00     0.002 A 
ATOM     66  C   UNL A   1      41.545  27.249  27.043  1.00  0.00     0.091 A 
ATOM     67  F   UNL A   1      42.353  29.167  28.211  1.00  0.00    -0.205 F 
ATOM     68  C   UNL A   1      40.727  26.108  27.025  1.00  0.00     0.022 A 
BRANCH  66  69
ATOM     69  S   UNL A   1      42.531  27.569  25.576  1.00  0.00     0.127 S 
ATOM     70  O   UNL A   1      43.880  27.620  26.133  1.00  0.00    -0.237 OA
ATOM     71  O   UNL A   1      42.254  26.389  24.755  1.00  0.00    -0.237 OA
ATOM     72  O   UNL A   1      42.031  28.820  25.023  1.00  0.00    -0.744 OA
ENDBRANCH  66  69
ENDBRANCH  48  62
BRANCH  49  73
ATOM     73  C   UNL A   1      39.471  33.786  37.129  1.00  0.00     0.023 A 
ATOM     74  C   UNL A   1      39.877  35.134  37.137  1.00  0.00     0.012 A 
ATOM     75  C   UNL A   1      38.812  33.262  38.256  1.00  0.00     0.148 A 
ATOM     76  C   UNL A   1      39.654  35.937  38.255  1.00  0.00     0.002 A 
ATOM     77  C   UNL A   1      38.539  34.084  39.342  1.00  0.00     0.091 A 
ATOM     78  F   UNL A   1      38.447  31.972  38.238  1.00  0.00    -0.205 F 
ATOM     79  C   UNL A   1      38.974  35.418  39.352  1.00  0.00     0.022 A 
BRANCH  77  80
ATOM     80  S   UNL A   1      37.516  33.525  40.707  1.00  0.00     0.127 S 
ATOM     81  O   UNL A   1      36.359  32.972  40.013  1.00  0.00    -0.237 OA
ATOM     82  O   UNL A   1      38.383  32.540  41.356  1.00  0.00    -0.237 OA
ATOM     83  O   UNL A   1      37.281  34.721  41.509  1.00  0.00    -0.744 OA
ENDBRANCH  77  80
ENDBRANCH  49  73
BRANCH  61  84
ATOM     84  C   UNL A   1      44.231  28.973  35.406  1.00  0.00     0.023 A 
ATOM     85  C   UNL A   1      45.498  29.552  35.198  1.00  0.00     0.012 A 
ATOM     86  C   UNL A   1      44.093  27.927  36.341  1.00  0.00     0.148 A 
ATOM     87  C   UNL A   1      46.615  29.078  35.886  1.00  0.00     0.002 A 
ATOM     88  C   UNL A   1      45.202  27.494  37.059  1.00  0.00     0.091 A 
ATOM     89  F   UNL A   1      42.882  27.376  36.510  1.00  0.00    -0.205 F 
ATOM     90  C   UNL A   1      46.465  28.059  36.824  1.00  0.00     0.022 A 
BRANCH  88  91
ATOM     91  S   UNL A   1      45.082  26.255  38.354  1.00  0.00     0.127 S 
ATOM     92  O   UNL A   1      44.621  25.086  37.606  1.00  0.00    -0.237 OA
ATOM     93  O   UNL A   1      46.463  26.168  38.830  1.00  0.00    -0.237 OA
ATOM     94  O   UNL A   1      44.140  26.785  39.330  1.00  0.00    -0.744 OA
ENDBRANCH  88  91
ENDBRANCH  61  84
ENDBRANCH  35  36
ENDBRANCH  27  30
ENDBRANCH  25  26
ENDBRANCH   1  25
TORSDOF 17
ENDMDL
MODEL 2
REMARK VINA RESULT:     -11.8      6.322     11.823
REMARK SMILES COc1ccc(C(=O)N2CC[C@@H](C(=O)NCCCNC(=O)c3ccc(-c4c5nc(c(-c6cccc(S(=O)(=O)[O-])c6F)c6ccc([nH]6)c(-c6cccc(S(=O)(=O)[O-])c6F)c6nc(c(-c7cccc(S(=O)(=O)[O-])c7F)c7ccc4[nH]7)C=C6)C=C5)cc3)[C@H]2C)cc1O
REMARK SMILES IDX 17 1 16 2 15 3 13 4 14 5 12 7 9 8 10 9 85 10 11 11 86 12
REMARK SMILES IDX 7 13 8 14 6 15 3 16 4 17 88 18 5 19 87 20 2 21 1 22 89 23
REMARK SMILES IDX 18 25 19 26 20 27 21 29 22 30 23 31 84 32 24 33 83 34 25 35
REMARK SMILES IDX 26 36 27 37 77 38 28 39 82 40 76 41 78 42 29 43 81 44 75 45
REMARK SMILES IDX 74 46 30 48 62 49 42 50 61 51 43 52 46 53 60 54 79 55 44 56
REMARK SMILES IDX 45 57 59 59 80 60 47 61 31 62 32 63 40 64 33 65 35 66 41 67
REMARK SMILES IDX 34 68 36 69 37 70 38 71 39 72 63 73 64 74 72 75 65 76 67 77
REMARK SMILES IDX 73 78 66 79 68 80 69 81 70 82 71 83 48 84 49 85 57 86 50 87
REMARK SMILES IDX 52 88 58 89 51 90 53 91 54 92 55 93 56 94
REMARK H PARENT 15 6 89 24 19 28 78 47 46 58
REMARK Flexibility Score: inf
ROOT
ATOM      1  C   UNL A   1      37.753  19.518  24.994  1.00  0.00     0.042 C 
ENDROOT
BRANCH   1   2
ATOM      2  C   UNL A   1      36.521  20.411  24.858  1.00  0.00     0.117 C 
BRANCH   2   3
ATOM      3  N   UNL A   1      36.781  21.609  24.073  1.00  0.00    -0.356 N 
ATOM      4  C   UNL A   1      35.975  22.579  23.579  1.00  0.00     0.225 C 
ATOM      5  O   UNL A   1      36.532  23.477  22.935  1.00  0.00    -0.275 OA
ATOM      6  H   UNL A   1      37.733  21.740  23.860  1.00  0.00     0.163 HD
BRANCH   4   7
ATOM      7  C   UNL A   1      34.472  22.641  23.788  1.00  0.00     0.102 C 
ATOM      8  N   UNL A   1      32.921  24.238  24.642  1.00  0.00    -0.335 N 
ATOM      9  C   UNL A   1      32.474  23.874  23.315  1.00  0.00     0.121 C 
ATOM     10  C   UNL A   1      33.914  23.249  25.094  1.00  0.00     0.094 C 
ATOM     11  C   UNL A   1      33.703  23.305  22.641  1.00  0.00     0.037 C 
ATOM     12  C   UNL A   1      34.922  23.701  26.135  1.00  0.00     0.032 C 
BRANCH   8  13
ATOM     13  C   UNL A   1      31.970  24.802  25.491  1.00  0.00     0.254 C 
ATOM     14  O   UNL A   1      30.940  24.210  25.807  1.00  0.00    -0.269 OA
BRANCH  13  15
ATOM     15  C   UNL A   1      32.160  26.214  25.916  1.00  0.00     0.043 A 
ATOM     16  C   UNL A   1      32.447  28.907  26.701  1.00  0.00     0.160 A 
ATOM     17  C   UNL A   1      31.445  28.095  27.250  1.00  0.00     0.051 A 
ATOM     18  C   UNL A   1      33.307  28.347  25.756  1.00  0.00     0.158 A 
ATOM     19  C   UNL A   1      31.302  26.757  26.873  1.00  0.00     0.018 A 
ATOM     20  C   UNL A   1      33.128  27.030  25.324  1.00  0.00     0.064 A 
BRANCH  16  21
ATOM     21  O   UNL A   1      32.414  30.173  27.198  1.00  0.00    -0.493 OA
ATOM     22  C   UNL A   1      31.765  31.225  26.500  1.00  0.00     0.278 C 
ENDBRANCH  16  21
BRANCH  18  23
ATOM     23  O   UNL A   1      34.394  28.978  25.223  1.00  0.00    -0.504 OA
ATOM     24  H   UNL A   1      35.008  29.410  25.785  1.00  0.00     0.293 HD
ENDBRANCH  18  23
ENDBRANCH  13  15
ENDBRANCH   8  13
ENDBRANCH   4   7
ENDBRANCH   2   3
ENDBRANCH   1   2
BRANCH   1  25
ATOM     25  C   UNL A   1      38.917  20.132  25.756  1.00  0.00     0.118 C 
BRANCH  25  26
ATOM     26  N   UNL A   1      40.021  19.207  25.945  1.00  0.00    -0.352 N 
ATOM     27  C   UNL A   1      41.357  19.454  26.159  1.00  0.00     0.251 C 
ATOM     28  H   UNL A   1      39.775  18.254  25.914  1.00  0.00     0.163 HD
ATOM     29  O   UNL A   1      42.152  18.519  26.100  1.00  0.00    -0.269 OA
BRANCH  27  30
ATOM     30  C   UNL A   1      41.853  20.825  26.437  1.00  0.00     0.039 A 
ATOM     31  C   UNL A   1      41.907  21.748  25.388  1.00  0.00     0.014 A 
ATOM     32  C   UNL A   1      42.311  21.200  27.703  1.00  0.00     0.014 A 
ATOM     33  C   UNL A   1      42.365  23.050  25.621  1.00  0.00     0.010 A 
ATOM     34  C   UNL A   1      42.671  22.523  27.956  1.00  0.00     0.010 A 
ATOM     35  C   UNL A   1      42.725  23.460  26.914  1.00  0.00    -0.014 A 
BRANCH  35  36
ATOM     36  C   UNL A   1      43.177  24.850  27.191  1.00  0.00     0.031 A 
ATOM     37  C   UNL A   1      42.256  25.831  27.872  1.00  0.00     0.074 A 
ATOM     38  C   UNL A   1      44.384  25.264  26.755  1.00  0.00     0.049 A 
ATOM     39  N   UNL A   1      42.455  27.095  28.147  1.00  0.00    -0.248 NA
ATOM     40  C   UNL A   1      40.925  25.339  28.267  1.00  0.00     0.031 C 
ATOM     41  C   UNL A   1      45.337  24.446  26.002  1.00  0.00     0.029 A 
ATOM     42  N   UNL A   1      45.003  26.486  26.855  1.00  0.00    -0.354 N 
ATOM     43  C   UNL A   1      41.266  27.558  28.700  1.00  0.00     0.074 A 
ATOM     44  C   UNL A   1      40.339  26.448  28.690  1.00  0.00     0.031 C 
ATOM     45  C   UNL A   1      46.417  25.187  25.709  1.00  0.00     0.029 A 
ATOM     46  C   UNL A   1      46.226  26.539  26.228  1.00  0.00     0.049 A 
ATOM     47  H   UNL A   1      44.608  27.252  27.331  1.00  0.00     0.167 HD
ATOM     48  C   UNL A   1      40.976  28.784  29.198  1.00  0.00     0.034 A 
ATOM     49  C   UNL A   1      47.094  27.559  26.080  1.00  0.00     0.034 A 
ATOM     50  C   UNL A   1      41.917  29.869  29.266  1.00  0.00     0.049 A 
ATOM     51  C   UNL A   1      46.781  28.891  26.704  1.00  0.00     0.074 A 
ATOM     52  C   UNL A   1      41.759  31.108  29.862  1.00  0.00     0.029 A 
ATOM     53  N   UNL A   1      43.187  29.852  28.712  1.00  0.00    -0.354 N 
ATOM     54  N   UNL A   1      45.718  29.254  27.382  1.00  0.00    -0.248 NA
ATOM     55  C   UNL A   1      47.799  29.943  26.576  1.00  0.00     0.031 C 
ATOM     56  C   UNL A   1      42.925  31.850  29.646  1.00  0.00     0.029 A 
ATOM     57  C   UNL A   1      43.820  31.062  28.939  1.00  0.00     0.049 A 
ATOM     58  H   UNL A   1      43.582  29.090  28.229  1.00  0.00     0.167 HD
ATOM     59  C   UNL A   1      45.954  30.562  27.788  1.00  0.00     0.074 A 
ATOM     60  C   UNL A   1      47.270  30.921  27.299  1.00  0.00     0.031 C 
ATOM     61  C   UNL A   1      45.147  31.394  28.490  1.00  0.00     0.034 A 
BRANCH  48  62
ATOM     62  C   UNL A   1      39.595  29.004  29.762  1.00  0.00     0.023 A 
ATOM     63  C   UNL A   1      39.297  28.567  31.069  1.00  0.00     0.012 A 
ATOM     64  C   UNL A   1      38.611  29.689  29.021  1.00  0.00     0.148 A 
ATOM     65  C   UNL A   1      38.030  28.770  31.615  1.00  0.00     0.002 A 
ATOM     66  C   UNL A   1      37.365  29.929  29.591  1.00  0.00     0.091 A 
ATOM     67  F   UNL A   1      38.904  30.078  27.774  1.00  0.00    -0.205 F 
ATOM     68  C   UNL A   1      37.069  29.460  30.881  1.00  0.00     0.022 A 
BRANCH  66  69
ATOM     69  S   UNL A   1      36.090  30.879  28.757  1.00  0.00     0.127 S 
ATOM     70  O   UNL A   1      35.654  29.945  27.722  1.00  0.00    -0.237 OA
ATOM     71  O   UNL A   1      35.117  31.099  29.828  1.00  0.00    -0.237 OA
ATOM     72  O   UNL A   1      36.743  32.089  28.276  1.00  0.00    -0.744 OA
ENDBRANCH  66  69
ENDBRANCH  48  62
BRANCH  49  73
ATOM     73  C   UNL A   1      48.376  27.337  25.353  1.00  0.00     0.023 A 
ATOM     74  C   UNL A   1      49.509  26.888  26.057  1.00  0.00     0.012 A 
ATOM     75  C   UNL A   1      48.462  27.524  23.962  1.00  0.00     0.148 A 
ATOM     76  C   UNL A   1      50.712  26.653  25.392  1.00  0.00     0.002 A 
ATOM     77  C   UNL A   1      49.645  27.231  23.297  1.00  0.00     0.091 A 
ATOM     78  F   UNL A   1      47.378  27.969  23.310  1.00  0.00    -0.205 F 
ATOM     79  C   UNL A   1      50.778  26.811  24.010  1.00  0.00     0.022 A 
BRANCH  77  80
ATOM     80  S   UNL A   1      49.742  27.246  21.504  1.00  0.00     0.127 S 
ATOM     81  O   UNL A   1      49.604  28.666  21.205  1.00  0.00    -0.237 OA
ATOM     82  O   UNL A   1      51.073  26.686  21.265  1.00  0.00    -0.237 OA
ATOM     83  O   UNL A   1      48.652  26.382  21.066  1.00  0.00    -0.744 OA
ENDBRANCH  77  80
ENDBRANCH  49  73
BRANCH  61  84
ATOM     84  C   UNL A   1      45.667  32.773  28.803  1.00  0.00     0.023 A 
ATOM     85  C   UNL A   1      46.396  32.996  29.987  1.00  0.00     0.012 A 
ATOM     86  C   UNL A   1      45.495  33.830  27.886  1.00  0.00     0.148 A 
ATOM     87  C   UNL A   1      46.920  34.257  30.270  1.00  0.00     0.002 A 
ATOM     88  C   UNL A   1      46.063  35.071  28.152  1.00  0.00     0.091 A 
ATOM     89  F   UNL A   1      44.780  33.604  26.775  1.00  0.00    -0.205 F 
ATOM     90  C   UNL A   1      46.765  35.289  29.348  1.00  0.00     0.022 A 
BRANCH  88  91
ATOM     91  S   UNL A   1      45.995  36.429  26.978  1.00  0.00     0.127 S 
ATOM     92  O   UNL A   1      44.557  36.680  26.895  1.00  0.00    -0.237 OA
ATOM     93  O   UNL A   1      46.758  37.472  27.663  1.00  0.00    -0.237 OA
ATOM     94  O   UNL A   1      46.615  35.932  25.756  1.00  0.00    -0.744 OA
ENDBRANCH  88  91
ENDBRANCH  61  84
ENDBRANCH  35  36
ENDBRANCH  27  30
ENDBRANCH  25  26
ENDBRANCH   1  25
TORSDOF 17
ENDMDL
MODEL 3
REMARK VINA RESULT:     -11.8      2.345      8.095
REMARK SMILES COc1ccc(C(=O)N2CC[C@@H](C(=O)NCCCNC(=O)c3ccc(-c4c5nc(c(-c6cccc(S(=O)(=O)[O-])c6F)c6ccc([nH]6)c(-c6cccc(S(=O)(=O)[O-])c6F)c6nc(c(-c7cccc(S(=O)(=O)[O-])c7F)c7ccc4[nH]7)C=C6)C=C5)cc3)[C@H]2C)cc1O
REMARK SMILES IDX 17 1 16 2 15 3 13 4 14 5 12 7 9 8 10 9 85 10 11 11 86 12
REMARK SMILES IDX 7 13 8 14 6 15 3 16 4 17 88 18 5 19 87 20 2 21 1 22 89 23
REMARK SMILES IDX 18 25 19 26 20 27 21 29 22 30 23 31 84 32 24 33 83 34 25 35
REMARK SMILES IDX 26 36 27 37 77 38 28 39 82 40 76 41 78 42 29 43 81 44 75 45
REMARK SMILES IDX 74 46 30 48 62 49 42 50 61 51 43 52 46 53 60 54 79 55 44 56
REMARK SMILES IDX 45 57 59 59 80 60 47 61 31 62 32 63 40 64 33 65 35 66 41 67
REMARK SMILES IDX 34 68 36 69 37 70 38 71 39 72 63 73 64 74 72 75 65 76 67 77
REMARK SMILES IDX 73 78 66 79 68 80 69 81 70 82 71 83 48 84 49 85 57 86 50 87
REMARK SMILES IDX 52 88 58 89 51 90 53 91 54 92 55 93 56 94
REMARK H PARENT 15 6 89 24 19 28 78 47 46 58
REMARK Flexibility Score: inf
ROOT
ATOM      1  C   UNL A   1      31.556  30.806  26.115  1.00  0.00     0.042 C 
ENDROOT
BRANCH   1   2
ATOM      2  C   UNL A   1      31.756  29.485  25.375  1.00  0.00     0.117 C 
BRANCH   2   3
ATOM      3  N   UNL A   1      31.451  28.327  26.202  1.00  0.00    -0.356 N 
ATOM      4  C   UNL A   1      31.292  27.011  25.922  1.00  0.00     0.225 C 
ATOM      5  O   UNL A   1      31.027  26.276  26.880  1.00  0.00    -0.275 OA
ATOM      6  H   UNL A   1      31.339  28.543  27.156  1.00  0.00     0.163 HD
BRANCH   4   7
ATOM      7  C   UNL A   1      31.444  26.399  24.540  1.00  0.00     0.102 C 
ATOM      8  N   UNL A   1      32.243  24.335  23.654  1.00  0.00    -0.335 N 
ATOM      9  C   UNL A   1      30.898  24.525  23.152  1.00  0.00     0.121 C 
ATOM     10  C   UNL A   1      32.730  25.613  24.197  1.00  0.00     0.094 C 
ATOM     11  C   UNL A   1      30.270  25.513  24.110  1.00  0.00     0.037 C 
ATOM     12  C   UNL A   1      33.808  25.550  25.263  1.00  0.00     0.032 C 
BRANCH   8  13
ATOM     13  C   UNL A   1      33.056  23.450  22.946  1.00  0.00     0.254 C 
ATOM     14  O   UNL A   1      33.497  23.717  21.831  1.00  0.00    -0.269 OA
BRANCH  13  15
ATOM     15  C   UNL A   1      33.282  22.096  23.517  1.00  0.00     0.043 A 
ATOM     16  C   UNL A   1      33.643  19.533  24.637  1.00  0.00     0.160 A 
ATOM     17  C   UNL A   1      32.541  19.819  23.817  1.00  0.00     0.051 A 
ATOM     18  C   UNL A   1      34.564  20.551  24.882  1.00  0.00     0.158 A 
ATOM     19  C   UNL A   1      32.361  21.083  23.252  1.00  0.00     0.018 A 
ATOM     20  C   UNL A   1      34.354  21.837  24.376  1.00  0.00     0.064 A 
BRANCH  16  21
ATOM     21  O   UNL A   1      33.631  18.250  25.086  1.00  0.00    -0.493 OA
ATOM     22  C   UNL A   1      32.434  17.488  25.118  1.00  0.00     0.278 C 
ENDBRANCH  16  21
BRANCH  18  23
ATOM     23  O   UNL A   1      35.738  20.391  25.562  1.00  0.00    -0.504 OA
ATOM     24  H   UNL A   1      35.809  20.684  26.449  1.00  0.00     0.293 HD
ENDBRANCH  18  23
ENDBRANCH  13  15
ENDBRANCH   8  13
ENDBRANCH   4   7
ENDBRANCH   2   3
ENDBRANCH   1   2
BRANCH   1  25
ATOM     25  C   UNL A   1      32.655  31.169  27.102  1.00  0.00     0.118 C 
BRANCH  25  26
ATOM     26  N   UNL A   1      32.939  32.593  27.134  1.00  0.00    -0.352 N 
ATOM     27  C   UNL A   1      33.960  33.279  27.748  1.00  0.00     0.251 C 
ATOM     28  H   UNL A   1      32.300  33.156  26.638  1.00  0.00     0.163 HD
ATOM     29  O   UNL A   1      33.903  34.505  27.807  1.00  0.00    -0.269 OA
BRANCH  27  30
ATOM     30  C   UNL A   1      35.113  32.566  28.355  1.00  0.00     0.039 A 
ATOM     31  C   UNL A   1      36.327  33.246  28.495  1.00  0.00     0.014 A 
ATOM     32  C   UNL A   1      35.029  31.227  28.745  1.00  0.00     0.014 A 
ATOM     33  C   UNL A   1      37.429  32.603  29.069  1.00  0.00     0.010 A 
ATOM     34  C   UNL A   1      36.095  30.620  29.406  1.00  0.00     0.010 A 
ATOM     35  C   UNL A   1      37.317  31.292  29.557  1.00  0.00    -0.014 A 
BRANCH  35  36
ATOM     36  C   UNL A   1      38.465  30.603  30.207  1.00  0.00     0.031 A 
ATOM     37  C   UNL A   1      38.886  30.974  31.607  1.00  0.00     0.074 A 
ATOM     38  C   UNL A   1      39.190  29.703  29.511  1.00  0.00     0.049 A 
ATOM     39  N   UNL A   1      39.891  30.523  32.313  1.00  0.00    -0.248 NA
ATOM     40  C   UNL A   1      38.096  32.011  32.291  1.00  0.00     0.031 C 
ATOM     41  C   UNL A   1      38.949  29.319  28.119  1.00  0.00     0.029 A 
ATOM     42  N   UNL A   1      40.295  28.972  29.871  1.00  0.00    -0.354 N 
ATOM     43  C   UNL A   1      39.882  31.251  33.498  1.00  0.00     0.074 A 
ATOM     44  C   UNL A   1      38.793  32.196  33.402  1.00  0.00     0.031 C 
ATOM     45  C   UNL A   1      39.878  28.424  27.744  1.00  0.00     0.029 A 
ATOM     46  C   UNL A   1      40.794  28.189  28.856  1.00  0.00     0.049 A 
ATOM     47  H   UNL A   1      40.692  29.004  30.771  1.00  0.00     0.167 HD
ATOM     48  C   UNL A   1      40.686  31.127  34.582  1.00  0.00     0.034 A 
ATOM     49  C   UNL A   1      41.871  27.379  28.819  1.00  0.00     0.034 A 
ATOM     50  C   UNL A   1      41.729  30.144  34.703  1.00  0.00     0.049 A 
ATOM     51  C   UNL A   1      42.706  27.205  30.057  1.00  0.00     0.074 A 
ATOM     52  C   UNL A   1      42.516  29.858  35.805  1.00  0.00     0.029 A 
ATOM     53  N   UNL A   1      42.139  29.295  33.688  1.00  0.00    -0.354 N 
ATOM     54  N   UNL A   1      42.568  27.774  31.231  1.00  0.00    -0.248 NA
ATOM     55  C   UNL A   1      43.821  26.250  29.981  1.00  0.00     0.031 C 
ATOM     56  C   UNL A   1      43.419  28.851  35.448  1.00  0.00     0.029 A 
ATOM     57  C   UNL A   1      43.177  28.492  34.131  1.00  0.00     0.049 A 
ATOM     58  H   UNL A   1      41.749  29.265  32.785  1.00  0.00     0.167 HD
ATOM     59  C   UNL A   1      43.556  27.224  32.039  1.00  0.00     0.074 A 
ATOM     60  C   UNL A   1      44.271  26.260  31.228  1.00  0.00     0.031 C 
ATOM     61  C   UNL A   1      43.852  27.503  33.332  1.00  0.00     0.034 A 
BRANCH  48  62
ATOM     62  C   UNL A   1      40.434  32.045  35.751  1.00  0.00     0.023 A 
ATOM     63  C   UNL A   1      41.279  33.153  35.964  1.00  0.00     0.012 A 
ATOM     64  C   UNL A   1      39.331  31.844  36.605  1.00  0.00     0.148 A 
ATOM     65  C   UNL A   1      41.058  34.023  37.031  1.00  0.00     0.002 A 
ATOM     66  C   UNL A   1      39.089  32.743  37.638  1.00  0.00     0.091 A 
ATOM     67  F   UNL A   1      38.550  30.775  36.401  1.00  0.00    -0.205 F 
ATOM     68  C   UNL A   1      39.958  33.823  37.861  1.00  0.00     0.022 A 
BRANCH  66  69
ATOM     69  S   UNL A   1      37.653  32.618  38.709  1.00  0.00     0.127 S 
ATOM     70  O   UNL A   1      37.715  31.218  39.124  1.00  0.00    -0.237 OA
ATOM     71  O   UNL A   1      37.969  33.582  39.764  1.00  0.00    -0.237 OA
ATOM     72  O   UNL A   1      36.507  32.978  37.885  1.00  0.00    -0.744 OA
ENDBRANCH  66  69
ENDBRANCH  48  62
BRANCH  49  73
ATOM     73  C   UNL A   1      42.184  26.625  27.573  1.00  0.00     0.023 A 
ATOM     74  C   UNL A   1      42.818  27.280  26.501  1.00  0.00     0.012 A 
ATOM     75  C   UNL A   1      41.896  25.253  27.465  1.00  0.00     0.148 A 
ATOM     76  C   UNL A   1      43.138  26.587  25.333  1.00  0.00     0.002 A 
ATOM     77  C   UNL A   1      42.272  24.555  26.324  1.00  0.00     0.091 A 
ATOM     78  F   UNL A   1      41.277  24.648  28.489  1.00  0.00    -0.205 F 
ATOM     79  C   UNL A   1      42.878  25.222  25.249  1.00  0.00     0.022 A 
BRANCH  77  80
ATOM     80  S   UNL A   1      42.124  22.769  26.226  1.00  0.00     0.127 S 
ATOM     81  O   UNL A   1      40.681  22.578  26.313  1.00  0.00    -0.237 OA
ATOM     82  O   UNL A   1      42.712  22.484  24.916  1.00  0.00    -0.237 OA
ATOM     83  O   UNL A   1      42.913  22.268  27.346  1.00  0.00    -0.744 OA
ENDBRANCH  77  80
ENDBRANCH  49  73
BRANCH  61  84
ATOM     84  C   UNL A   1      44.982  26.740  33.972  1.00  0.00     0.023 A 
ATOM     85  C   UNL A   1      46.286  27.271  33.954  1.00  0.00     0.012 A 
ATOM     86  C   UNL A   1      44.736  25.532  34.657  1.00  0.00     0.148 A 
ATOM     87  C   UNL A   1      47.334  26.597  34.580  1.00  0.00     0.002 A 
ATOM     88  C   UNL A   1      45.777  24.892  35.320  1.00  0.00     0.091 A 
ATOM     89  F   UNL A   1      43.492  25.032  34.645  1.00  0.00    -0.205 F 
ATOM     90  C   UNL A   1      47.078  25.417  35.273  1.00  0.00     0.022 A 
BRANCH  88  91
ATOM     91  S   UNL A   1      45.518  23.419  36.316  1.00  0.00     0.127 S 
ATOM     92  O   UNL A   1      46.881  22.908  36.450  1.00  0.00    -0.237 OA
ATOM     93  O   UNL A   1      44.949  23.971  37.546  1.00  0.00    -0.237 OA
ATOM     94  O   UNL A   1      44.606  22.576  35.554  1.00  0.00    -0.744 OA
ENDBRANCH  88  91
ENDBRANCH  61  84
ENDBRANCH  35  36
ENDBRANCH  27  30
ENDBRANCH  25  26
ENDBRANCH   1  25
TORSDOF 17
ENDMDL
