MODEL 1
REMARK VINA RESULT:     -13.3      0.000      0.000
REMARK SMILES Cc1ccc(S(=O)(=O)n2cc(C(=O)C(=O)NCC(=O)NCCCNC(=O)c3ccc(-c4c5nc(c(-c6cccc(S(=O)(=O)[O-])c6F)c6ccc([nH]6)c(-c6cccc(S(=O)(=O)[O-])c6F)c6nc(c(-c7cccc(S(=O)(=O)[O-])c7F)c7ccc4[nH]7)C=C6)C=C5)cc3)c3ccccc32)cc1
REMARK SMILES IDX 21 1 20 2 18 3 19 4 17 6 16 7 14 8 15 9 12 11 13 12 11 13
REMARK SMILES IDX 9 14 10 15 95 16 90 17 94 18 91 19 93 20 92 21 6 22 7 23
REMARK SMILES IDX 8 24 5 25 1 26 2 27 3 28 97 29 4 30 96 31 22 32 23 33 24 34
REMARK SMILES IDX 25 35 26 37 27 38 28 39 89 40 29 41 88 42 30 43 31 44 32 45
REMARK SMILES IDX 82 46 33 47 87 48 81 49 83 50 34 51 86 52 80 53 79 54 35 56
REMARK SMILES IDX 67 57 47 58 66 59 48 60 51 61 65 62 84 63 49 64 50 65 64 67
REMARK SMILES IDX 85 68 52 69 36 70 37 71 45 72 38 73 40 74 46 75 39 76 41 77
REMARK SMILES IDX 42 78 43 79 44 80 68 81 69 82 77 83 70 84 72 85 78 86 71 87
REMARK SMILES IDX 73 88 74 89 75 90 76 91 53 92 54 93 62 94 55 95 57 96 63 97
REMARK SMILES IDX 56 98 58 99 59 100 60 101 61 102
REMARK H PARENT 20 5 16 10 24 36 83 55 51 66
REMARK Flexibility Score: inf
ROOT
ATOM      1  C   UNL A   1      31.856  30.184  25.494  1.00  0.00     0.117 C 
ENDROOT
BRANCH   1   2
ATOM      2  N   UNL A   1      32.925  29.206  25.420  1.00  0.00    -0.355 N 
ATOM      3  C   UNL A   1      33.503  28.665  24.307  1.00  0.00     0.239 C 
ATOM      4  O   UNL A   1      34.439  27.876  24.442  1.00  0.00    -0.273 OA
ATOM      5  H   UNL A   1      33.279  28.892  26.284  1.00  0.00     0.163 HD
BRANCH   3   6
ATOM      6  C   UNL A   1      33.029  29.097  22.915  1.00  0.00     0.216 C 
BRANCH   6   7
ATOM      7  N   UNL A   1      31.876  28.341  22.437  1.00  0.00    -0.340 N 
ATOM      8  C   UNL A   1      31.735  27.016  22.085  1.00  0.00     0.292 C 
ATOM      9  O   UNL A   1      30.629  26.612  21.738  1.00  0.00    -0.265 OA
ATOM     10  H   UNL A   1      31.051  28.873  22.349  1.00  0.00     0.164 HD
BRANCH   8  11
ATOM     11  C   UNL A   1      32.944  26.048  22.102  1.00  0.00     0.252 C 
ATOM     12  O   UNL A   1      33.676  26.020  21.117  1.00  0.00    -0.283 OA
BRANCH  11  13
ATOM     13  C   UNL A   1      33.241  25.188  23.262  1.00  0.00     0.054 A 
ATOM     14  N   UNL A   1      34.195  23.702  24.637  1.00  0.00    -0.240 N 
ATOM     15  C   UNL A   1      34.370  24.414  23.476  1.00  0.00     0.117 A 
ATOM     16  C   UNL A   1      32.989  24.005  25.231  1.00  0.00     0.065 A 
ATOM     17  C   UNL A   1      32.372  24.943  24.390  1.00  0.00     0.012 A 
ATOM     18  C   UNL A   1      32.363  23.526  26.398  1.00  0.00     0.028 A 
ATOM     19  C   UNL A   1      31.098  25.431  24.757  1.00  0.00     0.011 A 
ATOM     20  C   UNL A   1      31.091  24.008  26.714  1.00  0.00     0.002 A 
ATOM     21  C   UNL A   1      30.468  24.954  25.911  1.00  0.00     0.001 A 
BRANCH  14  22
ATOM     22  S   UNL A   1      35.268  22.486  25.163  1.00  0.00     0.268 S 
ATOM     23  O   UNL A   1      35.249  22.560  26.617  1.00  0.00    -0.201 OA
ATOM     24  O   UNL A   1      36.479  22.658  24.396  1.00  0.00    -0.201 OA
BRANCH  22  25
ATOM     25  C   UNL A   1      34.585  20.908  24.711  1.00  0.00     0.088 A 
ATOM     26  C   UNL A   1      33.095  16.947  23.935  1.00  0.00     0.044 C 
ATOM     27  C   UNL A   1      33.614  18.333  24.183  1.00  0.00    -0.051 A 
ATOM     28  C   UNL A   1      34.935  18.514  24.610  1.00  0.00     0.005 A 
ATOM     29  C   UNL A   1      32.797  19.453  23.995  1.00  0.00     0.005 A 
ATOM     30  C   UNL A   1      35.419  19.795  24.879  1.00  0.00     0.022 A 
ATOM     31  C   UNL A   1      33.280  20.742  24.244  1.00  0.00     0.022 A 
ENDBRANCH  22  25
ENDBRANCH  14  22
ENDBRANCH  11  13
ENDBRANCH   8  11
ENDBRANCH   6   7
ENDBRANCH   3   6
ENDBRANCH   1   2
BRANCH   1  32
ATOM     32  C   UNL A   1      32.048  31.137  26.663  1.00  0.00     0.042 C 
BRANCH  32  33
ATOM     33  C   UNL A   1      33.156  30.701  27.600  1.00  0.00     0.118 C 
BRANCH  33  34
ATOM     34  N   UNL A   1      34.165  31.733  27.779  1.00  0.00    -0.352 N 
ATOM     35  C   UNL A   1      35.431  31.658  28.330  1.00  0.00     0.251 C 
ATOM     36  H   UNL A   1      33.906  32.625  27.454  1.00  0.00     0.163 HD
ATOM     37  O   UNL A   1      36.012  32.701  28.612  1.00  0.00    -0.269 OA
BRANCH  35  38
ATOM     38  C   UNL A   1      36.136  30.352  28.370  1.00  0.00     0.039 A 
ATOM     39  C   UNL A   1      36.363  29.845  29.655  1.00  0.00     0.014 A 
ATOM     40  C   UNL A   1      36.941  29.958  27.310  1.00  0.00     0.014 A 
ATOM     41  C   UNL A   1      37.589  29.272  29.942  1.00  0.00     0.010 A 
ATOM     42  C   UNL A   1      38.207  29.532  27.608  1.00  0.00     0.010 A 
ATOM     43  C   UNL A   1      38.543  29.273  28.939  1.00  0.00    -0.014 A 
BRANCH  43  44
ATOM     44  C   UNL A   1      39.911  28.866  29.116  1.00  0.00     0.031 A 
ATOM     45  C   UNL A   1      40.192  27.439  28.939  1.00  0.00     0.074 A 
ATOM     46  C   UNL A   1      40.873  29.811  29.142  1.00  0.00     0.049 A 
ATOM     47  N   UNL A   1      41.344  26.927  29.158  1.00  0.00    -0.248 NA
ATOM     48  C   UNL A   1      39.185  26.459  28.528  1.00  0.00     0.031 C 
ATOM     49  C   UNL A   1      42.271  29.685  28.757  1.00  0.00     0.029 A 
ATOM     50  N   UNL A   1      40.799  31.095  29.655  1.00  0.00    -0.354 N 
ATOM     51  C   UNL A   1      41.328  25.683  28.580  1.00  0.00     0.074 A 
ATOM     52  C   UNL A   1      39.939  25.365  28.386  1.00  0.00     0.031 C 
ATOM     53  C   UNL A   1      42.959  30.739  29.232  1.00  0.00     0.029 A 
ATOM     54  C   UNL A   1      42.068  31.465  30.118  1.00  0.00     0.049 A 
ATOM     55  H   UNL A   1      39.990  31.654  29.689  1.00  0.00     0.167 HD
ATOM     56  C   UNL A   1      42.518  25.171  28.176  1.00  0.00     0.034 A 
ATOM     57  C   UNL A   1      42.277  31.621  31.468  1.00  0.00     0.034 A 
ATOM     58  C   UNL A   1      43.630  25.990  28.692  1.00  0.00     0.049 A 
ATOM     59  C   UNL A   1      43.187  30.552  32.076  1.00  0.00     0.074 A 
ATOM     60  C   UNL A   1      44.538  26.882  28.151  1.00  0.00     0.029 A 
ATOM     61  N   UNL A   1      43.700  26.176  30.063  1.00  0.00    -0.354 N 
ATOM     62  N   UNL A   1      43.745  29.578  31.406  1.00  0.00    -0.248 NA
ATOM     63  C   UNL A   1      43.499  30.470  33.502  1.00  0.00     0.031 C 
ATOM     64  C   UNL A   1      45.123  27.624  29.230  1.00  0.00     0.029 A 
ATOM     65  C   UNL A   1      44.612  27.145  30.425  1.00  0.00     0.049 A 
ATOM     66  H   UNL A   1      43.158  25.669  30.711  1.00  0.00     0.167 HD
ATOM     67  C   UNL A   1      44.298  28.664  32.269  1.00  0.00     0.074 A 
ATOM     68  C   UNL A   1      44.157  29.299  33.572  1.00  0.00     0.031 C 
ATOM     69  C   UNL A   1      44.765  27.440  31.850  1.00  0.00     0.034 A 
BRANCH  56  70
ATOM     70  C   UNL A   1      42.705  24.023  27.213  1.00  0.00     0.023 A 
ATOM     71  C   UNL A   1      43.474  24.292  26.061  1.00  0.00     0.012 A 
ATOM     72  C   UNL A   1      42.121  22.732  27.290  1.00  0.00     0.148 A 
ATOM     73  C   UNL A   1      43.647  23.353  25.041  1.00  0.00     0.002 A 
ATOM     74  C   UNL A   1      42.351  21.769  26.303  1.00  0.00     0.091 A 
ATOM     75  F   UNL A   1      41.254  22.438  28.263  1.00  0.00    -0.205 F 
ATOM     76  C   UNL A   1      43.099  22.084  25.167  1.00  0.00     0.022 A 
BRANCH  74  77
ATOM     77  S   UNL A   1      41.722  20.083  26.425  1.00  0.00     0.127 S 
ATOM     78  O   UNL A   1      42.159  19.689  27.764  1.00  0.00    -0.237 OA
ATOM     79  O   UNL A   1      40.278  20.274  26.289  1.00  0.00    -0.237 OA
ATOM     80  O   UNL A   1      42.334  19.339  25.330  1.00  0.00    -0.744 OA
ENDBRANCH  74  77
ENDBRANCH  56  70
BRANCH  57  81
ATOM     81  C   UNL A   1      41.073  32.238  32.127  1.00  0.00     0.023 A 
ATOM     82  C   UNL A   1      40.647  33.487  31.603  1.00  0.00     0.012 A 
ATOM     83  C   UNL A   1      40.143  31.451  32.829  1.00  0.00     0.148 A 
ATOM     84  C   UNL A   1      39.291  33.822  31.568  1.00  0.00     0.002 A 
ATOM     85  C   UNL A   1      38.795  31.813  32.822  1.00  0.00     0.091 A 
ATOM     86  F   UNL A   1      40.567  30.335  33.435  1.00  0.00    -0.205 F 
ATOM     87  C   UNL A   1      38.361  32.957  32.133  1.00  0.00     0.022 A 
BRANCH  85  88
ATOM     88  S   UNL A   1      37.552  30.783  33.613  1.00  0.00     0.127 S 
ATOM     89  O   UNL A   1      37.597  31.274  34.987  1.00  0.00    -0.237 OA
ATOM     90  O   UNL A   1      36.332  31.131  32.884  1.00  0.00    -0.237 OA
ATOM     91  O   UNL A   1      38.005  29.416  33.401  1.00  0.00    -0.744 OA
ENDBRANCH  85  88
ENDBRANCH  57  81
BRANCH  69  92
ATOM     92  C   UNL A   1      45.368  26.370  32.763  1.00  0.00     0.023 A 
ATOM     93  C   UNL A   1      46.714  25.981  32.645  1.00  0.00     0.012 A 
ATOM     94  C   UNL A   1      44.587  25.628  33.698  1.00  0.00     0.148 A 
ATOM     95  C   UNL A   1      47.275  24.991  33.464  1.00  0.00     0.002 A 
ATOM     96  C   UNL A   1      45.127  24.598  34.461  1.00  0.00     0.091 A 
ATOM     97  F   UNL A   1      43.296  25.908  33.877  1.00  0.00    -0.205 F 
ATOM     98  C   UNL A   1      46.483  24.298  34.370  1.00  0.00     0.022 A 
BRANCH  96  99
ATOM     99  S   UNL A   1      44.118  23.566  35.541  1.00  0.00     0.127 S 
ATOM    100  O   UNL A   1      43.601  24.554  36.488  1.00  0.00    -0.237 OA
ATOM    101  O   UNL A   1      43.125  23.038  34.608  1.00  0.00    -0.237 OA
ATOM    102  O   UNL A   1      45.009  22.572  36.121  1.00  0.00    -0.744 OA
ENDBRANCH  96  99
ENDBRANCH  69  92
ENDBRANCH  43  44
ENDBRANCH  35  38
ENDBRANCH  33  34
ENDBRANCH  32  33
ENDBRANCH   1  32
TORSDOF 18
ENDMDL
MODEL 2
REMARK VINA RESULT:     -13.2      2.699      3.778
REMARK SMILES Cc1ccc(S(=O)(=O)n2cc(C(=O)C(=O)NCC(=O)NCCCNC(=O)c3ccc(-c4c5nc(c(-c6cccc(S(=O)(=O)[O-])c6F)c6ccc([nH]6)c(-c6cccc(S(=O)(=O)[O-])c6F)c6nc(c(-c7cccc(S(=O)(=O)[O-])c7F)c7ccc4[nH]7)C=C6)C=C5)cc3)c3ccccc32)cc1
REMARK SMILES IDX 21 1 20 2 18 3 19 4 17 6 16 7 14 8 15 9 12 11 13 12 11 13
REMARK SMILES IDX 9 14 10 15 95 16 90 17 94 18 91 19 93 20 92 21 6 22 7 23
REMARK SMILES IDX 8 24 5 25 1 26 2 27 3 28 97 29 4 30 96 31 22 32 23 33 24 34
REMARK SMILES IDX 25 35 26 37 27 38 28 39 89 40 29 41 88 42 30 43 31 44 32 45
REMARK SMILES IDX 82 46 33 47 87 48 81 49 83 50 34 51 86 52 80 53 79 54 35 56
REMARK SMILES IDX 67 57 47 58 66 59 48 60 51 61 65 62 84 63 49 64 50 65 64 67
REMARK SMILES IDX 85 68 52 69 36 70 37 71 45 72 38 73 40 74 46 75 39 76 41 77
REMARK SMILES IDX 42 78 43 79 44 80 68 81 69 82 77 83 70 84 72 85 78 86 71 87
REMARK SMILES IDX 73 88 74 89 75 90 76 91 53 92 54 93 62 94 55 95 57 96 63 97
REMARK SMILES IDX 56 98 58 99 59 100 60 101 61 102
REMARK H PARENT 20 5 16 10 24 36 83 55 51 66
REMARK Flexibility Score: inf
ROOT
ATOM      1  C   UNL A   1      34.196  29.560  26.804  1.00  0.00     0.117 C 
ENDROOT
BRANCH   1   2
ATOM      2  N   UNL A   1      33.080  30.465  26.603  1.00  0.00    -0.355 N 
ATOM      3  C   UNL A   1      32.017  30.325  25.756  1.00  0.00     0.239 C 
ATOM      4  O   UNL A   1      31.133  31.182  25.758  1.00  0.00    -0.273 OA
ATOM      5  H   UNL A   1      33.089  31.285  27.149  1.00  0.00     0.163 HD
BRANCH   3   6
ATOM      6  C   UNL A   1      31.905  29.077  24.873  1.00  0.00     0.216 C 
BRANCH   6   7
ATOM      7  N   UNL A   1      31.330  29.348  23.560  1.00  0.00    -0.340 N 
ATOM      8  C   UNL A   1      30.389  28.666  22.817  1.00  0.00     0.292 C 
ATOM      9  O   UNL A   1      30.045  29.129  21.734  1.00  0.00    -0.265 OA
ATOM     10  H   UNL A   1      31.675  30.162  23.126  1.00  0.00     0.164 HD
BRANCH   8  11
ATOM     11  C   UNL A   1      29.785  27.331  23.317  1.00  0.00     0.252 C 
ATOM     12  O   UNL A   1      28.568  27.267  23.466  1.00  0.00    -0.283 OA
BRANCH  11  13
ATOM     13  C   UNL A   1      30.622  26.150  23.596  1.00  0.00     0.054 A 
ATOM     14  N   UNL A   1      32.094  24.474  23.402  1.00  0.00    -0.240 N 
ATOM     15  C   UNL A   1      31.644  25.633  22.817  1.00  0.00     0.117 A 
ATOM     16  C   UNL A   1      31.424  24.219  24.579  1.00  0.00     0.065 A 
ATOM     17  C   UNL A   1      30.497  25.261  24.727  1.00  0.00     0.012 A 
ATOM     18  C   UNL A   1      31.512  23.162  25.506  1.00  0.00     0.028 A 
ATOM     19  C   UNL A   1      29.655  25.248  25.862  1.00  0.00     0.011 A 
ATOM     20  C   UNL A   1      30.643  23.166  26.599  1.00  0.00     0.002 A 
ATOM     21  C   UNL A   1      29.732  24.198  26.783  1.00  0.00     0.001 A 
BRANCH  14  22
ATOM     22  S   UNL A   1      33.217  23.424  22.666  1.00  0.00     0.268 S 
ATOM     23  O   UNL A   1      33.484  24.005  21.357  1.00  0.00    -0.201 OA
ATOM     24  O   UNL A   1      32.687  22.091  22.825  1.00  0.00    -0.201 OA
BRANCH  22  25
ATOM     25  C   UNL A   1      34.734  23.497  23.589  1.00  0.00     0.088 A 
ATOM     26  C   UNL A   1      38.194  23.639  26.143  1.00  0.00     0.044 C 
ATOM     27  C   UNL A   1      36.998  23.602  25.237  1.00  0.00    -0.051 A 
ATOM     28  C   UNL A   1      35.852  24.334  25.567  1.00  0.00     0.005 A 
ATOM     29  C   UNL A   1      37.010  22.843  24.061  1.00  0.00     0.005 A 
ATOM     30  C   UNL A   1      34.721  24.279  24.751  1.00  0.00     0.022 A 
ATOM     31  C   UNL A   1      35.887  22.797  23.228  1.00  0.00     0.022 A 
ENDBRANCH  22  25
ENDBRANCH  14  22
ENDBRANCH  11  13
ENDBRANCH   8  11
ENDBRANCH   6   7
ENDBRANCH   3   6
ENDBRANCH   1   2
BRANCH   1  32
ATOM     32  C   UNL A   1      35.034  29.962  28.006  1.00  0.00     0.042 C 
BRANCH  32  33
ATOM     33  C   UNL A   1      35.779  31.264  27.793  1.00  0.00     0.118 C 
BRANCH  33  34
ATOM     34  N   UNL A   1      34.944  32.426  28.053  1.00  0.00    -0.352 N 
ATOM     35  C   UNL A   1      34.928  33.292  29.131  1.00  0.00     0.251 C 
ATOM     36  H   UNL A   1      34.286  32.628  27.349  1.00  0.00     0.163 HD
ATOM     37  O   UNL A   1      33.972  34.049  29.263  1.00  0.00    -0.269 OA
BRANCH  35  38
ATOM     38  C   UNL A   1      36.144  33.436  29.971  1.00  0.00     0.039 A 
ATOM     39  C   UNL A   1      37.296  33.824  29.277  1.00  0.00     0.014 A 
ATOM     40  C   UNL A   1      36.249  32.752  31.174  1.00  0.00     0.014 A 
ATOM     41  C   UNL A   1      38.498  33.208  29.576  1.00  0.00     0.010 A 
ATOM     42  C   UNL A   1      37.390  32.026  31.386  1.00  0.00     0.010 A 
ATOM     43  C   UNL A   1      38.479  32.203  30.527  1.00  0.00    -0.014 A 
BRANCH  43  44
ATOM     44  C   UNL A   1      39.599  31.357  30.841  1.00  0.00     0.031 A 
ATOM     45  C   UNL A   1      39.600  30.027  30.229  1.00  0.00     0.074 A 
ATOM     46  C   UNL A   1      40.688  31.907  31.418  1.00  0.00     0.049 A 
ATOM     47  N   UNL A   1      40.485  29.141  30.497  1.00  0.00    -0.248 NA
ATOM     48  C   UNL A   1      38.582  29.569  29.281  1.00  0.00     0.031 C 
ATOM     49  C   UNL A   1      42.073  31.467  31.331  1.00  0.00     0.029 A 
ATOM     50  N   UNL A   1      40.741  32.948  32.328  1.00  0.00    -0.354 N 
ATOM     51  C   UNL A   1      40.377  28.183  29.521  1.00  0.00     0.074 A 
ATOM     52  C   UNL A   1      39.083  28.383  28.925  1.00  0.00     0.031 C 
ATOM     53  C   UNL A   1      42.792  32.073  32.293  1.00  0.00     0.029 A 
ATOM     54  C   UNL A   1      41.851  32.756  33.161  1.00  0.00     0.049 A 
ATOM     55  H   UNL A   1      40.106  33.698  32.383  1.00  0.00     0.167 HD
ATOM     56  C   UNL A   1      41.490  27.463  29.233  1.00  0.00     0.034 A 
ATOM     57  C   UNL A   1      41.658  32.448  34.487  1.00  0.00     0.034 A 
ATOM     58  C   UNL A   1      42.537  27.712  30.240  1.00  0.00     0.049 A 
ATOM     59  C   UNL A   1      42.075  31.023  34.853  1.00  0.00     0.074 A 
ATOM     60  C   UNL A   1      43.740  28.392  30.270  1.00  0.00     0.029 A 
ATOM     61  N   UNL A   1      42.215  27.468  31.565  1.00  0.00    -0.354 N 
ATOM     62  N   UNL A   1      42.585  30.156  34.018  1.00  0.00    -0.248 NA
ATOM     63  C   UNL A   1      41.900  30.445  36.185  1.00  0.00     0.031 C 
ATOM     64  C   UNL A   1      44.108  28.575  31.645  1.00  0.00     0.029 A 
ATOM     65  C   UNL A   1      43.158  27.960  32.443  1.00  0.00     0.049 A 
ATOM     66  H   UNL A   1      41.400  26.994  31.850  1.00  0.00     0.167 HD
ATOM     67  C   UNL A   1      42.627  28.910  34.592  1.00  0.00     0.074 A 
ATOM     68  C   UNL A   1      42.230  29.158  35.972  1.00  0.00     0.031 C 
ATOM     69  C   UNL A   1      42.920  27.774  33.875  1.00  0.00     0.034 A 
BRANCH  56  70
ATOM     70  C   UNL A   1      41.711  26.638  27.987  1.00  0.00     0.023 A 
ATOM     71  C   UNL A   1      41.614  27.323  26.757  1.00  0.00     0.012 A 
ATOM     72  C   UNL A   1      41.916  25.236  27.909  1.00  0.00     0.148 A 
ATOM     73  C   UNL A   1      41.700  26.668  25.527  1.00  0.00     0.002 A 
ATOM     74  C   UNL A   1      42.071  24.591  26.679  1.00  0.00     0.091 A 
ATOM     75  F   UNL A   1      41.866  24.483  29.011  1.00  0.00    -0.205 F 
ATOM     76  C   UNL A   1      41.945  25.303  25.485  1.00  0.00     0.022 A 
BRANCH  74  77
ATOM     77  S   UNL A   1      42.448  22.832  26.545  1.00  0.00     0.127 S 
ATOM     78  O   UNL A   1      42.584  22.657  25.100  1.00  0.00    -0.237 OA
ATOM     79  O   UNL A   1      43.702  22.719  27.291  1.00  0.00    -0.237 OA
ATOM     80  O   UNL A   1      41.325  22.126  27.152  1.00  0.00    -0.744 OA
ENDBRANCH  74  77
ENDBRANCH  56  70
BRANCH  57  81
ATOM     81  C   UNL A   1      40.475  33.195  35.042  1.00  0.00     0.023 A 
ATOM     82  C   UNL A   1      39.228  32.519  34.982  1.00  0.00     0.012 A 
ATOM     83  C   UNL A   1      40.639  34.220  35.990  1.00  0.00     0.148 A 
ATOM     84  C   UNL A   1      38.273  32.691  35.988  1.00  0.00     0.002 A 
ATOM     85  C   UNL A   1      39.663  34.412  36.968  1.00  0.00     0.091 A 
ATOM     86  F   UNL A   1      41.763  34.946  35.968  1.00  0.00    -0.205 F 
ATOM     87  C   UNL A   1      38.516  33.601  37.010  1.00  0.00     0.022 A 
BRANCH  85  88
ATOM     88  S   UNL A   1      39.876  35.636  38.267  1.00  0.00     0.127 S 
ATOM     89  O   UNL A   1      39.791  36.882  37.511  1.00  0.00    -0.237 OA
ATOM     90  O   UNL A   1      38.734  35.380  39.145  1.00  0.00    -0.237 OA
ATOM     91  O   UNL A   1      41.169  35.332  38.864  1.00  0.00    -0.744 OA
ENDBRANCH  85  88
ENDBRANCH  57  81
BRANCH  69  92
ATOM     92  C   UNL A   1      42.958  26.356  34.450  1.00  0.00     0.023 A 
ATOM     93  C   UNL A   1      41.803  25.748  34.973  1.00  0.00     0.012 A 
ATOM     94  C   UNL A   1      44.169  25.618  34.597  1.00  0.00     0.148 A 
ATOM     95  C   UNL A   1      41.826  24.456  35.518  1.00  0.00     0.002 A 
ATOM     96  C   UNL A   1      44.204  24.365  35.200  1.00  0.00     0.091 A 
ATOM     97  F   UNL A   1      45.323  26.111  34.147  1.00  0.00    -0.205 F 
ATOM     98  C   UNL A   1      43.025  23.765  35.634  1.00  0.00     0.022 A 
BRANCH  96  99
ATOM     99  S   UNL A   1      45.747  23.488  35.514  1.00  0.00     0.127 S 
ATOM    100  O   UNL A   1      46.447  24.432  36.386  1.00  0.00    -0.237 OA
ATOM    101  O   UNL A   1      45.273  22.278  36.182  1.00  0.00    -0.237 OA
ATOM    102  O   UNL A   1      46.376  23.273  34.220  1.00  0.00    -0.744 OA
ENDBRANCH  96  99
ENDBRANCH  69  92
ENDBRANCH  43  44
ENDBRANCH  35  38
ENDBRANCH  33  34
ENDBRANCH  32  33
ENDBRANCH   1  32
TORSDOF 18
ENDMDL
MODEL 3
REMARK VINA RESULT:     -12.3      2.036      2.799
REMARK SMILES Cc1ccc(S(=O)(=O)n2cc(C(=O)C(=O)NCC(=O)NCCCNC(=O)c3ccc(-c4c5nc(c(-c6cccc(S(=O)(=O)[O-])c6F)c6ccc([nH]6)c(-c6cccc(S(=O)(=O)[O-])c6F)c6nc(c(-c7cccc(S(=O)(=O)[O-])c7F)c7ccc4[nH]7)C=C6)C=C5)cc3)c3ccccc32)cc1
REMARK SMILES IDX 21 1 20 2 18 3 19 4 17 6 16 7 14 8 15 9 12 11 13 12 11 13
REMARK SMILES IDX 9 14 10 15 95 16 90 17 94 18 91 19 93 20 92 21 6 22 7 23
REMARK SMILES IDX 8 24 5 25 1 26 2 27 3 28 97 29 4 30 96 31 22 32 23 33 24 34
REMARK SMILES IDX 25 35 26 37 27 38 28 39 89 40 29 41 88 42 30 43 31 44 32 45
REMARK SMILES IDX 82 46 33 47 87 48 81 49 83 50 34 51 86 52 80 53 79 54 35 56
REMARK SMILES IDX 67 57 47 58 66 59 48 60 51 61 65 62 84 63 49 64 50 65 64 67
REMARK SMILES IDX 85 68 52 69 36 70 37 71 45 72 38 73 40 74 46 75 39 76 41 77
REMARK SMILES IDX 42 78 43 79 44 80 68 81 69 82 77 83 70 84 72 85 78 86 71 87
REMARK SMILES IDX 73 88 74 89 75 90 76 91 53 92 54 93 62 94 55 95 57 96 63 97
REMARK SMILES IDX 56 98 58 99 59 100 60 101 61 102
REMARK H PARENT 20 5 16 10 24 36 83 55 51 66
REMARK Flexibility Score: inf
ROOT
ATOM      1  C   UNL A   1      33.417  30.083  27.274  1.00  0.00     0.117 C 
ENDROOT
BRANCH   1   2
ATOM      2  N   UNL A   1      32.386  29.129  27.634  1.00  0.00    -0.355 N 
ATOM      3  C   UNL A   1      31.856  28.127  26.872  1.00  0.00     0.239 C 
ATOM      4  O   UNL A   1      31.013  27.379  27.368  1.00  0.00    -0.273 OA
ATOM      5  H   UNL A   1      32.022  29.214  28.545  1.00  0.00     0.163 HD
BRANCH   3   6
ATOM      6  C   UNL A   1      32.363  27.906  25.443  1.00  0.00     0.216 C 
BRANCH   6   7
ATOM      7  N   UNL A   1      31.640  28.687  24.445  1.00  0.00    -0.340 N 
ATOM      8  C   UNL A   1      30.490  28.419  23.733  1.00  0.00     0.292 C 
ATOM      9  O   UNL A   1      30.062  29.273  22.962  1.00  0.00    -0.265 OA
ATOM     10  H   UNL A   1      32.047  29.562  24.243  1.00  0.00     0.164 HD
BRANCH   8  11
ATOM     11  C   UNL A   1      29.754  27.065  23.878  1.00  0.00     0.252 C 
ATOM     12  O   UNL A   1      28.526  27.070  23.858  1.00  0.00    -0.283 OA
BRANCH  11  13
ATOM     13  C   UNL A   1      30.480  25.790  24.017  1.00  0.00     0.054 A 
ATOM     14  N   UNL A   1      31.357  23.905  24.846  1.00  0.00    -0.240 N 
ATOM     15  C   UNL A   1      30.470  24.922  25.097  1.00  0.00     0.117 A 
ATOM     16  C   UNL A   1      31.938  24.045  23.604  1.00  0.00     0.065 A 
ATOM     17  C   UNL A   1      31.398  25.219  23.059  1.00  0.00     0.012 A 
ATOM     18  C   UNL A   1      32.906  23.283  22.922  1.00  0.00     0.028 A 
ATOM     19  C   UNL A   1      31.831  25.618  21.774  1.00  0.00     0.011 A 
ATOM     20  C   UNL A   1      33.331  23.723  21.667  1.00  0.00     0.002 A 
ATOM     21  C   UNL A   1      32.797  24.869  21.094  1.00  0.00     0.001 A 
BRANCH  14  22
ATOM     22  S   UNL A   1      31.787  22.727  26.002  1.00  0.00     0.268 S 
ATOM     23  O   UNL A   1      31.203  21.484  25.519  1.00  0.00    -0.201 OA
ATOM     24  O   UNL A   1      31.456  23.288  27.291  1.00  0.00    -0.201 OA
BRANCH  22  25
ATOM     25  C   UNL A   1      33.552  22.526  25.959  1.00  0.00     0.088 A 
ATOM     26  C   UNL A   1      37.780  21.850  25.526  1.00  0.00     0.044 C 
ATOM     27  C   UNL A   1      36.308  22.086  25.700  1.00  0.00    -0.051 A 
ATOM     28  C   UNL A   1      35.401  21.053  25.436  1.00  0.00     0.005 A 
ATOM     29  C   UNL A   1      35.823  23.330  26.123  1.00  0.00     0.005 A 
ATOM     30  C   UNL A   1      34.029  21.272  25.560  1.00  0.00     0.022 A 
ATOM     31  C   UNL A   1      34.450  23.550  26.267  1.00  0.00     0.022 A 
ENDBRANCH  22  25
ENDBRANCH  14  22
ENDBRANCH  11  13
ENDBRANCH   8  11
ENDBRANCH   6   7
ENDBRANCH   3   6
ENDBRANCH   1   2
BRANCH   1  32
ATOM     32  C   UNL A   1      33.022  31.503  27.645  1.00  0.00     0.042 C 
BRANCH  32  33
ATOM     33  C   UNL A   1      34.210  32.439  27.735  1.00  0.00     0.118 C 
BRANCH  33  34
ATOM     34  N   UNL A   1      34.617  32.682  29.111  1.00  0.00    -0.352 N 
ATOM     35  C   UNL A   1      35.279  31.860  30.005  1.00  0.00     0.251 C 
ATOM     36  H   UNL A   1      34.385  33.573  29.459  1.00  0.00     0.163 HD
ATOM     37  O   UNL A   1      35.293  32.174  31.190  1.00  0.00    -0.269 OA
BRANCH  35  38
ATOM     38  C   UNL A   1      36.124  30.752  29.493  1.00  0.00     0.039 A 
ATOM     39  C   UNL A   1      36.288  29.679  30.377  1.00  0.00     0.014 A 
ATOM     40  C   UNL A   1      37.064  30.991  28.500  1.00  0.00     0.014 A 
ATOM     41  C   UNL A   1      37.541  29.108  30.511  1.00  0.00     0.010 A 
ATOM     42  C   UNL A   1      38.338  30.542  28.720  1.00  0.00     0.010 A 
ATOM     43  C   UNL A   1      38.577  29.666  29.783  1.00  0.00    -0.014 A 
BRANCH  43  44
ATOM     44  C   UNL A   1      39.960  29.300  29.923  1.00  0.00     0.031 A 
ATOM     45  C   UNL A   1      40.319  27.943  29.505  1.00  0.00     0.074 A 
ATOM     46  C   UNL A   1      40.871  30.271  30.144  1.00  0.00     0.049 A 
ATOM     47  N   UNL A   1      41.492  27.456  29.663  1.00  0.00    -0.248 NA
ATOM     48  C   UNL A   1      39.373  27.004  28.899  1.00  0.00     0.031 C 
ATOM     49  C   UNL A   1      42.281  30.283  29.782  1.00  0.00     0.029 A 
ATOM     50  N   UNL A   1      40.720  31.438  30.873  1.00  0.00    -0.354 N 
ATOM     51  C   UNL A   1      41.553  26.335  28.874  1.00  0.00     0.074 A 
ATOM     52  C   UNL A   1      40.186  25.991  28.588  1.00  0.00     0.031 C 
ATOM     53  C   UNL A   1      42.904  31.268  30.455  1.00  0.00     0.029 A 
ATOM     54  C   UNL A   1      41.959  31.780  31.430  1.00  0.00     0.049 A 
ATOM     55  H   UNL A   1      39.882  31.943  30.982  1.00  0.00     0.167 HD
ATOM     56  C   UNL A   1      42.775  25.962  28.421  1.00  0.00     0.034 A 
ATOM     57  C   UNL A   1      42.133  31.703  32.791  1.00  0.00     0.034 A 
ATOM     58  C   UNL A   1      43.833  26.728  29.104  1.00  0.00     0.049 A 
ATOM     59  C   UNL A   1      43.086  30.589  33.226  1.00  0.00     0.074 A 
ATOM     60  C   UNL A   1      44.703  27.745  28.754  1.00  0.00     0.029 A 
ATOM     61  N   UNL A   1      43.867  26.670  30.488  1.00  0.00    -0.354 N 
ATOM     62  N   UNL A   1      43.707  29.777  32.411  1.00  0.00    -0.248 NA
ATOM     63  C   UNL A   1      43.374  30.270  34.624  1.00  0.00     0.031 C 
ATOM     64  C   UNL A   1      45.227  28.311  29.964  1.00  0.00     0.029 A 
ATOM     65  C   UNL A   1      44.719  27.603  31.041  1.00  0.00     0.049 A 
ATOM     66  H   UNL A   1      43.339  26.031  31.020  1.00  0.00     0.167 HD
ATOM     67  C   UNL A   1      44.291  28.753  33.114  1.00  0.00     0.074 A 
ATOM     68  C   UNL A   1      44.092  29.138  34.505  1.00  0.00     0.031 C 
ATOM     69  C   UNL A   1      44.829  27.647  32.499  1.00  0.00     0.034 A 
BRANCH  56  70
ATOM     70  C   UNL A   1      43.041  25.014  27.275  1.00  0.00     0.023 A 
ATOM     71  C   UNL A   1      43.666  25.566  26.137  1.00  0.00     0.012 A 
ATOM     72  C   UNL A   1      42.653  23.651  27.179  1.00  0.00     0.148 A 
ATOM     73  C   UNL A   1      43.883  24.829  24.971  1.00  0.00     0.002 A 
ATOM     74  C   UNL A   1      42.933  22.895  26.037  1.00  0.00     0.091 A 
ATOM     75  F   UNL A   1      41.920  23.087  28.142  1.00  0.00    -0.205 F 
ATOM     76  C   UNL A   1      43.532  23.487  24.924  1.00  0.00     0.022 A 
BRANCH  74  77
ATOM     77  S   UNL A   1      42.559  21.134  25.923  1.00  0.00     0.127 S 
ATOM     78  O   UNL A   1      43.477  20.693  24.873  1.00  0.00    -0.237 OA
ATOM     79  O   UNL A   1      42.894  20.652  27.263  1.00  0.00    -0.237 OA
ATOM     80  O   UNL A   1      41.143  21.038  25.589  1.00  0.00    -0.744 OA
ENDBRANCH  74  77
ENDBRANCH  56  70
BRANCH  57  81
ATOM     81  C   UNL A   1      40.886  32.135  33.515  1.00  0.00     0.023 A 
ATOM     82  C   UNL A   1      40.032  31.091  33.960  1.00  0.00     0.012 A 
ATOM     83  C   UNL A   1      40.809  33.385  34.153  1.00  0.00     0.148 A 
ATOM     84  C   UNL A   1      39.310  31.217  35.149  1.00  0.00     0.002 A 
ATOM     85  C   UNL A   1      40.054  33.514  35.320  1.00  0.00     0.091 A 
ATOM     86  F   UNL A   1      41.516  34.408  33.659  1.00  0.00    -0.205 F 
ATOM     87  C   UNL A   1      39.364  32.413  35.856  1.00  0.00     0.022 A 
BRANCH  85  88
ATOM     88  S   UNL A   1      40.010  35.061  36.233  1.00  0.00     0.127 S 
ATOM     89  O   UNL A   1      41.430  35.300  36.472  1.00  0.00    -0.237 OA
ATOM     90  O   UNL A   1      39.391  35.982  35.280  1.00  0.00    -0.237 OA
ATOM     91  O   UNL A   1      39.197  34.782  37.408  1.00  0.00    -0.744 OA
ENDBRANCH  85  88
ENDBRANCH  57  81
BRANCH  69  92
ATOM     92  C   UNL A   1      45.470  26.462  33.226  1.00  0.00     0.023 A 
ATOM     93  C   UNL A   1      46.827  26.140  33.046  1.00  0.00     0.012 A 
ATOM     94  C   UNL A   1      44.717  25.552  34.026  1.00  0.00     0.148 A 
ATOM     95  C   UNL A   1      47.423  25.047  33.693  1.00  0.00     0.002 A 
ATOM     96  C   UNL A   1      45.293  24.429  34.611  1.00  0.00     0.091 A 
ATOM     97  F   UNL A   1      43.419  25.758  34.248  1.00  0.00    -0.205 F 
ATOM     98  C   UNL A   1      46.657  24.191  34.474  1.00  0.00     0.022 A 
BRANCH  96  99
ATOM     99  S   UNL A   1      44.322  23.204  35.508  1.00  0.00     0.127 S 
ATOM    100  O   UNL A   1      44.298  23.778  36.853  1.00  0.00    -0.237 OA
ATOM    101  O   UNL A   1      43.045  23.257  34.799  1.00  0.00    -0.237 OA
ATOM    102  O   UNL A   1      45.037  21.941  35.397  1.00  0.00    -0.744 OA
ENDBRANCH  96  99
ENDBRANCH  69  92
ENDBRANCH  43  44
ENDBRANCH  35  38
ENDBRANCH  33  34
ENDBRANCH  32  33
ENDBRANCH   1  32
TORSDOF 18
ENDMDL
