MODEL 1
REMARK VINA RESULT:     -12.8      0.000      0.000
REMARK SMILES COc1ccc2[nH]cc([C@H](C(=O)NCCCNC(=O)c3ccc(-c4c5nc(c(-c6cccc(S(=O)(=O)[O-])c6F)c6ccc([nH]6)c(-c6cccc(S(=O)(=O)[O-])c6F)c6nc(c(-c7cccc(S(=O)(=O)[O-])c7F)c7ccc4[nH]7)C=C6)C=C5)cc3)[NH+]3CC[NH+](Cc4cccc5ccccc45)CC3)c2c1
REMARK SMILES IDX 15 1 14 2 13 3 11 4 12 5 10 7 9 8 3 9 4 10 101 11 5 12
REMARK SMILES IDX 100 13 6 14 7 15 8 16 2 18 1 19 83 20 84 21 99 22 85 24
REMARK SMILES IDX 98 25 86 26 87 28 88 29 89 30 97 31 90 32 92 33 96 34 91 35
REMARK SMILES IDX 93 36 95 37 94 38 16 39 17 40 18 41 19 43 20 44 21 45 82 46
REMARK SMILES IDX 22 47 81 48 23 49 24 50 25 51 75 52 26 53 80 54 74 55 76 56
REMARK SMILES IDX 27 57 79 58 73 59 72 60 28 62 60 63 40 64 59 65 41 66 44 67
REMARK SMILES IDX 58 68 77 69 42 70 43 71 57 73 78 74 45 75 29 76 30 77 38 78
REMARK SMILES IDX 31 79 33 80 39 81 32 82 34 83 35 84 36 85 37 86 61 87 62 88
REMARK SMILES IDX 70 89 63 90 65 91 71 92 64 93 66 94 67 95 68 96 69 97 46 98
REMARK SMILES IDX 47 99 55 100 48 101 50 102 56 103 49 104 51 105 52 106
REMARK SMILES IDX 53 107 54 108
REMARK H PARENT 13 6 7 17 83 23 86 27 17 42 76 61 44 72
REMARK Flexibility Score: inf
ROOT
ATOM      1  C   UNL A   1      34.379  30.405  27.455  1.00  0.00     0.042 C 
ENDROOT
BRANCH   1   2
ATOM      2  C   UNL A   1      33.046  29.920  26.858  1.00  0.00     0.118 C 
BRANCH   2   3
ATOM      3  N   UNL A   1      33.136  29.939  25.406  1.00  0.00    -0.351 N 
ATOM      4  C   UNL A   1      32.814  29.071  24.413  1.00  0.00     0.283 C 
ATOM      5  O   UNL A   1      33.315  29.366  23.313  1.00  0.00    -0.268 OA
ATOM      6  H   UNL A   1      33.520  30.778  25.064  1.00  0.00     0.163 HD
BRANCH   4   7
ATOM      7  C   UNL A   1      31.784  27.931  24.478  1.00  0.00     0.308 C 
BRANCH   7   8
ATOM      8  C   UNL A   1      30.331  28.079  24.060  1.00  0.00     0.045 A 
ATOM      9  C   UNL A   1      28.900  31.273  22.498  1.00  0.00     0.119 A 
ATOM     10  C   UNL A   1      27.801  30.664  21.908  1.00  0.00     0.048 A 
ATOM     11  C   UNL A   1      29.763  30.554  23.338  1.00  0.00     0.057 A 
ATOM     12  C   UNL A   1      27.483  29.343  22.206  1.00  0.00     0.030 A 
ATOM     13  C   UNL A   1      29.562  29.171  23.524  1.00  0.00     0.013 A 
ATOM     14  C   UNL A   1      28.376  28.630  23.014  1.00  0.00     0.046 A 
ATOM     15  N   UNL A   1      28.297  27.336  23.458  1.00  0.00    -0.361 N 
ATOM     16  C   UNL A   1      29.459  26.991  24.077  1.00  0.00     0.094 A 
ATOM     17  H   UNL A   1      27.517  26.745  23.348  1.00  0.00     0.166 HD
BRANCH   9  18
ATOM     18  O   UNL A   1      29.148  32.566  22.125  1.00  0.00    -0.497 OA
ATOM     19  C   UNL A   1      29.168  33.471  23.226  1.00  0.00     0.278 C 
ENDBRANCH   9  18
ENDBRANCH   7   8
BRANCH   7  20
ATOM     20  N   UNL A   1      32.340  26.680  23.949  1.00  0.00    -0.312 N 
ATOM     21  C   UNL A   1      32.376  25.477  24.747  1.00  0.00     0.325 C 
ATOM     22  C   UNL A   1      32.521  26.525  22.516  1.00  0.00     0.325 C 
ATOM     23  H   UNL A   1      33.254  27.030  24.237  1.00  0.00     0.349 HD
ATOM     24  C   UNL A   1      31.705  24.247  24.099  1.00  0.00     0.324 C 
ATOM     25  C   UNL A   1      31.804  25.289  21.918  1.00  0.00     0.324 C 
ATOM     26  N   UNL A   1      31.914  24.030  22.667  1.00  0.00    -0.322 N 
ATOM     27  H   UNL A   1      31.136  23.461  22.335  1.00  0.00     0.348 HD
BRANCH  26  28
ATOM     28  C   UNL A   1      33.007  23.119  22.308  1.00  0.00     0.300 C 
BRANCH  28  29
ATOM     29  C   UNL A   1      33.472  22.136  23.365  1.00  0.00     0.014 A 
ATOM     30  C   UNL A   1      32.638  21.032  23.628  1.00  0.00     0.010 A 
ATOM     31  C   UNL A   1      34.738  22.227  24.008  1.00  0.00    -0.010 A 
ATOM     32  C   UNL A   1      33.076  19.978  24.417  1.00  0.00     0.001 A 
ATOM     33  C   UNL A   1      35.212  21.100  24.723  1.00  0.00    -0.018 A 
ATOM     34  C   UNL A   1      35.582  23.364  23.953  1.00  0.00     0.009 A 
ATOM     35  C   UNL A   1      34.372  19.994  24.924  1.00  0.00     0.009 A 
ATOM     36  C   UNL A   1      36.530  21.082  25.208  1.00  0.00     0.009 A 
ATOM     37  C   UNL A   1      36.887  23.336  24.451  1.00  0.00     0.001 A 
ATOM     38  C   UNL A   1      37.371  22.181  25.049  1.00  0.00     0.001 A 
ENDBRANCH  28  29
ENDBRANCH  26  28
ENDBRANCH   7  20
ENDBRANCH   4   7
ENDBRANCH   2   3
ENDBRANCH   1   2
BRANCH   1  39
ATOM     39  C   UNL A   1      34.436  31.913  27.643  1.00  0.00     0.118 C 
BRANCH  39  40
ATOM     40  N   UNL A   1      34.257  32.309  29.027  1.00  0.00    -0.352 N 
ATOM     41  C   UNL A   1      34.992  32.138  30.176  1.00  0.00     0.251 C 
ATOM     42  H   UNL A   1      33.425  32.812  29.177  1.00  0.00     0.163 HD
ATOM     43  O   UNL A   1      34.474  32.571  31.210  1.00  0.00    -0.269 OA
BRANCH  41  44
ATOM     44  C   UNL A   1      36.335  31.480  30.266  1.00  0.00     0.039 A 
ATOM     45  C   UNL A   1      36.383  30.215  30.882  1.00  0.00     0.014 A 
ATOM     46  C   UNL A   1      37.544  32.041  29.862  1.00  0.00     0.014 A 
ATOM     47  C   UNL A   1      37.600  29.548  31.102  1.00  0.00     0.010 A 
ATOM     48  C   UNL A   1      38.752  31.345  30.014  1.00  0.00     0.010 A 
ATOM     49  C   UNL A   1      38.806  30.105  30.664  1.00  0.00    -0.014 A 
BRANCH  49  50
ATOM     50  C   UNL A   1      40.130  29.455  30.908  1.00  0.00     0.031 A 
ATOM     51  C   UNL A   1      41.040  29.983  31.995  1.00  0.00     0.074 A 
ATOM     52  C   UNL A   1      40.573  28.461  30.112  1.00  0.00     0.049 A 
ATOM     53  N   UNL A   1      42.287  29.682  32.257  1.00  0.00    -0.248 NA
ATOM     54  C   UNL A   1      40.481  31.018  32.881  1.00  0.00     0.031 C 
ATOM     55  C   UNL A   1      39.833  27.868  28.998  1.00  0.00     0.029 A 
ATOM     56  N   UNL A   1      41.776  27.796  30.098  1.00  0.00    -0.354 N 
ATOM     57  C   UNL A   1      42.680  30.535  33.284  1.00  0.00     0.074 A 
ATOM     58  C   UNL A   1      41.547  31.387  33.576  1.00  0.00     0.031 C 
ATOM     59  C   UNL A   1      40.598  26.938  28.404  1.00  0.00     0.029 A 
ATOM     60  C   UNL A   1      41.890  26.878  29.078  1.00  0.00     0.049 A 
ATOM     61  H   UNL A   1      42.489  27.959  30.757  1.00  0.00     0.167 HD
ATOM     62  C   UNL A   1      43.858  30.587  33.953  1.00  0.00     0.034 A 
ATOM     63  C   UNL A   1      42.917  26.079  28.723  1.00  0.00     0.034 A 
ATOM     64  C   UNL A   1      44.950  29.675  33.741  1.00  0.00     0.049 A 
ATOM     65  C   UNL A   1      44.189  26.101  29.530  1.00  0.00     0.074 A 
ATOM     66  C   UNL A   1      46.142  29.582  34.439  1.00  0.00     0.029 A 
ATOM     67  N   UNL A   1      44.975  28.684  32.774  1.00  0.00    -0.354 N 
ATOM     68  N   UNL A   1      44.491  26.829  30.576  1.00  0.00    -0.248 NA
ATOM     69  C   UNL A   1      45.246  25.158  29.129  1.00  0.00     0.031 C 
ATOM     70  C   UNL A   1      46.888  28.531  33.893  1.00  0.00     0.029 A 
ATOM     71  C   UNL A   1      46.156  27.966  32.862  1.00  0.00     0.049 A 
ATOM     72  H   UNL A   1      44.259  28.514  32.121  1.00  0.00     0.167 HD
ATOM     73  C   UNL A   1      45.751  26.404  30.985  1.00  0.00     0.074 A 
ATOM     74  C   UNL A   1      46.149  25.344  30.083  1.00  0.00     0.031 C 
ATOM     75  C   UNL A   1      46.514  26.863  32.007  1.00  0.00     0.034 A 
BRANCH  62  76
ATOM     76  C   UNL A   1      43.998  31.628  35.037  1.00  0.00     0.023 A 
ATOM     77  C   UNL A   1      44.543  32.890  34.720  1.00  0.00     0.012 A 
ATOM     78  C   UNL A   1      43.568  31.375  36.354  1.00  0.00     0.148 A 
ATOM     79  C   UNL A   1      44.707  33.863  35.705  1.00  0.00     0.002 A 
ATOM     80  C   UNL A   1      43.692  32.368  37.321  1.00  0.00     0.091 A 
ATOM     81  F   UNL A   1      43.067  30.167  36.647  1.00  0.00    -0.205 F 
ATOM     82  C   UNL A   1      44.274  33.606  37.003  1.00  0.00     0.022 A 
BRANCH  80  83
ATOM     83  S   UNL A   1      43.087  32.159  39.001  1.00  0.00     0.127 S 
ATOM     84  O   UNL A   1      43.308  33.488  39.564  1.00  0.00    -0.237 OA
ATOM     85  O   UNL A   1      41.682  31.811  38.788  1.00  0.00    -0.237 OA
ATOM     86  O   UNL A   1      43.890  31.086  39.578  1.00  0.00    -0.744 OA
ENDBRANCH  80  83
ENDBRANCH  62  76
BRANCH  63  87
ATOM     87  C   UNL A   1      42.749  25.111  27.601  1.00  0.00     0.023 A 
ATOM     88  C   UNL A   1      43.172  25.487  26.311  1.00  0.00     0.012 A 
ATOM     89  C   UNL A   1      42.204  23.828  27.800  1.00  0.00     0.148 A 
ATOM     90  C   UNL A   1      43.029  24.615  25.231  1.00  0.00     0.002 A 
ATOM     91  C   UNL A   1      42.108  22.946  26.729  1.00  0.00     0.091 A 
ATOM     92  F   UNL A   1      41.800  23.493  29.033  1.00  0.00    -0.205 F 
ATOM     93  C   UNL A   1      42.505  23.342  25.442  1.00  0.00     0.022 A 
BRANCH  91  94
ATOM     94  S   UNL A   1      41.553  21.247  26.914  1.00  0.00     0.127 S 
ATOM     95  O   UNL A   1      42.394  20.774  28.005  1.00  0.00    -0.237 OA
ATOM     96  O   UNL A   1      40.142  21.426  27.250  1.00  0.00    -0.237 OA
ATOM     97  O   UNL A   1      41.785  20.617  25.616  1.00  0.00    -0.744 OA
ENDBRANCH  91  94
ENDBRANCH  63  87
BRANCH  75  98
ATOM     98  C   UNL A   1      47.845  26.198  32.248  1.00  0.00     0.023 A 
ATOM     99  C   UNL A   1      48.987  26.652  31.558  1.00  0.00     0.012 A 
ATOM    100  C   UNL A   1      47.979  25.184  33.218  1.00  0.00     0.148 A 
ATOM    101  C   UNL A   1      50.237  26.088  31.812  1.00  0.00     0.002 A 
ATOM    102  C   UNL A   1      49.236  24.659  33.496  1.00  0.00     0.091 A 
ATOM    103  F   UNL A   1      46.878  24.750  33.847  1.00  0.00    -0.205 F 
ATOM    104  C   UNL A   1      50.365  25.103  32.788  1.00  0.00     0.022 A 
BRANCH 102 105
ATOM    105  S   UNL A   1      49.503  23.455  34.804  1.00  0.00     0.127 S 
ATOM    106  O   UNL A   1      49.029  24.181  35.980  1.00  0.00    -0.237 OA
ATOM    107  O   UNL A   1      48.648  22.344  34.387  1.00  0.00    -0.237 OA
ATOM    108  O   UNL A   1      50.929  23.155  34.783  1.00  0.00    -0.744 OA
ENDBRANCH 102 105
ENDBRANCH  75  98
ENDBRANCH  49  50
ENDBRANCH  41  44
ENDBRANCH  39  40
ENDBRANCH   1  39
TORSDOF 18
ENDMDL
MODEL 2
REMARK VINA RESULT:     -12.7      5.318      9.450
REMARK SMILES COc1ccc2[nH]cc([C@H](C(=O)NCCCNC(=O)c3ccc(-c4c5nc(c(-c6cccc(S(=O)(=O)[O-])c6F)c6ccc([nH]6)c(-c6cccc(S(=O)(=O)[O-])c6F)c6nc(c(-c7cccc(S(=O)(=O)[O-])c7F)c7ccc4[nH]7)C=C6)C=C5)cc3)[NH+]3CC[NH+](Cc4cccc5ccccc45)CC3)c2c1
REMARK SMILES IDX 15 1 14 2 13 3 11 4 12 5 10 7 9 8 3 9 4 10 101 11 5 12
REMARK SMILES IDX 100 13 6 14 7 15 8 16 2 18 1 19 83 20 84 21 99 22 85 24
REMARK SMILES IDX 98 25 86 26 87 28 88 29 89 30 97 31 90 32 92 33 96 34 91 35
REMARK SMILES IDX 93 36 95 37 94 38 16 39 17 40 18 41 19 43 20 44 21 45 82 46
REMARK SMILES IDX 22 47 81 48 23 49 24 50 25 51 75 52 26 53 80 54 74 55 76 56
REMARK SMILES IDX 27 57 79 58 73 59 72 60 28 62 60 63 40 64 59 65 41 66 44 67
REMARK SMILES IDX 58 68 77 69 42 70 43 71 57 73 78 74 45 75 29 76 30 77 38 78
REMARK SMILES IDX 31 79 33 80 39 81 32 82 34 83 35 84 36 85 37 86 61 87 62 88
REMARK SMILES IDX 70 89 63 90 65 91 71 92 64 93 66 94 67 95 68 96 69 97 46 98
REMARK SMILES IDX 47 99 55 100 48 101 50 102 56 103 49 104 51 105 52 106
REMARK SMILES IDX 53 107 54 108
REMARK H PARENT 13 6 7 17 83 23 86 27 17 42 76 61 44 72
REMARK Flexibility Score: inf
ROOT
ATOM      1  C   UNL A   1      38.683  21.464  26.077  1.00  0.00     0.042 C 
ENDROOT
BRANCH   1   2
ATOM      2  C   UNL A   1      37.429  22.296  25.752  1.00  0.00     0.118 C 
BRANCH   2   3
ATOM      3  N   UNL A   1      36.289  21.745  26.470  1.00  0.00    -0.351 N 
ATOM      4  C   UNL A   1      34.941  21.847  26.353  1.00  0.00     0.283 C 
ATOM      5  O   UNL A   1      34.323  21.435  27.351  1.00  0.00    -0.268 OA
ATOM      6  H   UNL A   1      36.560  21.162  27.216  1.00  0.00     0.163 HD
BRANCH   4   7
ATOM      7  C   UNL A   1      34.147  22.220  25.090  1.00  0.00     0.308 C 
BRANCH   7   8
ATOM      8  C   UNL A   1      33.554  21.202  24.132  1.00  0.00     0.045 A 
ATOM      9  C   UNL A   1      33.964  17.415  24.557  1.00  0.00     0.119 A 
ATOM     10  C   UNL A   1      32.870  17.064  23.779  1.00  0.00     0.048 A 
ATOM     11  C   UNL A   1      34.376  18.752  24.668  1.00  0.00     0.057 A 
ATOM     12  C   UNL A   1      32.207  18.025  23.021  1.00  0.00     0.030 A 
ATOM     13  C   UNL A   1      33.621  19.767  24.047  1.00  0.00     0.013 A 
ATOM     14  C   UNL A   1      32.606  19.357  23.174  1.00  0.00     0.046 A 
ATOM     15  N   UNL A   1      32.131  20.480  22.549  1.00  0.00    -0.361 N 
ATOM     16  C   UNL A   1      32.681  21.588  23.115  1.00  0.00     0.094 A 
ATOM     17  H   UNL A   1      31.490  20.484  21.802  1.00  0.00     0.166 HD
BRANCH   9  18
ATOM     18  O   UNL A   1      34.535  16.408  25.287  1.00  0.00    -0.497 OA
ATOM     19  C   UNL A   1      33.679  15.279  25.444  1.00  0.00     0.278 C 
ENDBRANCH   9  18
ENDBRANCH   7   8
BRANCH   7  20
ATOM     20  N   UNL A   1      33.175  23.284  25.368  1.00  0.00    -0.312 N 
ATOM     21  C   UNL A   1      33.083  24.456  24.529  1.00  0.00     0.325 C 
ATOM     22  C   UNL A   1      32.053  23.017  26.251  1.00  0.00     0.325 C 
ATOM     23  H   UNL A   1      33.862  23.667  26.016  1.00  0.00     0.349 HD
ATOM     24  C   UNL A   1      31.677  24.738  23.957  1.00  0.00     0.324 C 
ATOM     25  C   UNL A   1      30.667  23.293  25.615  1.00  0.00     0.324 C 
ATOM     26  N   UNL A   1      30.528  24.533  24.839  1.00  0.00    -0.322 N 
ATOM     27  H   UNL A   1      29.717  24.376  24.241  1.00  0.00     0.348 HD
BRANCH  26  28
ATOM     28  C   UNL A   1      30.039  25.723  25.544  1.00  0.00     0.300 C 
BRANCH  28  29
ATOM     29  C   UNL A   1      30.433  27.077  24.985  1.00  0.00     0.014 A 
ATOM     30  C   UNL A   1      29.751  27.522  23.836  1.00  0.00     0.010 A 
ATOM     31  C   UNL A   1      31.368  27.939  25.623  1.00  0.00    -0.010 A 
ATOM     32  C   UNL A   1      29.893  28.826  23.381  1.00  0.00     0.001 A 
ATOM     33  C   UNL A   1      31.422  29.294  25.213  1.00  0.00    -0.018 A 
ATOM     34  C   UNL A   1      32.230  27.544  26.676  1.00  0.00     0.009 A 
ATOM     35  C   UNL A   1      30.689  29.717  24.093  1.00  0.00     0.009 A 
ATOM     36  C   UNL A   1      32.189  30.217  25.943  1.00  0.00     0.009 A 
ATOM     37  C   UNL A   1      32.998  28.471  27.384  1.00  0.00     0.001 A 
ATOM     38  C   UNL A   1      32.951  29.813  27.038  1.00  0.00     0.001 A 
ENDBRANCH  28  29
ENDBRANCH  26  28
ENDBRANCH   7  20
ENDBRANCH   4   7
ENDBRANCH   2   3
ENDBRANCH   1   2
BRANCH   1  39
ATOM     39  C   UNL A   1      38.812  20.217  25.214  1.00  0.00     0.118 C 
BRANCH  39  40
ATOM     40  N   UNL A   1      39.851  19.321  25.683  1.00  0.00    -0.352 N 
ATOM     41  C   UNL A   1      41.130  19.499  26.153  1.00  0.00     0.251 C 
ATOM     42  H   UNL A   1      39.580  18.375  25.659  1.00  0.00     0.163 HD
ATOM     43  O   UNL A   1      41.755  18.464  26.403  1.00  0.00    -0.269 OA
BRANCH  41  44
ATOM     44  C   UNL A   1      41.807  20.817  26.375  1.00  0.00     0.039 A 
ATOM     45  C   UNL A   1      42.264  21.086  27.678  1.00  0.00     0.014 A 
ATOM     46  C   UNL A   1      41.955  21.824  25.423  1.00  0.00     0.014 A 
ATOM     47  C   UNL A   1      42.830  22.326  28.020  1.00  0.00     0.010 A 
ATOM     48  C   UNL A   1      42.586  23.035  25.744  1.00  0.00     0.010 A 
ATOM     49  C   UNL A   1      43.004  23.320  27.051  1.00  0.00    -0.014 A 
BRANCH  49  50
ATOM     50  C   UNL A   1      43.564  24.669  27.371  1.00  0.00     0.031 A 
ATOM     51  C   UNL A   1      42.655  25.754  27.906  1.00  0.00     0.074 A 
ATOM     52  C   UNL A   1      44.850  24.968  27.101  1.00  0.00     0.049 A 
ATOM     53  N   UNL A   1      42.896  27.030  28.083  1.00  0.00    -0.248 NA
ATOM     54  C   UNL A   1      41.280  25.356  28.251  1.00  0.00     0.031 C 
ATOM     55  C   UNL A   1      45.842  24.046  26.549  1.00  0.00     0.029 A 
ATOM     56  N   UNL A   1      45.537  26.153  27.226  1.00  0.00    -0.354 N 
ATOM     57  C   UNL A   1      41.691  27.594  28.489  1.00  0.00     0.074 A 
ATOM     58  C   UNL A   1      40.713  26.527  28.502  1.00  0.00     0.031 C 
ATOM     59  C   UNL A   1      47.003  24.697  26.372  1.00  0.00     0.029 A 
ATOM     60  C   UNL A   1      46.838  26.089  26.779  1.00  0.00     0.049 A 
ATOM     61  H   UNL A   1      45.138  26.970  27.601  1.00  0.00     0.167 HD
ATOM     62  C   UNL A   1      41.421  28.871  28.855  1.00  0.00     0.034 A 
ATOM     63  C   UNL A   1      47.791  27.040  26.703  1.00  0.00     0.034 A 
ATOM     64  C   UNL A   1      42.410  29.912  28.947  1.00  0.00     0.049 A 
ATOM     65  C   UNL A   1      47.490  28.434  27.187  1.00  0.00     0.074 A 
ATOM     66  C   UNL A   1      42.255  31.209  29.406  1.00  0.00     0.029 A 
ATOM     67  N   UNL A   1      43.742  29.770  28.595  1.00  0.00    -0.354 N 
ATOM     68  N   UNL A   1      46.377  28.913  27.684  1.00  0.00    -0.248 NA
ATOM     69  C   UNL A   1      48.593  29.407  27.137  1.00  0.00     0.031 C 
ATOM     70  C   UNL A   1      43.496  31.851  29.332  1.00  0.00     0.029 A 
ATOM     71  C   UNL A   1      44.424  30.951  28.835  1.00  0.00     0.049 A 
ATOM     72  H   UNL A   1      44.144  28.951  28.227  1.00  0.00     0.167 HD
ATOM     73  C   UNL A   1      46.655  30.227  28.046  1.00  0.00     0.074 A 
ATOM     74  C   UNL A   1      48.048  30.464  27.725  1.00  0.00     0.031 C 
ATOM     75  C   UNL A   1      45.828  31.157  28.582  1.00  0.00     0.034 A 
BRANCH  62  76
ATOM     76  C   UNL A   1      40.004  29.196  29.257  1.00  0.00     0.023 A 
ATOM     77  C   UNL A   1      39.050  29.493  28.261  1.00  0.00     0.012 A 
ATOM     78  C   UNL A   1      39.604  29.181  30.608  1.00  0.00     0.148 A 
ATOM     79  C   UNL A   1      37.739  29.821  28.604  1.00  0.00     0.002 A 
ATOM     80  C   UNL A   1      38.282  29.463  30.939  1.00  0.00     0.091 A 
ATOM     81  F   UNL A   1      40.523  28.914  31.548  1.00  0.00    -0.205 F 
ATOM     82  C   UNL A   1      37.353  29.798  29.941  1.00  0.00     0.022 A 
BRANCH  80  83
ATOM     83  S   UNL A   1      37.672  29.378  32.628  1.00  0.00     0.127 S 
ATOM     84  O   UNL A   1      36.332  29.941  32.488  1.00  0.00    -0.237 OA
ATOM     85  O   UNL A   1      37.705  27.941  32.901  1.00  0.00    -0.237 OA
ATOM     86  O   UNL A   1      38.608  30.163  33.425  1.00  0.00    -0.744 OA
ENDBRANCH  80  83
ENDBRANCH  62  76
BRANCH  63  87
ATOM     87  C   UNL A   1      49.161  26.680  26.236  1.00  0.00     0.023 A 
ATOM     88  C   UNL A   1      49.960  25.853  27.052  1.00  0.00     0.012 A 
ATOM     89  C   UNL A   1      49.667  27.119  24.999  1.00  0.00     0.148 A 
ATOM     90  C   UNL A   1      51.249  25.495  26.658  1.00  0.00     0.002 A 
ATOM     91  C   UNL A   1      50.935  26.719  24.590  1.00  0.00     0.091 A 
ATOM     92  F   UNL A   1      48.894  27.910  24.242  1.00  0.00    -0.205 F 
ATOM     93  C   UNL A   1      51.733  25.920  25.424  1.00  0.00     0.022 A 
BRANCH  91  94
ATOM     94  S   UNL A   1      51.607  27.119  22.972  1.00  0.00     0.127 S 
ATOM     95  O   UNL A   1      52.820  26.315  22.943  1.00  0.00    -0.237 OA
ATOM     96  O   UNL A   1      50.539  26.666  22.082  1.00  0.00    -0.237 OA
ATOM     97  O   UNL A   1      51.806  28.567  22.980  1.00  0.00    -0.744 OA
ENDBRANCH  91  94
ENDBRANCH  63  87
BRANCH  75  98
ATOM     98  C   UNL A   1      46.402  32.511  28.905  1.00  0.00     0.023 A 
ATOM     99  C   UNL A   1      46.990  32.738  30.165  1.00  0.00     0.012 A 
ATOM    100  C   UNL A   1      46.436  33.531  27.932  1.00  0.00     0.148 A 
ATOM    101  C   UNL A   1      47.580  33.967  30.461  1.00  0.00     0.002 A 
ATOM    102  C   UNL A   1      47.066  34.737  28.219  1.00  0.00     0.091 A 
ATOM    103  F   UNL A   1      45.852  33.304  26.747  1.00  0.00    -0.205 F 
ATOM    104  C   UNL A   1      47.630  34.960  29.485  1.00  0.00     0.022 A 
BRANCH 102 105
ATOM    105  S   UNL A   1      47.258  36.034  26.990  1.00  0.00     0.127 S 
ATOM    106  O   UNL A   1      45.872  36.445  26.771  1.00  0.00    -0.237 OA
ATOM    107  O   UNL A   1      48.080  37.016  27.696  1.00  0.00    -0.237 OA
ATOM    108  O   UNL A   1      47.915  35.408  25.850  1.00  0.00    -0.744 OA
ENDBRANCH 102 105
ENDBRANCH  75  98
ENDBRANCH  49  50
ENDBRANCH  41  44
ENDBRANCH  39  40
ENDBRANCH   1  39
TORSDOF 18
ENDMDL
MODEL 3
REMARK VINA RESULT:     -12.7      5.043     10.401
REMARK SMILES COc1ccc2[nH]cc([C@H](C(=O)NCCCNC(=O)c3ccc(-c4c5nc(c(-c6cccc(S(=O)(=O)[O-])c6F)c6ccc([nH]6)c(-c6cccc(S(=O)(=O)[O-])c6F)c6nc(c(-c7cccc(S(=O)(=O)[O-])c7F)c7ccc4[nH]7)C=C6)C=C5)cc3)[NH+]3CC[NH+](Cc4cccc5ccccc45)CC3)c2c1
REMARK SMILES IDX 15 1 14 2 13 3 11 4 12 5 10 7 9 8 3 9 4 10 101 11 5 12
REMARK SMILES IDX 100 13 6 14 7 15 8 16 2 18 1 19 83 20 84 21 99 22 85 24
REMARK SMILES IDX 98 25 86 26 87 28 88 29 89 30 97 31 90 32 92 33 96 34 91 35
REMARK SMILES IDX 93 36 95 37 94 38 16 39 17 40 18 41 19 43 20 44 21 45 82 46
REMARK SMILES IDX 22 47 81 48 23 49 24 50 25 51 75 52 26 53 80 54 74 55 76 56
REMARK SMILES IDX 27 57 79 58 73 59 72 60 28 62 60 63 40 64 59 65 41 66 44 67
REMARK SMILES IDX 58 68 77 69 42 70 43 71 57 73 78 74 45 75 29 76 30 77 38 78
REMARK SMILES IDX 31 79 33 80 39 81 32 82 34 83 35 84 36 85 37 86 61 87 62 88
REMARK SMILES IDX 70 89 63 90 65 91 71 92 64 93 66 94 67 95 68 96 69 97 46 98
REMARK SMILES IDX 47 99 55 100 48 101 50 102 56 103 49 104 51 105 52 106
REMARK SMILES IDX 53 107 54 108
REMARK H PARENT 13 6 7 17 83 23 86 27 17 42 76 61 44 72
REMARK Flexibility Score: inf
ROOT
ATOM      1  C   UNL A   1      38.730  21.323  26.115  1.00  0.00     0.042 C 
ENDROOT
BRANCH   1   2
ATOM      2  C   UNL A   1      37.453  21.963  25.541  1.00  0.00     0.118 C 
BRANCH   2   3
ATOM      3  N   UNL A   1      36.314  21.581  26.363  1.00  0.00    -0.351 N 
ATOM      4  C   UNL A   1      34.971  21.762  26.286  1.00  0.00     0.283 C 
ATOM      5  O   UNL A   1      34.374  21.513  27.348  1.00  0.00    -0.268 OA
ATOM      6  H   UNL A   1      36.581  21.072  27.162  1.00  0.00     0.163 HD
BRANCH   4   7
ATOM      7  C   UNL A   1      34.146  22.040  25.018  1.00  0.00     0.308 C 
BRANCH   7   8
ATOM      8  C   UNL A   1      33.550  20.952  24.141  1.00  0.00     0.045 A 
ATOM      9  C   UNL A   1      33.837  17.212  24.931  1.00  0.00     0.119 A 
ATOM     10  C   UNL A   1      32.754  16.819  24.155  1.00  0.00     0.048 A 
ATOM     11  C   UNL A   1      34.284  18.542  24.929  1.00  0.00     0.057 A 
ATOM     12  C   UNL A   1      32.142  17.721  23.291  1.00  0.00     0.030 A 
ATOM     13  C   UNL A   1      33.577  19.514  24.192  1.00  0.00     0.013 A 
ATOM     14  C   UNL A   1      32.575  19.051  23.331  1.00  0.00     0.046 A 
ATOM     15  N   UNL A   1      32.151  20.122  22.590  1.00  0.00    -0.361 N 
ATOM     16  C   UNL A   1      32.717  21.264  23.067  1.00  0.00     0.094 A 
ATOM     17  H   UNL A   1      31.531  20.073  21.827  1.00  0.00     0.166 HD
BRANCH   9  18
ATOM     18  O   UNL A   1      34.357  16.263  25.768  1.00  0.00    -0.497 OA
ATOM     19  C   UNL A   1      35.657  15.828  25.378  1.00  0.00     0.278 C 
ENDBRANCH   9  18
ENDBRANCH   7   8
BRANCH   7  20
ATOM     20  N   UNL A   1      33.163  23.105  25.246  1.00  0.00    -0.312 N 
ATOM     21  C   UNL A   1      33.210  24.343  24.503  1.00  0.00     0.325 C 
ATOM     22  C   UNL A   1      31.923  22.801  25.939  1.00  0.00     0.325 C 
ATOM     23  H   UNL A   1      33.759  23.415  26.013  1.00  0.00     0.349 HD
ATOM     24  C   UNL A   1      31.904  24.710  23.768  1.00  0.00     0.324 C 
ATOM     25  C   UNL A   1      30.646  23.166  25.142  1.00  0.00     0.324 C 
ATOM     26  N   UNL A   1      30.638  24.468  24.461  1.00  0.00    -0.322 N 
ATOM     27  H   UNL A   1      29.917  24.383  23.745  1.00  0.00     0.348 HD
BRANCH  26  28
ATOM     28  C   UNL A   1      30.076  25.612  25.188  1.00  0.00     0.300 C 
BRANCH  28  29
ATOM     29  C   UNL A   1      30.293  26.991  24.596  1.00  0.00     0.014 A 
ATOM     30  C   UNL A   1      29.641  27.280  23.382  1.00  0.00     0.010 A 
ATOM     31  C   UNL A   1      31.027  28.014  25.259  1.00  0.00    -0.010 A 
ATOM     32  C   UNL A   1      29.610  28.573  22.878  1.00  0.00     0.001 A 
ATOM     33  C   UNL A   1      30.898  29.344  24.791  1.00  0.00    -0.018 A 
ATOM     34  C   UNL A   1      31.855  27.800  26.388  1.00  0.00     0.009 A 
ATOM     35  C   UNL A   1      30.198  29.605  23.603  1.00  0.00     0.009 A 
ATOM     36  C   UNL A   1      31.450  30.404  25.530  1.00  0.00     0.009 A 
ATOM     37  C   UNL A   1      32.409  28.863  27.106  1.00  0.00     0.001 A 
ATOM     38  C   UNL A   1      32.177  30.167  26.695  1.00  0.00     0.001 A 
ENDBRANCH  28  29
ENDBRANCH  26  28
ENDBRANCH   7  20
ENDBRANCH   4   7
ENDBRANCH   2   3
ENDBRANCH   1   2
BRANCH   1  39
ATOM     39  C   UNL A   1      39.151  20.063  25.375  1.00  0.00     0.118 C 
BRANCH  39  40
ATOM     40  N   UNL A   1      40.265  19.388  26.013  1.00  0.00    -0.352 N 
ATOM     41  C   UNL A   1      41.441  19.810  26.586  1.00  0.00     0.251 C 
ATOM     42  H   UNL A   1      40.154  18.411  26.043  1.00  0.00     0.163 HD
ATOM     43  O   UNL A   1      42.194  18.914  26.980  1.00  0.00    -0.269 OA
BRANCH  41  44
ATOM     44  C   UNL A   1      41.868  21.235  26.760  1.00  0.00     0.039 A 
ATOM     45  C   UNL A   1      42.120  21.668  28.076  1.00  0.00     0.014 A 
ATOM     46  C   UNL A   1      41.966  22.184  25.745  1.00  0.00     0.014 A 
ATOM     47  C   UNL A   1      42.437  23.006  28.364  1.00  0.00     0.010 A 
ATOM     48  C   UNL A   1      42.354  23.503  26.022  1.00  0.00     0.010 A 
ATOM     49  C   UNL A   1      42.564  23.945  27.335  1.00  0.00    -0.014 A 
BRANCH  49  50
ATOM     50  C   UNL A   1      42.860  25.387  27.593  1.00  0.00     0.031 A 
ATOM     51  C   UNL A   1      44.263  25.916  27.389  1.00  0.00     0.074 A 
ATOM     52  C   UNL A   1      41.919  26.210  28.097  1.00  0.00     0.049 A 
ATOM     53  N   UNL A   1      44.771  27.079  27.716  1.00  0.00    -0.248 NA
ATOM     54  C   UNL A   1      45.234  24.998  26.770  1.00  0.00     0.031 C 
ATOM     55  C   UNL A   1      40.533  25.843  28.385  1.00  0.00     0.029 A 
ATOM     56  N   UNL A   1      41.999  27.526  28.490  1.00  0.00    -0.354 N 
ATOM     57  C   UNL A   1      46.126  27.004  27.409  1.00  0.00     0.074 A 
ATOM     58  C   UNL A   1      46.367  25.672  26.899  1.00  0.00     0.031 C 
ATOM     59  C   UNL A   1      39.897  26.900  28.918  1.00  0.00     0.029 A 
ATOM     60  C   UNL A   1      40.830  28.016  29.028  1.00  0.00     0.049 A 
ATOM     61  H   UNL A   1      42.816  28.067  28.395  1.00  0.00     0.167 HD
ATOM     62  C   UNL A   1      47.082  27.962  27.505  1.00  0.00     0.034 A 
ATOM     63  C   UNL A   1      40.541  29.224  29.552  1.00  0.00     0.034 A 
ATOM     64  C   UNL A   1      46.829  29.319  27.910  1.00  0.00     0.049 A 
ATOM     65  C   UNL A   1      41.598  30.296  29.577  1.00  0.00     0.074 A 
ATOM     66  C   UNL A   1      47.709  30.387  27.939  1.00  0.00     0.029 A 
ATOM     67  N   UNL A   1      45.602  29.802  28.335  1.00  0.00    -0.354 N 
ATOM     68  N   UNL A   1      42.840  30.240  29.165  1.00  0.00    -0.248 NA
ATOM     69  C   UNL A   1      41.198  31.611  30.102  1.00  0.00     0.031 C 
ATOM     70  C   UNL A   1      47.012  31.517  28.381  1.00  0.00     0.029 A 
ATOM     71  C   UNL A   1      45.697  31.153  28.620  1.00  0.00     0.049 A 
ATOM     72  H   UNL A   1      44.783  29.263  28.423  1.00  0.00     0.167 HD
ATOM     73  C   UNL A   1      43.358  31.520  29.340  1.00  0.00     0.074 A 
ATOM     74  C   UNL A   1      42.289  32.334  29.880  1.00  0.00     0.031 C 
ATOM     75  C   UNL A   1      44.610  31.975  29.087  1.00  0.00     0.034 A 
BRANCH  62  76
ATOM     76  C   UNL A   1      48.484  27.591  27.090  1.00  0.00     0.023 A 
ATOM     77  C   UNL A   1      49.380  27.082  28.053  1.00  0.00     0.012 A 
ATOM     78  C   UNL A   1      48.908  27.714  25.752  1.00  0.00     0.148 A 
ATOM     79  C   UNL A   1      50.690  26.753  27.704  1.00  0.00     0.002 A 
ATOM     80  C   UNL A   1      50.202  27.339  25.403  1.00  0.00     0.091 A 
ATOM     81  F   UNL A   1      48.052  28.214  24.849  1.00  0.00    -0.205 F 
ATOM     82  C   UNL A   1      51.098  26.874  26.379  1.00  0.00     0.022 A 
BRANCH  80  83
ATOM     83  S   UNL A   1      50.793  27.382  23.706  1.00  0.00     0.127 S 
ATOM     84  O   UNL A   1      49.709  26.708  22.997  1.00  0.00    -0.237 OA
ATOM     85  O   UNL A   1      50.894  28.817  23.444  1.00  0.00    -0.237 OA
ATOM     86  O   UNL A   1      52.073  26.681  23.716  1.00  0.00    -0.744 OA
ENDBRANCH  80  83
ENDBRANCH  62  76
BRANCH  63  87
ATOM     87  C   UNL A   1      39.152  29.519  30.008  1.00  0.00     0.023 A 
ATOM     88  C   UNL A   1      38.748  29.078  31.284  1.00  0.00     0.012 A 
ATOM     89  C   UNL A   1      38.246  30.246  29.213  1.00  0.00     0.148 A 
ATOM     90  C   UNL A   1      37.457  29.328  31.749  1.00  0.00     0.002 A 
ATOM     91  C   UNL A   1      36.975  30.534  29.701  1.00  0.00     0.091 A 
ATOM     92  F   UNL A   1      38.647  30.650  28.000  1.00  0.00    -0.205 F 
ATOM     93  C   UNL A   1      36.574  30.062  30.962  1.00  0.00     0.022 A 
BRANCH  91  94
ATOM     94  S   UNL A   1      35.803  31.567  28.815  1.00  0.00     0.127 S 
ATOM     95  O   UNL A   1      35.407  30.698  27.716  1.00  0.00    -0.237 OA
ATOM     96  O   UNL A   1      34.775  31.794  29.829  1.00  0.00    -0.237 OA
ATOM     97  O   UNL A   1      36.548  32.766  28.438  1.00  0.00    -0.744 OA
ENDBRANCH  91  94
ENDBRANCH  63  87
BRANCH  75  98
ATOM     98  C   UNL A   1      44.897  33.430  29.346  1.00  0.00     0.023 A 
ATOM     99  C   UNL A   1      45.398  33.831  30.601  1.00  0.00     0.012 A 
ATOM    100  C   UNL A   1      44.752  34.387  28.321  1.00  0.00     0.148 A 
ATOM    101  C   UNL A   1      45.727  35.166  30.839  1.00  0.00     0.002 A 
ATOM    102  C   UNL A   1      45.124  35.707  28.553  1.00  0.00     0.091 A 
ATOM    103  F   UNL A   1      44.252  33.991  27.142  1.00  0.00    -0.205 F 
ATOM    104  C   UNL A   1      45.602  36.100  29.813  1.00  0.00     0.022 A 
BRANCH 102 105
ATOM    105  S   UNL A   1      45.084  36.954  27.260  1.00  0.00     0.127 S 
ATOM    106  O   UNL A   1      45.986  36.380  26.263  1.00  0.00    -0.237 OA
ATOM    107  O   UNL A   1      43.673  36.961  26.873  1.00  0.00    -0.237 OA
ATOM    108  O   UNL A   1      45.542  38.189  27.884  1.00  0.00    -0.744 OA
ENDBRANCH 102 105
ENDBRANCH  75  98
ENDBRANCH  49  50
ENDBRANCH  41  44
ENDBRANCH  39  40
ENDBRANCH   1  39
TORSDOF 18
ENDMDL
