MODEL 1
REMARK VINA RESULT:     -12.4      0.000      0.000
REMARK SMILES O=C(NCCCNC(=O)c1ccc(-c2c3nc(c(-c4cccc(S(=O)(=O)[O-])c4F)c4ccc([nH]4)c(-c4cccc(S(=O)(=O)[O-])c4F)c4nc(c(-c5cccc(S(=O)(=O)[O-])c5F)c5ccc2[nH]5)C=C4)C=C3)cc1)C1=Cc2cc(Cl)c(Cl)cc2O[C@@H]1C(F)(F)F
REMARK SMILES IDX 6 1 5 2 4 3 3 4 1 5 2 6 73 8 74 9 84 10 75 11 83 12 76 13
REMARK SMILES IDX 82 14 77 15 81 16 78 17 79 18 80 19 85 20 86 21 87 22 88 23
REMARK SMILES IDX 7 24 8 25 9 27 10 28 11 29 72 30 12 31 71 32 13 33 14 34
REMARK SMILES IDX 15 35 65 36 16 37 70 38 64 39 66 40 17 41 69 42 63 43 62 44
REMARK SMILES IDX 18 46 50 47 30 48 49 49 31 50 34 51 48 52 67 53 32 54 33 55
REMARK SMILES IDX 47 57 68 58 35 59 19 60 20 61 28 62 21 63 23 64 29 65 22 66
REMARK SMILES IDX 24 67 25 68 26 69 27 70 51 71 52 72 60 73 53 74 55 75 61 76
REMARK SMILES IDX 54 77 56 78 57 79 58 80 59 81 36 82 37 83 45 84 38 85 40 86
REMARK SMILES IDX 46 87 39 88 41 89 42 90 43 91 44 92
REMARK H PARENT 3 7 7 26 66 45 34 56
REMARK Flexibility Score: inf
ROOT
ATOM      1  C   UNL A   1      34.375  28.762  26.412  1.00  0.00     0.118 C 
ENDROOT
BRANCH   1   2
ATOM      2  C   UNL A   1      33.265  27.754  26.687  1.00  0.00     0.042 C 
BRANCH   2   3
ATOM      3  C   UNL A   1      33.076  26.766  25.541  1.00  0.00     0.118 C 
BRANCH   3   4
ATOM      4  N   UNL A   1      33.420  27.313  24.226  1.00  0.00    -0.352 N 
ATOM      5  O   UNL A   1      33.165  28.657  22.413  1.00  0.00    -0.270 OA
ATOM      6  C   UNL A   1      32.663  28.064  23.357  1.00  0.00     0.251 C 
ATOM      7  H   UNL A   1      34.333  27.112  23.918  1.00  0.00     0.163 HD
BRANCH   6   8
ATOM      8  C   UNL A   1      31.227  28.199  23.666  1.00  0.00     0.067 C 
ATOM      9  C   UNL A   1      30.842  29.318  24.292  1.00  0.00     0.025 C 
ATOM     10  C   UNL A   1      30.284  27.313  22.913  1.00  0.00     0.314 C 
ATOM     11  C   UNL A   1      29.693  29.967  23.647  1.00  0.00     0.019 A 
ATOM     12  O   UNL A   1      29.314  28.065  22.141  1.00  0.00    -0.475 OA
ATOM     13  C   UNL A   1      29.527  31.339  23.867  1.00  0.00     0.034 A 
ATOM     14  C   UNL A   1      29.094  29.366  22.524  1.00  0.00     0.129 A 
ATOM     15  C   UNL A   1      28.880  32.125  22.910  1.00  0.00     0.060 A 
ATOM     16  C   UNL A   1      28.410  30.145  21.592  1.00  0.00     0.069 A 
ATOM     17  Cl  UNL A   1      28.897  33.835  23.141  1.00  0.00    -0.083 Cl
ATOM     18  C   UNL A   1      28.342  31.530  21.762  1.00  0.00     0.063 A 
ATOM     19  Cl  UNL A   1      27.667  32.457  20.470  1.00  0.00    -0.083 Cl
BRANCH  10  20
ATOM     20  C   UNL A   1      29.577  26.318  23.847  1.00  0.00     0.429 C 
ATOM     21  F   UNL A   1      28.229  26.437  23.748  1.00  0.00    -0.167 F 
ATOM     22  F   UNL A   1      29.875  25.033  23.545  1.00  0.00    -0.167 F 
ATOM     23  F   UNL A   1      29.898  26.512  25.148  1.00  0.00    -0.167 F 
ENDBRANCH  10  20
ENDBRANCH   6   8
ENDBRANCH   3   4
ENDBRANCH   2   3
ENDBRANCH   1   2
BRANCH   1  24
ATOM     24  N   UNL A   1      34.037  30.130  26.803  1.00  0.00    -0.352 N 
ATOM     25  C   UNL A   1      34.655  30.998  27.684  1.00  0.00     0.251 C 
ATOM     26  H   UNL A   1      33.235  30.494  26.364  1.00  0.00     0.163 HD
ATOM     27  O   UNL A   1      34.145  32.082  27.915  1.00  0.00    -0.269 OA
BRANCH  25  28
ATOM     28  C   UNL A   1      35.910  30.602  28.368  1.00  0.00     0.039 A 
ATOM     29  C   UNL A   1      35.842  29.776  29.494  1.00  0.00     0.014 A 
ATOM     30  C   UNL A   1      37.149  31.020  27.890  1.00  0.00     0.014 A 
ATOM     31  C   UNL A   1      37.022  29.286  30.068  1.00  0.00     0.010 A 
ATOM     32  C   UNL A   1      38.310  30.436  28.380  1.00  0.00     0.010 A 
ATOM     33  C   UNL A   1      38.264  29.562  29.477  1.00  0.00    -0.014 A 
BRANCH  33  34
ATOM     34  C   UNL A   1      39.533  28.953  29.962  1.00  0.00     0.031 A 
ATOM     35  C   UNL A   1      40.288  29.596  31.099  1.00  0.00     0.074 A 
ATOM     36  C   UNL A   1      40.075  27.913  29.298  1.00  0.00     0.049 A 
ATOM     37  N   UNL A   1      41.479  29.320  31.560  1.00  0.00    -0.248 NA
ATOM     38  C   UNL A   1      39.637  30.733  31.774  1.00  0.00     0.031 C 
ATOM     39  C   UNL A   1      39.496  27.260  28.120  1.00  0.00     0.029 A 
ATOM     40  N   UNL A   1      41.258  27.243  29.495  1.00  0.00    -0.354 N 
ATOM     41  C   UNL A   1      41.745  30.282  32.528  1.00  0.00     0.074 A 
ATOM     42  C   UNL A   1      40.607  31.174  32.561  1.00  0.00     0.031 C 
ATOM     43  C   UNL A   1      40.317  26.281  27.708  1.00  0.00     0.029 A 
ATOM     44  C   UNL A   1      41.498  26.257  28.563  1.00  0.00     0.049 A 
ATOM     45  H   UNL A   1      41.876  27.447  30.232  1.00  0.00     0.167 HD
ATOM     46  C   UNL A   1      42.818  30.394  33.346  1.00  0.00     0.034 A 
ATOM     47  C   UNL A   1      42.554  25.433  28.409  1.00  0.00     0.034 A 
ATOM     48  C   UNL A   1      43.907  29.456  33.369  1.00  0.00     0.049 A 
ATOM     49  C   UNL A   1      43.695  25.524  29.385  1.00  0.00     0.074 A 
ATOM     50  C   UNL A   1      44.984  29.409  34.235  1.00  0.00     0.029 A 
ATOM     51  N   UNL A   1      44.052  28.394  32.490  1.00  0.00    -0.354 N 
ATOM     52  N   UNL A   1      43.852  26.342  30.398  1.00  0.00    -0.248 NA
ATOM     53  C   UNL A   1      44.789  24.556  29.221  1.00  0.00     0.031 C 
ATOM     54  C   UNL A   1      45.788  28.324  33.872  1.00  0.00     0.029 A 
ATOM     55  C   UNL A   1      45.202  27.685  32.791  1.00  0.00     0.049 A 
ATOM     56  H   UNL A   1      43.429  28.176  31.760  1.00  0.00     0.167 HD
ATOM     57  C   UNL A   1      45.043  25.968  31.010  1.00  0.00     0.074 A 
ATOM     58  C   UNL A   1      45.554  24.833  30.269  1.00  0.00     0.031 C 
ATOM     59  C   UNL A   1      45.666  26.524  32.078  1.00  0.00     0.034 A 
BRANCH  46  60
ATOM     60  C   UNL A   1      42.832  31.533  34.333  1.00  0.00     0.023 A 
ATOM     61  C   UNL A   1      43.524  32.720  34.015  1.00  0.00     0.012 A 
ATOM     62  C   UNL A   1      42.124  31.453  35.549  1.00  0.00     0.148 A 
ATOM     63  C   UNL A   1      43.548  33.792  34.905  1.00  0.00     0.002 A 
ATOM     64  C   UNL A   1      42.113  32.544  36.411  1.00  0.00     0.091 A 
ATOM     65  F   UNL A   1      41.489  30.310  35.846  1.00  0.00    -0.205 F 
ATOM     66  C   UNL A   1      42.834  33.708  36.097  1.00  0.00     0.022 A 
BRANCH  64  67
ATOM     67  S   UNL A   1      41.158  32.567  37.933  1.00  0.00     0.127 S 
ATOM     68  O   UNL A   1      39.875  32.029  37.485  1.00  0.00    -0.237 OA
ATOM     69  O   UNL A   1      41.929  31.668  38.793  1.00  0.00    -0.237 OA
ATOM     70  O   UNL A   1      41.136  33.955  38.371  1.00  0.00    -0.744 OA
ENDBRANCH  64  67
ENDBRANCH  46  60
BRANCH  47  71
ATOM     71  C   UNL A   1      42.543  24.400  27.335  1.00  0.00     0.023 A 
ATOM     72  C   UNL A   1      43.140  24.694  26.093  1.00  0.00     0.012 A 
ATOM     73  C   UNL A   1      41.981  23.125  27.539  1.00  0.00     0.148 A 
ATOM     74  C   UNL A   1      43.150  23.750  25.065  1.00  0.00     0.002 A 
ATOM     75  C   UNL A   1      42.042  22.171  26.530  1.00  0.00     0.091 A 
ATOM     76  F   UNL A   1      41.406  22.866  28.723  1.00  0.00    -0.205 F 
ATOM     77  C   UNL A   1      42.611  22.486  25.286  1.00  0.00     0.022 A 
BRANCH  75  78
ATOM     78  S   UNL A   1      41.491  20.477  26.771  1.00  0.00     0.127 S 
ATOM     79  O   UNL A   1      40.044  20.643  26.870  1.00  0.00    -0.237 OA
ATOM     80  O   UNL A   1      41.955  19.828  25.545  1.00  0.00    -0.237 OA
ATOM     81  O   UNL A   1      42.162  20.018  27.981  1.00  0.00    -0.744 OA
ENDBRANCH  75  78
ENDBRANCH  47  71
BRANCH  59  82
ATOM     82  C   UNL A   1      46.958  25.900  32.534  1.00  0.00     0.023 A 
ATOM     83  C   UNL A   1      48.183  26.395  32.046  1.00  0.00     0.012 A 
ATOM     84  C   UNL A   1      46.959  24.881  33.506  1.00  0.00     0.148 A 
ATOM     85  C   UNL A   1      49.390  25.863  32.496  1.00  0.00     0.002 A 
ATOM     86  C   UNL A   1      48.167  24.389  33.985  1.00  0.00     0.091 A 
ATOM     87  F   UNL A   1      45.782  24.411  33.944  1.00  0.00    -0.205 F 
ATOM     88  C   UNL A   1      49.383  24.871  33.474  1.00  0.00     0.022 A 
BRANCH  86  89
ATOM     89  S   UNL A   1      48.254  23.181  35.313  1.00  0.00     0.127 S 
ATOM     90  O   UNL A   1      49.696  22.978  35.436  1.00  0.00    -0.237 OA
ATOM     91  O   UNL A   1      47.640  23.902  36.429  1.00  0.00    -0.237 OA
ATOM     92  O   UNL A   1      47.495  22.026  34.852  1.00  0.00    -0.744 OA
ENDBRANCH  86  89
ENDBRANCH  59  82
ENDBRANCH  33  34
ENDBRANCH  25  28
ENDBRANCH   1  24
TORSDOF 14
ENDMDL
MODEL 2
REMARK VINA RESULT:     -12.4      3.015      3.998
REMARK SMILES O=C(NCCCNC(=O)c1ccc(-c2c3nc(c(-c4cccc(S(=O)(=O)[O-])c4F)c4ccc([nH]4)c(-c4cccc(S(=O)(=O)[O-])c4F)c4nc(c(-c5cccc(S(=O)(=O)[O-])c5F)c5ccc2[nH]5)C=C4)C=C3)cc1)C1=Cc2cc(Cl)c(Cl)cc2O[C@@H]1C(F)(F)F
REMARK SMILES IDX 6 1 5 2 4 3 3 4 1 5 2 6 73 8 74 9 84 10 75 11 83 12 76 13
REMARK SMILES IDX 82 14 77 15 81 16 78 17 79 18 80 19 85 20 86 21 87 22 88 23
REMARK SMILES IDX 7 24 8 25 9 27 10 28 11 29 72 30 12 31 71 32 13 33 14 34
REMARK SMILES IDX 15 35 65 36 16 37 70 38 64 39 66 40 17 41 69 42 63 43 62 44
REMARK SMILES IDX 18 46 50 47 30 48 49 49 31 50 34 51 48 52 67 53 32 54 33 55
REMARK SMILES IDX 47 57 68 58 35 59 19 60 20 61 28 62 21 63 23 64 29 65 22 66
REMARK SMILES IDX 24 67 25 68 26 69 27 70 51 71 52 72 60 73 53 74 55 75 61 76
REMARK SMILES IDX 54 77 56 78 57 79 58 80 59 81 36 82 37 83 45 84 38 85 40 86
REMARK SMILES IDX 46 87 39 88 41 89 42 90 43 91 44 92
REMARK H PARENT 3 7 7 26 66 45 34 56
REMARK Flexibility Score: inf
ROOT
ATOM      1  C   UNL A   1      33.277  29.084  26.901  1.00  0.00     0.118 C 
ENDROOT
BRANCH   1   2
ATOM      2  C   UNL A   1      31.903  28.576  27.325  1.00  0.00     0.042 C 
BRANCH   2   3
ATOM      3  C   UNL A   1      31.321  27.572  26.335  1.00  0.00     0.118 C 
BRANCH   3   4
ATOM      4  N   UNL A   1      31.168  26.222  26.884  1.00  0.00    -0.352 N 
ATOM      5  O   UNL A   1      31.785  24.076  27.305  1.00  0.00    -0.270 OA
ATOM      6  C   UNL A   1      31.853  25.067  26.590  1.00  0.00     0.251 C 
ATOM      7  H   UNL A   1      30.467  26.128  27.569  1.00  0.00     0.163 HD
BRANCH   6   8
ATOM      8  C   UNL A   1      32.750  25.101  25.419  1.00  0.00     0.067 C 
ATOM      9  C   UNL A   1      34.031  25.424  25.643  1.00  0.00     0.025 C 
ATOM     10  C   UNL A   1      32.286  24.390  24.186  1.00  0.00     0.314 C 
ATOM     11  C   UNL A   1      34.974  24.483  25.024  1.00  0.00     0.019 A 
ATOM     12  O   UNL A   1      33.194  23.336  23.779  1.00  0.00    -0.475 OA
ATOM     13  C   UNL A   1      36.253  24.400  25.583  1.00  0.00     0.034 A 
ATOM     14  C   UNL A   1      34.483  23.415  24.248  1.00  0.00     0.129 A 
ATOM     15  C   UNL A   1      36.985  23.214  25.477  1.00  0.00     0.060 A 
ATOM     16  C   UNL A   1      35.233  22.249  24.106  1.00  0.00     0.069 A 
ATOM     17  Cl  UNL A   1      38.460  23.106  26.367  1.00  0.00    -0.083 Cl
ATOM     18  C   UNL A   1      36.464  22.131  24.757  1.00  0.00     0.063 A 
ATOM     19  Cl  UNL A   1      37.242  20.590  24.715  1.00  0.00    -0.083 Cl
BRANCH  10  20
ATOM     20  C   UNL A   1      32.041  25.370  23.028  1.00  0.00     0.429 C 
ATOM     21  F   UNL A   1      31.308  24.784  22.048  1.00  0.00    -0.167 F 
ATOM     22  F   UNL A   1      31.353  26.466  23.422  1.00  0.00    -0.167 F 
ATOM     23  F   UNL A   1      33.193  25.796  22.460  1.00  0.00    -0.167 F 
ENDBRANCH  10  20
ENDBRANCH   6   8
ENDBRANCH   3   4
ENDBRANCH   2   3
ENDBRANCH   1   2
BRANCH   1  24
ATOM     24  N   UNL A   1      33.508  30.492  27.223  1.00  0.00    -0.352 N 
ATOM     25  C   UNL A   1      34.587  31.119  27.817  1.00  0.00     0.251 C 
ATOM     26  H   UNL A   1      32.770  31.094  26.974  1.00  0.00     0.163 HD
ATOM     27  O   UNL A   1      34.528  32.313  28.060  1.00  0.00    -0.269 OA
BRANCH  25  28
ATOM     28  C   UNL A   1      35.794  30.341  28.186  1.00  0.00     0.039 A 
ATOM     29  C   UNL A   1      36.885  30.318  27.310  1.00  0.00     0.014 A 
ATOM     30  C   UNL A   1      35.865  29.658  29.397  1.00  0.00     0.014 A 
ATOM     31  C   UNL A   1      38.078  29.701  27.704  1.00  0.00     0.010 A 
ATOM     32  C   UNL A   1      37.084  29.158  29.836  1.00  0.00     0.010 A 
ATOM     33  C   UNL A   1      38.207  29.170  28.997  1.00  0.00    -0.014 A 
BRANCH  33  34
ATOM     34  C   UNL A   1      39.495  28.630  29.513  1.00  0.00     0.031 A 
ATOM     35  C   UNL A   1      40.211  29.339  30.635  1.00  0.00     0.074 A 
ATOM     36  C   UNL A   1      40.086  27.592  28.888  1.00  0.00     0.049 A 
ATOM     37  N   UNL A   1      41.409  29.128  31.115  1.00  0.00    -0.248 NA
ATOM     38  C   UNL A   1      39.508  30.470  31.266  1.00  0.00     0.031 C 
ATOM     39  C   UNL A   1      39.546  26.878  27.728  1.00  0.00     0.029 A 
ATOM     40  N   UNL A   1      41.294  26.978  29.118  1.00  0.00    -0.354 N 
ATOM     41  C   UNL A   1      41.624  30.131  32.054  1.00  0.00     0.074 A 
ATOM     42  C   UNL A   1      40.451  30.976  32.046  1.00  0.00     0.031 C 
ATOM     43  C   UNL A   1      40.411  25.920  27.356  1.00  0.00     0.029 A 
ATOM     44  C   UNL A   1      41.583  25.973  28.221  1.00  0.00     0.049 A 
ATOM     45  H   UNL A   1      41.896  27.232  29.853  1.00  0.00     0.167 HD
ATOM     46  C   UNL A   1      42.684  30.314  32.877  1.00  0.00     0.034 A 
ATOM     47  C   UNL A   1      42.673  25.189  28.104  1.00  0.00     0.034 A 
ATOM     48  C   UNL A   1      43.809  29.424  32.940  1.00  0.00     0.049 A 
ATOM     49  C   UNL A   1      43.800  25.358  29.086  1.00  0.00     0.074 A 
ATOM     50  C   UNL A   1      44.878  29.449  33.817  1.00  0.00     0.029 A 
ATOM     51  N   UNL A   1      44.007  28.340  32.098  1.00  0.00    -0.354 N 
ATOM     52  N   UNL A   1      43.913  26.215  30.073  1.00  0.00    -0.248 NA
ATOM     53  C   UNL A   1      44.934  24.431  28.964  1.00  0.00     0.031 C 
ATOM     54  C   UNL A   1      45.731  28.387  33.497  1.00  0.00     0.029 A 
ATOM     55  C   UNL A   1      45.182  27.690  32.432  1.00  0.00     0.049 A 
ATOM     56  H   UNL A   1      43.401  28.073  31.370  1.00  0.00     0.167 HD
ATOM     57  C   UNL A   1      45.111  25.911  30.707  1.00  0.00     0.074 A 
ATOM     58  C   UNL A   1      45.677  24.774  30.009  1.00  0.00     0.031 C 
ATOM     59  C   UNL A   1      45.701  26.526  31.762  1.00  0.00     0.034 A 
BRANCH  46  60
ATOM     60  C   UNL A   1      42.641  31.485  33.826  1.00  0.00     0.023 A 
ATOM     61  C   UNL A   1      43.115  32.742  33.400  1.00  0.00     0.012 A 
ATOM     62  C   UNL A   1      42.090  31.356  35.116  1.00  0.00     0.148 A 
ATOM     63  C   UNL A   1      43.080  33.844  34.253  1.00  0.00     0.002 A 
ATOM     64  C   UNL A   1      42.015  32.470  35.945  1.00  0.00     0.091 A 
ATOM     65  F   UNL A   1      41.663  30.149  35.514  1.00  0.00    -0.205 F 
ATOM     66  C   UNL A   1      42.521  33.710  35.521  1.00  0.00     0.022 A 
BRANCH  64  67
ATOM     67  S   UNL A   1      41.240  32.423  37.566  1.00  0.00     0.127 S 
ATOM     68  O   UNL A   1      42.109  31.489  38.281  1.00  0.00    -0.237 OA
ATOM     69  O   UNL A   1      41.353  33.815  38.002  1.00  0.00    -0.237 OA
ATOM     70  O   UNL A   1      39.876  31.964  37.345  1.00  0.00    -0.744 OA
ENDBRANCH  64  67
ENDBRANCH  46  60
BRANCH  47  71
ATOM     71  C   UNL A   1      42.716  24.122  27.064  1.00  0.00     0.023 A 
ATOM     72  C   UNL A   1      43.405  24.363  25.859  1.00  0.00     0.012 A 
ATOM     73  C   UNL A   1      42.113  22.865  27.267  1.00  0.00     0.148 A 
ATOM     74  C   UNL A   1      43.468  23.387  24.864  1.00  0.00     0.002 A 
ATOM     75  C   UNL A   1      42.225  21.877  26.295  1.00  0.00     0.091 A 
ATOM     76  F   UNL A   1      41.451  22.656  28.415  1.00  0.00    -0.205 F 
ATOM     77  C   UNL A   1      42.887  22.142  25.086  1.00  0.00     0.022 A 
BRANCH  75  78
ATOM     78  S   UNL A   1      41.622  20.204  26.549  1.00  0.00     0.127 S 
ATOM     79  O   UNL A   1      40.175  20.398  26.519  1.00  0.00    -0.237 OA
ATOM     80  O   UNL A   1      42.173  19.502  25.390  1.00  0.00    -0.237 OA
ATOM     81  O   UNL A   1      42.179  19.778  27.826  1.00  0.00    -0.744 OA
ENDBRANCH  75  78
ENDBRANCH  47  71
BRANCH  59  82
ATOM     82  C   UNL A   1      47.012  25.971  32.250  1.00  0.00     0.023 A 
ATOM     83  C   UNL A   1      48.219  26.460  31.713  1.00  0.00     0.012 A 
ATOM     84  C   UNL A   1      47.049  25.028  33.294  1.00  0.00     0.148 A 
ATOM     85  C   UNL A   1      49.444  25.994  32.189  1.00  0.00     0.002 A 
ATOM     86  C   UNL A   1      48.273  24.604  33.797  1.00  0.00     0.091 A 
ATOM     87  F   UNL A   1      45.888  24.562  33.778  1.00  0.00    -0.205 F 
ATOM     88  C   UNL A   1      49.471  25.078  33.238  1.00  0.00     0.022 A 
BRANCH  86  89
ATOM     89  S   UNL A   1      48.403  23.501  35.209  1.00  0.00     0.127 S 
ATOM     90  O   UNL A   1      49.851  23.407  35.381  1.00  0.00    -0.237 OA
ATOM     91  O   UNL A   1      47.711  24.255  36.256  1.00  0.00    -0.237 OA
ATOM     92  O   UNL A   1      47.736  22.267  34.815  1.00  0.00    -0.744 OA
ENDBRANCH  86  89
ENDBRANCH  59  82
ENDBRANCH  33  34
ENDBRANCH  25  28
ENDBRANCH   1  24
TORSDOF 14
ENDMDL
MODEL 3
REMARK VINA RESULT:     -12.4      3.962      9.069
REMARK SMILES O=C(NCCCNC(=O)c1ccc(-c2c3nc(c(-c4cccc(S(=O)(=O)[O-])c4F)c4ccc([nH]4)c(-c4cccc(S(=O)(=O)[O-])c4F)c4nc(c(-c5cccc(S(=O)(=O)[O-])c5F)c5ccc2[nH]5)C=C4)C=C3)cc1)C1=Cc2cc(Cl)c(Cl)cc2O[C@@H]1C(F)(F)F
REMARK SMILES IDX 6 1 5 2 4 3 3 4 1 5 2 6 73 8 74 9 84 10 75 11 83 12 76 13
REMARK SMILES IDX 82 14 77 15 81 16 78 17 79 18 80 19 85 20 86 21 87 22 88 23
REMARK SMILES IDX 7 24 8 25 9 27 10 28 11 29 72 30 12 31 71 32 13 33 14 34
REMARK SMILES IDX 15 35 65 36 16 37 70 38 64 39 66 40 17 41 69 42 63 43 62 44
REMARK SMILES IDX 18 46 50 47 30 48 49 49 31 50 34 51 48 52 67 53 32 54 33 55
REMARK SMILES IDX 47 57 68 58 35 59 19 60 20 61 28 62 21 63 23 64 29 65 22 66
REMARK SMILES IDX 24 67 25 68 26 69 27 70 51 71 52 72 60 73 53 74 55 75 61 76
REMARK SMILES IDX 54 77 56 78 57 79 58 80 59 81 36 82 37 83 45 84 38 85 40 86
REMARK SMILES IDX 46 87 39 88 41 89 42 90 43 91 44 92
REMARK H PARENT 3 7 7 26 66 45 34 56
REMARK Flexibility Score: inf
ROOT
ATOM      1  C   UNL A   1      32.947  32.373  27.332  1.00  0.00     0.118 C 
ENDROOT
BRANCH   1   2
ATOM      2  C   UNL A   1      31.826  31.544  26.714  1.00  0.00     0.042 C 
BRANCH   2   3
ATOM      3  C   UNL A   1      32.316  30.198  26.193  1.00  0.00     0.118 C 
BRANCH   3   4
ATOM      4  N   UNL A   1      31.797  29.050  26.941  1.00  0.00    -0.352 N 
ATOM      5  O   UNL A   1      31.343  26.855  27.312  1.00  0.00    -0.270 OA
ATOM      6  C   UNL A   1      31.535  27.767  26.520  1.00  0.00     0.251 C 
ATOM      7  H   UNL A   1      31.606  29.224  27.891  1.00  0.00     0.163 HD
BRANCH   6   8
ATOM      8  C   UNL A   1      31.587  27.516  25.067  1.00  0.00     0.067 C 
ATOM      9  C   UNL A   1      32.775  27.177  24.550  1.00  0.00     0.025 C 
ATOM     10  C   UNL A   1      30.286  27.253  24.376  1.00  0.00     0.314 C 
ATOM     11  C   UNL A   1      32.707  25.986  23.694  1.00  0.00     0.019 A 
ATOM     12  O   UNL A   1      30.251  25.953  23.735  1.00  0.00    -0.475 OA
ATOM     13  C   UNL A   1      33.885  25.251  23.525  1.00  0.00     0.034 A 
ATOM     14  C   UNL A   1      31.463  25.368  23.459  1.00  0.00     0.129 A 
ATOM     15  C   UNL A   1      33.821  23.883  23.249  1.00  0.00     0.060 A 
ATOM     16  C   UNL A   1      31.402  24.013  23.141  1.00  0.00     0.069 A 
ATOM     17  Cl  UNL A   1      35.302  22.997  23.264  1.00  0.00    -0.083 Cl
ATOM     18  C   UNL A   1      32.578  23.260  23.080  1.00  0.00     0.063 A 
ATOM     19  Cl  UNL A   1      32.420  21.550  22.891  1.00  0.00    -0.083 Cl
BRANCH  10  20
ATOM     20  C   UNL A   1      29.947  28.362  23.368  1.00  0.00     0.429 C 
ATOM     21  F   UNL A   1      28.653  28.275  22.971  1.00  0.00    -0.167 F 
ATOM     22  F   UNL A   1      30.107  29.598  23.894  1.00  0.00    -0.167 F 
ATOM     23  F   UNL A   1      30.709  28.296  22.251  1.00  0.00    -0.167 F 
ENDBRANCH  10  20
ENDBRANCH   6   8
ENDBRANCH   3   4
ENDBRANCH   2   3
ENDBRANCH   1   2
BRANCH   1  24
ATOM     24  N   UNL A   1      32.561  33.752  27.634  1.00  0.00    -0.352 N 
ATOM     25  C   UNL A   1      33.081  34.659  28.538  1.00  0.00     0.251 C 
ATOM     26  H   UNL A   1      31.804  34.089  27.104  1.00  0.00     0.163 HD
ATOM     27  O   UNL A   1      32.543  35.745  28.674  1.00  0.00    -0.269 OA
BRANCH  25  28
ATOM     28  C   UNL A   1      34.264  34.305  29.358  1.00  0.00     0.039 A 
ATOM     29  C   UNL A   1      34.073  33.782  30.641  1.00  0.00     0.014 A 
ATOM     30  C   UNL A   1      35.555  34.461  28.860  1.00  0.00     0.014 A 
ATOM     31  C   UNL A   1      35.173  33.318  31.373  1.00  0.00     0.010 A 
ATOM     32  C   UNL A   1      36.627  33.888  29.531  1.00  0.00     0.010 A 
ATOM     33  C   UNL A   1      36.453  33.310  30.798  1.00  0.00    -0.014 A 
BRANCH  33  34
ATOM     34  C   UNL A   1      37.630  32.701  31.476  1.00  0.00     0.031 A 
ATOM     35  C   UNL A   1      38.365  31.557  30.823  1.00  0.00     0.074 A 
ATOM     36  C   UNL A   1      37.950  33.077  32.731  1.00  0.00     0.049 A 
ATOM     37  N   UNL A   1      39.303  30.790  31.314  1.00  0.00    -0.248 NA
ATOM     38  C   UNL A   1      37.956  31.196  29.454  1.00  0.00     0.031 C 
ATOM     39  C   UNL A   1      37.257  34.103  33.515  1.00  0.00     0.029 A 
ATOM     40  N   UNL A   1      38.921  32.613  33.585  1.00  0.00    -0.354 N 
ATOM     41  C   UNL A   1      39.548  29.823  30.345  1.00  0.00     0.074 A 
ATOM     42  C   UNL A   1      38.633  30.075  29.255  1.00  0.00     0.031 C 
ATOM     43  C   UNL A   1      37.829  34.197  34.725  1.00  0.00     0.029 A 
ATOM     44  C   UNL A   1      38.903  33.216  34.823  1.00  0.00     0.049 A 
ATOM     45  H   UNL A   1      39.568  31.915  33.336  1.00  0.00     0.167 HD
ATOM     46  C   UNL A   1      40.477  28.837  30.342  1.00  0.00     0.034 A 
ATOM     47  C   UNL A   1      39.660  32.997  35.917  1.00  0.00     0.034 A 
ATOM     48  C   UNL A   1      41.440  28.644  31.390  1.00  0.00     0.049 A 
ATOM     49  C   UNL A   1      40.741  31.953  35.856  1.00  0.00     0.074 A 
ATOM     50  C   UNL A   1      42.497  27.753  31.433  1.00  0.00     0.029 A 
ATOM     51  N   UNL A   1      41.470  29.359  32.577  1.00  0.00    -0.354 N 
ATOM     52  N   UNL A   1      41.062  31.154  34.866  1.00  0.00    -0.248 NA
ATOM     53  C   UNL A   1      41.588  31.802  37.047  1.00  0.00     0.031 C 
ATOM     54  C   UNL A   1      43.160  27.921  32.653  1.00  0.00     0.029 A 
ATOM     55  C   UNL A   1      42.526  28.929  33.362  1.00  0.00     0.049 A 
ATOM     56  H   UNL A   1      40.834  30.068  32.825  1.00  0.00     0.167 HD
ATOM     57  C   UNL A   1      42.165  30.430  35.302  1.00  0.00     0.074 A 
ATOM     58  C   UNL A   1      42.474  30.902  36.636  1.00  0.00     0.031 C 
ATOM     59  C   UNL A   1      42.852  29.450  34.664  1.00  0.00     0.034 A 
BRANCH  46  60
ATOM     60  C   UNL A   1      40.540  27.937  29.134  1.00  0.00     0.023 A 
ATOM     61  C   UNL A   1      39.629  26.869  29.015  1.00  0.00     0.012 A 
ATOM     62  C   UNL A   1      41.464  28.175  28.096  1.00  0.00     0.148 A 
ATOM     63  C   UNL A   1      39.659  26.026  27.905  1.00  0.00     0.002 A 
ATOM     64  C   UNL A   1      41.457  27.359  26.970  1.00  0.00     0.091 A 
ATOM     65  F   UNL A   1      42.338  29.182  28.234  1.00  0.00    -0.205 F 
ATOM     66  C   UNL A   1      40.566  26.277  26.879  1.00  0.00     0.022 A 
BRANCH  64  67
ATOM     67  S   UNL A   1      42.530  27.647  25.558  1.00  0.00     0.127 S 
ATOM     68  O   UNL A   1      42.262  26.465  24.739  1.00  0.00    -0.237 OA
ATOM     69  O   UNL A   1      41.996  28.897  25.015  1.00  0.00    -0.237 OA
ATOM     70  O   UNL A   1      43.880  27.744  26.093  1.00  0.00    -0.744 OA
ENDBRANCH  64  67
ENDBRANCH  46  60
BRANCH  47  71
ATOM     71  C   UNL A   1      39.473  33.837  37.134  1.00  0.00     0.023 A 
ATOM     72  C   UNL A   1      39.937  35.167  37.128  1.00  0.00     0.012 A 
ATOM     73  C   UNL A   1      38.815  33.347  38.279  1.00  0.00     0.148 A 
ATOM     74  C   UNL A   1      39.777  35.984  38.248  1.00  0.00     0.002 A 
ATOM     75  C   UNL A   1      38.611  34.182  39.371  1.00  0.00     0.091 A 
ATOM     76  F   UNL A   1      38.390  32.075  38.272  1.00  0.00    -0.205 F 
ATOM     77  C   UNL A   1      39.106  35.495  39.365  1.00  0.00     0.022 A 
BRANCH  75  78
ATOM     78  S   UNL A   1      37.643  33.679  40.799  1.00  0.00     0.127 S 
ATOM     79  O   UNL A   1      38.523  32.697  41.428  1.00  0.00    -0.237 OA
ATOM     80  O   UNL A   1      37.503  34.938  41.531  1.00  0.00    -0.237 OA
ATOM     81  O   UNL A   1      36.393  33.159  40.260  1.00  0.00    -0.744 OA
ENDBRANCH  75  78
ENDBRANCH  47  71
BRANCH  59  82
ATOM     82  C   UNL A   1      44.024  28.838  35.382  1.00  0.00     0.023 A 
ATOM     83  C   UNL A   1      45.311  29.384  35.211  1.00  0.00     0.012 A 
ATOM     84  C   UNL A   1      43.836  27.776  36.287  1.00  0.00     0.148 A 
ATOM     85  C   UNL A   1      46.400  28.861  35.907  1.00  0.00     0.002 A 
ATOM     86  C   UNL A   1      44.918  27.291  37.014  1.00  0.00     0.091 A 
ATOM     87  F   UNL A   1      42.607  27.258  36.422  1.00  0.00    -0.205 F 
ATOM     88  C   UNL A   1      46.201  27.826  36.817  1.00  0.00     0.022 A 
BRANCH  86  89
ATOM     89  S   UNL A   1      44.737  26.027  38.278  1.00  0.00     0.127 S 
ATOM     90  O   UNL A   1      46.114  25.873  38.743  1.00  0.00    -0.237 OA
ATOM     91  O   UNL A   1      43.837  26.671  39.236  1.00  0.00    -0.237 OA
ATOM     92  O   UNL A   1      44.169  24.867  37.604  1.00  0.00    -0.744 OA
ENDBRANCH  86  89
ENDBRANCH  59  82
ENDBRANCH  33  34
ENDBRANCH  25  28
ENDBRANCH   1  24
TORSDOF 14
ENDMDL
