MODEL 1
REMARK VINA RESULT:     -11.9      0.000      0.000
REMARK SMILES O=C(CSc1nnc(Cc2ccncc2)n1-c1ccccc1Cl)NCCCNC(=O)c1ccc(-c2c3nc(c(-c4cccc(S(=O)(=O)[O-])c4F)c4ccc([nH]4)c(-c4cccc(S(=O)(=O)[O-])c4F)c4nc(c(-c5cccc(S(=O)(=O)[O-])c5F)c5ccc2[nH]5)C=C4)C=C3)cc1
REMARK SMILES IDX 25 1 24 2 1 3 2 4 3 6 4 7 5 8 6 9 16 10 7 11 8 12 17 13
REMARK SMILES IDX 18 14 22 15 19 16 21 17 23 18 20 19 9 20 10 21 11 22 15 23
REMARK SMILES IDX 12 24 14 25 13 26 26 27 27 28 28 29 29 30 30 32 31 33 32 34
REMARK SMILES IDX 93 35 33 36 92 37 34 38 35 39 36 40 86 41 37 42 91 43 85 44
REMARK SMILES IDX 87 45 38 46 90 47 84 48 83 49 39 51 71 52 51 53 70 54 52 55
REMARK SMILES IDX 55 56 69 57 88 58 53 59 54 60 68 62 89 63 56 64 40 65 41 66
REMARK SMILES IDX 49 67 42 68 44 69 50 70 43 71 45 72 46 73 47 74 48 75 72 76
REMARK SMILES IDX 73 77 81 78 74 79 76 80 82 81 75 82 77 83 78 84 79 85 80 86
REMARK SMILES IDX 57 87 58 88 66 89 59 90 61 91 67 92 60 93 62 94 63 95 64 96
REMARK SMILES IDX 65 97
REMARK H PARENT 24 5 28 31 87 50 55 61
REMARK Flexibility Score: inf
ROOT
ATOM      1  C   UNL A   1      38.296  21.517  25.532  1.00  0.00     0.117 C 
ENDROOT
BRANCH   1   2
ATOM      2  N   UNL A   1      36.932  21.501  26.039  1.00  0.00    -0.355 N 
ATOM      3  O   UNL A   1      35.960  21.924  24.009  1.00  0.00    -0.274 OA
ATOM      4  C   UNL A   1      35.837  21.661  25.205  1.00  0.00     0.230 C 
ATOM      5  H   UNL A   1      36.782  21.373  27.004  1.00  0.00     0.163 HD
BRANCH   4   6
ATOM      6  C   UNL A   1      34.473  21.528  25.869  1.00  0.00     0.178 C 
BRANCH   6   7
ATOM      7  S   UNL A   1      33.119  21.872  24.721  1.00  0.00    -0.076 SA
BRANCH   7   8
ATOM      8  C   UNL A   1      32.115  22.985  25.590  1.00  0.00     0.196 A 
ATOM      9  N   UNL A   1      31.620  22.813  26.795  1.00  0.00    -0.123 NA
ATOM     10  N   UNL A   1      31.780  24.241  25.118  1.00  0.00    -0.272 N 
ATOM     11  N   UNL A   1      30.933  23.956  27.136  1.00  0.00    -0.134 NA
ATOM     12  C   UNL A   1      31.028  24.812  26.136  1.00  0.00     0.142 A 
BRANCH  10  13
ATOM     13  C   UNL A   1      32.274  24.889  23.964  1.00  0.00     0.068 A 
ATOM     14  C   UNL A   1      31.430  24.975  22.845  1.00  0.00     0.028 A 
ATOM     15  C   UNL A   1      33.547  25.467  23.936  1.00  0.00     0.065 A 
ATOM     16  C   UNL A   1      31.855  25.657  21.707  1.00  0.00     0.002 A 
ATOM     17  C   UNL A   1      33.951  26.171  22.798  1.00  0.00     0.023 A 
ATOM     18  Cl  UNL A   1      34.718  25.227  25.183  1.00  0.00    -0.082 Cl
ATOM     19  C   UNL A   1      33.108  26.268  21.689  1.00  0.00     0.002 A 
ENDBRANCH  10  13
BRANCH  12  20
ATOM     20  C   UNL A   1      30.417  26.174  26.093  1.00  0.00     0.113 C 
BRANCH  20  21
ATOM     21  C   UNL A   1      31.413  27.309  26.042  1.00  0.00    -0.037 A 
ATOM     22  C   UNL A   1      31.328  28.288  25.047  1.00  0.00     0.024 A 
ATOM     23  C   UNL A   1      32.414  27.437  27.011  1.00  0.00     0.024 A 
ATOM     24  C   UNL A   1      32.213  29.354  25.083  1.00  0.00     0.111 A 
ATOM     25  C   UNL A   1      33.252  28.542  26.963  1.00  0.00     0.111 A 
ATOM     26  N   UNL A   1      33.165  29.514  26.029  1.00  0.00    -0.265 NA
ENDBRANCH  20  21
ENDBRANCH  12  20
ENDBRANCH   7   8
ENDBRANCH   6   7
ENDBRANCH   4   6
ENDBRANCH   1   2
BRANCH   1  27
ATOM     27  C   UNL A   1      38.808  20.162  25.040  1.00  0.00     0.042 C 
BRANCH  27  28
ATOM     28  C   UNL A   1      39.536  19.381  26.117  1.00  0.00     0.118 C 
BRANCH  28  29
ATOM     29  N   UNL A   1      40.912  18.992  25.753  1.00  0.00    -0.352 N 
ATOM     30  C   UNL A   1      42.079  19.751  25.797  1.00  0.00     0.251 C 
ATOM     31  H   UNL A   1      41.021  18.067  25.434  1.00  0.00     0.163 HD
ATOM     32  O   UNL A   1      43.090  19.384  25.223  1.00  0.00    -0.269 OA
BRANCH  30  33
ATOM     33  C   UNL A   1      42.072  21.001  26.586  1.00  0.00     0.039 A 
ATOM     34  C   UNL A   1      41.979  21.051  27.983  1.00  0.00     0.014 A 
ATOM     35  C   UNL A   1      42.195  22.169  25.855  1.00  0.00     0.014 A 
ATOM     36  C   UNL A   1      42.047  22.297  28.611  1.00  0.00     0.010 A 
ATOM     37  C   UNL A   1      42.601  23.304  26.474  1.00  0.00     0.010 A 
ATOM     38  C   UNL A   1      42.351  23.416  27.830  1.00  0.00    -0.014 A 
BRANCH  38  39
ATOM     39  C   UNL A   1      42.467  24.776  28.327  1.00  0.00     0.031 A 
ATOM     40  C   UNL A   1      41.240  25.584  28.140  1.00  0.00     0.074 A 
ATOM     41  C   UNL A   1      43.454  25.078  29.205  1.00  0.00     0.049 A 
ATOM     42  N   UNL A   1      41.097  26.621  27.386  1.00  0.00    -0.248 NA
ATOM     43  C   UNL A   1      39.973  25.079  28.700  1.00  0.00     0.031 C 
ATOM     44  C   UNL A   1      44.512  24.186  29.717  1.00  0.00     0.029 A 
ATOM     45  N   UNL A   1      43.606  26.179  29.987  1.00  0.00    -0.354 N 
ATOM     46  C   UNL A   1      39.788  27.046  27.601  1.00  0.00     0.074 A 
ATOM     47  C   UNL A   1      39.092  25.920  28.154  1.00  0.00     0.031 C 
ATOM     48  C   UNL A   1      45.001  24.680  30.875  1.00  0.00     0.029 A 
ATOM     49  C   UNL A   1      44.398  25.975  31.119  1.00  0.00     0.049 A 
ATOM     50  H   UNL A   1      43.192  27.046  29.774  1.00  0.00     0.167 HD
ATOM     51  C   UNL A   1      39.471  28.372  27.615  1.00  0.00     0.034 A 
ATOM     52  C   UNL A   1      44.485  26.781  32.210  1.00  0.00     0.034 A 
ATOM     53  C   UNL A   1      40.580  29.165  27.137  1.00  0.00     0.049 A 
ATOM     54  C   UNL A   1      43.969  28.111  31.807  1.00  0.00     0.074 A 
ATOM     55  C   UNL A   1      41.324  29.194  25.975  1.00  0.00     0.029 A 
ATOM     56  N   UNL A   1      41.337  29.801  28.096  1.00  0.00    -0.354 N 
ATOM     57  N   UNL A   1      44.562  28.861  30.921  1.00  0.00    -0.248 NA
ATOM     58  C   UNL A   1      42.552  28.378  32.005  1.00  0.00     0.031 C 
ATOM     59  C   UNL A   1      42.666  29.403  26.411  1.00  0.00     0.029 A 
ATOM     60  C   UNL A   1      42.656  29.591  27.795  1.00  0.00     0.049 A 
ATOM     61  H   UNL A   1      40.991  30.313  28.862  1.00  0.00     0.167 HD
ATOM     62  C   UNL A   1      43.525  29.324  30.121  1.00  0.00     0.074 A 
ATOM     63  C   UNL A   1      42.309  29.095  30.903  1.00  0.00     0.031 C 
ATOM     64  C   UNL A   1      43.711  29.540  28.784  1.00  0.00     0.034 A 
BRANCH  51  65
ATOM     65  C   UNL A   1      38.353  29.012  28.410  1.00  0.00     0.023 A 
ATOM     66  C   UNL A   1      37.421  29.784  27.678  1.00  0.00     0.012 A 
ATOM     67  C   UNL A   1      38.306  29.128  29.819  1.00  0.00     0.148 A 
ATOM     68  C   UNL A   1      36.545  30.674  28.306  1.00  0.00     0.002 A 
ATOM     69  C   UNL A   1      37.382  29.959  30.443  1.00  0.00     0.091 A 
ATOM     70  F   UNL A   1      39.236  28.547  30.577  1.00  0.00    -0.205 F 
ATOM     71  C   UNL A   1      36.522  30.760  29.691  1.00  0.00     0.022 A 
BRANCH  69  72
ATOM     72  S   UNL A   1      37.285  30.079  32.235  1.00  0.00     0.127 S 
ATOM     73  O   UNL A   1      37.113  28.679  32.613  1.00  0.00    -0.237 OA
ATOM     74  O   UNL A   1      38.587  30.657  32.566  1.00  0.00    -0.237 OA
ATOM     75  O   UNL A   1      36.155  30.958  32.510  1.00  0.00    -0.744 OA
ENDBRANCH  69  72
ENDBRANCH  51  65
BRANCH  52  76
ATOM     76  C   UNL A   1      44.733  26.422  33.631  1.00  0.00     0.023 A 
ATOM     77  C   UNL A   1      46.042  26.429  34.155  1.00  0.00     0.012 A 
ATOM     78  C   UNL A   1      43.659  26.328  34.546  1.00  0.00     0.148 A 
ATOM     79  C   UNL A   1      46.270  26.363  35.539  1.00  0.00     0.002 A 
ATOM     80  C   UNL A   1      43.888  26.253  35.916  1.00  0.00     0.091 A 
ATOM     81  F   UNL A   1      42.406  26.411  34.078  1.00  0.00    -0.205 F 
ATOM     82  C   UNL A   1      45.194  26.279  36.420  1.00  0.00     0.022 A 
BRANCH  80  83
ATOM     83  S   UNL A   1      42.535  26.181  37.100  1.00  0.00     0.127 S 
ATOM     84  O   UNL A   1      41.838  24.962  36.690  1.00  0.00    -0.237 OA
ATOM     85  O   UNL A   1      43.251  26.084  38.368  1.00  0.00    -0.237 OA
ATOM     86  O   UNL A   1      41.770  27.408  36.903  1.00  0.00    -0.744 OA
ENDBRANCH  80  83
ENDBRANCH  52  76
BRANCH  64  87
ATOM     87  C   UNL A   1      45.118  29.467  28.236  1.00  0.00     0.023 A 
ATOM     88  C   UNL A   1      45.645  28.297  27.646  1.00  0.00     0.012 A 
ATOM     89  C   UNL A   1      45.842  30.662  28.121  1.00  0.00     0.148 A 
ATOM     90  C   UNL A   1      46.868  28.317  26.971  1.00  0.00     0.002 A 
ATOM     91  C   UNL A   1      47.032  30.692  27.405  1.00  0.00     0.091 A 
ATOM     92  F   UNL A   1      45.329  31.768  28.682  1.00  0.00    -0.205 F 
ATOM     93  C   UNL A   1      47.554  29.520  26.836  1.00  0.00     0.022 A 
BRANCH  91  94
ATOM     94  S   UNL A   1      47.881  32.236  27.074  1.00  0.00     0.127 S 
ATOM     95  O   UNL A   1      47.992  32.812  28.411  1.00  0.00    -0.237 OA
ATOM     96  O   UNL A   1      49.146  31.781  26.495  1.00  0.00    -0.237 OA
ATOM     97  O   UNL A   1      47.031  32.966  26.142  1.00  0.00    -0.744 OA
ENDBRANCH  91  94
ENDBRANCH  64  87
ENDBRANCH  38  39
ENDBRANCH  30  33
ENDBRANCH  28  29
ENDBRANCH  27  28
ENDBRANCH   1  27
TORSDOF 18
ENDMDL
MODEL 2
REMARK VINA RESULT:     -11.8      2.854      3.636
REMARK SMILES O=C(CSc1nnc(Cc2ccncc2)n1-c1ccccc1Cl)NCCCNC(=O)c1ccc(-c2c3nc(c(-c4cccc(S(=O)(=O)[O-])c4F)c4ccc([nH]4)c(-c4cccc(S(=O)(=O)[O-])c4F)c4nc(c(-c5cccc(S(=O)(=O)[O-])c5F)c5ccc2[nH]5)C=C4)C=C3)cc1
REMARK SMILES IDX 25 1 24 2 1 3 2 4 3 6 4 7 5 8 6 9 16 10 7 11 8 12 17 13
REMARK SMILES IDX 18 14 22 15 19 16 21 17 23 18 20 19 9 20 10 21 11 22 15 23
REMARK SMILES IDX 12 24 14 25 13 26 26 27 27 28 28 29 29 30 30 32 31 33 32 34
REMARK SMILES IDX 93 35 33 36 92 37 34 38 35 39 36 40 86 41 37 42 91 43 85 44
REMARK SMILES IDX 87 45 38 46 90 47 84 48 83 49 39 51 71 52 51 53 70 54 52 55
REMARK SMILES IDX 55 56 69 57 88 58 53 59 54 60 68 62 89 63 56 64 40 65 41 66
REMARK SMILES IDX 49 67 42 68 44 69 50 70 43 71 45 72 46 73 47 74 48 75 72 76
REMARK SMILES IDX 73 77 81 78 74 79 76 80 82 81 75 82 77 83 78 84 79 85 80 86
REMARK SMILES IDX 57 87 58 88 66 89 59 90 61 91 67 92 60 93 62 94 63 95 64 96
REMARK SMILES IDX 65 97
REMARK H PARENT 24 5 28 31 87 50 55 61
REMARK Flexibility Score: inf
ROOT
ATOM      1  C   UNL A   1      37.236  23.039  25.533  1.00  0.00     0.117 C 
ENDROOT
BRANCH   1   2
ATOM      2  N   UNL A   1      35.885  23.172  25.009  1.00  0.00    -0.355 N 
ATOM      3  O   UNL A   1      36.514  23.076  22.809  1.00  0.00    -0.274 OA
ATOM      4  C   UNL A   1      35.617  23.128  23.650  1.00  0.00     0.230 C 
ATOM      5  H   UNL A   1      35.138  23.295  25.638  1.00  0.00     0.163 HD
BRANCH   4   6
ATOM      6  C   UNL A   1      34.145  23.187  23.262  1.00  0.00     0.178 C 
BRANCH   6   7
ATOM      7  S   UNL A   1      33.187  24.232  24.386  1.00  0.00    -0.076 SA
BRANCH   7   8
ATOM      8  C   UNL A   1      32.516  25.446  23.348  1.00  0.00     0.196 A 
ATOM      9  N   UNL A   1      32.101  25.275  22.114  1.00  0.00    -0.123 NA
ATOM     10  N   UNL A   1      32.273  26.747  23.750  1.00  0.00    -0.272 N 
ATOM     11  N   UNL A   1      31.585  26.473  21.672  1.00  0.00    -0.134 NA
ATOM     12  C   UNL A   1      31.686  27.354  22.650  1.00  0.00     0.142 A 
BRANCH  10  13
ATOM     13  C   UNL A   1      32.385  27.281  25.053  1.00  0.00     0.068 A 
ATOM     14  C   UNL A   1      33.516  28.058  25.352  1.00  0.00     0.028 A 
ATOM     15  C   UNL A   1      31.389  27.084  26.016  1.00  0.00     0.065 A 
ATOM     16  C   UNL A   1      33.638  28.654  26.605  1.00  0.00     0.002 A 
ATOM     17  C   UNL A   1      31.510  27.708  27.260  1.00  0.00     0.023 A 
ATOM     18  Cl  UNL A   1      30.080  25.979  25.802  1.00  0.00    -0.082 Cl
ATOM     19  C   UNL A   1      32.628  28.492  27.552  1.00  0.00     0.002 A 
ENDBRANCH  10  13
BRANCH  12  20
ATOM     20  C   UNL A   1      31.251  28.781  22.584  1.00  0.00     0.113 C 
BRANCH  20  21
ATOM     21  C   UNL A   1      29.781  29.004  22.856  1.00  0.00    -0.037 A 
ATOM     22  C   UNL A   1      29.233  30.289  22.799  1.00  0.00     0.024 A 
ATOM     23  C   UNL A   1      28.925  27.931  23.125  1.00  0.00     0.024 A 
ATOM     24  C   UNL A   1      27.867  30.440  22.977  1.00  0.00     0.111 A 
ATOM     25  C   UNL A   1      27.570  28.185  23.287  1.00  0.00     0.111 A 
ATOM     26  N   UNL A   1      27.017  29.414  23.204  1.00  0.00    -0.265 NA
ENDBRANCH  20  21
ENDBRANCH  12  20
ENDBRANCH   7   8
ENDBRANCH   6   7
ENDBRANCH   4   6
ENDBRANCH   1   2
BRANCH   1  27
ATOM     27  C   UNL A   1      37.610  21.624  25.978  1.00  0.00     0.042 C 
BRANCH  27  28
ATOM     28  C   UNL A   1      38.294  20.825  24.885  1.00  0.00     0.118 C 
BRANCH  28  29
ATOM     29  N   UNL A   1      39.053  19.659  25.377  1.00  0.00    -0.352 N 
ATOM     30  C   UNL A   1      40.337  19.613  25.916  1.00  0.00     0.251 C 
ATOM     31  H   UNL A   1      38.587  18.794  25.316  1.00  0.00     0.163 HD
ATOM     32  O   UNL A   1      40.929  18.554  26.036  1.00  0.00    -0.269 OA
BRANCH  30  33
ATOM     33  C   UNL A   1      40.952  20.877  26.369  1.00  0.00     0.039 A 
ATOM     34  C   UNL A   1      41.502  21.838  25.510  1.00  0.00     0.014 A 
ATOM     35  C   UNL A   1      40.936  21.093  27.735  1.00  0.00     0.014 A 
ATOM     36  C   UNL A   1      41.998  23.021  26.065  1.00  0.00     0.010 A 
ATOM     37  C   UNL A   1      41.092  22.352  28.214  1.00  0.00     0.010 A 
ATOM     38  C   UNL A   1      41.788  23.252  27.427  1.00  0.00    -0.014 A 
BRANCH  38  39
ATOM     39  C   UNL A   1      42.230  24.430  28.154  1.00  0.00     0.031 A 
ATOM     40  C   UNL A   1      41.241  25.532  28.158  1.00  0.00     0.074 A 
ATOM     41  C   UNL A   1      43.253  24.317  29.036  1.00  0.00     0.049 A 
ATOM     42  N   UNL A   1      41.364  26.692  27.607  1.00  0.00    -0.248 NA
ATOM     43  C   UNL A   1      39.884  25.258  28.665  1.00  0.00     0.031 C 
ATOM     44  C   UNL A   1      44.053  23.117  29.342  1.00  0.00     0.029 A 
ATOM     45  N   UNL A   1      43.664  25.187  29.996  1.00  0.00    -0.354 N 
ATOM     46  C   UNL A   1      40.198  27.377  27.941  1.00  0.00     0.074 A 
ATOM     47  C   UNL A   1      39.241  26.373  28.309  1.00  0.00     0.031 C 
ATOM     48  C   UNL A   1      44.638  23.258  30.551  1.00  0.00     0.029 A 
ATOM     49  C   UNL A   1      44.370  24.595  31.044  1.00  0.00     0.049 A 
ATOM     50  H   UNL A   1      43.477  26.153  29.956  1.00  0.00     0.167 HD
ATOM     51  C   UNL A   1      40.218  28.715  28.203  1.00  0.00     0.034 A 
ATOM     52  C   UNL A   1      44.644  25.143  32.257  1.00  0.00     0.034 A 
ATOM     53  C   UNL A   1      41.492  29.288  27.834  1.00  0.00     0.049 A 
ATOM     54  C   UNL A   1      44.474  26.609  32.116  1.00  0.00     0.074 A 
ATOM     55  C   UNL A   1      42.231  29.345  26.670  1.00  0.00     0.029 A 
ATOM     56  N   UNL A   1      42.373  29.534  28.863  1.00  0.00    -0.354 N 
ATOM     57  N   UNL A   1      45.242  27.340  31.357  1.00  0.00    -0.248 NA
ATOM     58  C   UNL A   1      43.165  27.173  32.409  1.00  0.00     0.031 C 
ATOM     59  C   UNL A   1      43.578  29.137  27.087  1.00  0.00     0.029 A 
ATOM     60  C   UNL A   1      43.603  29.068  28.483  1.00  0.00     0.049 A 
ATOM     61  H   UNL A   1      42.157  29.967  29.720  1.00  0.00     0.167 HD
ATOM     62  C   UNL A   1      44.358  28.179  30.691  1.00  0.00     0.074 A 
ATOM     63  C   UNL A   1      43.116  28.115  31.462  1.00  0.00     0.031 C 
ATOM     64  C   UNL A   1      44.604  28.582  29.408  1.00  0.00     0.034 A 
BRANCH  51  65
ATOM     65  C   UNL A   1      39.284  29.453  29.138  1.00  0.00     0.023 A 
ATOM     66  C   UNL A   1      38.726  30.657  28.652  1.00  0.00     0.012 A 
ATOM     67  C   UNL A   1      39.131  29.195  30.521  1.00  0.00     0.148 A 
ATOM     68  C   UNL A   1      38.117  31.585  29.503  1.00  0.00     0.002 A 
ATOM     69  C   UNL A   1      38.458  30.086  31.350  1.00  0.00     0.091 A 
ATOM     70  F   UNL A   1      39.744  28.156  31.087  1.00  0.00    -0.205 F 
ATOM     71  C   UNL A   1      37.979  31.298  30.853  1.00  0.00     0.022 A 
BRANCH  69  72
ATOM     72  S   UNL A   1      38.219  29.745  33.100  1.00  0.00     0.127 S 
ATOM     73  O   UNL A   1      39.597  29.646  33.569  1.00  0.00    -0.237 OA
ATOM     74  O   UNL A   1      37.495  30.939  33.540  1.00  0.00    -0.237 OA
ATOM     75  O   UNL A   1      37.435  28.517  33.158  1.00  0.00    -0.744 OA
ENDBRANCH  69  72
ENDBRANCH  51  65
BRANCH  52  76
ATOM     76  C   UNL A   1      44.782  24.483  33.582  1.00  0.00     0.023 A 
ATOM     77  C   UNL A   1      43.674  23.860  34.193  1.00  0.00     0.012 A 
ATOM     78  C   UNL A   1      46.061  24.233  34.130  1.00  0.00     0.148 A 
ATOM     79  C   UNL A   1      43.838  23.007  35.295  1.00  0.00     0.002 A 
ATOM     80  C   UNL A   1      46.220  23.394  35.229  1.00  0.00     0.091 A 
ATOM     81  F   UNL A   1      47.136  24.740  33.512  1.00  0.00    -0.205 F 
ATOM     82  C   UNL A   1      45.110  22.771  35.811  1.00  0.00     0.022 A 
BRANCH  80  83
ATOM     83  S   UNL A   1      47.843  23.025  35.912  1.00  0.00     0.127 S 
ATOM     84  O   UNL A   1      48.304  24.349  36.331  1.00  0.00    -0.237 OA
ATOM     85  O   UNL A   1      47.509  22.115  37.003  1.00  0.00    -0.237 OA
ATOM     86  O   UNL A   1      48.610  22.439  34.818  1.00  0.00    -0.744 OA
ENDBRANCH  80  83
ENDBRANCH  52  76
BRANCH  64  87
ATOM     87  C   UNL A   1      45.954  28.269  28.806  1.00  0.00     0.023 A 
ATOM     88  C   UNL A   1      47.125  28.979  29.152  1.00  0.00     0.012 A 
ATOM     89  C   UNL A   1      46.079  27.099  28.044  1.00  0.00     0.148 A 
ATOM     90  C   UNL A   1      48.385  28.541  28.737  1.00  0.00     0.002 A 
ATOM     91  C   UNL A   1      47.337  26.636  27.676  1.00  0.00     0.091 A 
ATOM     92  F   UNL A   1      44.961  26.430  27.725  1.00  0.00    -0.205 F 
ATOM     93  C   UNL A   1      48.492  27.359  28.012  1.00  0.00     0.022 A 
BRANCH  91  94
ATOM     94  S   UNL A   1      47.545  25.047  26.872  1.00  0.00     0.127 S 
ATOM     95  O   UNL A   1      46.875  25.265  25.593  1.00  0.00    -0.237 OA
ATOM     96  O   UNL A   1      49.002  24.925  26.789  1.00  0.00    -0.237 OA
ATOM     97  O   UNL A   1      46.918  24.069  27.752  1.00  0.00    -0.744 OA
ENDBRANCH  91  94
ENDBRANCH  64  87
ENDBRANCH  38  39
ENDBRANCH  30  33
ENDBRANCH  28  29
ENDBRANCH  27  28
ENDBRANCH   1  27
TORSDOF 18
ENDMDL
MODEL 3
REMARK VINA RESULT:     -11.8      3.924      9.274
REMARK SMILES O=C(CSc1nnc(Cc2ccncc2)n1-c1ccccc1Cl)NCCCNC(=O)c1ccc(-c2c3nc(c(-c4cccc(S(=O)(=O)[O-])c4F)c4ccc([nH]4)c(-c4cccc(S(=O)(=O)[O-])c4F)c4nc(c(-c5cccc(S(=O)(=O)[O-])c5F)c5ccc2[nH]5)C=C4)C=C3)cc1
REMARK SMILES IDX 25 1 24 2 1 3 2 4 3 6 4 7 5 8 6 9 16 10 7 11 8 12 17 13
REMARK SMILES IDX 18 14 22 15 19 16 21 17 23 18 20 19 9 20 10 21 11 22 15 23
REMARK SMILES IDX 12 24 14 25 13 26 26 27 27 28 28 29 29 30 30 32 31 33 32 34
REMARK SMILES IDX 93 35 33 36 92 37 34 38 35 39 36 40 86 41 37 42 91 43 85 44
REMARK SMILES IDX 87 45 38 46 90 47 84 48 83 49 39 51 71 52 51 53 70 54 52 55
REMARK SMILES IDX 55 56 69 57 88 58 53 59 54 60 68 62 89 63 56 64 40 65 41 66
REMARK SMILES IDX 49 67 42 68 44 69 50 70 43 71 45 72 46 73 47 74 48 75 72 76
REMARK SMILES IDX 73 77 81 78 74 79 76 80 82 81 75 82 77 83 78 84 79 85 80 86
REMARK SMILES IDX 57 87 58 88 66 89 59 90 61 91 67 92 60 93 62 94 63 95 64 96
REMARK SMILES IDX 65 97
REMARK H PARENT 24 5 28 31 87 50 55 61
REMARK Flexibility Score: inf
ROOT
ATOM      1  C   UNL A   1      31.437  30.863  25.597  1.00  0.00     0.117 C 
ENDROOT
BRANCH   1   2
ATOM      2  N   UNL A   1      31.635  29.627  26.339  1.00  0.00    -0.355 N 
ATOM      3  O   UNL A   1      31.453  28.263  24.509  1.00  0.00    -0.274 OA
ATOM      4  C   UNL A   1      31.679  28.392  25.711  1.00  0.00     0.230 C 
ATOM      5  H   UNL A   1      31.742  29.669  27.318  1.00  0.00     0.163 HD
BRANCH   4   6
ATOM      6  C   UNL A   1      31.985  27.202  26.611  1.00  0.00     0.178 C 
BRANCH   6   7
ATOM      7  S   UNL A   1      30.749  25.892  26.452  1.00  0.00    -0.076 SA
BRANCH   7   8
ATOM      8  C   UNL A   1      31.694  24.444  26.351  1.00  0.00     0.196 A 
ATOM      9  N   UNL A   1      31.684  23.443  27.202  1.00  0.00    -0.123 NA
ATOM     10  N   UNL A   1      32.532  24.150  25.290  1.00  0.00    -0.272 N 
ATOM     11  N   UNL A   1      32.531  22.470  26.721  1.00  0.00    -0.134 NA
ATOM     12  C   UNL A   1      33.038  22.890  25.577  1.00  0.00     0.142 A 
BRANCH  10  13
ATOM     13  C   UNL A   1      32.671  24.863  24.079  1.00  0.00     0.068 A 
ATOM     14  C   UNL A   1      33.760  25.742  23.953  1.00  0.00     0.028 A 
ATOM     15  C   UNL A   1      31.783  24.681  23.014  1.00  0.00     0.065 A 
ATOM     16  C   UNL A   1      33.969  26.419  22.754  1.00  0.00     0.002 A 
ATOM     17  C   UNL A   1      32.019  25.346  21.808  1.00  0.00     0.023 A 
ATOM     18  Cl  UNL A   1      30.312  23.786  23.157  1.00  0.00    -0.082 Cl
ATOM     19  C   UNL A   1      33.108  26.210  21.677  1.00  0.00     0.002 A 
ENDBRANCH  10  13
BRANCH  12  20
ATOM     20  C   UNL A   1      34.012  22.140  24.728  1.00  0.00     0.113 C 
BRANCH  20  21
ATOM     21  C   UNL A   1      35.461  22.338  25.110  1.00  0.00    -0.037 A 
ATOM     22  C   UNL A   1      36.433  21.412  24.718  1.00  0.00     0.024 A 
ATOM     23  C   UNL A   1      35.873  23.468  25.823  1.00  0.00     0.024 A 
ATOM     24  C   UNL A   1      37.761  21.670  25.021  1.00  0.00     0.111 A 
ATOM     25  C   UNL A   1      37.227  23.638  26.077  1.00  0.00     0.111 A 
ATOM     26  N   UNL A   1      38.184  22.773  25.679  1.00  0.00    -0.265 NA
ENDBRANCH  20  21
ENDBRANCH  12  20
ENDBRANCH   7   8
ENDBRANCH   6   7
ENDBRANCH   4   6
ENDBRANCH   1   2
BRANCH   1  27
ATOM     27  C   UNL A   1      31.121  32.083  26.464  1.00  0.00     0.042 C 
BRANCH  27  28
ATOM     28  C   UNL A   1      32.336  32.606  27.208  1.00  0.00     0.118 C 
BRANCH  28  29
ATOM     29  N   UNL A   1      32.270  34.043  27.534  1.00  0.00    -0.352 N 
ATOM     30  C   UNL A   1      32.999  34.763  28.478  1.00  0.00     0.251 C 
ATOM     31  H   UNL A   1      31.620  34.567  27.011  1.00  0.00     0.163 HD
ATOM     32  O   UNL A   1      32.656  35.883  28.816  1.00  0.00    -0.269 OA
BRANCH  30  33
ATOM     33  C   UNL A   1      34.219  34.147  29.038  1.00  0.00     0.039 A 
ATOM     34  C   UNL A   1      34.277  33.502  30.281  1.00  0.00     0.014 A 
ATOM     35  C   UNL A   1      35.344  34.213  28.236  1.00  0.00     0.014 A 
ATOM     36  C   UNL A   1      35.481  32.906  30.666  1.00  0.00     0.010 A 
ATOM     37  C   UNL A   1      36.371  33.356  28.454  1.00  0.00     0.010 A 
ATOM     38  C   UNL A   1      36.522  32.853  29.734  1.00  0.00    -0.014 A 
BRANCH  38  39
ATOM     39  C   UNL A   1      37.828  32.264  29.972  1.00  0.00     0.031 A 
ATOM     40  C   UNL A   1      37.957  30.878  29.466  1.00  0.00     0.074 A 
ATOM     41  C   UNL A   1      38.877  33.074  30.256  1.00  0.00     0.049 A 
ATOM     42  N   UNL A   1      38.128  29.806  30.163  1.00  0.00    -0.248 NA
ATOM     43  C   UNL A   1      37.675  30.620  28.042  1.00  0.00     0.031 C 
ATOM     44  C   UNL A   1      38.868  34.540  30.415  1.00  0.00     0.029 A 
ATOM     45  N   UNL A   1      40.207  32.794  30.261  1.00  0.00    -0.354 N 
ATOM     46  C   UNL A   1      38.244  28.781  29.228  1.00  0.00     0.074 A 
ATOM     47  C   UNL A   1      37.668  29.285  28.014  1.00  0.00     0.031 C 
ATOM     48  C   UNL A   1      40.116  35.024  30.235  1.00  0.00     0.029 A 
ATOM     49  C   UNL A   1      41.029  33.908  30.083  1.00  0.00     0.049 A 
ATOM     50  H   UNL A   1      40.560  31.882  30.379  1.00  0.00     0.167 HD
ATOM     51  C   UNL A   1      39.092  27.734  29.433  1.00  0.00     0.034 A 
ATOM     52  C   UNL A   1      42.348  33.905  29.756  1.00  0.00     0.034 A 
ATOM     53  C   UNL A   1      39.591  27.740  30.788  1.00  0.00     0.049 A 
ATOM     54  C   UNL A   1      42.868  32.552  30.070  1.00  0.00     0.074 A 
ATOM     55  C   UNL A   1      39.007  27.715  32.038  1.00  0.00     0.029 A 
ATOM     56  N   UNL A   1      40.868  28.222  30.969  1.00  0.00    -0.354 N 
ATOM     57  N   UNL A   1      42.932  32.083  31.285  1.00  0.00    -0.248 NA
ATOM     58  C   UNL A   1      42.836  31.551  29.014  1.00  0.00     0.031 C 
ATOM     59  C   UNL A   1      39.778  28.627  32.816  1.00  0.00     0.029 A 
ATOM     60  C   UNL A   1      40.845  29.080  32.036  1.00  0.00     0.049 A 
ATOM     61  H   UNL A   1      41.657  27.991  30.427  1.00  0.00     0.167 HD
ATOM     62  C   UNL A   1      42.453  30.784  31.172  1.00  0.00     0.074 A 
ATOM     63  C   UNL A   1      42.524  30.474  29.742  1.00  0.00     0.031 C 
ATOM     64  C   UNL A   1      41.741  30.206  32.185  1.00  0.00     0.034 A 
BRANCH  51  65
ATOM     65  C   UNL A   1      39.798  26.936  28.357  1.00  0.00     0.023 A 
ATOM     66  C   UNL A   1      39.594  25.537  28.373  1.00  0.00     0.012 A 
ATOM     67  C   UNL A   1      40.831  27.417  27.519  1.00  0.00     0.148 A 
ATOM     68  C   UNL A   1      40.417  24.663  27.657  1.00  0.00     0.002 A 
ATOM     69  C   UNL A   1      41.598  26.549  26.749  1.00  0.00     0.091 A 
ATOM     70  F   UNL A   1      41.183  28.703  27.549  1.00  0.00    -0.205 F 
ATOM     71  C   UNL A   1      41.418  25.169  26.841  1.00  0.00     0.022 A 
BRANCH  69  72
ATOM     72  S   UNL A   1      42.884  27.155  25.647  1.00  0.00     0.127 S 
ATOM     73  O   UNL A   1      42.126  28.053  24.780  1.00  0.00    -0.237 OA
ATOM     74  O   UNL A   1      43.793  27.815  26.585  1.00  0.00    -0.237 OA
ATOM     75  O   UNL A   1      43.444  25.971  25.007  1.00  0.00    -0.744 OA
ENDBRANCH  69  72
ENDBRANCH  51  65
BRANCH  52  76
ATOM     76  C   UNL A   1      43.126  34.888  28.957  1.00  0.00     0.023 A 
ATOM     77  C   UNL A   1      43.138  34.819  27.549  1.00  0.00     0.012 A 
ATOM     78  C   UNL A   1      43.645  36.055  29.563  1.00  0.00     0.148 A 
ATOM     79  C   UNL A   1      43.632  35.880  26.775  1.00  0.00     0.002 A 
ATOM     80  C   UNL A   1      44.142  37.103  28.793  1.00  0.00     0.091 A 
ATOM     81  F   UNL A   1      43.561  36.182  30.894  1.00  0.00    -0.205 F 
ATOM     82  C   UNL A   1      44.130  37.024  27.395  1.00  0.00     0.022 A 
BRANCH  80  83
ATOM     83  S   UNL A   1      44.763  38.617  29.541  1.00  0.00     0.127 S 
ATOM     84  O   UNL A   1      45.272  39.343  28.378  1.00  0.00    -0.237 OA
ATOM     85  O   UNL A   1      43.552  39.176  30.135  1.00  0.00    -0.237 OA
ATOM     86  O   UNL A   1      45.791  38.199  30.488  1.00  0.00    -0.744 OA
ENDBRANCH  80  83
ENDBRANCH  52  76
BRANCH  64  87
ATOM     87  C   UNL A   1      41.667  30.930  33.510  1.00  0.00     0.023 A 
ATOM     88  C   UNL A   1      42.742  30.954  34.425  1.00  0.00     0.012 A 
ATOM     89  C   UNL A   1      40.574  31.779  33.735  1.00  0.00     0.148 A 
ATOM     90  C   UNL A   1      42.721  31.793  35.542  1.00  0.00     0.002 A 
ATOM     91  C   UNL A   1      40.578  32.650  34.818  1.00  0.00     0.091 A 
ATOM     92  F   UNL A   1      39.561  31.751  32.856  1.00  0.00    -0.205 F 
ATOM     93  C   UNL A   1      41.645  32.654  35.730  1.00  0.00     0.022 A 
BRANCH  91  94
ATOM     94  S   UNL A   1      39.291  33.881  35.026  1.00  0.00     0.127 S 
ATOM     95  O   UNL A   1      39.689  34.526  36.275  1.00  0.00    -0.237 OA
ATOM     96  O   UNL A   1      39.453  34.710  33.830  1.00  0.00    -0.237 OA
ATOM     97  O   UNL A   1      38.036  33.143  35.070  1.00  0.00    -0.744 OA
ENDBRANCH  91  94
ENDBRANCH  64  87
ENDBRANCH  38  39
ENDBRANCH  30  33
ENDBRANCH  28  29
ENDBRANCH  27  28
ENDBRANCH   1  27
TORSDOF 18
ENDMDL
