MODEL 1
REMARK VINA RESULT:     -13.0      0.000      0.000
REMARK SMILES Cc1cc(S(=O)(=O)Nc2ccc(Cl)cc2F)ccc1OCC(=O)NCCCNC(=O)c1ccc(-c2c3nc(c(-c4cccc(S(=O)(=O)[O-])c4F)c4ccc([nH]4)c(-c4cccc(S(=O)(=O)[O-])c4F)c4nc(c(-c5cccc(S(=O)(=O)[O-])c5F)c5ccc2[nH]5)C=C4)C=C3)cc1
REMARK SMILES IDX 25 1 24 2 22 3 23 4 21 6 20 7 19 8 1 9 2 10 3 11 4 12 18 13
REMARK SMILES IDX 17 14 5 15 6 16 7 17 8 18 9 20 10 21 15 22 11 23 14 24 16 25
REMARK SMILES IDX 12 26 13 27 26 28 27 29 28 30 29 31 30 33 31 34 32 35 93 36
REMARK SMILES IDX 33 37 92 38 34 39 35 40 36 41 86 42 37 43 91 44 85 45 87 46
REMARK SMILES IDX 38 47 90 48 84 49 83 50 39 52 71 53 51 54 70 55 52 56 55 57
REMARK SMILES IDX 69 58 88 59 53 60 54 61 68 63 89 64 56 65 40 66 41 67 49 68
REMARK SMILES IDX 42 69 44 70 50 71 43 72 45 73 46 74 47 75 48 76 72 77 73 78
REMARK SMILES IDX 81 79 74 80 76 81 82 82 75 83 77 84 78 85 79 86 80 87 57 88
REMARK SMILES IDX 58 89 66 90 59 91 61 92 67 93 60 94 62 95 63 96 64 97 65 98
REMARK H PARENT 24 5 8 19 28 32 87 51 55 62
REMARK Flexibility Score: inf
ROOT
ATOM      1  C   UNL A   1      33.049  34.990  28.858  1.00  0.00     0.117 C 
ENDROOT
BRANCH   1   2
ATOM      2  N   UNL A   1      34.404  34.592  28.513  1.00  0.00    -0.353 N 
ATOM      3  C   UNL A   1      34.855  33.398  28.022  1.00  0.00     0.257 C 
ATOM      4  O   UNL A   1      36.016  33.319  27.619  1.00  0.00    -0.271 OA
ATOM      5  H   UNL A   1      35.095  35.279  28.652  1.00  0.00     0.163 HD
BRANCH   3   6
ATOM      6  C   UNL A   1      33.901  32.206  27.930  1.00  0.00     0.329 C 
BRANCH   6   7
ATOM      7  O   UNL A   1      34.439  30.979  27.494  1.00  0.00    -0.484 OA
BRANCH   7   8
ATOM      8  C   UNL A   1      33.686  30.003  26.906  1.00  0.00     0.123 A 
ATOM      9  C   UNL A   1      31.430  31.192  26.431  1.00  0.00     0.048 C 
ATOM     10  C   UNL A   1      32.343  30.005  26.512  1.00  0.00    -0.008 A 
ATOM     11  C   UNL A   1      31.764  28.773  26.116  1.00  0.00     0.029 A 
ATOM     12  C   UNL A   1      32.500  27.583  26.064  1.00  0.00     0.088 A 
ATOM     13  C   UNL A   1      34.422  28.810  26.783  1.00  0.00     0.048 A 
ATOM     14  C   UNL A   1      33.861  27.631  26.295  1.00  0.00     0.026 A 
BRANCH  12  15
ATOM     15  S   UNL A   1      31.566  26.077  25.870  1.00  0.00     0.262 S 
ATOM     16  O   UNL A   1      32.483  24.978  26.101  1.00  0.00    -0.201 OA
ATOM     17  O   UNL A   1      30.384  26.229  26.689  1.00  0.00    -0.201 OA
BRANCH  15  18
ATOM     18  N   UNL A   1      30.972  25.945  24.308  1.00  0.00    -0.277 N 
ATOM     19  H   UNL A   1      31.058  25.068  23.869  1.00  0.00     0.180 HD
BRANCH  18  20
ATOM     20  C   UNL A   1      30.356  26.986  23.559  1.00  0.00     0.085 A 
ATOM     21  C   UNL A   1      28.964  27.081  23.693  1.00  0.00     0.031 A 
ATOM     22  C   UNL A   1      31.028  27.956  22.805  1.00  0.00     0.148 A 
ATOM     23  C   UNL A   1      28.280  28.194  23.199  1.00  0.00     0.023 A 
ATOM     24  C   UNL A   1      30.351  29.074  22.316  1.00  0.00     0.062 A 
ATOM     25  F   UNL A   1      32.353  27.898  22.622  1.00  0.00    -0.205 F 
ATOM     26  C   UNL A   1      28.983  29.199  22.539  1.00  0.00     0.044 A 
ATOM     27  Cl  UNL A   1      28.156  30.617  22.026  1.00  0.00    -0.084 Cl
ENDBRANCH  18  20
ENDBRANCH  15  18
ENDBRANCH  12  15
ENDBRANCH   7   8
ENDBRANCH   6   7
ENDBRANCH   3   6
ENDBRANCH   1   2
BRANCH   1  28
ATOM     28  C   UNL A   1      32.984  36.141  29.848  1.00  0.00     0.042 C 
BRANCH  28  29
ATOM     29  C   UNL A   1      32.504  35.738  31.230  1.00  0.00     0.118 C 
BRANCH  29  30
ATOM     30  N   UNL A   1      33.340  36.242  32.303  1.00  0.00    -0.352 N 
ATOM     31  C   UNL A   1      34.381  35.636  32.978  1.00  0.00     0.251 C 
ATOM     32  H   UNL A   1      33.133  37.160  32.595  1.00  0.00     0.163 HD
ATOM     33  O   UNL A   1      34.791  36.180  34.001  1.00  0.00    -0.269 OA
BRANCH  31  34
ATOM     34  C   UNL A   1      35.068  34.441  32.419  1.00  0.00     0.039 A 
ATOM     35  C   UNL A   1      34.976  33.241  33.139  1.00  0.00     0.014 A 
ATOM     36  C   UNL A   1      35.935  34.522  31.333  1.00  0.00     0.014 A 
ATOM     37  C   UNL A   1      35.922  32.235  32.944  1.00  0.00     0.010 A 
ATOM     38  C   UNL A   1      36.911  33.565  31.178  1.00  0.00     0.010 A 
ATOM     39  C   UNL A   1      36.951  32.468  32.040  1.00  0.00    -0.014 A 
BRANCH  39  40
ATOM     40  C   UNL A   1      38.183  31.704  31.970  1.00  0.00     0.031 A 
ATOM     41  C   UNL A   1      38.235  30.412  31.278  1.00  0.00     0.074 A 
ATOM     42  C   UNL A   1      39.314  32.358  32.314  1.00  0.00     0.049 A 
ATOM     43  N   UNL A   1      39.191  29.557  31.404  1.00  0.00    -0.248 NA
ATOM     44  C   UNL A   1      37.179  29.984  30.375  1.00  0.00     0.031 C 
ATOM     45  C   UNL A   1      40.682  32.043  31.930  1.00  0.00     0.029 A 
ATOM     46  N   UNL A   1      39.449  33.383  33.256  1.00  0.00    -0.354 N 
ATOM     47  C   UNL A   1      39.049  28.640  30.383  1.00  0.00     0.074 A 
ATOM     48  C   UNL A   1      37.729  28.885  29.849  1.00  0.00     0.031 C 
ATOM     49  C   UNL A   1      41.516  32.640  32.798  1.00  0.00     0.029 A 
ATOM     50  C   UNL A   1      40.694  33.180  33.869  1.00  0.00     0.049 A 
ATOM     51  H   UNL A   1      38.802  34.100  33.449  1.00  0.00     0.167 HD
ATOM     52  C   UNL A   1      40.137  27.913  29.990  1.00  0.00     0.034 A 
ATOM     53  C   UNL A   1      40.830  32.891  35.198  1.00  0.00     0.034 A 
ATOM     54  C   UNL A   1      41.301  28.215  30.843  1.00  0.00     0.049 A 
ATOM     55  C   UNL A   1      41.526  31.563  35.445  1.00  0.00     0.074 A 
ATOM     56  C   UNL A   1      42.401  29.039  30.666  1.00  0.00     0.029 A 
ATOM     57  N   UNL A   1      41.290  27.864  32.188  1.00  0.00    -0.354 N 
ATOM     58  N   UNL A   1      41.821  30.704  34.507  1.00  0.00    -0.248 NA
ATOM     59  C   UNL A   1      41.909  31.081  36.769  1.00  0.00     0.031 C 
ATOM     60  C   UNL A   1      42.996  29.258  31.937  1.00  0.00     0.029 A 
ATOM     61  C   UNL A   1      42.279  28.545  32.883  1.00  0.00     0.049 A 
ATOM     62  H   UNL A   1      40.665  27.219  32.592  1.00  0.00     0.167 HD
ATOM     63  C   UNL A   1      42.262  29.535  35.067  1.00  0.00     0.074 A 
ATOM     64  C   UNL A   1      42.388  29.857  36.479  1.00  0.00     0.031 C 
ATOM     65  C   UNL A   1      42.408  28.389  34.330  1.00  0.00     0.034 A 
BRANCH  52  66
ATOM     66  C   UNL A   1      40.272  27.210  28.642  1.00  0.00     0.023 A 
ATOM     67  C   UNL A   1      39.451  26.079  28.417  1.00  0.00     0.012 A 
ATOM     68  C   UNL A   1      41.184  27.513  27.605  1.00  0.00     0.148 A 
ATOM     69  C   UNL A   1      39.605  25.237  27.309  1.00  0.00     0.002 A 
ATOM     70  C   UNL A   1      41.389  26.637  26.532  1.00  0.00     0.091 A 
ATOM     71  F   UNL A   1      41.793  28.700  27.581  1.00  0.00    -0.205 F 
ATOM     72  C   UNL A   1      40.604  25.492  26.386  1.00  0.00     0.022 A 
BRANCH  70  73
ATOM     73  S   UNL A   1      42.716  26.874  25.335  1.00  0.00     0.127 S 
ATOM     74  O   UNL A   1      43.888  27.043  26.197  1.00  0.00    -0.237 OA
ATOM     75  O   UNL A   1      42.691  25.621  24.584  1.00  0.00    -0.237 OA
ATOM     76  O   UNL A   1      42.365  28.070  24.576  1.00  0.00    -0.744 OA
ENDBRANCH  70  73
ENDBRANCH  52  66
BRANCH  53  77
ATOM     77  C   UNL A   1      39.735  33.458  36.045  1.00  0.00     0.023 A 
ATOM     78  C   UNL A   1      38.600  32.637  36.259  1.00  0.00     0.012 A 
ATOM     79  C   UNL A   1      39.966  34.531  36.924  1.00  0.00     0.148 A 
ATOM     80  C   UNL A   1      37.808  32.788  37.398  1.00  0.00     0.002 A 
ATOM     81  C   UNL A   1      39.165  34.680  38.056  1.00  0.00     0.091 A 
ATOM     82  F   UNL A   1      41.007  35.341  36.690  1.00  0.00    -0.205 F 
ATOM     83  C   UNL A   1      38.115  33.786  38.316  1.00  0.00     0.022 A 
BRANCH  81  84
ATOM     84  S   UNL A   1      39.521  35.943  39.286  1.00  0.00     0.127 S 
ATOM     85  O   UNL A   1      40.951  35.744  39.505  1.00  0.00    -0.237 OA
ATOM     86  O   UNL A   1      39.175  37.180  38.588  1.00  0.00    -0.237 OA
ATOM     87  O   UNL A   1      38.642  35.626  40.402  1.00  0.00    -0.744 OA
ENDBRANCH  81  84
ENDBRANCH  53  77
BRANCH  65  88
ATOM     88  C   UNL A   1      42.663  27.006  34.902  1.00  0.00     0.023 A 
ATOM     89  C   UNL A   1      41.622  26.175  35.359  1.00  0.00     0.012 A 
ATOM     90  C   UNL A   1      43.961  26.432  34.858  1.00  0.00     0.148 A 
ATOM     91  C   UNL A   1      41.858  24.871  35.812  1.00  0.00     0.002 A 
ATOM     92  C   UNL A   1      44.171  25.098  35.200  1.00  0.00     0.091 A 
ATOM     93  F   UNL A   1      45.013  27.183  34.498  1.00  0.00    -0.205 F 
ATOM     94  C   UNL A   1      43.128  24.324  35.710  1.00  0.00     0.022 A 
BRANCH  92  95
ATOM     95  S   UNL A   1      45.740  24.292  34.847  1.00  0.00     0.127 S 
ATOM     96  O   UNL A   1      45.991  24.701  33.466  1.00  0.00    -0.237 OA
ATOM     97  O   UNL A   1      46.639  24.898  35.832  1.00  0.00    -0.237 OA
ATOM     98  O   UNL A   1      45.490  22.874  35.065  1.00  0.00    -0.744 OA
ENDBRANCH  92  95
ENDBRANCH  65  88
ENDBRANCH  39  40
ENDBRANCH  31  34
ENDBRANCH  29  30
ENDBRANCH  28  29
ENDBRANCH   1  28
TORSDOF 18
ENDMDL
MODEL 2
REMARK VINA RESULT:     -12.9      4.073      6.028
REMARK SMILES Cc1cc(S(=O)(=O)Nc2ccc(Cl)cc2F)ccc1OCC(=O)NCCCNC(=O)c1ccc(-c2c3nc(c(-c4cccc(S(=O)(=O)[O-])c4F)c4ccc([nH]4)c(-c4cccc(S(=O)(=O)[O-])c4F)c4nc(c(-c5cccc(S(=O)(=O)[O-])c5F)c5ccc2[nH]5)C=C4)C=C3)cc1
REMARK SMILES IDX 25 1 24 2 22 3 23 4 21 6 20 7 19 8 1 9 2 10 3 11 4 12 18 13
REMARK SMILES IDX 17 14 5 15 6 16 7 17 8 18 9 20 10 21 15 22 11 23 14 24 16 25
REMARK SMILES IDX 12 26 13 27 26 28 27 29 28 30 29 31 30 33 31 34 32 35 93 36
REMARK SMILES IDX 33 37 92 38 34 39 35 40 36 41 86 42 37 43 91 44 85 45 87 46
REMARK SMILES IDX 38 47 90 48 84 49 83 50 39 52 71 53 51 54 70 55 52 56 55 57
REMARK SMILES IDX 69 58 88 59 53 60 54 61 68 63 89 64 56 65 40 66 41 67 49 68
REMARK SMILES IDX 42 69 44 70 50 71 43 72 45 73 46 74 47 75 48 76 72 77 73 78
REMARK SMILES IDX 81 79 74 80 76 81 82 82 75 83 77 84 78 85 79 86 80 87 57 88
REMARK SMILES IDX 58 89 66 90 59 91 61 92 67 93 60 94 62 95 63 96 64 97 65 98
REMARK H PARENT 24 5 8 19 28 32 87 51 55 62
REMARK Flexibility Score: inf
ROOT
ATOM      1  C   UNL A   1      32.261  29.905  25.455  1.00  0.00     0.117 C 
ENDROOT
BRANCH   1   2
ATOM      2  N   UNL A   1      31.071  30.208  24.675  1.00  0.00    -0.353 N 
ATOM      3  C   UNL A   1      30.408  29.425  23.772  1.00  0.00     0.257 C 
ATOM      4  O   UNL A   1      29.311  29.796  23.353  1.00  0.00    -0.271 OA
ATOM      5  H   UNL A   1      30.690  31.104  24.817  1.00  0.00     0.163 HD
BRANCH   3   6
ATOM      6  C   UNL A   1      31.007  28.084  23.345  1.00  0.00     0.329 C 
BRANCH   6   7
ATOM      7  O   UNL A   1      30.182  26.946  23.442  1.00  0.00    -0.484 OA
BRANCH   7   8
ATOM      8  C   UNL A   1      30.537  25.828  24.141  1.00  0.00     0.123 A 
ATOM      9  C   UNL A   1      30.939  26.725  26.541  1.00  0.00     0.048 C 
ATOM     10  C   UNL A   1      30.970  25.682  25.464  1.00  0.00    -0.008 A 
ATOM     11  C   UNL A   1      31.474  24.420  25.864  1.00  0.00     0.029 A 
ATOM     12  C   UNL A   1      31.504  23.318  25.000  1.00  0.00     0.088 A 
ATOM     13  C   UNL A   1      30.515  24.692  23.311  1.00  0.00     0.048 A 
ATOM     14  C   UNL A   1      30.918  23.433  23.753  1.00  0.00     0.026 A 
BRANCH  12  15
ATOM     15  S   UNL A   1      32.456  21.911  25.536  1.00  0.00     0.262 S 
ATOM     16  O   UNL A   1      32.788  22.130  26.931  1.00  0.00    -0.201 OA
ATOM     17  O   UNL A   1      31.705  20.742  25.137  1.00  0.00    -0.201 OA
BRANCH  15  18
ATOM     18  N   UNL A   1      33.887  21.797  24.669  1.00  0.00    -0.277 N 
ATOM     19  H   UNL A   1      33.820  21.513  23.729  1.00  0.00     0.180 HD
BRANCH  18  20
ATOM     20  C   UNL A   1      35.190  22.074  25.170  1.00  0.00     0.085 A 
ATOM     21  C   UNL A   1      36.086  20.997  25.146  1.00  0.00     0.031 A 
ATOM     22  C   UNL A   1      35.658  23.330  25.577  1.00  0.00     0.148 A 
ATOM     23  C   UNL A   1      37.445  21.201  25.389  1.00  0.00     0.023 A 
ATOM     24  C   UNL A   1      37.017  23.542  25.813  1.00  0.00     0.062 A 
ATOM     25  F   UNL A   1      34.839  24.387  25.645  1.00  0.00    -0.205 F 
ATOM     26  C   UNL A   1      37.908  22.480  25.693  1.00  0.00     0.044 A 
ATOM     27  Cl  UNL A   1      39.595  22.748  25.887  1.00  0.00    -0.084 Cl
ENDBRANCH  18  20
ENDBRANCH  15  18
ENDBRANCH  12  15
ENDBRANCH   7   8
ENDBRANCH   6   7
ENDBRANCH   3   6
ENDBRANCH   1   2
BRANCH   1  28
ATOM     28  C   UNL A   1      32.425  30.783  26.683  1.00  0.00     0.042 C 
BRANCH  28  29
ATOM     29  C   UNL A   1      33.517  30.320  27.630  1.00  0.00     0.118 C 
BRANCH  29  30
ATOM     30  N   UNL A   1      34.251  31.410  28.245  1.00  0.00    -0.352 N 
ATOM     31  C   UNL A   1      35.449  31.400  28.931  1.00  0.00     0.251 C 
ATOM     32  H   UNL A   1      33.828  32.296  28.161  1.00  0.00     0.163 HD
ATOM     33  O   UNL A   1      35.759  32.412  29.554  1.00  0.00    -0.269 OA
BRANCH  31  34
ATOM     34  C   UNL A   1      36.392  30.255  28.814  1.00  0.00     0.039 A 
ATOM     35  C   UNL A   1      36.675  29.522  29.976  1.00  0.00     0.014 A 
ATOM     36  C   UNL A   1      37.130  30.014  27.657  1.00  0.00     0.014 A 
ATOM     37  C   UNL A   1      37.840  28.760  30.055  1.00  0.00     0.010 A 
ATOM     38  C   UNL A   1      38.314  29.319  27.747  1.00  0.00     0.010 A 
ATOM     39  C   UNL A   1      38.705  28.768  28.968  1.00  0.00    -0.014 A 
BRANCH  39  40
ATOM     40  C   UNL A   1      40.089  28.334  29.004  1.00  0.00     0.031 A 
ATOM     41  C   UNL A   1      40.445  26.921  28.827  1.00  0.00     0.074 A 
ATOM     42  C   UNL A   1      41.025  29.305  28.924  1.00  0.00     0.049 A 
ATOM     43  N   UNL A   1      41.595  26.419  29.117  1.00  0.00    -0.248 NA
ATOM     44  C   UNL A   1      39.497  25.954  28.300  1.00  0.00     0.031 C 
ATOM     45  C   UNL A   1      42.408  29.181  28.490  1.00  0.00     0.029 A 
ATOM     46  N   UNL A   1      40.931  30.616  29.402  1.00  0.00    -0.354 N 
ATOM     47  C   UNL A   1      41.650  25.173  28.528  1.00  0.00     0.074 A 
ATOM     48  C   UNL A   1      40.289  24.890  28.135  1.00  0.00     0.031 C 
ATOM     49  C   UNL A   1      43.097  30.236  28.955  1.00  0.00     0.029 A 
ATOM     50  C   UNL A   1      42.213  30.950  29.863  1.00  0.00     0.049 A 
ATOM     51  H   UNL A   1      40.129  31.187  29.412  1.00  0.00     0.167 HD
ATOM     52  C   UNL A   1      42.871  24.614  28.275  1.00  0.00     0.034 A 
ATOM     53  C   UNL A   1      42.481  31.234  31.174  1.00  0.00     0.034 A 
ATOM     54  C   UNL A   1      43.954  25.473  28.786  1.00  0.00     0.049 A 
ATOM     55  C   UNL A   1      43.510  30.296  31.782  1.00  0.00     0.074 A 
ATOM     56  C   UNL A   1      44.792  26.389  28.168  1.00  0.00     0.029 A 
ATOM     57  N   UNL A   1      44.097  25.676  30.154  1.00  0.00    -0.354 N 
ATOM     58  N   UNL A   1      43.975  29.232  31.187  1.00  0.00    -0.248 NA
ATOM     59  C   UNL A   1      44.066  30.462  33.122  1.00  0.00     0.031 C 
ATOM     60  C   UNL A   1      45.367  27.209  29.175  1.00  0.00     0.029 A 
ATOM     61  C   UNL A   1      44.905  26.776  30.407  1.00  0.00     0.049 A 
ATOM     62  H   UNL A   1      43.681  25.115  30.848  1.00  0.00     0.167 HD
ATOM     63  C   UNL A   1      44.731  28.500  32.064  1.00  0.00     0.074 A 
ATOM     64  C   UNL A   1      44.834  29.362  33.230  1.00  0.00     0.031 C 
ATOM     65  C   UNL A   1      45.137  27.223  31.779  1.00  0.00     0.034 A 
BRANCH  52  66
ATOM     66  C   UNL A   1      43.123  23.494  27.269  1.00  0.00     0.023 A 
ATOM     67  C   UNL A   1      43.699  23.857  26.028  1.00  0.00     0.012 A 
ATOM     68  C   UNL A   1      42.779  22.129  27.401  1.00  0.00     0.148 A 
ATOM     69  C   UNL A   1      43.810  22.966  24.953  1.00  0.00     0.002 A 
ATOM     70  C   UNL A   1      42.823  21.254  26.310  1.00  0.00     0.091 A 
ATOM     71  F   UNL A   1      42.503  21.627  28.607  1.00  0.00    -0.205 F 
ATOM     72  C   UNL A   1      43.333  21.673  25.080  1.00  0.00     0.022 A 
BRANCH  70  73
ATOM     73  S   UNL A   1      42.157  19.580  26.388  1.00  0.00     0.127 S 
ATOM     74  O   UNL A   1      40.724  19.823  26.572  1.00  0.00    -0.237 OA
ATOM     75  O   UNL A   1      42.516  19.036  25.082  1.00  0.00    -0.237 OA
ATOM     76  O   UNL A   1      42.798  18.944  27.534  1.00  0.00    -0.744 OA
ENDBRANCH  70  73
ENDBRANCH  52  66
BRANCH  53  77
ATOM     77  C   UNL A   1      41.316  31.823  31.904  1.00  0.00     0.023 A 
ATOM     78  C   UNL A   1      40.871  33.098  31.476  1.00  0.00     0.012 A 
ATOM     79  C   UNL A   1      40.443  31.023  32.663  1.00  0.00     0.148 A 
ATOM     80  C   UNL A   1      39.548  33.499  31.669  1.00  0.00     0.002 A 
ATOM     81  C   UNL A   1      39.124  31.435  32.858  1.00  0.00     0.091 A 
ATOM     82  F   UNL A   1      40.882  29.842  33.115  1.00  0.00    -0.205 F 
ATOM     83  C   UNL A   1      38.665  32.650  32.326  1.00  0.00     0.022 A 
BRANCH  81  84
ATOM     84  S   UNL A   1      37.932  30.374  33.687  1.00  0.00     0.127 S 
ATOM     85  O   UNL A   1      38.030  30.845  35.066  1.00  0.00    -0.237 OA
ATOM     86  O   UNL A   1      36.679  30.709  33.013  1.00  0.00    -0.237 OA
ATOM     87  O   UNL A   1      38.403  29.021  33.428  1.00  0.00    -0.744 OA
ENDBRANCH  81  84
ENDBRANCH  53  77
BRANCH  65  88
ATOM     88  C   UNL A   1      45.770  26.263  32.770  1.00  0.00     0.023 A 
ATOM     89  C   UNL A   1      47.157  26.234  33.010  1.00  0.00     0.012 A 
ATOM     90  C   UNL A   1      44.963  25.453  33.611  1.00  0.00     0.148 A 
ATOM     91  C   UNL A   1      47.725  25.401  33.982  1.00  0.00     0.002 A 
ATOM     92  C   UNL A   1      45.522  24.715  34.652  1.00  0.00     0.091 A 
ATOM     93  F   UNL A   1      43.641  25.377  33.398  1.00  0.00    -0.205 F 
ATOM     94  C   UNL A   1      46.905  24.659  34.819  1.00  0.00     0.022 A 
BRANCH  92  95
ATOM     95  S   UNL A   1      44.478  23.947  35.900  1.00  0.00     0.127 S 
ATOM     96  O   UNL A   1      43.836  22.873  35.145  1.00  0.00    -0.237 OA
ATOM     97  O   UNL A   1      45.453  23.490  36.894  1.00  0.00    -0.237 OA
ATOM     98  O   UNL A   1      43.608  25.016  36.371  1.00  0.00    -0.744 OA
ENDBRANCH  92  95
ENDBRANCH  65  88
ENDBRANCH  39  40
ENDBRANCH  31  34
ENDBRANCH  29  30
ENDBRANCH  28  29
ENDBRANCH   1  28
TORSDOF 18
ENDMDL
MODEL 3
REMARK VINA RESULT:     -12.9      2.031      2.506
REMARK SMILES Cc1cc(S(=O)(=O)Nc2ccc(Cl)cc2F)ccc1OCC(=O)NCCCNC(=O)c1ccc(-c2c3nc(c(-c4cccc(S(=O)(=O)[O-])c4F)c4ccc([nH]4)c(-c4cccc(S(=O)(=O)[O-])c4F)c4nc(c(-c5cccc(S(=O)(=O)[O-])c5F)c5ccc2[nH]5)C=C4)C=C3)cc1
REMARK SMILES IDX 25 1 24 2 22 3 23 4 21 6 20 7 19 8 1 9 2 10 3 11 4 12 18 13
REMARK SMILES IDX 17 14 5 15 6 16 7 17 8 18 9 20 10 21 15 22 11 23 14 24 16 25
REMARK SMILES IDX 12 26 13 27 26 28 27 29 28 30 29 31 30 33 31 34 32 35 93 36
REMARK SMILES IDX 33 37 92 38 34 39 35 40 36 41 86 42 37 43 91 44 85 45 87 46
REMARK SMILES IDX 38 47 90 48 84 49 83 50 39 52 71 53 51 54 70 55 52 56 55 57
REMARK SMILES IDX 69 58 88 59 53 60 54 61 68 63 89 64 56 65 40 66 41 67 49 68
REMARK SMILES IDX 42 69 44 70 50 71 43 72 45 73 46 74 47 75 48 76 72 77 73 78
REMARK SMILES IDX 81 79 74 80 76 81 82 82 75 83 77 84 78 85 79 86 80 87 57 88
REMARK SMILES IDX 58 89 66 90 59 91 61 92 67 93 60 94 62 95 63 96 64 97 65 98
REMARK H PARENT 24 5 8 19 28 32 87 51 55 62
REMARK Flexibility Score: inf
ROOT
ATOM      1  C   UNL A   1      33.045  35.377  28.595  1.00  0.00     0.117 C 
ENDROOT
BRANCH   1   2
ATOM      2  N   UNL A   1      34.372  34.926  28.207  1.00  0.00    -0.353 N 
ATOM      3  C   UNL A   1      34.809  33.659  27.936  1.00  0.00     0.257 C 
ATOM      4  O   UNL A   1      35.928  33.506  27.443  1.00  0.00    -0.271 OA
ATOM      5  H   UNL A   1      35.053  35.633  28.127  1.00  0.00     0.163 HD
BRANCH   3   6
ATOM      6  C   UNL A   1      33.887  32.467  28.195  1.00  0.00     0.329 C 
BRANCH   6   7
ATOM      7  O   UNL A   1      34.407  31.181  27.945  1.00  0.00    -0.484 OA
BRANCH   7   8
ATOM      8  C   UNL A   1      33.733  30.232  27.232  1.00  0.00     0.123 A 
ATOM      9  C   UNL A   1      31.512  31.417  26.605  1.00  0.00     0.048 C 
ATOM     10  C   UNL A   1      32.435  30.239  26.707  1.00  0.00    -0.008 A 
ATOM     11  C   UNL A   1      31.920  29.025  26.187  1.00  0.00     0.029 A 
ATOM     12  C   UNL A   1      32.680  27.850  26.140  1.00  0.00     0.088 A 
ATOM     13  C   UNL A   1      34.500  29.058  27.114  1.00  0.00     0.048 A 
ATOM     14  C   UNL A   1      34.012  27.902  26.506  1.00  0.00     0.026 A 
BRANCH  12  15
ATOM     15  S   UNL A   1      31.798  26.346  25.770  1.00  0.00     0.262 S 
ATOM     16  O   UNL A   1      30.674  26.278  26.682  1.00  0.00    -0.201 OA
ATOM     17  O   UNL A   1      31.582  26.349  24.340  1.00  0.00    -0.201 OA
BRANCH  15  18
ATOM     18  N   UNL A   1      32.771  25.007  26.037  1.00  0.00    -0.277 N 
ATOM     19  H   UNL A   1      33.517  25.114  26.670  1.00  0.00     0.180 HD
BRANCH  18  20
ATOM     20  C   UNL A   1      32.616  23.729  25.429  1.00  0.00     0.085 A 
ATOM     21  C   UNL A   1      33.761  23.217  24.805  1.00  0.00     0.031 A 
ATOM     22  C   UNL A   1      31.470  22.927  25.498  1.00  0.00     0.148 A 
ATOM     23  C   UNL A   1      33.802  21.887  24.382  1.00  0.00     0.023 A 
ATOM     24  C   UNL A   1      31.508  21.595  25.083  1.00  0.00     0.062 A 
ATOM     25  F   UNL A   1      30.341  23.376  26.058  1.00  0.00    -0.205 F 
ATOM     26  C   UNL A   1      32.683  21.074  24.551  1.00  0.00     0.044 A 
ATOM     27  Cl  UNL A   1      32.771  19.410  24.127  1.00  0.00    -0.084 Cl
ENDBRANCH  18  20
ENDBRANCH  15  18
ENDBRANCH  12  15
ENDBRANCH   7   8
ENDBRANCH   6   7
ENDBRANCH   3   6
ENDBRANCH   1   2
BRANCH   1  28
ATOM     28  C   UNL A   1      33.053  36.405  29.713  1.00  0.00     0.042 C 
BRANCH  28  29
ATOM     29  C   UNL A   1      32.569  35.868  31.047  1.00  0.00     0.118 C 
BRANCH  29  30
ATOM     30  N   UNL A   1      33.340  36.349  32.179  1.00  0.00    -0.352 N 
ATOM     31  C   UNL A   1      34.280  35.701  32.955  1.00  0.00     0.251 C 
ATOM     32  H   UNL A   1      33.164  37.285  32.433  1.00  0.00     0.163 HD
ATOM     33  O   UNL A   1      34.632  36.246  33.998  1.00  0.00    -0.269 OA
BRANCH  31  34
ATOM     34  C   UNL A   1      34.938  34.454  32.483  1.00  0.00     0.039 A 
ATOM     35  C   UNL A   1      34.941  33.350  33.349  1.00  0.00     0.014 A 
ATOM     36  C   UNL A   1      35.698  34.409  31.317  1.00  0.00     0.014 A 
ATOM     37  C   UNL A   1      35.887  32.338  33.188  1.00  0.00     0.010 A 
ATOM     38  C   UNL A   1      36.677  33.451  31.187  1.00  0.00     0.010 A 
ATOM     39  C   UNL A   1      36.822  32.469  32.169  1.00  0.00    -0.014 A 
BRANCH  39  40
ATOM     40  C   UNL A   1      38.059  31.717  32.075  1.00  0.00     0.031 A 
ATOM     41  C   UNL A   1      38.117  30.440  31.354  1.00  0.00     0.074 A 
ATOM     42  C   UNL A   1      39.187  32.371  32.427  1.00  0.00     0.049 A 
ATOM     43  N   UNL A   1      39.079  29.590  31.456  1.00  0.00    -0.248 NA
ATOM     44  C   UNL A   1      37.058  30.024  30.448  1.00  0.00     0.031 C 
ATOM     45  C   UNL A   1      40.555  32.075  32.028  1.00  0.00     0.029 A 
ATOM     46  N   UNL A   1      39.320  33.376  33.390  1.00  0.00    -0.354 N 
ATOM     47  C   UNL A   1      38.938  28.695  30.416  1.00  0.00     0.074 A 
ATOM     48  C   UNL A   1      37.613  28.941  29.894  1.00  0.00     0.031 C 
ATOM     49  C   UNL A   1      41.390  32.658  32.904  1.00  0.00     0.029 A 
ATOM     50  C   UNL A   1      40.571  33.169  33.992  1.00  0.00     0.049 A 
ATOM     51  H   UNL A   1      38.669  34.084  33.602  1.00  0.00     0.167 HD
ATOM     52  C   UNL A   1      40.028  27.985  30.001  1.00  0.00     0.034 A 
ATOM     53  C   UNL A   1      40.716  32.851  35.313  1.00  0.00     0.034 A 
ATOM     54  C   UNL A   1      41.195  28.275  30.853  1.00  0.00     0.049 A 
ATOM     55  C   UNL A   1      41.423  31.523  35.526  1.00  0.00     0.074 A 
ATOM     56  C   UNL A   1      42.289  29.112  30.689  1.00  0.00     0.029 A 
ATOM     57  N   UNL A   1      41.194  27.895  32.191  1.00  0.00    -0.354 N 
ATOM     58  N   UNL A   1      41.719  30.688  34.569  1.00  0.00    -0.248 NA
ATOM     59  C   UNL A   1      41.817  31.015  36.837  1.00  0.00     0.031 C 
ATOM     60  C   UNL A   1      42.889  29.307  31.961  1.00  0.00     0.029 A 
ATOM     61  C   UNL A   1      42.182  28.568  32.895  1.00  0.00     0.049 A 
ATOM     62  H   UNL A   1      40.576  27.238  32.584  1.00  0.00     0.167 HD
ATOM     63  C   UNL A   1      42.171  29.510  35.100  1.00  0.00     0.074 A 
ATOM     64  C   UNL A   1      42.303  29.802  36.518  1.00  0.00     0.031 C 
ATOM     65  C   UNL A   1      42.321  28.381  34.337  1.00  0.00     0.034 A 
BRANCH  52  66
ATOM     66  C   UNL A   1      40.161  27.312  28.637  1.00  0.00     0.023 A 
ATOM     67  C   UNL A   1      39.284  26.236  28.358  1.00  0.00     0.012 A 
ATOM     68  C   UNL A   1      41.116  27.591  27.633  1.00  0.00     0.148 A 
ATOM     69  C   UNL A   1      39.421  25.417  27.230  1.00  0.00     0.002 A 
ATOM     70  C   UNL A   1      41.301  26.735  26.541  1.00  0.00     0.091 A 
ATOM     71  F   UNL A   1      41.790  28.743  27.658  1.00  0.00    -0.205 F 
ATOM     72  C   UNL A   1      40.458  25.641  26.341  1.00  0.00     0.022 A 
BRANCH  70  73
ATOM     73  S   UNL A   1      42.671  26.930  25.385  1.00  0.00     0.127 S 
ATOM     74  O   UNL A   1      42.620  25.678  24.627  1.00  0.00    -0.237 OA
ATOM     75  O   UNL A   1      42.278  28.114  24.626  1.00  0.00    -0.237 OA
ATOM     76  O   UNL A   1      43.871  27.076  26.202  1.00  0.00    -0.744 OA
ENDBRANCH  70  73
ENDBRANCH  52  66
BRANCH  53  77
ATOM     77  C   UNL A   1      39.622  33.392  36.179  1.00  0.00     0.023 A 
ATOM     78  C   UNL A   1      38.520  32.536  36.426  1.00  0.00     0.012 A 
ATOM     79  C   UNL A   1      39.837  34.481  37.041  1.00  0.00     0.148 A 
ATOM     80  C   UNL A   1      37.748  32.674  37.581  1.00  0.00     0.002 A 
ATOM     81  C   UNL A   1      39.057  34.617  38.189  1.00  0.00     0.091 A 
ATOM     82  F   UNL A   1      40.845  35.322  36.777  1.00  0.00    -0.205 F 
ATOM     83  C   UNL A   1      38.042  33.691  38.482  1.00  0.00     0.022 A 
BRANCH  81  84
ATOM     84  S   UNL A   1      39.398  35.903  39.399  1.00  0.00     0.127 S 
ATOM     85  O   UNL A   1      38.529  35.504  40.503  1.00  0.00    -0.237 OA
ATOM     86  O   UNL A   1      40.828  35.734  39.654  1.00  0.00    -0.237 OA
ATOM     87  O   UNL A   1      39.059  37.145  38.720  1.00  0.00    -0.744 OA
ENDBRANCH  81  84
ENDBRANCH  53  77
BRANCH  65  88
ATOM     88  C   UNL A   1      42.589  26.988  34.877  1.00  0.00     0.023 A 
ATOM     89  C   UNL A   1      41.728  26.356  35.794  1.00  0.00     0.012 A 
ATOM     90  C   UNL A   1      43.651  26.201  34.357  1.00  0.00     0.148 A 
ATOM     91  C   UNL A   1      41.941  25.041  36.227  1.00  0.00     0.002 A 
ATOM     92  C   UNL A   1      43.790  24.859  34.703  1.00  0.00     0.091 A 
ATOM     93  F   UNL A   1      44.551  26.756  33.531  1.00  0.00    -0.205 F 
ATOM     94  C   UNL A   1      42.958  24.284  35.663  1.00  0.00     0.022 A 
BRANCH  92  95
ATOM     95  S   UNL A   1      44.931  23.791  33.811  1.00  0.00     0.127 S 
ATOM     96  O   UNL A   1      46.222  24.414  34.100  1.00  0.00    -0.237 OA
ATOM     97  O   UNL A   1      44.725  22.494  34.458  1.00  0.00    -0.237 OA
ATOM     98  O   UNL A   1      44.486  23.841  32.425  1.00  0.00    -0.744 OA
ENDBRANCH  92  95
ENDBRANCH  65  88
ENDBRANCH  39  40
ENDBRANCH  31  34
ENDBRANCH  29  30
ENDBRANCH  28  29
ENDBRANCH   1  28
TORSDOF 18
ENDMDL
