MODEL 1
REMARK VINA RESULT:     -12.0      0.000      0.000
REMARK SMILES O=C(Cc1ccc(NC(=O)C2CCCC2)cc1)NCCCNC(=O)c1ccc(-c2c3nc(c(-c4cccc(S(=O)(=O)[O-])c4F)c4ccc([nH]4)c(-c4cccc(S(=O)(=O)[O-])c4F)c4nc(c(-c5cccc(S(=O)(=O)[O-])c5F)c5ccc2[nH]5)C=C4)C=C3)cc1
REMARK SMILES IDX 20 1 19 2 18 3 1 4 2 5 3 7 4 8 5 9 17 10 6 11 16 12 7 13
REMARK SMILES IDX 8 14 9 15 10 17 11 18 12 19 15 20 13 21 14 22 21 23 22 24
REMARK SMILES IDX 23 25 24 27 25 28 26 29 87 30 27 31 86 32 28 33 29 34 30 35
REMARK SMILES IDX 80 36 31 37 85 38 79 39 81 40 32 41 84 42 78 43 77 44 33 46
REMARK SMILES IDX 65 47 45 48 64 49 46 50 49 51 63 52 82 53 47 54 48 55 62 57
REMARK SMILES IDX 83 58 50 59 34 60 35 61 43 62 36 63 38 64 44 65 37 66 39 67
REMARK SMILES IDX 40 68 41 69 42 70 66 71 67 72 75 73 68 74 70 75 76 76 69 77
REMARK SMILES IDX 71 78 72 79 73 80 74 81 51 82 52 83 60 84 53 85 55 86 61 87
REMARK SMILES IDX 54 88 56 89 57 90 58 91 59 92
REMARK H PARENT 18 6 8 16 22 26 81 45 49 56
REMARK Flexibility Score: inf
ROOT
ATOM      1  C   UNL A   1      31.689  31.689  26.668  1.00  0.00     0.042 C 
ENDROOT
BRANCH   1   2
ATOM      2  C   UNL A   1      31.986  30.219  26.386  1.00  0.00     0.117 C 
BRANCH   2   3
ATOM      3  N   UNL A   1      31.975  29.912  24.966  1.00  0.00    -0.356 N 
ATOM      4  O   UNL A   1      33.787  28.491  24.966  1.00  0.00    -0.275 OA
ATOM      5  C   UNL A   1      32.869  29.043  24.368  1.00  0.00     0.224 C 
ATOM      6  H   UNL A   1      31.296  30.346  24.401  1.00  0.00     0.163 HD
BRANCH   5   7
ATOM      7  C   UNL A   1      32.611  28.807  22.881  1.00  0.00     0.135 C 
BRANCH   7   8
ATOM      8  C   UNL A   1      32.323  27.353  22.595  1.00  0.00    -0.039 A 
ATOM      9  C   UNL A   1      31.154  26.764  23.078  1.00  0.00     0.006 A 
ATOM     10  C   UNL A   1      33.257  26.543  21.941  1.00  0.00     0.006 A 
ATOM     11  C   UNL A   1      30.989  25.381  23.032  1.00  0.00     0.026 A 
ATOM     12  C   UNL A   1      33.072  25.155  21.885  1.00  0.00     0.026 A 
ATOM     13  C   UNL A   1      31.978  24.557  22.520  1.00  0.00     0.041 A 
BRANCH  13  14
ATOM     14  N   UNL A   1      31.961  23.156  22.598  1.00  0.00    -0.326 N 
ATOM     15  C   UNL A   1      32.648  22.222  23.313  1.00  0.00     0.227 C 
ATOM     16  H   UNL A   1      31.295  22.753  21.996  1.00  0.00     0.169 HD
ATOM     17  O   UNL A   1      32.278  21.050  23.149  1.00  0.00    -0.274 OA
BRANCH  15  18
ATOM     18  C   UNL A   1      33.837  22.478  24.241  1.00  0.00     0.079 C 
ATOM     19  C   UNL A   1      35.175  22.806  23.591  1.00  0.00     0.013 C 
ATOM     20  C   UNL A   1      33.575  23.504  25.339  1.00  0.00     0.013 C 
ATOM     21  C   UNL A   1      35.881  23.783  24.521  1.00  0.00     0.001 C 
ATOM     22  C   UNL A   1      34.844  24.335  25.490  1.00  0.00     0.001 C 
ENDBRANCH  15  18
ENDBRANCH  13  14
ENDBRANCH   7   8
ENDBRANCH   5   7
ENDBRANCH   2   3
ENDBRANCH   1   2
BRANCH   1  23
ATOM     23  C   UNL A   1      32.845  32.486  27.271  1.00  0.00     0.118 C 
BRANCH  23  24
ATOM     24  N   UNL A   1      32.492  33.856  27.622  1.00  0.00    -0.352 N 
ATOM     25  C   UNL A   1      33.044  34.703  28.555  1.00  0.00     0.251 C 
ATOM     26  H   UNL A   1      31.741  34.234  27.111  1.00  0.00     0.163 HD
ATOM     27  O   UNL A   1      32.513  35.793  28.765  1.00  0.00    -0.269 OA
BRANCH  25  28
ATOM     28  C   UNL A   1      34.244  34.311  29.331  1.00  0.00     0.039 A 
ATOM     29  C   UNL A   1      34.068  33.670  30.561  1.00  0.00     0.014 A 
ATOM     30  C   UNL A   1      35.536  34.574  28.868  1.00  0.00     0.014 A 
ATOM     31  C   UNL A   1      35.178  33.214  31.281  1.00  0.00     0.010 A 
ATOM     32  C   UNL A   1      36.640  34.061  29.553  1.00  0.00     0.010 A 
ATOM     33  C   UNL A   1      36.474  33.362  30.759  1.00  0.00    -0.014 A 
BRANCH  33  34
ATOM     34  C   UNL A   1      37.652  32.738  31.424  1.00  0.00     0.031 A 
ATOM     35  C   UNL A   1      38.367  31.572  30.796  1.00  0.00     0.074 A 
ATOM     36  C   UNL A   1      38.019  33.161  32.650  1.00  0.00     0.049 A 
ATOM     37  N   UNL A   1      39.355  30.858  31.272  1.00  0.00    -0.248 NA
ATOM     38  C   UNL A   1      37.899  31.139  29.470  1.00  0.00     0.031 C 
ATOM     39  C   UNL A   1      37.370  34.237  33.402  1.00  0.00     0.029 A 
ATOM     40  N   UNL A   1      39.007  32.717  33.497  1.00  0.00    -0.354 N 
ATOM     41  C   UNL A   1      39.607  29.873  30.325  1.00  0.00     0.074 A 
ATOM     42  C   UNL A   1      38.651  30.067  29.255  1.00  0.00     0.031 C 
ATOM     43  C   UNL A   1      37.971  34.368  34.596  1.00  0.00     0.029 A 
ATOM     44  C   UNL A   1      39.020  33.360  34.714  1.00  0.00     0.049 A 
ATOM     45  H   UNL A   1      39.644  32.006  33.257  1.00  0.00     0.167 HD
ATOM     46  C   UNL A   1      40.560  28.908  30.332  1.00  0.00     0.034 A 
ATOM     47  C   UNL A   1      39.773  33.152  35.812  1.00  0.00     0.034 A 
ATOM     48  C   UNL A   1      41.527  28.730  31.383  1.00  0.00     0.049 A 
ATOM     49  C   UNL A   1      40.824  32.077  35.792  1.00  0.00     0.074 A 
ATOM     50  C   UNL A   1      42.582  27.835  31.436  1.00  0.00     0.029 A 
ATOM     51  N   UNL A   1      41.550  29.442  32.571  1.00  0.00    -0.354 N 
ATOM     52  N   UNL A   1      41.149  31.258  34.821  1.00  0.00    -0.248 NA
ATOM     53  C   UNL A   1      41.635  31.915  37.009  1.00  0.00     0.031 C 
ATOM     54  C   UNL A   1      43.219  27.980  32.673  1.00  0.00     0.029 A 
ATOM     55  C   UNL A   1      42.586  28.993  33.375  1.00  0.00     0.049 A 
ATOM     56  H   UNL A   1      40.923  30.163  32.810  1.00  0.00     0.167 HD
ATOM     57  C   UNL A   1      42.218  30.507  35.298  1.00  0.00     0.074 A 
ATOM     58  C   UNL A   1      42.504  30.987  36.634  1.00  0.00     0.031 C 
ATOM     59  C   UNL A   1      42.892  29.500  34.688  1.00  0.00     0.034 A 
BRANCH  46  60
ATOM     60  C   UNL A   1      40.629  27.982  29.144  1.00  0.00     0.023 A 
ATOM     61  C   UNL A   1      39.725  26.905  29.044  1.00  0.00     0.012 A 
ATOM     62  C   UNL A   1      41.540  28.216  28.095  1.00  0.00     0.148 A 
ATOM     63  C   UNL A   1      39.749  26.055  27.939  1.00  0.00     0.002 A 
ATOM     64  C   UNL A   1      41.528  27.392  26.975  1.00  0.00     0.091 A 
ATOM     65  F   UNL A   1      42.404  29.234  28.214  1.00  0.00    -0.205 F 
ATOM     66  C   UNL A   1      40.642  26.305  26.901  1.00  0.00     0.022 A 
BRANCH  64  67
ATOM     67  S   UNL A   1      42.583  27.677  25.549  1.00  0.00     0.127 S 
ATOM     68  O   UNL A   1      42.343  26.469  24.760  1.00  0.00    -0.237 OA
ATOM     69  O   UNL A   1      42.011  28.897  24.982  1.00  0.00    -0.237 OA
ATOM     70  O   UNL A   1      43.935  27.822  26.070  1.00  0.00    -0.744 OA
ENDBRANCH  64  67
ENDBRANCH  46  60
BRANCH  47  71
ATOM     71  C   UNL A   1      39.584  34.007  37.019  1.00  0.00     0.023 A 
ATOM     72  C   UNL A   1      40.011  35.349  36.993  1.00  0.00     0.012 A 
ATOM     73  C   UNL A   1      38.971  33.504  38.183  1.00  0.00     0.148 A 
ATOM     74  C   UNL A   1      39.862  36.165  38.115  1.00  0.00     0.002 A 
ATOM     75  C   UNL A   1      38.771  34.339  39.276  1.00  0.00     0.091 A 
ATOM     76  F   UNL A   1      38.582  32.222  38.191  1.00  0.00    -0.205 F 
ATOM     77  C   UNL A   1      39.233  35.664  39.252  1.00  0.00     0.022 A 
BRANCH  75  78
ATOM     78  S   UNL A   1      37.854  33.819  40.730  1.00  0.00     0.127 S 
ATOM     79  O   UNL A   1      37.652  35.088  41.426  1.00  0.00    -0.237 OA
ATOM     80  O   UNL A   1      36.648  33.241  40.135  1.00  0.00    -0.237 OA
ATOM     81  O   UNL A   1      38.709  32.856  41.411  1.00  0.00    -0.744 OA
ENDBRANCH  75  78
ENDBRANCH  47  71
BRANCH  59  82
ATOM     82  C   UNL A   1      44.029  28.861  35.444  1.00  0.00     0.023 A 
ATOM     83  C   UNL A   1      45.328  29.398  35.347  1.00  0.00     0.012 A 
ATOM     84  C   UNL A   1      43.799  27.766  36.302  1.00  0.00     0.148 A 
ATOM     85  C   UNL A   1      46.386  28.835  36.061  1.00  0.00     0.002 A 
ATOM     86  C   UNL A   1      44.847  27.244  37.051  1.00  0.00     0.091 A 
ATOM     87  F   UNL A   1      42.560  27.258  36.369  1.00  0.00    -0.205 F 
ATOM     88  C   UNL A   1      46.143  27.767  36.921  1.00  0.00     0.022 A 
BRANCH  86  89
ATOM     89  S   UNL A   1      44.613  25.932  38.255  1.00  0.00     0.127 S 
ATOM     90  O   UNL A   1      43.637  26.532  39.164  1.00  0.00    -0.237 OA
ATOM     91  O   UNL A   1      44.090  24.844  37.428  1.00  0.00    -0.237 OA
ATOM     92  O   UNL A   1      45.925  25.675  38.833  1.00  0.00    -0.744 OA
ENDBRANCH  86  89
ENDBRANCH  59  82
ENDBRANCH  33  34
ENDBRANCH  25  28
ENDBRANCH  23  24
ENDBRANCH   1  23
TORSDOF 16
ENDMDL
MODEL 2
REMARK VINA RESULT:     -12.0      4.124     10.446
REMARK SMILES O=C(Cc1ccc(NC(=O)C2CCCC2)cc1)NCCCNC(=O)c1ccc(-c2c3nc(c(-c4cccc(S(=O)(=O)[O-])c4F)c4ccc([nH]4)c(-c4cccc(S(=O)(=O)[O-])c4F)c4nc(c(-c5cccc(S(=O)(=O)[O-])c5F)c5ccc2[nH]5)C=C4)C=C3)cc1
REMARK SMILES IDX 20 1 19 2 18 3 1 4 2 5 3 7 4 8 5 9 17 10 6 11 16 12 7 13
REMARK SMILES IDX 8 14 9 15 10 17 11 18 12 19 15 20 13 21 14 22 21 23 22 24
REMARK SMILES IDX 23 25 24 27 25 28 26 29 87 30 27 31 86 32 28 33 29 34 30 35
REMARK SMILES IDX 80 36 31 37 85 38 79 39 81 40 32 41 84 42 78 43 77 44 33 46
REMARK SMILES IDX 65 47 45 48 64 49 46 50 49 51 63 52 82 53 47 54 48 55 62 57
REMARK SMILES IDX 83 58 50 59 34 60 35 61 43 62 36 63 38 64 44 65 37 66 39 67
REMARK SMILES IDX 40 68 41 69 42 70 66 71 67 72 75 73 68 74 70 75 76 76 69 77
REMARK SMILES IDX 71 78 72 79 73 80 74 81 51 82 52 83 60 84 53 85 55 86 61 87
REMARK SMILES IDX 54 88 56 89 57 90 58 91 59 92
REMARK H PARENT 18 6 8 16 22 26 81 45 49 56
REMARK Flexibility Score: inf
ROOT
ATOM      1  C   UNL A   1      33.197  35.639  28.985  1.00  0.00     0.042 C 
ENDROOT
BRANCH   1   2
ATOM      2  C   UNL A   1      32.965  36.143  30.407  1.00  0.00     0.117 C 
BRANCH   2   3
ATOM      3  N   UNL A   1      33.579  35.287  31.407  1.00  0.00    -0.356 N 
ATOM      4  O   UNL A   1      34.277  36.960  32.827  1.00  0.00    -0.275 OA
ATOM      5  C   UNL A   1      34.168  35.767  32.562  1.00  0.00     0.224 C 
ATOM      6  H   UNL A   1      33.574  34.314  31.255  1.00  0.00     0.163 HD
BRANCH   5   7
ATOM      7  C   UNL A   1      34.670  34.677  33.507  1.00  0.00     0.135 C 
BRANCH   7   8
ATOM      8  C   UNL A   1      36.160  34.475  33.373  1.00  0.00    -0.039 A 
ATOM      9  C   UNL A   1      36.951  34.332  34.514  1.00  0.00     0.006 A 
ATOM     10  C   UNL A   1      36.792  34.532  32.127  1.00  0.00     0.006 A 
ATOM     11  C   UNL A   1      38.341  34.386  34.421  1.00  0.00     0.026 A 
ATOM     12  C   UNL A   1      38.190  34.568  32.044  1.00  0.00     0.026 A 
ATOM     13  C   UNL A   1      38.971  34.593  33.205  1.00  0.00     0.041 A 
BRANCH  13  14
ATOM     14  N   UNL A   1      40.345  34.832  33.056  1.00  0.00    -0.326 N 
ATOM     15  C   UNL A   1      41.390  34.147  32.514  1.00  0.00     0.227 C 
ATOM     16  H   UNL A   1      40.620  35.700  33.431  1.00  0.00     0.169 HD
ATOM     17  O   UNL A   1      42.475  34.747  32.511  1.00  0.00    -0.274 OA
BRANCH  15  18
ATOM     18  C   UNL A   1      41.357  32.719  31.962  1.00  0.00     0.079 C 
ATOM     19  C   UNL A   1      41.024  32.548  30.486  1.00  0.00     0.013 C 
ATOM     20  C   UNL A   1      42.600  31.892  32.272  1.00  0.00     0.013 C 
ATOM     21  C   UNL A   1      41.826  31.349  29.997  1.00  0.00     0.001 C 
ATOM     22  C   UNL A   1      42.906  31.059  31.032  1.00  0.00     0.001 C 
ENDBRANCH  15  18
ENDBRANCH  13  14
ENDBRANCH   7   8
ENDBRANCH   5   7
ENDBRANCH   2   3
ENDBRANCH   1   2
BRANCH   1  23
ATOM     23  C   UNL A   1      33.855  34.263  28.879  1.00  0.00     0.118 C 
BRANCH  23  24
ATOM     24  N   UNL A   1      33.202  33.374  27.926  1.00  0.00    -0.352 N 
ATOM     25  C   UNL A   1      33.591  32.143  27.451  1.00  0.00     0.251 C 
ATOM     26  H   UNL A   1      32.348  33.706  27.568  1.00  0.00     0.163 HD
ATOM     27  O   UNL A   1      32.935  31.610  26.558  1.00  0.00    -0.269 OA
BRANCH  25  28
ATOM     28  C   UNL A   1      34.803  31.468  27.974  1.00  0.00     0.039 A 
ATOM     29  C   UNL A   1      35.966  32.224  28.153  1.00  0.00     0.014 A 
ATOM     30  C   UNL A   1      34.811  30.105  28.279  1.00  0.00     0.014 A 
ATOM     31  C   UNL A   1      37.104  31.636  28.720  1.00  0.00     0.010 A 
ATOM     32  C   UNL A   1      35.922  29.537  28.905  1.00  0.00     0.010 A 
ATOM     33  C   UNL A   1      37.076  30.299  29.147  1.00  0.00    -0.014 A 
BRANCH  33  34
ATOM     34  C   UNL A   1      38.213  29.704  29.904  1.00  0.00     0.031 A 
ATOM     35  C   UNL A   1      38.454  30.061  31.346  1.00  0.00     0.074 A 
ATOM     36  C   UNL A   1      39.094  28.913  29.258  1.00  0.00     0.049 A 
ATOM     37  N   UNL A   1      39.438  29.702  32.131  1.00  0.00    -0.248 NA
ATOM     38  C   UNL A   1      37.473  30.952  31.985  1.00  0.00     0.031 C 
ATOM     39  C   UNL A   1      39.017  28.541  27.844  1.00  0.00     0.029 A 
ATOM     40  N   UNL A   1      40.246  28.305  29.696  1.00  0.00    -0.354 N 
ATOM     41  C   UNL A   1      39.217  30.346  33.342  1.00  0.00     0.074 A 
ATOM     42  C   UNL A   1      38.015  31.137  33.182  1.00  0.00     0.031 C 
ATOM     43  C   UNL A   1      40.074  27.775  27.530  1.00  0.00     0.029 A 
ATOM     44  C   UNL A   1      40.926  27.633  28.706  1.00  0.00     0.049 A 
ATOM     45  H   UNL A   1      40.556  28.346  30.630  1.00  0.00     0.167 HD
ATOM     46  C   UNL A   1      39.933  30.270  34.490  1.00  0.00     0.034 A 
ATOM     47  C   UNL A   1      42.112  26.994  28.730  1.00  0.00     0.034 A 
ATOM     48  C   UNL A   1      41.113  29.463  34.659  1.00  0.00     0.049 A 
ATOM     49  C   UNL A   1      42.885  26.923  30.018  1.00  0.00     0.074 A 
ATOM     50  C   UNL A   1      41.856  29.257  35.809  1.00  0.00     0.029 A 
ATOM     51  N   UNL A   1      41.737  28.745  33.651  1.00  0.00    -0.354 N 
ATOM     52  N   UNL A   1      42.576  27.410  31.194  1.00  0.00    -0.248 NA
ATOM     53  C   UNL A   1      44.159  26.187  29.990  1.00  0.00     0.031 C 
ATOM     54  C   UNL A   1      42.949  28.446  35.487  1.00  0.00     0.029 A 
ATOM     55  C   UNL A   1      42.867  28.113  34.145  1.00  0.00     0.049 A 
ATOM     56  H   UNL A   1      41.422  28.690  32.719  1.00  0.00     0.167 HD
ATOM     57  C   UNL A   1      43.598  27.016  32.052  1.00  0.00     0.074 A 
ATOM     58  C   UNL A   1      44.522  26.226  31.264  1.00  0.00     0.031 C 
ATOM     59  C   UNL A   1      43.762  27.296  33.368  1.00  0.00     0.034 A 
BRANCH  46  60
ATOM     60  C   UNL A   1      39.442  31.058  35.678  1.00  0.00     0.023 A 
ATOM     61  C   UNL A   1      38.259  30.664  36.337  1.00  0.00     0.012 A 
ATOM     62  C   UNL A   1      40.184  32.142  36.185  1.00  0.00     0.148 A 
ATOM     63  C   UNL A   1      37.803  31.358  37.457  1.00  0.00     0.002 A 
ATOM     64  C   UNL A   1      39.748  32.801  37.330  1.00  0.00     0.091 A 
ATOM     65  F   UNL A   1      41.298  32.514  35.538  1.00  0.00    -0.205 F 
ATOM     66  C   UNL A   1      38.553  32.418  37.959  1.00  0.00     0.022 A 
BRANCH  64  67
ATOM     67  S   UNL A   1      40.682  34.127  38.102  1.00  0.00     0.127 S 
ATOM     68  O   UNL A   1      42.028  33.556  38.138  1.00  0.00    -0.237 OA
ATOM     69  O   UNL A   1      40.511  35.220  37.147  1.00  0.00    -0.237 OA
ATOM     70  O   UNL A   1      40.066  34.351  39.402  1.00  0.00    -0.744 OA
ENDBRANCH  64  67
ENDBRANCH  46  60
BRANCH  47  71
ATOM     71  C   UNL A   1      42.629  26.336  27.496  1.00  0.00     0.023 A 
ATOM     72  C   UNL A   1      43.418  27.074  26.592  1.00  0.00     0.012 A 
ATOM     73  C   UNL A   1      42.357  24.981  27.221  1.00  0.00     0.148 A 
ATOM     74  C   UNL A   1      43.899  26.485  25.422  1.00  0.00     0.002 A 
ATOM     75  C   UNL A   1      42.888  24.385  26.084  1.00  0.00     0.091 A 
ATOM     76  F   UNL A   1      41.594  24.299  28.087  1.00  0.00    -0.205 F 
ATOM     77  C   UNL A   1      43.643  25.139  25.173  1.00  0.00     0.022 A 
BRANCH  75  78
ATOM     78  S   UNL A   1      42.722  22.628  25.749  1.00  0.00     0.127 S 
ATOM     79  O   UNL A   1      43.308  22.520  24.415  1.00  0.00    -0.237 OA
ATOM     80  O   UNL A   1      43.521  22.040  26.825  1.00  0.00    -0.237 OA
ATOM     81  O   UNL A   1      41.295  22.344  25.837  1.00  0.00    -0.744 OA
ENDBRANCH  75  78
ENDBRANCH  47  71
BRANCH  59  82
ATOM     82  C   UNL A   1      44.974  26.723  34.059  1.00  0.00     0.023 A 
ATOM     83  C   UNL A   1      46.180  27.452  34.082  1.00  0.00     0.012 A 
ATOM     84  C   UNL A   1      44.900  25.492  34.742  1.00  0.00     0.148 A 
ATOM     85  C   UNL A   1      47.302  26.949  34.740  1.00  0.00     0.002 A 
ATOM     86  C   UNL A   1      46.006  25.022  35.441  1.00  0.00     0.091 A 
ATOM     87  F   UNL A   1      43.749  24.805  34.696  1.00  0.00    -0.205 F 
ATOM     88  C   UNL A   1      47.211  25.742  35.429  1.00  0.00     0.022 A 
BRANCH  86  89
ATOM     89  S   UNL A   1      45.957  23.527  36.434  1.00  0.00     0.127 S 
ATOM     90  O   UNL A   1      45.300  22.587  35.526  1.00  0.00    -0.237 OA
ATOM     91  O   UNL A   1      47.378  23.262  36.663  1.00  0.00    -0.237 OA
ATOM     92  O   UNL A   1      45.203  23.863  37.634  1.00  0.00    -0.744 OA
ENDBRANCH  86  89
ENDBRANCH  59  82
ENDBRANCH  33  34
ENDBRANCH  25  28
ENDBRANCH  23  24
ENDBRANCH   1  23
TORSDOF 16
ENDMDL
MODEL 3
REMARK VINA RESULT:     -11.8      5.709      9.081
REMARK SMILES O=C(Cc1ccc(NC(=O)C2CCCC2)cc1)NCCCNC(=O)c1ccc(-c2c3nc(c(-c4cccc(S(=O)(=O)[O-])c4F)c4ccc([nH]4)c(-c4cccc(S(=O)(=O)[O-])c4F)c4nc(c(-c5cccc(S(=O)(=O)[O-])c5F)c5ccc2[nH]5)C=C4)C=C3)cc1
REMARK SMILES IDX 20 1 19 2 18 3 1 4 2 5 3 7 4 8 5 9 17 10 6 11 16 12 7 13
REMARK SMILES IDX 8 14 9 15 10 17 11 18 12 19 15 20 13 21 14 22 21 23 22 24
REMARK SMILES IDX 23 25 24 27 25 28 26 29 87 30 27 31 86 32 28 33 29 34 30 35
REMARK SMILES IDX 80 36 31 37 85 38 79 39 81 40 32 41 84 42 78 43 77 44 33 46
REMARK SMILES IDX 65 47 45 48 64 49 46 50 49 51 63 52 82 53 47 54 48 55 62 57
REMARK SMILES IDX 83 58 50 59 34 60 35 61 43 62 36 63 38 64 44 65 37 66 39 67
REMARK SMILES IDX 40 68 41 69 42 70 66 71 67 72 75 73 68 74 70 75 76 76 69 77
REMARK SMILES IDX 71 78 72 79 73 80 74 81 51 82 52 83 60 84 53 85 55 86 61 87
REMARK SMILES IDX 54 88 56 89 57 90 58 91 59 92
REMARK H PARENT 18 6 8 16 22 26 81 45 49 56
REMARK Flexibility Score: inf
ROOT
ATOM      1  C   UNL A   1      35.705  21.520  26.006  1.00  0.00     0.042 C 
ENDROOT
BRANCH   1   2
ATOM      2  C   UNL A   1      34.600  20.566  25.560  1.00  0.00     0.117 C 
BRANCH   2   3
ATOM      3  N   UNL A   1      33.955  20.998  24.332  1.00  0.00    -0.356 N 
ATOM      4  O   UNL A   1      31.785  20.602  24.993  1.00  0.00    -0.275 OA
ATOM      5  C   UNL A   1      32.584  21.007  24.155  1.00  0.00     0.224 C 
ATOM      6  H   UNL A   1      34.524  21.300  23.588  1.00  0.00     0.163 HD
BRANCH   5   7
ATOM      7  C   UNL A   1      32.131  21.583  22.814  1.00  0.00     0.135 C 
BRANCH   7   8
ATOM      8  C   UNL A   1      31.982  23.084  22.882  1.00  0.00    -0.039 A 
ATOM      9  C   UNL A   1      30.858  23.648  23.487  1.00  0.00     0.006 A 
ATOM     10  C   UNL A   1      32.899  23.934  22.255  1.00  0.00     0.006 A 
ATOM     11  C   UNL A   1      30.589  25.009  23.346  1.00  0.00     0.026 A 
ATOM     12  C   UNL A   1      32.627  25.303  22.135  1.00  0.00     0.026 A 
ATOM     13  C   UNL A   1      31.416  25.831  22.599  1.00  0.00     0.041 A 
BRANCH  13  14
ATOM     14  N   UNL A   1      31.122  27.162  22.268  1.00  0.00    -0.326 N 
ATOM     15  C   UNL A   1      31.390  28.375  22.825  1.00  0.00     0.227 C 
ATOM     16  H   UNL A   1      30.599  27.237  21.438  1.00  0.00     0.169 HD
ATOM     17  O   UNL A   1      31.008  29.357  22.170  1.00  0.00    -0.274 OA
BRANCH  15  18
ATOM     18  C   UNL A   1      32.062  28.631  24.176  1.00  0.00     0.079 C 
ATOM     19  C   UNL A   1      31.401  28.031  25.411  1.00  0.00     0.013 C 
ATOM     20  C   UNL A   1      33.549  28.292  24.218  1.00  0.00     0.013 C 
ATOM     21  C   UNL A   1      32.526  27.659  26.367  1.00  0.00     0.001 C 
ATOM     22  C   UNL A   1      33.828  27.660  25.576  1.00  0.00     0.001 C 
ENDBRANCH  15  18
ENDBRANCH  13  14
ENDBRANCH   7   8
ENDBRANCH   5   7
ENDBRANCH   2   3
ENDBRANCH   1   2
BRANCH   1  23
ATOM     23  C   UNL A   1      36.935  21.565  25.099  1.00  0.00     0.118 C 
BRANCH  23  24
ATOM     24  N   UNL A   1      37.962  20.596  25.459  1.00  0.00    -0.352 N 
ATOM     25  C   UNL A   1      39.197  20.786  26.036  1.00  0.00     0.251 C 
ATOM     26  H   UNL A   1      37.737  19.660  25.258  1.00  0.00     0.163 HD
ATOM     27  O   UNL A   1      39.959  19.827  26.153  1.00  0.00    -0.269 OA
BRANCH  25  28
ATOM     28  C   UNL A   1      39.634  22.128  26.487  1.00  0.00     0.039 A 
ATOM     29  C   UNL A   1      40.728  22.222  27.353  1.00  0.00     0.014 A 
ATOM     30  C   UNL A   1      38.977  23.292  26.077  1.00  0.00     0.014 A 
ATOM     31  C   UNL A   1      41.217  23.477  27.734  1.00  0.00     0.010 A 
ATOM     32  C   UNL A   1      39.506  24.542  26.402  1.00  0.00     0.010 A 
ATOM     33  C   UNL A   1      40.640  24.651  27.222  1.00  0.00    -0.014 A 
BRANCH  33  34
ATOM     34  C   UNL A   1      41.246  25.987  27.478  1.00  0.00     0.031 A 
ATOM     35  C   UNL A   1      42.662  26.287  27.062  1.00  0.00     0.074 A 
ATOM     36  C   UNL A   1      40.550  26.905  28.179  1.00  0.00     0.049 A 
ATOM     37  N   UNL A   1      43.373  27.365  27.277  1.00  0.00    -0.248 NA
ATOM     38  C   UNL A   1      43.378  25.233  26.326  1.00  0.00     0.031 C 
ATOM     39  C   UNL A   1      39.194  26.720  28.700  1.00  0.00     0.029 A 
ATOM     40  N   UNL A   1      40.897  28.165  28.604  1.00  0.00    -0.354 N 
ATOM     41  C   UNL A   1      44.627  27.110  26.736  1.00  0.00     0.074 A 
ATOM     42  C   UNL A   1      44.587  25.764  26.202  1.00  0.00     0.031 C 
ATOM     43  C   UNL A   1      38.827  27.820  29.375  1.00  0.00     0.029 A 
ATOM     44  C   UNL A   1      39.932  28.773  29.374  1.00  0.00     0.049 A 
ATOM     45  H   UNL A   1      41.756  28.592  28.380  1.00  0.00     0.167 HD
ATOM     46  C   UNL A   1      45.708  27.926  26.669  1.00  0.00     0.034 A 
ATOM     47  C   UNL A   1      39.938  29.952  30.025  1.00  0.00     0.034 A 
ATOM     48  C   UNL A   1      45.740  29.272  27.176  1.00  0.00     0.049 A 
ATOM     49  C   UNL A   1      41.148  30.840  29.931  1.00  0.00     0.074 A 
ATOM     50  C   UNL A   1      46.761  30.202  27.078  1.00  0.00     0.029 A 
ATOM     51  N   UNL A   1      44.721  29.877  27.894  1.00  0.00    -0.354 N 
ATOM     52  N   UNL A   1      42.268  30.642  29.279  1.00  0.00    -0.248 NA
ATOM     53  C   UNL A   1      41.086  32.128  30.639  1.00  0.00     0.031 C 
ATOM     54  C   UNL A   1      46.374  31.355  27.769  1.00  0.00     0.029 A 
ATOM     55  C   UNL A   1      45.095  31.159  28.264  1.00  0.00     0.049 A 
ATOM     56  H   UNL A   1      43.856  29.458  28.108  1.00  0.00     0.167 HD
ATOM     57  C   UNL A   1      43.030  31.790  29.473  1.00  0.00     0.074 A 
ATOM     58  C   UNL A   1      42.232  32.690  30.280  1.00  0.00     0.031 C 
ATOM     59  C   UNL A   1      44.282  32.066  29.033  1.00  0.00     0.034 A 
BRANCH  46  60
ATOM     60  C   UNL A   1      46.945  27.397  25.988  1.00  0.00     0.023 A 
ATOM     61  C   UNL A   1      47.130  27.616  24.607  1.00  0.00     0.012 A 
ATOM     62  C   UNL A   1      47.956  26.748  26.724  1.00  0.00     0.148 A 
ATOM     63  C   UNL A   1      48.282  27.166  23.963  1.00  0.00     0.002 A 
ATOM     64  C   UNL A   1      49.122  26.343  26.084  1.00  0.00     0.091 A 
ATOM     65  F   UNL A   1      47.757  26.533  28.032  1.00  0.00    -0.205 F 
ATOM     66  C   UNL A   1      49.281  26.540  24.703  1.00  0.00     0.022 A 
BRANCH  64  67
ATOM     67  S   UNL A   1      50.502  25.599  26.961  1.00  0.00     0.127 S 
ATOM     68  O   UNL A   1      50.888  26.678  27.870  1.00  0.00    -0.237 OA
ATOM     69  O   UNL A   1      49.870  24.452  27.612  1.00  0.00    -0.237 OA
ATOM     70  O   UNL A   1      51.488  25.257  25.946  1.00  0.00    -0.744 OA
ENDBRANCH  64  67
ENDBRANCH  46  60
BRANCH  47  71
ATOM     71  C   UNL A   1      38.738  30.383  30.799  1.00  0.00     0.023 A 
ATOM     72  C   UNL A   1      38.646  30.070  32.169  1.00  0.00     0.012 A 
ATOM     73  C   UNL A   1      37.698  31.113  30.189  1.00  0.00     0.148 A 
ATOM     74  C   UNL A   1      37.526  30.447  32.910  1.00  0.00     0.002 A 
ATOM     75  C   UNL A   1      36.614  31.536  30.948  1.00  0.00     0.091 A 
ATOM     76  F   UNL A   1      37.799  31.390  28.882  1.00  0.00    -0.205 F 
ATOM     77  C   UNL A   1      36.515  31.188  32.303  1.00  0.00     0.022 A 
BRANCH  75  78
ATOM     78  S   UNL A   1      35.332  32.604  30.284  1.00  0.00     0.127 S 
ATOM     79  O   UNL A   1      36.097  33.787  29.897  1.00  0.00    -0.237 OA
ATOM     80  O   UNL A   1      34.823  31.805  29.168  1.00  0.00    -0.237 OA
ATOM     81  O   UNL A   1      34.378  32.797  31.369  1.00  0.00    -0.744 OA
ENDBRANCH  75  78
ENDBRANCH  47  71
BRANCH  59  82
ATOM     82  C   UNL A   1      44.868  33.410  29.388  1.00  0.00     0.023 A 
ATOM     83  C   UNL A   1      45.654  33.549  30.550  1.00  0.00     0.012 A 
ATOM     84  C   UNL A   1      44.695  34.519  28.537  1.00  0.00     0.148 A 
ATOM     85  C   UNL A   1      46.226  34.778  30.878  1.00  0.00     0.002 A 
ATOM     86  C   UNL A   1      45.311  35.727  28.842  1.00  0.00     0.091 A 
ATOM     87  F   UNL A   1      43.931  34.372  27.444  1.00  0.00    -0.205 F 
ATOM     88  C   UNL A   1      46.065  35.862  30.019  1.00  0.00     0.022 A 
BRANCH  86  89
ATOM     89  S   UNL A   1      45.240  37.151  27.750  1.00  0.00     0.127 S 
ATOM     90  O   UNL A   1      46.122  38.096  28.434  1.00  0.00    -0.237 OA
ATOM     91  O   UNL A   1      45.777  36.609  26.501  1.00  0.00    -0.237 OA
ATOM     92  O   UNL A   1      43.839  37.542  27.687  1.00  0.00    -0.744 OA
ENDBRANCH  86  89
ENDBRANCH  59  82
ENDBRANCH  33  34
ENDBRANCH  25  28
ENDBRANCH  23  24
ENDBRANCH   1  23
TORSDOF 16
ENDMDL
