MODEL 1
REMARK VINA RESULT:     -13.1      0.000      0.000
REMARK SMILES COc1cccc(C(=O)Nc2ccc(NC(=O)[C@@H]3[C@@H](C(=O)NCCCNC(=O)c4ccc(-c5c6nc(c(-c7cccc(S(=O)(=O)[O-])c7F)c7ccc([nH]7)c(-c7cccc(S(=O)(=O)[O-])c7F)c7nc(c(-c8cccc(S(=O)(=O)[O-])c8F)c8ccc5[nH]8)C=C7)C=C6)cc4)[C@@H]4C=C[C@H]3C4)cc2)c1
REMARK SMILES IDX 23 1 22 2 20 3 21 4 19 6 18 7 95 8 92 9 94 10 96 11 93 12
REMARK SMILES IDX 16 13 15 14 17 16 14 17 11 18 12 19 98 20 13 21 97 22 10 23
REMARK SMILES IDX 8 24 9 25 7 27 3 28 4 29 99 30 5 31 6 32 2 33 1 34 24 35
REMARK SMILES IDX 25 36 26 37 27 38 28 40 29 41 30 42 91 43 31 44 90 45 32 46
REMARK SMILES IDX 33 47 34 48 84 49 35 50 89 51 83 52 85 53 36 54 88 55 82 56
REMARK SMILES IDX 81 57 37 59 69 60 49 61 68 62 50 63 53 64 67 65 86 66 51 67
REMARK SMILES IDX 52 68 66 70 87 71 54 72 38 73 39 74 47 75 40 76 42 77 48 78
REMARK SMILES IDX 41 79 43 80 44 81 45 82 46 83 70 84 71 85 79 86 72 87 74 88
REMARK SMILES IDX 80 89 73 90 75 91 76 92 77 93 78 94 55 95 56 96 64 97 57 98
REMARK SMILES IDX 59 99 65 100 58 101 60 102 61 103 62 104 63 105
REMARK H PARENT 22 5 15 15 10 26 26 39 85 58 53 69
REMARK Flexibility Score: inf
ROOT
ATOM      1  C   UNL A   1      32.662  29.773  25.122  1.00  0.00     0.117 C 
ENDROOT
BRANCH   1   2
ATOM      2  N   UNL A   1      32.503  29.427  23.720  1.00  0.00    -0.356 N 
ATOM      3  C   UNL A   1      31.437  28.889  23.068  1.00  0.00     0.224 C 
ATOM      4  O   UNL A   1      31.649  28.354  21.980  1.00  0.00    -0.275 OA
ATOM      5  H   UNL A   1      33.288  29.609  23.155  1.00  0.00     0.163 HD
BRANCH   3   6
ATOM      6  C   UNL A   1      30.039  29.131  23.614  1.00  0.00     0.098 C 
ATOM      7  C   UNL A   1      28.944  28.243  22.967  1.00  0.00     0.099 C 
ATOM      8  C   UNL A   1      27.983  29.271  22.308  1.00  0.00     0.025 C 
ATOM      9  C   UNL A   1      29.640  30.558  23.119  1.00  0.00     0.025 C 
ATOM     10  C   UNL A   1      27.374  30.247  23.282  1.00  0.00    -0.027 C 
ATOM     11  C   UNL A   1      29.023  30.257  21.739  1.00  0.00     0.017 C 
ATOM     12  C   UNL A   1      28.365  31.005  23.781  1.00  0.00    -0.027 C 
BRANCH   7  13
ATOM     13  C   UNL A   1      28.438  27.024  23.757  1.00  0.00     0.228 C 
ATOM     14  N   UNL A   1      29.158  26.021  24.322  1.00  0.00    -0.326 N 
ATOM     15  H   UNL A   1      28.653  25.530  25.009  1.00  0.00     0.169 HD
ATOM     16  O   UNL A   1      27.217  26.958  23.980  1.00  0.00    -0.274 OA
BRANCH  14  17
ATOM     17  C   UNL A   1      30.450  25.530  24.146  1.00  0.00     0.041 A 
ATOM     18  C   UNL A   1      33.108  24.784  23.750  1.00  0.00     0.041 A 
ATOM     19  C   UNL A   1      32.140  24.445  22.814  1.00  0.00     0.028 A 
ATOM     20  C   UNL A   1      32.749  25.433  24.928  1.00  0.00     0.028 A 
ATOM     21  C   UNL A   1      30.807  24.752  23.060  1.00  0.00     0.028 A 
ATOM     22  C   UNL A   1      31.410  25.790  25.133  1.00  0.00     0.028 A 
BRANCH  18  23
ATOM     23  N   UNL A   1      34.437  24.467  23.473  1.00  0.00    -0.322 N 
ATOM     24  C   UNL A   1      35.005  23.207  23.523  1.00  0.00     0.255 C 
ATOM     25  O   UNL A   1      35.986  22.956  22.825  1.00  0.00    -0.269 OA
ATOM     26  H   UNL A   1      35.028  25.212  23.217  1.00  0.00     0.170 HD
BRANCH  24  27
ATOM     27  C   UNL A   1      34.561  22.230  24.558  1.00  0.00     0.043 A 
ATOM     28  C   UNL A   1      33.164  20.406  25.349  1.00  0.00     0.119 A 
ATOM     29  C   UNL A   1      33.553  20.696  26.655  1.00  0.00     0.046 A 
ATOM     30  C   UNL A   1      33.719  21.140  24.305  1.00  0.00     0.060 A 
ATOM     31  C   UNL A   1      34.480  21.707  26.915  1.00  0.00     0.005 A 
ATOM     32  C   UNL A   1      34.976  22.480  25.869  1.00  0.00     0.014 A 
BRANCH  28  33
ATOM     33  O   UNL A   1      32.235  19.412  25.220  1.00  0.00    -0.497 OA
ATOM     34  C   UNL A   1      32.407  18.475  24.160  1.00  0.00     0.278 C 
ENDBRANCH  28  33
ENDBRANCH  24  27
ENDBRANCH  18  23
ENDBRANCH  14  17
ENDBRANCH   7  13
ENDBRANCH   3   6
ENDBRANCH   1   2
BRANCH   1  35
ATOM     35  C   UNL A   1      33.623  28.802  25.805  1.00  0.00     0.042 C 
BRANCH  35  36
ATOM     36  C   UNL A   1      33.765  29.031  27.307  1.00  0.00     0.118 C 
BRANCH  36  37
ATOM     37  N   UNL A   1      33.676  30.439  27.667  1.00  0.00    -0.352 N 
ATOM     38  C   UNL A   1      34.539  31.207  28.402  1.00  0.00     0.251 C 
ATOM     39  H   UNL A   1      32.877  30.908  27.334  1.00  0.00     0.163 HD
ATOM     40  O   UNL A   1      34.185  32.336  28.754  1.00  0.00    -0.269 OA
BRANCH  38  41
ATOM     41  C   UNL A   1      35.873  30.697  28.781  1.00  0.00     0.039 A 
ATOM     42  C   UNL A   1      35.968  29.789  29.839  1.00  0.00     0.014 A 
ATOM     43  C   UNL A   1      37.033  31.134  28.132  1.00  0.00     0.014 A 
ATOM     44  C   UNL A   1      37.217  29.301  30.225  1.00  0.00     0.010 A 
ATOM     45  C   UNL A   1      38.267  30.578  28.460  1.00  0.00     0.010 A 
ATOM     46  C   UNL A   1      38.378  29.678  29.528  1.00  0.00    -0.014 A 
BRANCH  46  47
ATOM     47  C   UNL A   1      39.708  29.154  29.933  1.00  0.00     0.031 A 
ATOM     48  C   UNL A   1      40.478  29.806  31.052  1.00  0.00     0.074 A 
ATOM     49  C   UNL A   1      40.244  28.113  29.265  1.00  0.00     0.049 A 
ATOM     50  N   UNL A   1      41.636  29.469  31.560  1.00  0.00    -0.248 NA
ATOM     51  C   UNL A   1      39.884  31.005  31.667  1.00  0.00     0.031 C 
ATOM     52  C   UNL A   1      39.640  27.449  28.108  1.00  0.00     0.029 A 
ATOM     53  N   UNL A   1      41.425  27.439  29.455  1.00  0.00    -0.354 N 
ATOM     54  C   UNL A   1      41.922  30.428  32.526  1.00  0.00     0.074 A 
ATOM     55  C   UNL A   1      40.837  31.384  32.504  1.00  0.00     0.031 C 
ATOM     56  C   UNL A   1      40.444  26.452  27.705  1.00  0.00     0.029 A 
ATOM     57  C   UNL A   1      41.630  26.421  28.554  1.00  0.00     0.049 A 
ATOM     58  H   UNL A   1      42.063  27.663  30.170  1.00  0.00     0.167 HD
ATOM     59  C   UNL A   1      42.974  30.492  33.378  1.00  0.00     0.034 A 
ATOM     60  C   UNL A   1      42.655  25.557  28.429  1.00  0.00     0.034 A 
ATOM     61  C   UNL A   1      44.033  29.520  33.421  1.00  0.00     0.049 A 
ATOM     62  C   UNL A   1      43.785  25.615  29.423  1.00  0.00     0.074 A 
ATOM     63  C   UNL A   1      45.103  29.450  34.296  1.00  0.00     0.029 A 
ATOM     64  N   UNL A   1      44.164  28.453  32.546  1.00  0.00    -0.354 N 
ATOM     65  N   UNL A   1      43.957  26.436  30.431  1.00  0.00    -0.248 NA
ATOM     66  C   UNL A   1      44.835  24.597  29.290  1.00  0.00     0.031 C 
ATOM     67  C   UNL A   1      45.895  28.357  33.932  1.00  0.00     0.029 A 
ATOM     68  C   UNL A   1      45.296  27.720  32.857  1.00  0.00     0.049 A 
ATOM     69  H   UNL A   1      43.542  28.246  31.811  1.00  0.00     0.167 HD
ATOM     70  C   UNL A   1      45.108  26.005  31.080  1.00  0.00     0.074 A 
ATOM     71  C   UNL A   1      45.579  24.838  30.362  1.00  0.00     0.031 C 
ATOM     72  C   UNL A   1      45.726  26.531  32.167  1.00  0.00     0.034 A 
BRANCH  59  73
ATOM     73  C   UNL A   1      43.005  31.630  34.367  1.00  0.00     0.023 A 
ATOM     74  C   UNL A   1      43.617  32.850  34.010  1.00  0.00     0.012 A 
ATOM     75  C   UNL A   1      42.384  31.514  35.626  1.00  0.00     0.148 A 
ATOM     76  C   UNL A   1      43.646  33.921  34.903  1.00  0.00     0.002 A 
ATOM     77  C   UNL A   1      42.374  32.602  36.491  1.00  0.00     0.091 A 
ATOM     78  F   UNL A   1      41.824  30.341  35.957  1.00  0.00    -0.205 F 
ATOM     79  C   UNL A   1      43.016  33.800  36.138  1.00  0.00     0.022 A 
BRANCH  77  80
ATOM     80  S   UNL A   1      41.516  32.578  38.069  1.00  0.00     0.127 S 
ATOM     81  O   UNL A   1      42.324  31.627  38.830  1.00  0.00    -0.237 OA
ATOM     82  O   UNL A   1      41.640  33.969  38.506  1.00  0.00    -0.237 OA
ATOM     83  O   UNL A   1      40.154  32.150  37.781  1.00  0.00    -0.744 OA
ENDBRANCH  77  80
ENDBRANCH  59  73
BRANCH  60  84
ATOM     84  C   UNL A   1      42.625  24.511  27.367  1.00  0.00     0.023 A 
ATOM     85  C   UNL A   1      43.488  24.620  26.258  1.00  0.00     0.012 A 
ATOM     86  C   UNL A   1      41.759  23.404  27.457  1.00  0.00     0.148 A 
ATOM     87  C   UNL A   1      43.460  23.668  25.239  1.00  0.00     0.002 A 
ATOM     88  C   UNL A   1      41.779  22.429  26.468  1.00  0.00     0.091 A 
ATOM     89  F   UNL A   1      40.943  23.323  28.517  1.00  0.00    -0.205 F 
ATOM     90  C   UNL A   1      42.613  22.569  25.347  1.00  0.00     0.022 A 
BRANCH  88  91
ATOM     91  S   UNL A   1      40.820  20.916  26.590  1.00  0.00     0.127 S 
ATOM     92  O   UNL A   1      39.485  21.377  26.215  1.00  0.00    -0.237 OA
ATOM     93  O   UNL A   1      41.478  20.063  25.599  1.00  0.00    -0.237 OA
ATOM     94  O   UNL A   1      40.971  20.463  27.966  1.00  0.00    -0.744 OA
ENDBRANCH  88  91
ENDBRANCH  60  84
BRANCH  72  95
ATOM     95  C   UNL A   1      46.947  25.817  32.688  1.00  0.00     0.023 A 
ATOM     96  C   UNL A   1      48.230  26.172  32.228  1.00  0.00     0.012 A 
ATOM     97  C   UNL A   1      46.819  24.816  33.671  1.00  0.00     0.148 A 
ATOM     98  C   UNL A   1      49.361  25.507  32.699  1.00  0.00     0.002 A 
ATOM     99  C   UNL A   1      47.955  24.197  34.178  1.00  0.00     0.091 A 
ATOM    100  F   UNL A   1      45.590  24.476  34.085  1.00  0.00    -0.205 F 
ATOM    101  C   UNL A   1      49.225  24.529  33.681  1.00  0.00     0.022 A 
BRANCH  99 102
ATOM    102  S   UNL A   1      47.877  23.001  35.516  1.00  0.00     0.127 S 
ATOM    103  O   UNL A   1      47.147  21.900  34.890  1.00  0.00    -0.237 OA
ATOM    104  O   UNL A   1      49.292  22.726  35.772  1.00  0.00    -0.237 OA
ATOM    105  O   UNL A   1      47.188  23.671  36.610  1.00  0.00    -0.744 OA
ENDBRANCH  99 102
ENDBRANCH  72  95
ENDBRANCH  46  47
ENDBRANCH  38  41
ENDBRANCH  36  37
ENDBRANCH  35  36
ENDBRANCH   1  35
TORSDOF 18
ENDMDL
MODEL 2
REMARK VINA RESULT:     -12.9      2.955      7.987
REMARK SMILES COc1cccc(C(=O)Nc2ccc(NC(=O)[C@@H]3[C@@H](C(=O)NCCCNC(=O)c4ccc(-c5c6nc(c(-c7cccc(S(=O)(=O)[O-])c7F)c7ccc([nH]7)c(-c7cccc(S(=O)(=O)[O-])c7F)c7nc(c(-c8cccc(S(=O)(=O)[O-])c8F)c8ccc5[nH]8)C=C7)C=C6)cc4)[C@@H]4C=C[C@H]3C4)cc2)c1
REMARK SMILES IDX 23 1 22 2 20 3 21 4 19 6 18 7 95 8 92 9 94 10 96 11 93 12
REMARK SMILES IDX 16 13 15 14 17 16 14 17 11 18 12 19 98 20 13 21 97 22 10 23
REMARK SMILES IDX 8 24 9 25 7 27 3 28 4 29 99 30 5 31 6 32 2 33 1 34 24 35
REMARK SMILES IDX 25 36 26 37 27 38 28 40 29 41 30 42 91 43 31 44 90 45 32 46
REMARK SMILES IDX 33 47 34 48 84 49 35 50 89 51 83 52 85 53 36 54 88 55 82 56
REMARK SMILES IDX 81 57 37 59 69 60 49 61 68 62 50 63 53 64 67 65 86 66 51 67
REMARK SMILES IDX 52 68 66 70 87 71 54 72 38 73 39 74 47 75 40 76 42 77 48 78
REMARK SMILES IDX 41 79 43 80 44 81 45 82 46 83 70 84 71 85 79 86 72 87 74 88
REMARK SMILES IDX 80 89 73 90 75 91 76 92 77 93 78 94 55 95 56 96 64 97 57 98
REMARK SMILES IDX 59 99 65 100 58 101 60 102 61 103 62 104 63 105
REMARK H PARENT 22 5 15 15 10 26 26 39 85 58 53 69
REMARK Flexibility Score: inf
ROOT
ATOM      1  C   UNL A   1      31.540  30.467  26.421  1.00  0.00     0.117 C 
ENDROOT
BRANCH   1   2
ATOM      2  N   UNL A   1      31.957  30.114  25.076  1.00  0.00    -0.356 N 
ATOM      3  C   UNL A   1      31.295  29.423  24.108  1.00  0.00     0.224 C 
ATOM      4  O   UNL A   1      31.966  28.938  23.198  1.00  0.00    -0.275 OA
ATOM      5  H   UNL A   1      32.858  30.421  24.825  1.00  0.00     0.163 HD
BRANCH   3   6
ATOM      6  C   UNL A   1      29.775  29.440  24.098  1.00  0.00     0.098 C 
ATOM      7  C   UNL A   1      29.137  28.416  23.122  1.00  0.00     0.099 C 
ATOM      8  C   UNL A   1      28.342  29.307  22.128  1.00  0.00     0.025 C 
ATOM      9  C   UNL A   1      29.378  30.804  23.449  1.00  0.00     0.025 C 
ATOM     10  C   UNL A   1      27.282  30.155  22.782  1.00  0.00    -0.027 C 
ATOM     11  C   UNL A   1      29.360  30.451  21.949  1.00  0.00     0.017 C 
ATOM     12  C   UNL A   1      27.898  31.038  23.585  1.00  0.00    -0.027 C 
BRANCH   7  13
ATOM     13  C   UNL A   1      28.564  27.115  23.710  1.00  0.00     0.228 C 
ATOM     14  N   UNL A   1      29.231  26.033  24.186  1.00  0.00    -0.326 N 
ATOM     15  H   UNL A   1      28.674  25.467  24.767  1.00  0.00     0.169 HD
ATOM     16  O   UNL A   1      27.330  27.045  23.838  1.00  0.00    -0.274 OA
BRANCH  14  17
ATOM     17  C   UNL A   1      30.527  25.544  24.037  1.00  0.00     0.041 A 
ATOM     18  C   UNL A   1      33.191  24.798  23.679  1.00  0.00     0.041 A 
ATOM     19  C   UNL A   1      32.224  24.398  22.766  1.00  0.00     0.028 A 
ATOM     20  C   UNL A   1      32.828  25.511  24.818  1.00  0.00     0.028 A 
ATOM     21  C   UNL A   1      30.889  24.707  22.996  1.00  0.00     0.028 A 
ATOM     22  C   UNL A   1      31.486  25.868  25.005  1.00  0.00     0.028 A 
BRANCH  18  23
ATOM     23  N   UNL A   1      34.522  24.477  23.418  1.00  0.00    -0.322 N 
ATOM     24  C   UNL A   1      35.090  23.219  23.496  1.00  0.00     0.255 C 
ATOM     25  O   UNL A   1      36.077  22.955  22.811  1.00  0.00    -0.269 OA
ATOM     26  H   UNL A   1      35.115  25.217  23.152  1.00  0.00     0.170 HD
BRANCH  24  27
ATOM     27  C   UNL A   1      34.640  22.261  24.547  1.00  0.00     0.043 A 
ATOM     28  C   UNL A   1      33.199  20.492  25.381  1.00  0.00     0.119 A 
ATOM     29  C   UNL A   1      33.633  20.771  26.676  1.00  0.00     0.046 A 
ATOM     30  C   UNL A   1      33.752  21.202  24.320  1.00  0.00     0.060 A 
ATOM     31  C   UNL A   1      34.603  21.748  26.907  1.00  0.00     0.005 A 
ATOM     32  C   UNL A   1      35.099  22.500  25.845  1.00  0.00     0.014 A 
BRANCH  28  33
ATOM     33  O   UNL A   1      32.231  19.532  25.281  1.00  0.00    -0.497 OA
ATOM     34  C   UNL A   1      32.650  18.175  25.165  1.00  0.00     0.278 C 
ENDBRANCH  28  33
ENDBRANCH  24  27
ENDBRANCH  18  23
ENDBRANCH  14  17
ENDBRANCH   7  13
ENDBRANCH   3   6
ENDBRANCH   1   2
BRANCH   1  35
ATOM     35  C   UNL A   1      31.507  31.985  26.587  1.00  0.00     0.042 C 
BRANCH  35  36
ATOM     36  C   UNL A   1      32.794  32.569  27.162  1.00  0.00     0.118 C 
BRANCH  36  37
ATOM     37  N   UNL A   1      32.633  33.947  27.600  1.00  0.00    -0.352 N 
ATOM     38  C   UNL A   1      33.225  34.605  28.646  1.00  0.00     0.251 C 
ATOM     39  H   UNL A   1      32.005  34.487  27.067  1.00  0.00     0.163 HD
ATOM     40  O   UNL A   1      32.808  35.723  28.963  1.00  0.00    -0.269 OA
BRANCH  38  41
ATOM     41  C   UNL A   1      34.340  33.990  29.395  1.00  0.00     0.039 A 
ATOM     42  C   UNL A   1      35.650  34.297  29.018  1.00  0.00     0.014 A 
ATOM     43  C   UNL A   1      34.109  33.084  30.435  1.00  0.00     0.014 A 
ATOM     44  C   UNL A   1      36.722  33.720  29.700  1.00  0.00     0.010 A 
ATOM     45  C   UNL A   1      35.178  32.579  31.171  1.00  0.00     0.010 A 
ATOM     46  C   UNL A   1      36.497  32.868  30.796  1.00  0.00    -0.014 A 
BRANCH  46  47
ATOM     47  C   UNL A   1      37.636  32.258  31.529  1.00  0.00     0.031 A 
ATOM     48  C   UNL A   1      38.434  31.141  30.907  1.00  0.00     0.074 A 
ATOM     49  C   UNL A   1      37.929  32.682  32.774  1.00  0.00     0.049 A 
ATOM     50  N   UNL A   1      39.476  30.510  31.384  1.00  0.00    -0.248 NA
ATOM     51  C   UNL A   1      37.993  30.652  29.590  1.00  0.00     0.031 C 
ATOM     52  C   UNL A   1      37.180  33.695  33.521  1.00  0.00     0.029 A 
ATOM     53  N   UNL A   1      38.928  32.305  33.637  1.00  0.00    -0.354 N 
ATOM     54  C   UNL A   1      39.794  29.534  30.446  1.00  0.00     0.074 A 
ATOM     55  C   UNL A   1      38.808  29.628  29.392  1.00  0.00     0.031 C 
ATOM     56  C   UNL A   1      37.757  33.872  34.720  1.00  0.00     0.029 A 
ATOM     57  C   UNL A   1      38.898  32.971  34.840  1.00  0.00     0.049 A 
ATOM     58  H   UNL A   1      39.603  31.624  33.414  1.00  0.00     0.167 HD
ATOM     59  C   UNL A   1      40.829  28.660  30.442  1.00  0.00     0.034 A 
ATOM     60  C   UNL A   1      39.702  32.870  35.915  1.00  0.00     0.034 A 
ATOM     61  C   UNL A   1      41.828  28.593  31.475  1.00  0.00     0.049 A 
ATOM     62  C   UNL A   1      40.878  31.930  35.863  1.00  0.00     0.074 A 
ATOM     63  C   UNL A   1      42.959  27.799  31.529  1.00  0.00     0.029 A 
ATOM     64  N   UNL A   1      41.812  29.343  32.641  1.00  0.00    -0.354 N 
ATOM     65  N   UNL A   1      41.251  31.127  34.897  1.00  0.00    -0.248 NA
ATOM     66  C   UNL A   1      41.769  31.920  37.031  1.00  0.00     0.031 C 
ATOM     67  C   UNL A   1      43.611  28.047  32.740  1.00  0.00     0.029 A 
ATOM     68  C   UNL A   1      42.910  29.028  33.423  1.00  0.00     0.049 A 
ATOM     69  H   UNL A   1      41.120  30.003  32.878  1.00  0.00     0.167 HD
ATOM     70  C   UNL A   1      42.444  30.552  35.319  1.00  0.00     0.074 A 
ATOM     71  C   UNL A   1      42.739  31.116  36.620  1.00  0.00     0.031 C 
ATOM     72  C   UNL A   1      43.221  29.634  34.692  1.00  0.00     0.034 A 
BRANCH  59  73
ATOM     73  C   UNL A   1      40.959  27.735  29.259  1.00  0.00     0.023 A 
ATOM     74  C   UNL A   1      40.236  26.523  29.234  1.00  0.00     0.012 A 
ATOM     75  C   UNL A   1      41.752  28.085  28.148  1.00  0.00     0.148 A 
ATOM     76  C   UNL A   1      40.331  25.658  28.145  1.00  0.00     0.002 A 
ATOM     77  C   UNL A   1      41.802  27.242  27.044  1.00  0.00     0.091 A 
ATOM     78  F   UNL A   1      42.448  29.230  28.195  1.00  0.00    -0.205 F 
ATOM     79  C   UNL A   1      41.105  26.023  27.046  1.00  0.00     0.022 A 
BRANCH  77  80
ATOM     80  S   UNL A   1      42.700  27.658  25.545  1.00  0.00     0.127 S 
ATOM     81  O   UNL A   1      44.067  27.785  26.045  1.00  0.00    -0.237 OA
ATOM     82  O   UNL A   1      42.464  26.480  24.710  1.00  0.00    -0.237 OA
ATOM     83  O   UNL A   1      42.101  28.888  25.045  1.00  0.00    -0.744 OA
ENDBRANCH  77  80
ENDBRANCH  59  73
BRANCH  60  84
ATOM     84  C   UNL A   1      39.469  33.736  37.105  1.00  0.00     0.023 A 
ATOM     85  C   UNL A   1      39.915  35.073  37.091  1.00  0.00     0.012 A 
ATOM     86  C   UNL A   1      38.797  33.249  38.242  1.00  0.00     0.148 A 
ATOM     87  C   UNL A   1      39.732  35.896  38.203  1.00  0.00     0.002 A 
ATOM     88  C   UNL A   1      38.566  34.091  39.323  1.00  0.00     0.091 A 
ATOM     89  F   UNL A   1      38.387  31.973  38.238  1.00  0.00    -0.205 F 
ATOM     90  C   UNL A   1      39.050  35.409  39.314  1.00  0.00     0.022 A 
BRANCH  88  91
ATOM     91  S   UNL A   1      37.582  33.591  40.739  1.00  0.00     0.127 S 
ATOM     92  O   UNL A   1      37.318  34.874  41.388  1.00  0.00    -0.237 OA
ATOM     93  O   UNL A   1      36.421  32.975  40.096  1.00  0.00    -0.237 OA
ATOM     94  O   UNL A   1      38.415  32.662  41.490  1.00  0.00    -0.744 OA
ENDBRANCH  88  91
ENDBRANCH  60  84
BRANCH  72  95
ATOM     95  C   UNL A   1      44.501  29.222  35.374  1.00  0.00     0.023 A 
ATOM     96  C   UNL A   1      45.710  29.881  35.076  1.00  0.00     0.012 A 
ATOM     97  C   UNL A   1      44.491  28.204  36.348  1.00  0.00     0.148 A 
ATOM     98  C   UNL A   1      46.898  29.498  35.697  1.00  0.00     0.002 A 
ATOM     99  C   UNL A   1      45.669  27.866  37.003  1.00  0.00     0.091 A 
ATOM    100  F   UNL A   1      43.337  27.574  36.606  1.00  0.00    -0.205 F 
ATOM    101  C   UNL A   1      46.876  28.500  36.668  1.00  0.00     0.022 A 
BRANCH  99 102
ATOM    102  S   UNL A   1      45.710  26.663  38.337  1.00  0.00     0.127 S 
ATOM    103  O   UNL A   1      44.720  27.211  39.263  1.00  0.00    -0.237 OA
ATOM    104  O   UNL A   1      45.297  25.433  37.661  1.00  0.00    -0.237 OA
ATOM    105  O   UNL A   1      47.083  26.651  38.821  1.00  0.00    -0.744 OA
ENDBRANCH  99 102
ENDBRANCH  72  95
ENDBRANCH  46  47
ENDBRANCH  38  41
ENDBRANCH  36  37
ENDBRANCH  35  36
ENDBRANCH   1  35
TORSDOF 18
ENDMDL
MODEL 3
REMARK VINA RESULT:     -12.2      1.595      2.210
REMARK SMILES COc1cccc(C(=O)Nc2ccc(NC(=O)[C@@H]3[C@@H](C(=O)NCCCNC(=O)c4ccc(-c5c6nc(c(-c7cccc(S(=O)(=O)[O-])c7F)c7ccc([nH]7)c(-c7cccc(S(=O)(=O)[O-])c7F)c7nc(c(-c8cccc(S(=O)(=O)[O-])c8F)c8ccc5[nH]8)C=C7)C=C6)cc4)[C@@H]4C=C[C@H]3C4)cc2)c1
REMARK SMILES IDX 23 1 22 2 20 3 21 4 19 6 18 7 95 8 92 9 94 10 96 11 93 12
REMARK SMILES IDX 16 13 15 14 17 16 14 17 11 18 12 19 98 20 13 21 97 22 10 23
REMARK SMILES IDX 8 24 9 25 7 27 3 28 4 29 99 30 5 31 6 32 2 33 1 34 24 35
REMARK SMILES IDX 25 36 26 37 27 38 28 40 29 41 30 42 91 43 31 44 90 45 32 46
REMARK SMILES IDX 33 47 34 48 84 49 35 50 89 51 83 52 85 53 36 54 88 55 82 56
REMARK SMILES IDX 81 57 37 59 69 60 49 61 68 62 50 63 53 64 67 65 86 66 51 67
REMARK SMILES IDX 52 68 66 70 87 71 54 72 38 73 39 74 47 75 40 76 42 77 48 78
REMARK SMILES IDX 41 79 43 80 44 81 45 82 46 83 70 84 71 85 79 86 72 87 74 88
REMARK SMILES IDX 80 89 73 90 75 91 76 92 77 93 78 94 55 95 56 96 64 97 57 98
REMARK SMILES IDX 59 99 65 100 58 101 60 102 61 103 62 104 63 105
REMARK H PARENT 22 5 15 15 10 26 26 39 85 58 53 69
REMARK Flexibility Score: inf
ROOT
ATOM      1  C   UNL A   1      32.315  29.493  25.858  1.00  0.00     0.117 C 
ENDROOT
BRANCH   1   2
ATOM      2  N   UNL A   1      32.402  29.546  24.409  1.00  0.00    -0.356 N 
ATOM      3  C   UNL A   1      31.481  29.210  23.465  1.00  0.00     0.224 C 
ATOM      4  O   UNL A   1      31.889  28.995  22.325  1.00  0.00    -0.275 OA
ATOM      5  H   UNL A   1      33.259  29.876  24.055  1.00  0.00     0.163 HD
BRANCH   3   6
ATOM      6  C   UNL A   1      30.003  29.295  23.814  1.00  0.00     0.098 C 
ATOM      7  C   UNL A   1      29.114  28.276  23.053  1.00  0.00     0.099 C 
ATOM      8  C   UNL A   1      28.140  29.176  22.243  1.00  0.00     0.025 C 
ATOM      9  C   UNL A   1      29.515  30.658  23.228  1.00  0.00     0.025 C 
ATOM     10  C   UNL A   1      27.298  30.087  23.098  1.00  0.00    -0.027 C 
ATOM     11  C   UNL A   1      29.129  30.268  21.788  1.00  0.00     0.017 C 
ATOM     12  C   UNL A   1      28.119  30.962  23.701  1.00  0.00    -0.027 C 
BRANCH   7  13
ATOM     13  C   UNL A   1      28.648  27.018  23.805  1.00  0.00     0.228 C 
ATOM     14  N   UNL A   1      29.396  26.105  24.477  1.00  0.00    -0.326 N 
ATOM     15  H   UNL A   1      28.866  25.569  25.110  1.00  0.00     0.169 HD
ATOM     16  O   UNL A   1      27.423  26.821  23.880  1.00  0.00    -0.274 OA
BRANCH  14  17
ATOM     17  C   UNL A   1      30.745  25.757  24.471  1.00  0.00     0.041 A 
ATOM     18  C   UNL A   1      33.375  24.833  24.375  1.00  0.00     0.041 A 
ATOM     19  C   UNL A   1      32.754  25.049  25.599  1.00  0.00     0.028 A 
ATOM     20  C   UNL A   1      32.717  25.145  23.190  1.00  0.00     0.028 A 
ATOM     21  C   UNL A   1      31.473  25.584  25.635  1.00  0.00     0.028 A 
ATOM     22  C   UNL A   1      31.402  25.627  23.241  1.00  0.00     0.028 A 
BRANCH  18  23
ATOM     23  N   UNL A   1      34.659  24.289  24.371  1.00  0.00    -0.322 N 
ATOM     24  C   UNL A   1      35.027  23.066  23.843  1.00  0.00     0.255 C 
ATOM     25  O   UNL A   1      36.182  22.895  23.456  1.00  0.00    -0.269 OA
ATOM     26  H   UNL A   1      35.372  24.828  24.784  1.00  0.00     0.170 HD
BRANCH  24  27
ATOM     27  C   UNL A   1      34.095  21.905  23.929  1.00  0.00     0.043 A 
ATOM     28  C   UNL A   1      33.508  19.654  24.631  1.00  0.00     0.119 A 
ATOM     29  C   UNL A   1      32.446  19.667  23.729  1.00  0.00     0.046 A 
ATOM     30  C   UNL A   1      34.289  20.799  24.765  1.00  0.00     0.060 A 
ATOM     31  C   UNL A   1      32.170  20.806  22.969  1.00  0.00     0.005 A 
ATOM     32  C   UNL A   1      33.000  21.920  23.061  1.00  0.00     0.014 A 
BRANCH  28  33
ATOM     33  O   UNL A   1      33.694  18.478  25.301  1.00  0.00    -0.497 OA
ATOM     34  C   UNL A   1      32.573  17.610  25.442  1.00  0.00     0.278 C 
ENDBRANCH  28  33
ENDBRANCH  24  27
ENDBRANCH  18  23
ENDBRANCH  14  17
ENDBRANCH   7  13
ENDBRANCH   3   6
ENDBRANCH   1   2
BRANCH   1  35
ATOM     35  C   UNL A   1      32.092  30.892  26.429  1.00  0.00     0.042 C 
BRANCH  35  36
ATOM     36  C   UNL A   1      33.117  31.297  27.484  1.00  0.00     0.118 C 
BRANCH  36  37
ATOM     37  N   UNL A   1      33.330  32.736  27.531  1.00  0.00    -0.352 N 
ATOM     38  C   UNL A   1      34.318  33.452  28.154  1.00  0.00     0.251 C 
ATOM     39  H   UNL A   1      32.667  33.275  27.043  1.00  0.00     0.163 HD
ATOM     40  O   UNL A   1      34.211  34.679  28.230  1.00  0.00    -0.269 OA
BRANCH  38  41
ATOM     41  C   UNL A   1      35.493  32.772  28.738  1.00  0.00     0.039 A 
ATOM     42  C   UNL A   1      36.767  33.264  28.443  1.00  0.00     0.014 A 
ATOM     43  C   UNL A   1      35.354  31.634  29.539  1.00  0.00     0.014 A 
ATOM     44  C   UNL A   1      37.894  32.633  28.971  1.00  0.00     0.010 A 
ATOM     45  C   UNL A   1      36.474  31.061  30.137  1.00  0.00     0.010 A 
ATOM     46  C   UNL A   1      37.759  31.536  29.838  1.00  0.00    -0.014 A 
BRANCH  46  47
ATOM     47  C   UNL A   1      38.956  30.867  30.408  1.00  0.00     0.031 A 
ATOM     48  C   UNL A   1      39.499  31.285  31.751  1.00  0.00     0.074 A 
ATOM     49  C   UNL A   1      39.583  29.908  29.699  1.00  0.00     0.049 A 
ATOM     50  N   UNL A   1      40.513  30.796  32.417  1.00  0.00    -0.248 NA
ATOM     51  C   UNL A   1      38.831  32.412  32.424  1.00  0.00     0.031 C 
ATOM     52  C   UNL A   1      39.211  29.472  28.351  1.00  0.00     0.029 A 
ATOM     53  N   UNL A   1      40.674  29.134  30.007  1.00  0.00    -0.354 N 
ATOM     54  C   UNL A   1      40.625  31.573  33.566  1.00  0.00     0.074 A 
ATOM     55  C   UNL A   1      39.602  32.592  33.485  1.00  0.00     0.031 C 
ATOM     56  C   UNL A   1      40.046  28.497  27.958  1.00  0.00     0.029 A 
ATOM     57  C   UNL A   1      41.027  28.255  29.011  1.00  0.00     0.049 A 
ATOM     58  H   UNL A   1      41.158  29.201  30.863  1.00  0.00     0.167 HD
ATOM     59  C   UNL A   1      41.478  31.433  34.609  1.00  0.00     0.034 A 
ATOM     60  C   UNL A   1      42.025  27.353  28.953  1.00  0.00     0.034 A 
ATOM     61  C   UNL A   1      42.471  30.397  34.702  1.00  0.00     0.049 A 
ATOM     62  C   UNL A   1      42.925  27.180  30.148  1.00  0.00     0.074 A 
ATOM     63  C   UNL A   1      43.331  30.121  35.750  1.00  0.00     0.029 A 
ATOM     64  N   UNL A   1      42.743  29.471  33.707  1.00  0.00    -0.354 N 
ATOM     65  N   UNL A   1      42.912  27.823  31.291  1.00  0.00    -0.248 NA
ATOM     66  C   UNL A   1      43.944  26.126  30.062  1.00  0.00     0.031 C 
ATOM     67  C   UNL A   1      44.143  29.045  35.377  1.00  0.00     0.029 A 
ATOM     68  C   UNL A   1      43.760  28.624  34.113  1.00  0.00     0.049 A 
ATOM     69  H   UNL A   1      42.281  29.422  32.839  1.00  0.00     0.167 HD
ATOM     70  C   UNL A   1      43.887  27.220  32.077  1.00  0.00     0.074 A 
ATOM     71  C   UNL A   1      44.456  26.149  31.285  1.00  0.00     0.031 C 
ATOM     72  C   UNL A   1      44.283  27.530  33.337  1.00  0.00     0.034 A 
BRANCH  59  73
ATOM     73  C   UNL A   1      41.342  32.401  35.758  1.00  0.00     0.023 A 
ATOM     74  C   UNL A   1      42.294  33.430  35.922  1.00  0.00     0.012 A 
ATOM     75  C   UNL A   1      40.247  32.328  36.641  1.00  0.00     0.148 A 
ATOM     76  C   UNL A   1      42.181  34.344  36.970  1.00  0.00     0.002 A 
ATOM     77  C   UNL A   1      40.115  33.274  37.652  1.00  0.00     0.091 A 
ATOM     78  F   UNL A   1      39.362  31.334  36.483  1.00  0.00    -0.205 F 
ATOM     79  C   UNL A   1      41.087  34.272  37.827  1.00  0.00     0.022 A 
BRANCH  77  80
ATOM     80  S   UNL A   1      38.698  33.322  38.756  1.00  0.00     0.127 S 
ATOM     81  O   UNL A   1      38.872  32.083  39.513  1.00  0.00    -0.237 OA
ATOM     82  O   UNL A   1      38.948  34.543  39.522  1.00  0.00    -0.237 OA
ATOM     83  O   UNL A   1      37.521  33.370  37.899  1.00  0.00    -0.744 OA
ENDBRANCH  77  80
ENDBRANCH  59  73
BRANCH  60  84
ATOM     84  C   UNL A   1      42.181  26.488  27.749  1.00  0.00     0.023 A 
ATOM     85  C   UNL A   1      42.820  26.999  26.601  1.00  0.00     0.012 A 
ATOM     86  C   UNL A   1      41.714  25.159  27.740  1.00  0.00     0.148 A 
ATOM     87  C   UNL A   1      42.954  26.218  25.454  1.00  0.00     0.002 A 
ATOM     88  C   UNL A   1      41.904  24.367  26.614  1.00  0.00     0.091 A 
ATOM     89  F   UNL A   1      41.104  24.694  28.839  1.00  0.00    -0.205 F 
ATOM     90  C   UNL A   1      42.505  24.900  25.462  1.00  0.00     0.022 A 
BRANCH  88  91
ATOM     91  S   UNL A   1      41.478  22.623  26.581  1.00  0.00     0.127 S 
ATOM     92  O   UNL A   1      42.127  22.181  25.349  1.00  0.00    -0.237 OA
ATOM     93  O   UNL A   1      42.102  22.139  27.813  1.00  0.00    -0.237 OA
ATOM     94  O   UNL A   1      40.023  22.572  26.585  1.00  0.00    -0.744 OA
ENDBRANCH  88  91
ENDBRANCH  60  84
BRANCH  72  95
ATOM     95  C   UNL A   1      45.343  26.662  33.967  1.00  0.00     0.023 A 
ATOM     96  C   UNL A   1      46.707  26.972  33.801  1.00  0.00     0.012 A 
ATOM     97  C   UNL A   1      44.977  25.558  34.762  1.00  0.00     0.148 A 
ATOM     98  C   UNL A   1      47.691  26.167  34.373  1.00  0.00     0.002 A 
ATOM     99  C   UNL A   1      45.963  24.793  35.375  1.00  0.00     0.091 A 
ATOM    100  F   UNL A   1      43.676  25.265  34.894  1.00  0.00    -0.205 F 
ATOM    101  C   UNL A   1      47.320  25.086  35.168  1.00  0.00     0.022 A 
BRANCH  99 102
ATOM    102  S   UNL A   1      45.568  23.447  36.497  1.00  0.00     0.127 S 
ATOM    103  O   UNL A   1      46.896  22.925  36.815  1.00  0.00    -0.237 OA
ATOM    104  O   UNL A   1      44.907  24.144  37.601  1.00  0.00    -0.237 OA
ATOM    105  O   UNL A   1      44.700  22.547  35.750  1.00  0.00    -0.744 OA
ENDBRANCH  99 102
ENDBRANCH  72  95
ENDBRANCH  46  47
ENDBRANCH  38  41
ENDBRANCH  36  37
ENDBRANCH  35  36
ENDBRANCH   1  35
TORSDOF 18
ENDMDL
