MODEL 1
REMARK VINA RESULT:     -11.5      0.000      0.000
REMARK SMILES CC(C)C[C@H](CNC(=O)c1cc(F)ccc1Br)C(=O)NCCCNC(=O)c1ccc(-c2c3nc(c(-c4cccc(S(=O)(=O)[O-])c4F)c4ccc([nH]4)c(-c4cccc(S(=O)(=O)[O-])c4F)c4nc(c(-c5cccc(S(=O)(=O)[O-])c5F)c5ccc2[nH]5)C=C4)C=C3)cc1
REMARK SMILES IDX 22 1 21 2 20 3 18 4 19 5 5 7 4 8 2 9 1 10 3 11 6 12 7 13
REMARK SMILES IDX 8 14 9 16 10 17 11 18 16 19 12 20 15 21 17 22 13 23 14 24
REMARK SMILES IDX 23 25 24 26 25 27 26 29 27 30 28 31 89 32 29 33 88 34 30 35
REMARK SMILES IDX 31 36 32 37 82 38 33 39 87 40 81 41 83 42 34 43 86 44 80 45
REMARK SMILES IDX 79 46 35 48 67 49 47 50 66 51 48 52 51 53 65 54 84 55 49 56
REMARK SMILES IDX 50 57 64 59 85 60 52 61 36 62 37 63 45 64 38 65 40 66 46 67
REMARK SMILES IDX 39 68 41 69 42 70 43 71 44 72 68 73 69 74 77 75 70 76 72 77
REMARK SMILES IDX 78 78 71 79 73 80 74 81 75 82 76 83 53 84 54 85 62 86 55 87
REMARK SMILES IDX 57 88 63 89 56 90 58 91 59 92 60 93 61 94
REMARK H PARENT 20 6 7 15 24 28 83 47 51 58
REMARK Flexibility Score: inf
ROOT
ATOM      1  C   UNL A   1      32.211  29.129  27.109  1.00  0.00     0.042 C 
ENDROOT
BRANCH   1   2
ATOM      2  C   UNL A   1      32.410  27.635  26.884  1.00  0.00     0.117 C 
BRANCH   2   3
ATOM      3  N   UNL A   1      31.180  26.872  27.032  1.00  0.00    -0.356 N 
ATOM      4  C   UNL A   1      30.602  25.924  26.242  1.00  0.00     0.224 C 
ATOM      5  O   UNL A   1      29.534  25.439  26.622  1.00  0.00    -0.275 OA
ATOM      6  H   UNL A   1      30.672  27.079  27.850  1.00  0.00     0.163 HD
BRANCH   4   7
ATOM      7  C   UNL A   1      31.240  25.452  24.940  1.00  0.00     0.098 C 
BRANCH   7   8
ATOM      8  C   UNL A   1      30.449  25.919  23.699  1.00  0.00     0.018 C 
BRANCH   8   9
ATOM      9  C   UNL A   1      30.098  27.425  23.703  1.00  0.00    -0.017 C 
ATOM     10  C   UNL A   1      30.950  28.208  22.702  1.00  0.00     0.007 C 
ATOM     11  C   UNL A   1      28.614  27.610  23.373  1.00  0.00     0.007 C 
ENDBRANCH   8   9
ENDBRANCH   7   8
BRANCH   7  12
ATOM     12  C   UNL A   1      31.555  23.951  25.045  1.00  0.00     0.129 C 
BRANCH  12  13
ATOM     13  N   UNL A   1      31.733  23.465  26.404  1.00  0.00    -0.351 N 
ATOM     14  C   UNL A   1      32.787  22.802  26.973  1.00  0.00     0.252 C 
ATOM     15  H   UNL A   1      30.978  23.641  27.010  1.00  0.00     0.163 HD
ATOM     16  O   UNL A   1      32.730  22.450  28.149  1.00  0.00    -0.269 OA
BRANCH  14  17
ATOM     17  C   UNL A   1      34.003  22.536  26.186  1.00  0.00     0.056 A 
ATOM     18  C   UNL A   1      35.046  23.471  26.241  1.00  0.00     0.054 A 
ATOM     19  C   UNL A   1      34.159  21.352  25.453  1.00  0.00     0.030 A 
ATOM     20  C   UNL A   1      36.215  23.230  25.531  1.00  0.00     0.124 A 
ATOM     21  C   UNL A   1      35.353  21.117  24.759  1.00  0.00     0.019 A 
ATOM     22  Br  UNL A   1      32.792  20.043  25.307  1.00  0.00    -0.050 Br
ATOM     23  F   UNL A   1      37.199  24.136  25.554  1.00  0.00    -0.207 F 
ATOM     24  C   UNL A   1      36.379  22.063  24.793  1.00  0.00     0.040 A 
ENDBRANCH  14  17
ENDBRANCH  12  13
ENDBRANCH   7  12
ENDBRANCH   4   7
ENDBRANCH   2   3
ENDBRANCH   1   2
BRANCH   1  25
ATOM     25  C   UNL A   1      33.189  30.022  26.359  1.00  0.00     0.118 C 
BRANCH  25  26
ATOM     26  N   UNL A   1      33.097  31.417  26.763  1.00  0.00    -0.352 N 
ATOM     27  C   UNL A   1      33.850  32.139  27.653  1.00  0.00     0.251 C 
ATOM     28  H   UNL A   1      32.376  31.925  26.326  1.00  0.00     0.163 HD
ATOM     29  O   UNL A   1      33.463  33.260  27.980  1.00  0.00    -0.269 OA
BRANCH  27  30
ATOM     30  C   UNL A   1      35.106  31.597  28.225  1.00  0.00     0.039 A 
ATOM     31  C   UNL A   1      35.080  30.330  28.816  1.00  0.00     0.014 A 
ATOM     32  C   UNL A   1      36.286  32.345  28.249  1.00  0.00     0.014 A 
ATOM     33  C   UNL A   1      36.238  29.805  29.398  1.00  0.00     0.010 A 
ATOM     34  C   UNL A   1      37.460  31.785  28.748  1.00  0.00     0.010 A 
ATOM     35  C   UNL A   1      37.443  30.524  29.358  1.00  0.00    -0.014 A 
BRANCH  35  36
ATOM     36  C   UNL A   1      38.677  29.992  29.994  1.00  0.00     0.031 A 
ATOM     37  C   UNL A   1      39.104  30.490  31.350  1.00  0.00     0.074 A 
ATOM     38  C   UNL A   1      39.446  29.108  29.329  1.00  0.00     0.049 A 
ATOM     39  N   UNL A   1      40.151  30.156  32.061  1.00  0.00    -0.248 NA
ATOM     40  C   UNL A   1      38.264  31.524  31.980  1.00  0.00     0.031 C 
ATOM     41  C   UNL A   1      39.195  28.617  27.973  1.00  0.00     0.029 A 
ATOM     42  N   UNL A   1      40.607  28.477  29.701  1.00  0.00    -0.354 N 
ATOM     43  C   UNL A   1      40.119  30.963  33.192  1.00  0.00     0.074 A 
ATOM     44  C   UNL A   1      38.971  31.832  33.058  1.00  0.00     0.031 C 
ATOM     45  C   UNL A   1      40.166  27.753  27.631  1.00  0.00     0.029 A 
ATOM     46  C   UNL A   1      41.112  27.635  28.736  1.00  0.00     0.049 A 
ATOM     47  H   UNL A   1      41.039  28.614  30.575  1.00  0.00     0.167 HD
ATOM     48  C   UNL A   1      40.942  30.957  34.267  1.00  0.00     0.034 A 
ATOM     49  C   UNL A   1      42.203  26.845  28.751  1.00  0.00     0.034 A 
ATOM     50  C   UNL A   1      42.038  30.041  34.433  1.00  0.00     0.049 A 
ATOM     51  C   UNL A   1      43.039  26.777  30.000  1.00  0.00     0.074 A 
ATOM     52  C   UNL A   1      42.880  29.892  35.521  1.00  0.00     0.029 A 
ATOM     53  N   UNL A   1      42.435  29.109  33.489  1.00  0.00    -0.354 N 
ATOM     54  N   UNL A   1      42.893  27.429  31.128  1.00  0.00    -0.248 NA
ATOM     55  C   UNL A   1      44.159  25.824  30.001  1.00  0.00     0.031 C 
ATOM     56  C   UNL A   1      43.785  28.864  35.234  1.00  0.00     0.029 A 
ATOM     57  C   UNL A   1      43.502  28.371  33.972  1.00  0.00     0.049 A 
ATOM     58  H   UNL A   1      42.019  28.989  32.604  1.00  0.00     0.167 HD
ATOM     59  C   UNL A   1      43.871  26.938  31.984  1.00  0.00     0.074 A 
ATOM     60  C   UNL A   1      44.593  25.918  31.250  1.00  0.00     0.031 C 
ATOM     61  C   UNL A   1      44.160  27.309  33.256  1.00  0.00     0.034 A 
BRANCH  48  62
ATOM     62  C   UNL A   1      40.637  31.919  35.385  1.00  0.00     0.023 A 
ATOM     63  C   UNL A   1      41.484  33.029  35.589  1.00  0.00     0.012 A 
ATOM     64  C   UNL A   1      39.500  31.760  36.201  1.00  0.00     0.148 A 
ATOM     65  C   UNL A   1      41.225  33.943  36.609  1.00  0.00     0.002 A 
ATOM     66  C   UNL A   1      39.226  32.698  37.190  1.00  0.00     0.091 A 
ATOM     67  F   UNL A   1      38.719  30.687  36.010  1.00  0.00    -0.205 F 
ATOM     68  C   UNL A   1      40.093  33.784  37.402  1.00  0.00     0.022 A 
BRANCH  66  69
ATOM     69  S   UNL A   1      37.751  32.620  38.212  1.00  0.00     0.127 S 
ATOM     70  O   UNL A   1      36.702  32.926  37.241  1.00  0.00    -0.237 OA
ATOM     71  O   UNL A   1      37.767  31.232  38.676  1.00  0.00    -0.237 OA
ATOM     72  O   UNL A   1      37.944  33.609  39.264  1.00  0.00    -0.744 OA
ENDBRANCH  66  69
ENDBRANCH  48  62
BRANCH  49  73
ATOM     73  C   UNL A   1      42.498  25.969  27.582  1.00  0.00     0.023 A 
ATOM     74  C   UNL A   1      43.300  26.468  26.537  1.00  0.00     0.012 A 
ATOM     75  C   UNL A   1      42.029  24.644  27.515  1.00  0.00     0.148 A 
ATOM     76  C   UNL A   1      43.603  25.675  25.430  1.00  0.00     0.002 A 
ATOM     77  C   UNL A   1      42.378  23.841  26.433  1.00  0.00     0.091 A 
ATOM     78  F   UNL A   1      41.257  24.190  28.512  1.00  0.00    -0.205 F 
ATOM     79  C   UNL A   1      43.151  24.359  25.383  1.00  0.00     0.022 A 
BRANCH  77  80
ATOM     80  S   UNL A   1      41.948  22.098  26.360  1.00  0.00     0.127 S 
ATOM     81  O   UNL A   1      40.499  22.154  26.185  1.00  0.00    -0.237 OA
ATOM     82  O   UNL A   1      42.693  21.647  25.184  1.00  0.00    -0.237 OA
ATOM     83  O   UNL A   1      42.419  21.532  27.617  1.00  0.00    -0.744 OA
ENDBRANCH  77  80
ENDBRANCH  49  73
BRANCH  61  84
ATOM     84  C   UNL A   1      45.276  26.584  33.958  1.00  0.00     0.023 A 
ATOM     85  C   UNL A   1      46.599  27.053  33.835  1.00  0.00     0.012 A 
ATOM     86  C   UNL A   1      45.006  25.483  34.795  1.00  0.00     0.148 A 
ATOM     87  C   UNL A   1      47.640  26.417  34.509  1.00  0.00     0.002 A 
ATOM     88  C   UNL A   1      46.044  24.882  35.498  1.00  0.00     0.091 A 
ATOM     89  F   UNL A   1      43.745  25.036  34.881  1.00  0.00    -0.205 F 
ATOM     90  C   UNL A   1      47.363  25.340  35.349  1.00  0.00     0.022 A 
BRANCH  88  91
ATOM     91  S   UNL A   1      45.744  23.551  36.666  1.00  0.00     0.127 S 
ATOM     92  O   UNL A   1      44.890  24.204  37.655  1.00  0.00    -0.237 OA
ATOM     93  O   UNL A   1      45.066  22.550  35.842  1.00  0.00    -0.237 OA
ATOM     94  O   UNL A   1      47.063  23.143  37.136  1.00  0.00    -0.744 OA
ENDBRANCH  88  91
ENDBRANCH  61  84
ENDBRANCH  35  36
ENDBRANCH  27  30
ENDBRANCH  25  26
ENDBRANCH   1  25
TORSDOF 18
ENDMDL
MODEL 2
REMARK VINA RESULT:     -11.4      5.068     10.038
REMARK SMILES CC(C)C[C@H](CNC(=O)c1cc(F)ccc1Br)C(=O)NCCCNC(=O)c1ccc(-c2c3nc(c(-c4cccc(S(=O)(=O)[O-])c4F)c4ccc([nH]4)c(-c4cccc(S(=O)(=O)[O-])c4F)c4nc(c(-c5cccc(S(=O)(=O)[O-])c5F)c5ccc2[nH]5)C=C4)C=C3)cc1
REMARK SMILES IDX 22 1 21 2 20 3 18 4 19 5 5 7 4 8 2 9 1 10 3 11 6 12 7 13
REMARK SMILES IDX 8 14 9 16 10 17 11 18 16 19 12 20 15 21 17 22 13 23 14 24
REMARK SMILES IDX 23 25 24 26 25 27 26 29 27 30 28 31 89 32 29 33 88 34 30 35
REMARK SMILES IDX 31 36 32 37 82 38 33 39 87 40 81 41 83 42 34 43 86 44 80 45
REMARK SMILES IDX 79 46 35 48 67 49 47 50 66 51 48 52 51 53 65 54 84 55 49 56
REMARK SMILES IDX 50 57 64 59 85 60 52 61 36 62 37 63 45 64 38 65 40 66 46 67
REMARK SMILES IDX 39 68 41 69 42 70 43 71 44 72 68 73 69 74 77 75 70 76 72 77
REMARK SMILES IDX 78 78 71 79 73 80 74 81 75 82 76 83 53 84 54 85 62 86 55 87
REMARK SMILES IDX 57 88 63 89 56 90 58 91 59 92 60 93 61 94
REMARK H PARENT 20 6 7 15 24 28 83 47 51 58
REMARK Flexibility Score: inf
ROOT
ATOM      1  C   UNL A   1      35.306  21.979  26.497  1.00  0.00     0.042 C 
ENDROOT
BRANCH   1   2
ATOM      2  C   UNL A   1      33.926  21.502  26.056  1.00  0.00     0.117 C 
BRANCH   2   3
ATOM      3  N   UNL A   1      32.851  22.054  26.866  1.00  0.00    -0.356 N 
ATOM      4  C   UNL A   1      31.961  23.056  26.627  1.00  0.00     0.224 C 
ATOM      5  O   UNL A   1      31.145  23.318  27.513  1.00  0.00    -0.275 OA
ATOM      6  H   UNL A   1      32.750  21.626  27.748  1.00  0.00     0.163 HD
BRANCH   4   7
ATOM      7  C   UNL A   1      31.943  23.831  25.313  1.00  0.00     0.098 C 
BRANCH   7   8
ATOM      8  C   UNL A   1      33.322  24.436  24.972  1.00  0.00     0.018 C 
BRANCH   8   9
ATOM      9  C   UNL A   1      33.758  24.226  23.504  1.00  0.00    -0.017 C 
ATOM     10  C   UNL A   1      32.999  23.072  22.846  1.00  0.00     0.007 C 
ATOM     11  C   UNL A   1      33.528  25.514  22.708  1.00  0.00     0.007 C 
ENDBRANCH   8   9
ENDBRANCH   7   8
BRANCH   7  12
ATOM     12  C   UNL A   1      30.738  24.786  25.306  1.00  0.00     0.129 C 
BRANCH  12  13
ATOM     13  N   UNL A   1      30.719  25.745  26.398  1.00  0.00    -0.351 N 
ATOM     14  C   UNL A   1      31.072  27.067  26.418  1.00  0.00     0.252 C 
ATOM     15  H   UNL A   1      30.402  25.387  27.259  1.00  0.00     0.163 HD
ATOM     16  O   UNL A   1      31.006  27.705  27.466  1.00  0.00    -0.269 OA
BRANCH  14  17
ATOM     17  C   UNL A   1      31.501  27.735  25.178  1.00  0.00     0.056 A 
ATOM     18  C   UNL A   1      30.569  27.869  24.140  1.00  0.00     0.054 A 
ATOM     19  C   UNL A   1      32.782  28.289  25.048  1.00  0.00     0.030 A 
ATOM     20  C   UNL A   1      30.941  28.521  22.972  1.00  0.00     0.124 A 
ATOM     21  C   UNL A   1      33.132  28.959  23.870  1.00  0.00     0.019 A 
ATOM     22  Br  UNL A   1      34.113  28.135  26.394  1.00  0.00    -0.050 Br
ATOM     23  F   UNL A   1      30.064  28.621  21.966  1.00  0.00    -0.207 F 
ATOM     24  C   UNL A   1      32.211  29.068  22.827  1.00  0.00     0.040 A 
ENDBRANCH  14  17
ENDBRANCH  12  13
ENDBRANCH   7  12
ENDBRANCH   4   7
ENDBRANCH   2   3
ENDBRANCH   1   2
BRANCH   1  25
ATOM     25  C   UNL A   1      36.359  21.982  25.398  1.00  0.00     0.118 C 
BRANCH  25  26
ATOM     26  N   UNL A   1      37.336  20.915  25.556  1.00  0.00    -0.352 N 
ATOM     27  C   UNL A   1      38.668  20.966  25.881  1.00  0.00     0.251 C 
ATOM     28  H   UNL A   1      36.983  20.009  25.403  1.00  0.00     0.163 HD
ATOM     29  O   UNL A   1      39.342  19.944  25.765  1.00  0.00    -0.269 OA
BRANCH  27  30
ATOM     30  C   UNL A   1      39.302  22.218  26.360  1.00  0.00     0.039 A 
ATOM     31  C   UNL A   1      38.718  23.440  26.011  1.00  0.00     0.014 A 
ATOM     32  C   UNL A   1      40.496  22.207  27.086  1.00  0.00     0.014 A 
ATOM     33  C   UNL A   1      39.311  24.640  26.414  1.00  0.00     0.010 A 
ATOM     34  C   UNL A   1      41.036  23.398  27.564  1.00  0.00     0.010 A 
ATOM     35  C   UNL A   1      40.470  24.629  27.207  1.00  0.00    -0.014 A 
BRANCH  35  36
ATOM     36  C   UNL A   1      41.128  25.896  27.624  1.00  0.00     0.031 A 
ATOM     37  C   UNL A   1      42.556  26.171  27.230  1.00  0.00     0.074 A 
ATOM     38  C   UNL A   1      40.465  26.770  28.406  1.00  0.00     0.049 A 
ATOM     39  N   UNL A   1      43.302  27.210  27.506  1.00  0.00    -0.248 NA
ATOM     40  C   UNL A   1      43.250  25.131  26.451  1.00  0.00     0.031 C 
ATOM     41  C   UNL A   1      39.113  26.578  28.934  1.00  0.00     0.029 A 
ATOM     42  N   UNL A   1      40.848  27.989  28.907  1.00  0.00    -0.354 N 
ATOM     43  C   UNL A   1      44.556  26.931  26.976  1.00  0.00     0.074 A 
ATOM     44  C   UNL A   1      44.485  25.609  26.395  1.00  0.00     0.031 C 
ATOM     45  C   UNL A   1      38.775  27.647  29.675  1.00  0.00     0.029 A 
ATOM     46  C   UNL A   1      39.886  28.594  29.683  1.00  0.00     0.049 A 
ATOM     47  H   UNL A   1      41.727  28.393  28.728  1.00  0.00     0.167 HD
ATOM     48  C   UNL A   1      45.659  27.716  26.936  1.00  0.00     0.034 A 
ATOM     49  C   UNL A   1      39.894  29.785  30.314  1.00  0.00     0.034 A 
ATOM     50  C   UNL A   1      45.707  29.059  27.448  1.00  0.00     0.049 A 
ATOM     51  C   UNL A   1      41.092  30.683  30.162  1.00  0.00     0.074 A 
ATOM     52  C   UNL A   1      46.745  29.971  27.380  1.00  0.00     0.029 A 
ATOM     53  N   UNL A   1      44.665  29.687  28.109  1.00  0.00    -0.354 N 
ATOM     54  N   UNL A   1      42.209  30.467  29.512  1.00  0.00    -0.248 NA
ATOM     55  C   UNL A   1      41.009  32.013  30.785  1.00  0.00     0.031 C 
ATOM     56  C   UNL A   1      46.328  31.154  28.000  1.00  0.00     0.029 A 
ATOM     57  C   UNL A   1      45.028  30.979  28.446  1.00  0.00     0.049 A 
ATOM     58  H   UNL A   1      43.793  29.274  28.310  1.00  0.00     0.167 HD
ATOM     59  C   UNL A   1      42.943  31.642  29.611  1.00  0.00     0.074 A 
ATOM     60  C   UNL A   1      42.134  32.576  30.367  1.00  0.00     0.031 C 
ATOM     61  C   UNL A   1      44.182  31.920  29.135  1.00  0.00     0.034 A 
BRANCH  48  62
ATOM     62  C   UNL A   1      46.881  27.169  26.244  1.00  0.00     0.023 A 
ATOM     63  C   UNL A   1      47.016  27.336  24.850  1.00  0.00     0.012 A 
ATOM     64  C   UNL A   1      47.910  26.535  26.966  1.00  0.00     0.148 A 
ATOM     65  C   UNL A   1      48.137  26.849  24.181  1.00  0.00     0.002 A 
ATOM     66  C   UNL A   1      49.045  26.089  26.297  1.00  0.00     0.091 A 
ATOM     67  F   UNL A   1      47.755  26.362  28.287  1.00  0.00    -0.205 F 
ATOM     68  C   UNL A   1      49.155  26.235  24.905  1.00  0.00     0.022 A 
BRANCH  66  69
ATOM     69  S   UNL A   1      50.442  25.353  27.154  1.00  0.00     0.127 S 
ATOM     70  O   UNL A   1      51.325  25.012  26.040  1.00  0.00    -0.237 OA
ATOM     71  O   UNL A   1      50.914  26.460  27.988  1.00  0.00    -0.237 OA
ATOM     72  O   UNL A   1      49.903  24.224  27.899  1.00  0.00    -0.744 OA
ENDBRANCH  66  69
ENDBRANCH  48  62
BRANCH  49  73
ATOM     73  C   UNL A   1      38.681  30.241  31.049  1.00  0.00     0.023 A 
ATOM     74  C   UNL A   1      38.572  29.968  32.427  1.00  0.00     0.012 A 
ATOM     75  C   UNL A   1      37.662  30.972  30.411  1.00  0.00     0.148 A 
ATOM     76  C   UNL A   1      37.454  30.385  33.149  1.00  0.00     0.002 A 
ATOM     77  C   UNL A   1      36.574  31.431  31.149  1.00  0.00     0.091 A 
ATOM     78  F   UNL A   1      37.776  31.212  29.097  1.00  0.00    -0.205 F 
ATOM     79  C   UNL A   1      36.461  31.125  32.513  1.00  0.00     0.022 A 
BRANCH  77  80
ATOM     80  S   UNL A   1      35.320  32.501  30.435  1.00  0.00     0.127 S 
ATOM     81  O   UNL A   1      34.341  32.579  31.516  1.00  0.00    -0.237 OA
ATOM     82  O   UNL A   1      36.071  33.734  30.194  1.00  0.00    -0.237 OA
ATOM     83  O   UNL A   1      34.881  31.825  29.222  1.00  0.00    -0.744 OA
ENDBRANCH  77  80
ENDBRANCH  49  73
BRANCH  61  84
ATOM     84  C   UNL A   1      44.731  33.300  29.377  1.00  0.00     0.023 A 
ATOM     85  C   UNL A   1      45.422  33.576  30.572  1.00  0.00     0.012 A 
ATOM     86  C   UNL A   1      44.622  34.301  28.392  1.00  0.00     0.148 A 
ATOM     87  C   UNL A   1      45.970  34.838  30.798  1.00  0.00     0.002 A 
ATOM     88  C   UNL A   1      45.209  35.543  28.606  1.00  0.00     0.091 A 
ATOM     89  F   UNL A   1      43.940  34.028  27.270  1.00  0.00    -0.205 F 
ATOM     90  C   UNL A   1      45.874  35.818  29.811  1.00  0.00     0.022 A 
BRANCH  88  91
ATOM     91  S   UNL A   1      45.203  36.819  27.341  1.00  0.00     0.127 S 
ATOM     92  O   UNL A   1      45.916  36.163  26.248  1.00  0.00    -0.237 OA
ATOM     93  O   UNL A   1      43.774  37.023  27.100  1.00  0.00    -0.237 OA
ATOM     94  O   UNL A   1      45.876  37.965  27.941  1.00  0.00    -0.744 OA
ENDBRANCH  88  91
ENDBRANCH  61  84
ENDBRANCH  35  36
ENDBRANCH  27  30
ENDBRANCH  25  26
ENDBRANCH   1  25
TORSDOF 18
ENDMDL
MODEL 3
REMARK VINA RESULT:     -11.4      1.882      2.469
REMARK SMILES CC(C)C[C@H](CNC(=O)c1cc(F)ccc1Br)C(=O)NCCCNC(=O)c1ccc(-c2c3nc(c(-c4cccc(S(=O)(=O)[O-])c4F)c4ccc([nH]4)c(-c4cccc(S(=O)(=O)[O-])c4F)c4nc(c(-c5cccc(S(=O)(=O)[O-])c5F)c5ccc2[nH]5)C=C4)C=C3)cc1
REMARK SMILES IDX 22 1 21 2 20 3 18 4 19 5 5 7 4 8 2 9 1 10 3 11 6 12 7 13
REMARK SMILES IDX 8 14 9 16 10 17 11 18 16 19 12 20 15 21 17 22 13 23 14 24
REMARK SMILES IDX 23 25 24 26 25 27 26 29 27 30 28 31 89 32 29 33 88 34 30 35
REMARK SMILES IDX 31 36 32 37 82 38 33 39 87 40 81 41 83 42 34 43 86 44 80 45
REMARK SMILES IDX 79 46 35 48 67 49 47 50 66 51 48 52 51 53 65 54 84 55 49 56
REMARK SMILES IDX 50 57 64 59 85 60 52 61 36 62 37 63 45 64 38 65 40 66 46 67
REMARK SMILES IDX 39 68 41 69 42 70 43 71 44 72 68 73 69 74 77 75 70 76 72 77
REMARK SMILES IDX 78 78 71 79 73 80 74 81 75 82 76 83 53 84 54 85 62 86 55 87
REMARK SMILES IDX 57 88 63 89 56 90 58 91 59 92 60 93 61 94
REMARK H PARENT 20 6 7 15 24 28 83 47 51 58
REMARK Flexibility Score: inf
ROOT
ATOM      1  C   UNL A   1      32.813  27.916  25.550  1.00  0.00     0.042 C 
ENDROOT
BRANCH   1   2
ATOM      2  C   UNL A   1      31.613  28.078  26.477  1.00  0.00     0.117 C 
BRANCH   2   3
ATOM      3  N   UNL A   1      30.958  26.814  26.780  1.00  0.00    -0.356 N 
ATOM      4  C   UNL A   1      30.307  25.920  25.986  1.00  0.00     0.224 C 
ATOM      5  O   UNL A   1      29.837  24.915  26.525  1.00  0.00    -0.275 OA
ATOM      6  H   UNL A   1      30.990  26.561  27.731  1.00  0.00     0.163 HD
BRANCH   4   7
ATOM      7  C   UNL A   1      30.164  26.121  24.481  1.00  0.00     0.098 C 
BRANCH   7   8
ATOM      8  C   UNL A   1      28.799  26.733  24.100  1.00  0.00     0.018 C 
BRANCH   8   9
ATOM      9  C   UNL A   1      28.880  27.833  23.017  1.00  0.00    -0.017 C 
ATOM     10  C   UNL A   1      27.626  28.711  23.006  1.00  0.00     0.007 C 
ATOM     11  C   UNL A   1      30.116  28.704  23.257  1.00  0.00     0.007 C 
ENDBRANCH   8   9
ENDBRANCH   7   8
BRANCH   7  12
ATOM     12  C   UNL A   1      30.580  24.831  23.755  1.00  0.00     0.129 C 
BRANCH  12  13
ATOM     13  N   UNL A   1      31.345  25.043  22.537  1.00  0.00    -0.351 N 
ATOM     14  C   UNL A   1      32.632  24.690  22.231  1.00  0.00     0.252 C 
ATOM     15  H   UNL A   1      30.862  25.513  21.820  1.00  0.00     0.163 HD
ATOM     16  O   UNL A   1      33.108  24.989  21.138  1.00  0.00    -0.269 OA
BRANCH  14  17
ATOM     17  C   UNL A   1      33.438  23.926  23.198  1.00  0.00     0.056 A 
ATOM     18  C   UNL A   1      34.353  24.626  23.998  1.00  0.00     0.054 A 
ATOM     19  C   UNL A   1      33.259  22.548  23.377  1.00  0.00     0.030 A 
ATOM     20  C   UNL A   1      35.104  23.933  24.938  1.00  0.00     0.124 A 
ATOM     21  C   UNL A   1      34.012  21.869  24.344  1.00  0.00     0.019 A 
ATOM     22  Br  UNL A   1      32.059  21.520  22.325  1.00  0.00    -0.050 Br
ATOM     23  F   UNL A   1      36.003  24.591  25.679  1.00  0.00    -0.207 F 
ATOM     24  C   UNL A   1      34.941  22.563  25.120  1.00  0.00     0.040 A 
ENDBRANCH  14  17
ENDBRANCH  12  13
ENDBRANCH   7  12
ENDBRANCH   4   7
ENDBRANCH   2   3
ENDBRANCH   1   2
BRANCH   1  25
ATOM     25  C   UNL A   1      34.087  28.593  26.033  1.00  0.00     0.118 C 
BRANCH  25  26
ATOM     26  N   UNL A   1      33.845  29.927  26.563  1.00  0.00    -0.352 N 
ATOM     27  C   UNL A   1      34.515  30.639  27.526  1.00  0.00     0.251 C 
ATOM     28  H   UNL A   1      33.076  30.394  26.167  1.00  0.00     0.163 HD
ATOM     29  O   UNL A   1      34.010  31.677  27.950  1.00  0.00    -0.269 OA
BRANCH  27  30
ATOM     30  C   UNL A   1      35.820  30.182  28.061  1.00  0.00     0.039 A 
ATOM     31  C   UNL A   1      36.968  30.382  27.288  1.00  0.00     0.014 A 
ATOM     32  C   UNL A   1      35.919  29.501  29.277  1.00  0.00     0.014 A 
ATOM     33  C   UNL A   1      38.209  29.929  27.745  1.00  0.00     0.010 A 
ATOM     34  C   UNL A   1      37.167  29.131  29.774  1.00  0.00     0.010 A 
ATOM     35  C   UNL A   1      38.322  29.311  29.001  1.00  0.00    -0.014 A 
BRANCH  35  36
ATOM     36  C   UNL A   1      39.629  28.801  29.492  1.00  0.00     0.031 A 
ATOM     37  C   UNL A   1      40.313  29.471  30.655  1.00  0.00     0.074 A 
ATOM     38  C   UNL A   1      40.231  27.777  28.856  1.00  0.00     0.049 A 
ATOM     39  N   UNL A   1      41.457  29.180  31.219  1.00  0.00    -0.248 NA
ATOM     40  C   UNL A   1      39.641  30.642  31.245  1.00  0.00     0.031 C 
ATOM     41  C   UNL A   1      39.721  27.104  27.661  1.00  0.00     0.029 A 
ATOM     42  N   UNL A   1      41.416  27.136  29.119  1.00  0.00    -0.354 N 
ATOM     43  C   UNL A   1      41.661  30.150  32.193  1.00  0.00     0.074 A 
ATOM     44  C   UNL A   1      40.542  31.063  32.121  1.00  0.00     0.031 C 
ATOM     45  C   UNL A   1      40.581  26.136  27.300  1.00  0.00     0.029 A 
ATOM     46  C   UNL A   1      41.705  26.125  28.230  1.00  0.00     0.049 A 
ATOM     47  H   UNL A   1      42.003  27.375  29.871  1.00  0.00     0.167 HD
ATOM     48  C   UNL A   1      42.664  30.254  33.098  1.00  0.00     0.034 A 
ATOM     49  C   UNL A   1      42.751  25.276  28.184  1.00  0.00     0.034 A 
ATOM     50  C   UNL A   1      43.737  29.304  33.218  1.00  0.00     0.049 A 
ATOM     51  C   UNL A   1      43.796  25.344  29.264  1.00  0.00     0.074 A 
ATOM     52  C   UNL A   1      44.755  29.267  34.154  1.00  0.00     0.029 A 
ATOM     53  N   UNL A   1      43.921  28.214  32.382  1.00  0.00    -0.354 N 
ATOM     54  N   UNL A   1      43.880  26.168  30.280  1.00  0.00    -0.248 NA
ATOM     55  C   UNL A   1      44.860  24.330  29.225  1.00  0.00     0.031 C 
ATOM     56  C   UNL A   1      45.554  28.149  33.884  1.00  0.00     0.029 A 
ATOM     57  C   UNL A   1      45.028  27.489  32.786  1.00  0.00     0.049 A 
ATOM     58  H   UNL A   1      43.348  27.989  31.614  1.00  0.00     0.167 HD
ATOM     59  C   UNL A   1      44.978  25.750  31.022  1.00  0.00     0.074 A 
ATOM     60  C   UNL A   1      45.516  24.584  30.349  1.00  0.00     0.031 C 
ATOM     61  C   UNL A   1      45.506  26.290  32.148  1.00  0.00     0.034 A 
BRANCH  48  62
ATOM     62  C   UNL A   1      42.603  31.393  34.081  1.00  0.00     0.023 A 
ATOM     63  C   UNL A   1      43.428  32.519  33.882  1.00  0.00     0.012 A 
ATOM     64  C   UNL A   1      41.708  31.377  35.168  1.00  0.00     0.148 A 
ATOM     65  C   UNL A   1      43.390  33.595  34.768  1.00  0.00     0.002 A 
ATOM     66  C   UNL A   1      41.647  32.471  36.024  1.00  0.00     0.091 A 
ATOM     67  F   UNL A   1      40.948  30.288  35.357  1.00  0.00    -0.205 F 
ATOM     68  C   UNL A   1      42.494  33.575  35.832  1.00  0.00     0.022 A 
BRANCH  66  69
ATOM     69  S   UNL A   1      40.471  32.570  37.379  1.00  0.00     0.127 S 
ATOM     70  O   UNL A   1      41.312  32.234  38.526  1.00  0.00    -0.237 OA
ATOM     71  O   UNL A   1      40.048  33.971  37.322  1.00  0.00    -0.237 OA
ATOM     72  O   UNL A   1      39.420  31.611  37.065  1.00  0.00    -0.744 OA
ENDBRANCH  66  69
ENDBRANCH  48  62
BRANCH  49  73
ATOM     73  C   UNL A   1      42.796  24.215  27.139  1.00  0.00     0.023 A 
ATOM     74  C   UNL A   1      43.568  24.427  25.980  1.00  0.00     0.012 A 
ATOM     75  C   UNL A   1      42.119  22.991  27.298  1.00  0.00     0.148 A 
ATOM     76  C   UNL A   1      43.639  23.454  24.983  1.00  0.00     0.002 A 
ATOM     77  C   UNL A   1      42.237  22.004  26.324  1.00  0.00     0.091 A 
ATOM     78  F   UNL A   1      41.379  22.812  28.401  1.00  0.00    -0.205 F 
ATOM     79  C   UNL A   1      42.983  22.239  25.160  1.00  0.00     0.022 A 
BRANCH  77  80
ATOM     80  S   UNL A   1      41.532  20.365  26.537  1.00  0.00     0.127 S 
ATOM     81  O   UNL A   1      42.092  19.962  27.825  1.00  0.00    -0.237 OA
ATOM     82  O   UNL A   1      40.096  20.648  26.552  1.00  0.00    -0.237 OA
ATOM     83  O   UNL A   1      41.976  19.601  25.379  1.00  0.00    -0.744 OA
ENDBRANCH  77  80
ENDBRANCH  49  73
BRANCH  61  84
ATOM     84  C   UNL A   1      46.702  25.609  32.756  1.00  0.00     0.023 A 
ATOM     85  C   UNL A   1      47.999  26.016  32.386  1.00  0.00     0.012 A 
ATOM     86  C   UNL A   1      46.542  24.615  33.741  1.00  0.00     0.148 A 
ATOM     87  C   UNL A   1      49.119  25.422  32.966  1.00  0.00     0.002 A 
ATOM     88  C   UNL A   1      47.664  24.059  34.346  1.00  0.00     0.091 A 
ATOM     89  F   UNL A   1      45.301  24.223  34.063  1.00  0.00    -0.205 F 
ATOM     90  C   UNL A   1      48.953  24.453  33.954  1.00  0.00     0.022 A 
BRANCH  88  91
ATOM     91  S   UNL A   1      47.520  22.874  35.689  1.00  0.00     0.127 S 
ATOM     92  O   UNL A   1      48.921  22.598  35.998  1.00  0.00    -0.237 OA
ATOM     93  O   UNL A   1      46.809  23.638  36.715  1.00  0.00    -0.237 OA
ATOM     94  O   UNL A   1      46.759  21.758  35.142  1.00  0.00    -0.744 OA
ENDBRANCH  88  91
ENDBRANCH  61  84
ENDBRANCH  35  36
ENDBRANCH  27  30
ENDBRANCH  25  26
ENDBRANCH   1  25
TORSDOF 18
ENDMDL
