MODEL 1
REMARK VINA RESULT:     -11.9      0.000      0.000
REMARK SMILES O=C(COc1ccccc1[C@@H]1[NH2+]CCc2cc(O)c(O)cc21)NCCCNC(=O)c1ccc(-c2c3nc(c(-c4cccc(S(=O)(=O)[O-])c4F)c4ccc([nH]4)c(-c4cccc(S(=O)(=O)[O-])c4F)c4nc(c(-c5cccc(S(=O)(=O)[O-])c5F)c5ccc2[nH]5)C=C4)C=C3)cc1
REMARK SMILES IDX 24 1 23 2 1 3 2 4 3 6 4 7 5 8 6 9 10 10 7 11 9 12 8 13 11 14
REMARK SMILES IDX 12 15 22 16 13 17 15 20 21 21 14 22 16 23 19 24 17 25 20 26
REMARK SMILES IDX 18 28 25 30 26 31 27 32 28 33 29 35 30 36 31 37 92 38 32 39
REMARK SMILES IDX 91 40 33 41 34 42 35 43 85 44 36 45 90 46 84 47 86 48 37 49
REMARK SMILES IDX 89 50 83 51 82 52 38 54 70 55 50 56 69 57 51 58 54 59 68 60
REMARK SMILES IDX 87 61 52 62 53 63 67 65 88 66 55 67 39 68 40 69 48 70 41 71
REMARK SMILES IDX 43 72 49 73 42 74 44 75 45 76 46 77 47 78 71 79 72 80 80 81
REMARK SMILES IDX 73 82 75 83 81 84 74 85 76 86 77 87 78 88 79 89 56 90 57 91
REMARK SMILES IDX 65 92 58 93 60 94 66 95 59 96 61 97 62 98 63 99 64 100
REMARK H PARENT 23 5 12 18 12 19 20 27 18 29 27 34 86 53 54 64
REMARK Flexibility Score: inf
ROOT
ATOM      1  C   UNL A   1      33.190  28.906  24.397  1.00  0.00     0.117 C 
ENDROOT
BRANCH   1   2
ATOM      2  N   UNL A   1      32.299  28.311  23.421  1.00  0.00    -0.353 N 
ATOM      3  O   UNL A   1      33.941  27.391  22.111  1.00  0.00    -0.271 OA
ATOM      4  C   UNL A   1      32.760  27.454  22.440  1.00  0.00     0.257 C 
ATOM      5  H   UNL A   1      31.339  28.523  23.458  1.00  0.00     0.163 HD
BRANCH   4   6
ATOM      6  C   UNL A   1      31.674  26.565  21.811  1.00  0.00     0.329 C 
BRANCH   6   7
ATOM      7  O   UNL A   1      31.187  25.443  22.518  1.00  0.00    -0.483 OA
BRANCH   7   8
ATOM      8  C   UNL A   1      31.486  25.059  23.795  1.00  0.00     0.129 A 
ATOM      9  C   UNL A   1      30.491  25.559  24.663  1.00  0.00     0.047 A 
ATOM     10  C   UNL A   1      32.617  24.419  24.355  1.00  0.00     0.056 A 
ATOM     11  C   UNL A   1      30.642  25.563  26.045  1.00  0.00     0.004 A 
ATOM     12  C   UNL A   1      32.794  24.538  25.758  1.00  0.00     0.014 A 
ATOM     13  C   UNL A   1      31.827  25.104  26.590  1.00  0.00     0.001 A 
BRANCH  10  14
ATOM     14  C   UNL A   1      33.682  23.662  23.571  1.00  0.00     0.249 C 
ATOM     15  N   UNL A   1      33.120  22.911  22.441  1.00  0.00    -0.336 N 
ATOM     16  C   UNL A   1      34.647  22.705  24.280  1.00  0.00     0.021 A 
ATOM     17  C   UNL A   1      32.374  21.713  22.837  1.00  0.00     0.266 C 
ATOM     18  H   UNL A   1      33.888  22.625  21.832  1.00  0.00     0.347 HD
ATOM     19  H   UNL A   1      32.461  23.531  21.972  1.00  0.00     0.347 HD
ATOM     20  C   UNL A   1      34.196  21.383  24.502  1.00  0.00    -0.029 A 
ATOM     21  C   UNL A   1      35.999  23.030  24.482  1.00  0.00     0.060 A 
ATOM     22  C   UNL A   1      32.750  21.101  24.197  1.00  0.00     0.097 C 
ATOM     23  C   UNL A   1      35.093  20.385  24.881  1.00  0.00     0.054 A 
ATOM     24  C   UNL A   1      36.886  22.016  24.827  1.00  0.00     0.157 A 
ATOM     25  C   UNL A   1      36.435  20.708  25.007  1.00  0.00     0.157 A 
BRANCH  24  26
ATOM     26  O   UNL A   1      38.231  22.242  24.944  1.00  0.00    -0.504 OA
ATOM     27  H   UNL A   1      38.685  22.719  24.279  1.00  0.00     0.293 HD
ENDBRANCH  24  26
BRANCH  25  28
ATOM     28  O   UNL A   1      37.336  19.710  25.253  1.00  0.00    -0.504 OA
ATOM     29  H   UNL A   1      37.104  18.818  25.086  1.00  0.00     0.293 HD
ENDBRANCH  25  28
ENDBRANCH  10  14
ENDBRANCH   7   8
ENDBRANCH   6   7
ENDBRANCH   4   6
ENDBRANCH   1   2
BRANCH   1  30
ATOM     30  C   UNL A   1      33.909  27.934  25.307  1.00  0.00     0.042 C 
BRANCH  30  31
ATOM     31  C   UNL A   1      33.809  28.299  26.770  1.00  0.00     0.118 C 
BRANCH  31  32
ATOM     32  N   UNL A   1      33.614  29.725  26.985  1.00  0.00    -0.352 N 
ATOM     33  C   UNL A   1      34.419  30.624  27.639  1.00  0.00     0.251 C 
ATOM     34  H   UNL A   1      32.784  30.099  26.608  1.00  0.00     0.163 HD
ATOM     35  O   UNL A   1      34.019  31.763  27.844  1.00  0.00    -0.269 OA
BRANCH  33  36
ATOM     36  C   UNL A   1      35.754  30.197  28.110  1.00  0.00     0.039 A 
ATOM     37  C   UNL A   1      35.873  29.647  29.387  1.00  0.00     0.014 A 
ATOM     38  C   UNL A   1      36.880  30.325  27.292  1.00  0.00     0.014 A 
ATOM     39  C   UNL A   1      37.119  29.196  29.825  1.00  0.00     0.010 A 
ATOM     40  C   UNL A   1      38.088  29.765  27.681  1.00  0.00     0.010 A 
ATOM     41  C   UNL A   1      38.232  29.232  28.967  1.00  0.00    -0.014 A 
BRANCH  41  42
ATOM     42  C   UNL A   1      39.563  28.765  29.425  1.00  0.00     0.031 A 
ATOM     43  C   UNL A   1      40.267  29.481  30.548  1.00  0.00     0.074 A 
ATOM     44  C   UNL A   1      40.153  27.723  28.807  1.00  0.00     0.049 A 
ATOM     45  N   UNL A   1      41.415  29.204  31.109  1.00  0.00    -0.248 NA
ATOM     46  C   UNL A   1      39.616  30.685  31.094  1.00  0.00     0.031 C 
ATOM     47  C   UNL A   1      39.614  27.009  27.647  1.00  0.00     0.029 A 
ATOM     48  N   UNL A   1      41.342  27.090  29.063  1.00  0.00    -0.354 N 
ATOM     49  C   UNL A   1      41.635  30.209  32.044  1.00  0.00     0.074 A 
ATOM     50  C   UNL A   1      40.531  31.134  31.939  1.00  0.00     0.031 C 
ATOM     51  C   UNL A   1      40.456  26.020  27.310  1.00  0.00     0.029 A 
ATOM     52  C   UNL A   1      41.605  26.045  28.210  1.00  0.00     0.049 A 
ATOM     53  H   UNL A   1      41.950  27.359  29.790  1.00  0.00     0.167 HD
ATOM     54  C   UNL A   1      42.643  30.333  32.938  1.00  0.00     0.034 A 
ATOM     55  C   UNL A   1      42.651  25.197  28.165  1.00  0.00     0.034 A 
ATOM     56  C   UNL A   1      43.718  29.388  33.064  1.00  0.00     0.049 A 
ATOM     57  C   UNL A   1      43.728  25.320  29.209  1.00  0.00     0.074 A 
ATOM     58  C   UNL A   1      44.748  29.374  33.987  1.00  0.00     0.029 A 
ATOM     59  N   UNL A   1      43.906  28.292  32.238  1.00  0.00    -0.354 N 
ATOM     60  N   UNL A   1      43.836  26.186  30.189  1.00  0.00    -0.248 NA
ATOM     61  C   UNL A   1      44.803  24.318  29.172  1.00  0.00     0.031 C 
ATOM     62  C   UNL A   1      45.575  28.284  33.699  1.00  0.00     0.029 A 
ATOM     63  C   UNL A   1      45.036  27.594  32.626  1.00  0.00     0.049 A 
ATOM     64  H   UNL A   1      43.320  28.045  31.485  1.00  0.00     0.167 HD
ATOM     65  C   UNL A   1      44.961  25.805  30.911  1.00  0.00     0.074 A 
ATOM     66  C   UNL A   1      45.487  24.619  30.267  1.00  0.00     0.031 C 
ATOM     67  C   UNL A   1      45.515  26.387  32.004  1.00  0.00     0.034 A 
BRANCH  54  68
ATOM     68  C   UNL A   1      42.601  31.510  33.879  1.00  0.00     0.023 A 
ATOM     69  C   UNL A   1      43.121  32.755  33.467  1.00  0.00     0.012 A 
ATOM     70  C   UNL A   1      42.008  31.398  35.152  1.00  0.00     0.148 A 
ATOM     71  C   UNL A   1      43.091  33.857  34.321  1.00  0.00     0.002 A 
ATOM     72  C   UNL A   1      41.934  32.514  35.976  1.00  0.00     0.091 A 
ATOM     73  F   UNL A   1      41.538  30.203  35.536  1.00  0.00    -0.205 F 
ATOM     74  C   UNL A   1      42.488  33.739  35.570  1.00  0.00     0.022 A 
BRANCH  72  75
ATOM     75  S   UNL A   1      41.103  32.490  37.569  1.00  0.00     0.127 S 
ATOM     76  O   UNL A   1      39.793  31.950  37.210  1.00  0.00    -0.237 OA
ATOM     77  O   UNL A   1      41.948  31.579  38.341  1.00  0.00    -0.237 OA
ATOM     78  O   UNL A   1      41.101  33.867  38.043  1.00  0.00    -0.744 OA
ENDBRANCH  72  75
ENDBRANCH  54  68
BRANCH  55  79
ATOM     79  C   UNL A   1      42.689  24.110  27.149  1.00  0.00     0.023 A 
ATOM     80  C   UNL A   1      43.454  24.275  25.978  1.00  0.00     0.012 A 
ATOM     81  C   UNL A   1      41.982  22.907  27.342  1.00  0.00     0.148 A 
ATOM     82  C   UNL A   1      43.483  23.282  24.998  1.00  0.00     0.002 A 
ATOM     83  C   UNL A   1      42.061  21.898  26.389  1.00  0.00     0.091 A 
ATOM     84  F   UNL A   1      41.256  22.771  28.460  1.00  0.00    -0.205 F 
ATOM     85  C   UNL A   1      42.794  22.091  25.208  1.00  0.00     0.022 A 
BRANCH  83  86
ATOM     86  S   UNL A   1      41.314  20.283  26.633  1.00  0.00     0.127 S 
ATOM     87  O   UNL A   1      41.932  19.854  27.885  1.00  0.00    -0.237 OA
ATOM     88  O   UNL A   1      39.893  20.621  26.730  1.00  0.00    -0.237 OA
ATOM     89  O   UNL A   1      41.667  19.504  25.454  1.00  0.00    -0.744 OA
ENDBRANCH  83  86
ENDBRANCH  55  79
BRANCH  67  90
ATOM     90  C   UNL A   1      46.719  25.716  32.613  1.00  0.00     0.023 A 
ATOM     91  C   UNL A   1      48.017  26.065  32.194  1.00  0.00     0.012 A 
ATOM     92  C   UNL A   1      46.557  24.765  33.641  1.00  0.00     0.148 A 
ATOM     93  C   UNL A   1      49.133  25.440  32.749  1.00  0.00     0.002 A 
ATOM     94  C   UNL A   1      47.674  24.189  34.230  1.00  0.00     0.091 A 
ATOM     95  F   UNL A   1      45.313  24.431  34.016  1.00  0.00    -0.205 F 
ATOM     96  C   UNL A   1      48.962  24.512  33.774  1.00  0.00     0.022 A 
BRANCH  94  97
ATOM     97  S   UNL A   1      47.548  23.065  35.625  1.00  0.00     0.127 S 
ATOM     98  O   UNL A   1      48.947  22.696  35.837  1.00  0.00    -0.237 OA
ATOM     99  O   UNL A   1      46.979  23.922  36.665  1.00  0.00    -0.237 OA
ATOM    100  O   UNL A   1      46.672  21.986  35.189  1.00  0.00    -0.744 OA
ENDBRANCH  94  97
ENDBRANCH  67  90
ENDBRANCH  41  42
ENDBRANCH  33  36
ENDBRANCH  31  32
ENDBRANCH  30  31
ENDBRANCH   1  30
TORSDOF 18
ENDMDL
MODEL 2
REMARK VINA RESULT:     -11.9      2.114      2.956
REMARK SMILES O=C(COc1ccccc1[C@@H]1[NH2+]CCc2cc(O)c(O)cc21)NCCCNC(=O)c1ccc(-c2c3nc(c(-c4cccc(S(=O)(=O)[O-])c4F)c4ccc([nH]4)c(-c4cccc(S(=O)(=O)[O-])c4F)c4nc(c(-c5cccc(S(=O)(=O)[O-])c5F)c5ccc2[nH]5)C=C4)C=C3)cc1
REMARK SMILES IDX 24 1 23 2 1 3 2 4 3 6 4 7 5 8 6 9 10 10 7 11 9 12 8 13 11 14
REMARK SMILES IDX 12 15 22 16 13 17 15 20 21 21 14 22 16 23 19 24 17 25 20 26
REMARK SMILES IDX 18 28 25 30 26 31 27 32 28 33 29 35 30 36 31 37 92 38 32 39
REMARK SMILES IDX 91 40 33 41 34 42 35 43 85 44 36 45 90 46 84 47 86 48 37 49
REMARK SMILES IDX 89 50 83 51 82 52 38 54 70 55 50 56 69 57 51 58 54 59 68 60
REMARK SMILES IDX 87 61 52 62 53 63 67 65 88 66 55 67 39 68 40 69 48 70 41 71
REMARK SMILES IDX 43 72 49 73 42 74 44 75 45 76 46 77 47 78 71 79 72 80 80 81
REMARK SMILES IDX 73 82 75 83 81 84 74 85 76 86 77 87 78 88 79 89 56 90 57 91
REMARK SMILES IDX 65 92 58 93 60 94 66 95 59 96 61 97 62 98 63 99 64 100
REMARK H PARENT 23 5 12 18 12 19 20 27 18 29 27 34 86 53 54 64
REMARK Flexibility Score: inf
ROOT
ATOM      1  C   UNL A   1      31.128  28.449  25.136  1.00  0.00     0.117 C 
ENDROOT
BRANCH   1   2
ATOM      2  N   UNL A   1      31.035  27.262  25.963  1.00  0.00    -0.353 N 
ATOM      3  O   UNL A   1      29.526  26.152  24.641  1.00  0.00    -0.271 OA
ATOM      4  C   UNL A   1      30.355  26.134  25.547  1.00  0.00     0.257 C 
ATOM      5  H   UNL A   1      31.470  27.260  26.846  1.00  0.00     0.163 HD
BRANCH   4   6
ATOM      6  C   UNL A   1      30.740  24.847  26.295  1.00  0.00     0.329 C 
BRANCH   6   7
ATOM      7  O   UNL A   1      32.073  24.381  26.252  1.00  0.00    -0.483 OA
BRANCH   7   8
ATOM      8  C   UNL A   1      32.817  24.057  25.152  1.00  0.00     0.129 A 
ATOM      9  C   UNL A   1      33.569  25.188  24.765  1.00  0.00     0.047 A 
ATOM     10  C   UNL A   1      32.838  22.911  24.323  1.00  0.00     0.056 A 
ATOM     11  C   UNL A   1      34.222  25.263  23.540  1.00  0.00     0.004 A 
ATOM     12  C   UNL A   1      33.417  23.058  23.037  1.00  0.00     0.014 A 
ATOM     13  C   UNL A   1      34.094  24.215  22.647  1.00  0.00     0.001 A 
BRANCH  10  14
ATOM     14  C   UNL A   1      32.244  21.553  24.678  1.00  0.00     0.249 C 
ATOM     15  N   UNL A   1      32.213  21.315  26.127  1.00  0.00    -0.336 N 
ATOM     16  C   UNL A   1      32.792  20.268  24.047  1.00  0.00     0.021 A 
ATOM     17  C   UNL A   1      33.530  21.038  26.711  1.00  0.00     0.266 C 
ATOM     18  H   UNL A   1      31.607  20.514  26.308  1.00  0.00     0.347 HD
ATOM     19  H   UNL A   1      31.869  22.170  26.561  1.00  0.00     0.347 HD
ATOM     20  C   UNL A   1      33.922  19.679  24.661  1.00  0.00    -0.029 A 
ATOM     21  C   UNL A   1      32.077  19.561  23.066  1.00  0.00     0.060 A 
ATOM     22  C   UNL A   1      34.590  20.473  25.751  1.00  0.00     0.097 C 
ATOM     23  C   UNL A   1      34.310  18.381  24.329  1.00  0.00     0.054 A 
ATOM     24  C   UNL A   1      32.457  18.256  22.771  1.00  0.00     0.157 A 
ATOM     25  C   UNL A   1      33.551  17.673  23.411  1.00  0.00     0.157 A 
BRANCH  24  26
ATOM     26  O   UNL A   1      31.747  17.476  21.899  1.00  0.00    -0.504 OA
ATOM     27  H   UNL A   1      32.181  16.803  21.413  1.00  0.00     0.293 HD
ENDBRANCH  24  26
BRANCH  25  28
ATOM     28  O   UNL A   1      33.851  16.360  23.178  1.00  0.00    -0.504 OA
ATOM     29  H   UNL A   1      33.767  15.731  23.867  1.00  0.00     0.293 HD
ENDBRANCH  25  28
ENDBRANCH  10  14
ENDBRANCH   7   8
ENDBRANCH   6   7
ENDBRANCH   4   6
ENDBRANCH   1   2
BRANCH   1  30
ATOM     30  C   UNL A   1      32.509  28.775  24.610  1.00  0.00     0.042 C 
BRANCH  30  31
ATOM     31  C   UNL A   1      33.442  29.308  25.672  1.00  0.00     0.118 C 
BRANCH  31  32
ATOM     32  N   UNL A   1      33.049  30.620  26.164  1.00  0.00    -0.352 N 
ATOM     33  C   UNL A   1      33.615  31.380  27.158  1.00  0.00     0.251 C 
ATOM     34  H   UNL A   1      32.266  31.020  25.722  1.00  0.00     0.163 HD
ATOM     35  O   UNL A   1      33.058  32.404  27.532  1.00  0.00    -0.269 OA
BRANCH  33  36
ATOM     36  C   UNL A   1      34.881  30.939  27.779  1.00  0.00     0.039 A 
ATOM     37  C   UNL A   1      35.942  31.842  27.860  1.00  0.00     0.014 A 
ATOM     38  C   UNL A   1      35.019  29.646  28.292  1.00  0.00     0.014 A 
ATOM     39  C   UNL A   1      37.127  31.454  28.487  1.00  0.00     0.010 A 
ATOM     40  C   UNL A   1      36.149  29.305  29.021  1.00  0.00     0.010 A 
ATOM     41  C   UNL A   1      37.232  30.189  29.091  1.00  0.00    -0.014 A 
BRANCH  41  42
ATOM     42  C   UNL A   1      38.489  29.762  29.751  1.00  0.00     0.031 A 
ATOM     43  C   UNL A   1      38.843  30.298  31.114  1.00  0.00     0.074 A 
ATOM     44  C   UNL A   1      39.329  28.925  29.111  1.00  0.00     0.049 A 
ATOM     45  N   UNL A   1      39.876  30.019  31.865  1.00  0.00    -0.248 NA
ATOM     46  C   UNL A   1      37.938  31.301  31.701  1.00  0.00     0.031 C 
ATOM     47  C   UNL A   1      39.143  28.415  27.750  1.00  0.00     0.029 A 
ATOM     48  N   UNL A   1      40.513  28.365  29.516  1.00  0.00    -0.354 N 
ATOM     49  C   UNL A   1      39.761  30.829  32.988  1.00  0.00     0.074 A 
ATOM     50  C   UNL A   1      38.588  31.652  32.799  1.00  0.00     0.031 C 
ATOM     51  C   UNL A   1      40.161  27.595  27.445  1.00  0.00     0.029 A 
ATOM     52  C   UNL A   1      41.085  27.543  28.575  1.00  0.00     0.049 A 
ATOM     53  H   UNL A   1      40.916  28.536  30.399  1.00  0.00     0.167 HD
ATOM     54  C   UNL A   1      40.535  30.862  34.097  1.00  0.00     0.034 A 
ATOM     55  C   UNL A   1      42.221  26.821  28.621  1.00  0.00     0.034 A 
ATOM     56  C   UNL A   1      41.677  30.013  34.297  1.00  0.00     0.049 A 
ATOM     57  C   UNL A   1      43.032  26.827  29.889  1.00  0.00     0.074 A 
ATOM     58  C   UNL A   1      42.486  29.906  35.414  1.00  0.00     0.029 A 
ATOM     59  N   UNL A   1      42.178  29.128  33.355  1.00  0.00    -0.354 N 
ATOM     60  N   UNL A   1      42.817  27.484  31.005  1.00  0.00    -0.248 NA
ATOM     61  C   UNL A   1      44.215  25.957  29.923  1.00  0.00     0.031 C 
ATOM     62  C   UNL A   1      43.494  28.978  35.135  1.00  0.00     0.029 A 
ATOM     63  C   UNL A   1      43.286  28.473  33.862  1.00  0.00     0.049 A 
ATOM     64  H   UNL A   1      41.800  28.987  32.457  1.00  0.00     0.167 HD
ATOM     65  C   UNL A   1      43.809  27.069  31.887  1.00  0.00     0.074 A 
ATOM     66  C   UNL A   1      44.611  26.091  31.180  1.00  0.00     0.031 C 
ATOM     67  C   UNL A   1      44.041  27.466  33.163  1.00  0.00     0.034 A 
BRANCH  54  68
ATOM     68  C   UNL A   1      40.142  31.815  35.197  1.00  0.00     0.023 A 
ATOM     69  C   UNL A   1      40.700  33.110  35.234  1.00  0.00     0.012 A 
ATOM     70  C   UNL A   1      39.189  31.447  36.166  1.00  0.00     0.148 A 
ATOM     71  C   UNL A   1      40.349  34.008  36.241  1.00  0.00     0.002 A 
ATOM     72  C   UNL A   1      38.805  32.366  37.136  1.00  0.00     0.091 A 
ATOM     73  F   UNL A   1      38.685  30.206  36.130  1.00  0.00    -0.205 F 
ATOM     74  C   UNL A   1      39.394  33.640  37.184  1.00  0.00     0.022 A 
BRANCH  72  75
ATOM     75  S   UNL A   1      37.521  32.021  38.344  1.00  0.00     0.127 S 
ATOM     76  O   UNL A   1      37.221  30.618  38.065  1.00  0.00    -0.237 OA
ATOM     77  O   UNL A   1      38.220  32.256  39.608  1.00  0.00    -0.237 OA
ATOM     78  O   UNL A   1      36.441  32.957  38.063  1.00  0.00    -0.744 OA
ENDBRANCH  72  75
ENDBRANCH  54  68
BRANCH  55  79
ATOM     79  C   UNL A   1      42.614  25.970  27.465  1.00  0.00     0.023 A 
ATOM     80  C   UNL A   1      43.425  26.508  26.446  1.00  0.00     0.012 A 
ATOM     81  C   UNL A   1      42.200  24.627  27.374  1.00  0.00     0.148 A 
ATOM     82  C   UNL A   1      43.784  25.738  25.339  1.00  0.00     0.002 A 
ATOM     83  C   UNL A   1      42.608  23.848  26.297  1.00  0.00     0.091 A 
ATOM     84  F   UNL A   1      41.425  24.135  28.350  1.00  0.00    -0.205 F 
ATOM     85  C   UNL A   1      43.382  24.407  25.268  1.00  0.00     0.022 A 
BRANCH  83  86
ATOM     86  S   UNL A   1      42.249  22.092  26.187  1.00  0.00     0.127 S 
ATOM     87  O   UNL A   1      43.120  21.678  25.090  1.00  0.00    -0.237 OA
ATOM     88  O   UNL A   1      42.657  21.619  27.511  1.00  0.00    -0.237 OA
ATOM     89  O   UNL A   1      40.819  21.998  25.930  1.00  0.00    -0.744 OA
ENDBRANCH  83  86
ENDBRANCH  55  79
BRANCH  67  90
ATOM     90  C   UNL A   1      45.171  26.799  33.903  1.00  0.00     0.023 A 
ATOM     91  C   UNL A   1      46.455  27.378  33.916  1.00  0.00     0.012 A 
ATOM     92  C   UNL A   1      44.942  25.610  34.626  1.00  0.00     0.148 A 
ATOM     93  C   UNL A   1      47.505  26.759  34.593  1.00  0.00     0.002 A 
ATOM     94  C   UNL A   1      45.978  25.030  35.345  1.00  0.00     0.091 A 
ATOM     95  F   UNL A   1      43.719  25.061  34.587  1.00  0.00    -0.205 F 
ATOM     96  C   UNL A   1      47.264  25.593  35.316  1.00  0.00     0.022 A 
BRANCH  94  97
ATOM     97  S   UNL A   1      45.730  23.588  36.386  1.00  0.00     0.127 S 
ATOM     98  O   UNL A   1      47.086  23.053  36.482  1.00  0.00    -0.237 OA
ATOM     99  O   UNL A   1      45.219  24.181  37.623  1.00  0.00    -0.237 OA
ATOM    100  O   UNL A   1      44.771  22.749  35.681  1.00  0.00    -0.744 OA
ENDBRANCH  94  97
ENDBRANCH  67  90
ENDBRANCH  41  42
ENDBRANCH  33  36
ENDBRANCH  31  32
ENDBRANCH  30  31
ENDBRANCH   1  30
TORSDOF 18
ENDMDL
MODEL 3
REMARK VINA RESULT:     -11.8      4.677      9.711
REMARK SMILES O=C(COc1ccccc1[C@@H]1[NH2+]CCc2cc(O)c(O)cc21)NCCCNC(=O)c1ccc(-c2c3nc(c(-c4cccc(S(=O)(=O)[O-])c4F)c4ccc([nH]4)c(-c4cccc(S(=O)(=O)[O-])c4F)c4nc(c(-c5cccc(S(=O)(=O)[O-])c5F)c5ccc2[nH]5)C=C4)C=C3)cc1
REMARK SMILES IDX 24 1 23 2 1 3 2 4 3 6 4 7 5 8 6 9 10 10 7 11 9 12 8 13 11 14
REMARK SMILES IDX 12 15 22 16 13 17 15 20 21 21 14 22 16 23 19 24 17 25 20 26
REMARK SMILES IDX 18 28 25 30 26 31 27 32 28 33 29 35 30 36 31 37 92 38 32 39
REMARK SMILES IDX 91 40 33 41 34 42 35 43 85 44 36 45 90 46 84 47 86 48 37 49
REMARK SMILES IDX 89 50 83 51 82 52 38 54 70 55 50 56 69 57 51 58 54 59 68 60
REMARK SMILES IDX 87 61 52 62 53 63 67 65 88 66 55 67 39 68 40 69 48 70 41 71
REMARK SMILES IDX 43 72 49 73 42 74 44 75 45 76 46 77 47 78 71 79 72 80 80 81
REMARK SMILES IDX 73 82 75 83 81 84 74 85 76 86 77 87 78 88 79 89 56 90 57 91
REMARK SMILES IDX 65 92 58 93 60 94 66 95 59 96 61 97 62 98 63 99 64 100
REMARK H PARENT 23 5 12 18 12 19 20 27 18 29 27 34 86 53 54 64
REMARK Flexibility Score: inf
ROOT
ATOM      1  C   UNL A   1      34.630  22.378  26.677  1.00  0.00     0.117 C 
ENDROOT
BRANCH   1   2
ATOM      2  N   UNL A   1      33.310  21.896  26.322  1.00  0.00    -0.353 N 
ATOM      3  O   UNL A   1      32.146  23.345  27.666  1.00  0.00    -0.271 OA
ATOM      4  C   UNL A   1      32.161  22.546  26.733  1.00  0.00     0.257 C 
ATOM      5  H   UNL A   1      33.229  21.084  25.773  1.00  0.00     0.163 HD
BRANCH   4   6
ATOM      6  C   UNL A   1      30.908  22.205  25.910  1.00  0.00     0.329 C 
BRANCH   6   7
ATOM      7  O   UNL A   1      30.697  22.831  24.661  1.00  0.00    -0.483 OA
BRANCH   7   8
ATOM      8  C   UNL A   1      31.512  23.718  24.015  1.00  0.00     0.129 A 
ATOM      9  C   UNL A   1      32.162  23.047  22.956  1.00  0.00     0.047 A 
ATOM     10  C   UNL A   1      31.886  25.051  24.307  1.00  0.00     0.056 A 
ATOM     11  C   UNL A   1      33.242  23.600  22.278  1.00  0.00     0.004 A 
ATOM     12  C   UNL A   1      33.058  25.542  23.676  1.00  0.00     0.014 A 
ATOM     13  C   UNL A   1      33.729  24.829  22.682  1.00  0.00     0.001 A 
BRANCH  10  14
ATOM     14  C   UNL A   1      31.167  25.978  25.279  1.00  0.00     0.249 C 
ATOM     15  N   UNL A   1      29.706  25.889  25.163  1.00  0.00    -0.336 N 
ATOM     16  C   UNL A   1      31.500  27.473  25.331  1.00  0.00     0.021 A 
ATOM     17  C   UNL A   1      29.167  26.524  23.955  1.00  0.00     0.266 C 
ATOM     18  H   UNL A   1      29.291  26.344  25.977  1.00  0.00     0.347 HD
ATOM     19  H   UNL A   1      29.472  24.899  25.108  1.00  0.00     0.347 HD
ATOM     20  C   UNL A   1      30.843  28.312  24.401  1.00  0.00    -0.029 A 
ATOM     21  C   UNL A   1      32.223  28.035  26.396  1.00  0.00     0.060 A 
ATOM     22  C   UNL A   1      30.032  27.632  23.331  1.00  0.00     0.097 C 
ATOM     23  C   UNL A   1      30.872  29.698  24.556  1.00  0.00     0.054 A 
ATOM     24  C   UNL A   1      32.215  29.417  26.555  1.00  0.00     0.157 A 
ATOM     25  C   UNL A   1      31.531  30.232  25.652  1.00  0.00     0.157 A 
BRANCH  24  26
ATOM     26  O   UNL A   1      32.816  30.025  27.624  1.00  0.00    -0.504 OA
ATOM     27  H   UNL A   1      32.677  29.696  28.489  1.00  0.00     0.293 HD
ENDBRANCH  24  26
BRANCH  25  28
ATOM     28  O   UNL A   1      31.456  31.577  25.879  1.00  0.00    -0.504 OA
ATOM     29  H   UNL A   1      31.807  31.939  26.668  1.00  0.00     0.293 HD
ENDBRANCH  25  28
ENDBRANCH  10  14
ENDBRANCH   7   8
ENDBRANCH   6   7
ENDBRANCH   4   6
ENDBRANCH   1   2
BRANCH   1  30
ATOM     30  C   UNL A   1      35.436  22.975  25.543  1.00  0.00     0.042 C 
BRANCH  30  31
ATOM     31  C   UNL A   1      36.755  23.558  25.991  1.00  0.00     0.118 C 
BRANCH  31  32
ATOM     32  N   UNL A   1      37.813  22.562  26.085  1.00  0.00    -0.352 N 
ATOM     33  C   UNL A   1      39.130  22.723  26.434  1.00  0.00     0.251 C 
ATOM     34  H   UNL A   1      37.544  21.640  25.867  1.00  0.00     0.163 HD
ATOM     35  O   UNL A   1      39.910  21.786  26.320  1.00  0.00    -0.269 OA
BRANCH  33  36
ATOM     36  C   UNL A   1      39.598  24.038  26.923  1.00  0.00     0.039 A 
ATOM     37  C   UNL A   1      40.029  24.987  25.995  1.00  0.00     0.014 A 
ATOM     38  C   UNL A   1      39.598  24.339  28.288  1.00  0.00     0.014 A 
ATOM     39  C   UNL A   1      40.428  26.248  26.440  1.00  0.00     0.010 A 
ATOM     40  C   UNL A   1      39.877  25.630  28.714  1.00  0.00     0.010 A 
ATOM     41  C   UNL A   1      40.335  26.586  27.801  1.00  0.00    -0.014 A 
BRANCH  41  42
ATOM     42  C   UNL A   1      40.764  27.920  28.287  1.00  0.00     0.031 A 
ATOM     43  C   UNL A   1      42.226  28.287  28.285  1.00  0.00     0.074 A 
ATOM     44  C   UNL A   1      39.847  28.783  28.764  1.00  0.00     0.049 A 
ATOM     45  N   UNL A   1      42.792  29.411  28.637  1.00  0.00    -0.248 NA
ATOM     46  C   UNL A   1      43.182  27.248  27.863  1.00  0.00     0.031 C 
ATOM     47  C   UNL A   1      38.416  28.507  28.906  1.00  0.00     0.029 A 
ATOM     48  N   UNL A   1      39.985  30.066  29.228  1.00  0.00    -0.354 N 
ATOM     49  C   UNL A   1      44.161  29.205  28.509  1.00  0.00     0.074 A 
ATOM     50  C   UNL A   1      44.346  27.831  28.100  1.00  0.00     0.031 C 
ATOM     51  C   UNL A   1      37.805  29.597  29.395  1.00  0.00     0.029 A 
ATOM     52  C   UNL A   1      38.801  30.639  29.627  1.00  0.00     0.049 A 
ATOM     53  H   UNL A   1      40.851  30.534  29.271  1.00  0.00     0.167 HD
ATOM     54  C   UNL A   1      45.174  30.086  28.677  1.00  0.00     0.034 A 
ATOM     55  C   UNL A   1      38.547  31.868  30.116  1.00  0.00     0.034 A 
ATOM     56  C   UNL A   1      44.981  31.462  29.045  1.00  0.00     0.049 A 
ATOM     57  C   UNL A   1      39.682  32.849  30.235  1.00  0.00     0.074 A 
ATOM     58  C   UNL A   1      45.928  32.462  29.167  1.00  0.00     0.029 A 
ATOM     59  N   UNL A   1      43.756  32.030  29.359  1.00  0.00    -0.354 N 
ATOM     60  N   UNL A   1      40.953  32.681  29.957  1.00  0.00    -0.248 NA
ATOM     61  C   UNL A   1      39.341  34.204  30.690  1.00  0.00     0.031 C 
ATOM     62  C   UNL A   1      45.279  33.628  29.582  1.00  0.00     0.029 A 
ATOM     63  C   UNL A   1      43.922  33.367  29.676  1.00  0.00     0.049 A 
ATOM     64  H   UNL A   1      42.895  31.553  29.356  1.00  0.00     0.167 HD
ATOM     65  C   UNL A   1      41.553  33.919  30.156  1.00  0.00     0.074 A 
ATOM     66  C   UNL A   1      40.501  34.830  30.560  1.00  0.00     0.031 C 
ATOM     67  C   UNL A   1      42.857  34.271  30.026  1.00  0.00     0.034 A 
BRANCH  54  68
ATOM     68  C   UNL A   1      46.576  29.598  28.418  1.00  0.00     0.023 A 
ATOM     69  C   UNL A   1      47.141  29.740  27.133  1.00  0.00     0.012 A 
ATOM     70  C   UNL A   1      47.351  29.040  29.453  1.00  0.00     0.148 A 
ATOM     71  C   UNL A   1      48.436  29.297  26.871  1.00  0.00     0.002 A 
ATOM     72  C   UNL A   1      48.660  28.649  29.197  1.00  0.00     0.091 A 
ATOM     73  F   UNL A   1      46.792  28.892  30.662  1.00  0.00    -0.205 F 
ATOM     74  C   UNL A   1      49.199  28.762  27.905  1.00  0.00     0.022 A 
BRANCH  72  75
ATOM     75  S   UNL A   1      49.755  28.028  30.479  1.00  0.00     0.127 S 
ATOM     76  O   UNL A   1      50.756  27.313  29.691  1.00  0.00    -0.237 OA
ATOM     77  O   UNL A   1      50.234  29.265  31.097  1.00  0.00    -0.237 OA
ATOM     78  O   UNL A   1      48.931  27.196  31.344  1.00  0.00    -0.744 OA
ENDBRANCH  72  75
ENDBRANCH  54  68
BRANCH  55  79
ATOM     79  C   UNL A   1      37.151  32.266  30.449  1.00  0.00     0.023 A 
ATOM     80  C   UNL A   1      36.684  32.130  31.770  1.00  0.00     0.012 A 
ATOM     81  C   UNL A   1      36.290  32.792  29.468  1.00  0.00     0.148 A 
ATOM     82  C   UNL A   1      35.372  32.470  32.101  1.00  0.00     0.002 A 
ATOM     83  C   UNL A   1      35.002  33.184  29.815  1.00  0.00     0.091 A 
ATOM     84  F   UNL A   1      36.752  32.910  28.215  1.00  0.00    -0.205 F 
ATOM     85  C   UNL A   1      34.534  33.004  31.127  1.00  0.00     0.022 A 
BRANCH  83  86
ATOM     86  S   UNL A   1      33.897  34.001  28.658  1.00  0.00     0.127 S 
ATOM     87  O   UNL A   1      34.786  34.982  28.041  1.00  0.00    -0.237 OA
ATOM     88  O   UNL A   1      33.501  32.893  27.788  1.00  0.00    -0.237 OA
ATOM     89  O   UNL A   1      32.816  34.547  29.465  1.00  0.00    -0.744 OA
ENDBRANCH  83  86
ENDBRANCH  55  79
BRANCH  67  90
ATOM     90  C   UNL A   1      43.213  35.715  30.261  1.00  0.00     0.023 A 
ATOM     91  C   UNL A   1      43.712  36.132  31.510  1.00  0.00     0.012 A 
ATOM     92  C   UNL A   1      43.094  36.655  29.217  1.00  0.00     0.148 A 
ATOM     93  C   UNL A   1      44.035  37.470  31.734  1.00  0.00     0.002 A 
ATOM     94  C   UNL A   1      43.472  37.973  29.429  1.00  0.00     0.091 A 
ATOM     95  F   UNL A   1      42.601  36.245  28.039  1.00  0.00    -0.205 F 
ATOM     96  C   UNL A   1      43.926  38.387  30.691  1.00  0.00     0.022 A 
BRANCH  94  97
ATOM     97  S   UNL A   1      43.463  39.195  28.112  1.00  0.00     0.127 S 
ATOM     98  O   UNL A   1      44.326  38.564  27.115  1.00  0.00    -0.237 OA
ATOM     99  O   UNL A   1      42.048  39.250  27.748  1.00  0.00    -0.237 OA
ATOM    100  O   UNL A   1      43.980  40.422  28.703  1.00  0.00    -0.744 OA
ENDBRANCH  94  97
ENDBRANCH  67  90
ENDBRANCH  41  42
ENDBRANCH  33  36
ENDBRANCH  31  32
ENDBRANCH  30  31
ENDBRANCH   1  30
TORSDOF 18
ENDMDL
