MODEL 1
REMARK VINA RESULT:     -13.0      0.000      0.000
REMARK SMILES O=C(Cn1cnc(-c2ccccc2)c1-c1ccccc1)NCCCNC(=O)c1ccc(-c2c3nc(c(-c4cccc(S(=O)(=O)[O-])c4F)c4ccc([nH]4)c(-c4cccc(S(=O)(=O)[O-])c4F)c4nc(c(-c5cccc(S(=O)(=O)[O-])c5F)c5ccc2[nH]5)C=C4)C=C3)cc1
REMARK SMILES IDX 23 1 22 2 21 3 1 4 2 5 3 7 4 8 5 9 14 10 6 11 7 12 15 13
REMARK SMILES IDX 16 14 20 15 17 16 19 17 18 18 8 19 9 20 13 21 10 22 12 23
REMARK SMILES IDX 11 24 24 25 25 26 26 27 27 29 28 30 29 31 90 32 30 33 89 34
REMARK SMILES IDX 31 35 32 36 33 37 83 38 34 39 88 40 82 41 84 42 35 43 87 44
REMARK SMILES IDX 81 45 80 46 36 48 68 49 48 50 67 51 49 52 52 53 66 54 85 55
REMARK SMILES IDX 50 56 51 57 65 59 86 60 53 61 37 62 38 63 46 64 39 65 41 66
REMARK SMILES IDX 47 67 40 68 42 69 43 70 44 71 45 72 69 73 70 74 78 75 71 76
REMARK SMILES IDX 73 77 79 78 72 79 74 80 75 81 76 82 77 83 54 84 55 85 63 86
REMARK SMILES IDX 56 87 58 88 64 89 57 90 59 91 60 92 61 93 62 94
REMARK H PARENT 21 6 25 28 84 47 52 58
REMARK Flexibility Score: inf
ROOT
ATOM      1  C   UNL A   1      35.727  21.873  25.773  1.00  0.00     0.042 C 
ENDROOT
BRANCH   1   2
ATOM      2  C   UNL A   1      34.740  22.017  24.612  1.00  0.00     0.117 C 
BRANCH   2   3
ATOM      3  N   UNL A   1      34.719  23.346  24.011  1.00  0.00    -0.354 N 
ATOM      4  O   UNL A   1      32.769  24.066  24.981  1.00  0.00    -0.273 OA
ATOM      5  C   UNL A   1      33.766  24.303  24.300  1.00  0.00     0.239 C 
ATOM      6  H   UNL A   1      35.425  23.575  23.363  1.00  0.00     0.163 HD
BRANCH   5   7
ATOM      7  C   UNL A   1      34.038  25.686  23.725  1.00  0.00     0.223 C 
BRANCH   7   8
ATOM      8  N   UNL A   1      32.858  26.239  23.080  1.00  0.00    -0.321 N 
ATOM      9  C   UNL A   1      32.323  25.801  21.897  1.00  0.00     0.201 A 
ATOM     10  C   UNL A   1      32.050  27.252  23.534  1.00  0.00     0.076 A 
ATOM     11  N   UNL A   1      31.211  26.437  21.588  1.00  0.00    -0.236 NA
ATOM     12  C   UNL A   1      31.055  27.378  22.573  1.00  0.00     0.096 A 
BRANCH  10  13
ATOM     13  C   UNL A   1      32.182  27.980  24.778  1.00  0.00     0.000 A 
ATOM     14  C   UNL A   1      31.658  27.391  25.942  1.00  0.00     0.010 A 
ATOM     15  C   UNL A   1      32.638  29.298  24.785  1.00  0.00     0.010 A 
ATOM     16  C   UNL A   1      31.488  28.145  27.082  1.00  0.00     0.001 A 
ATOM     17  C   UNL A   1      32.493  30.045  25.940  1.00  0.00     0.001 A 
ATOM     18  C   UNL A   1      31.876  29.472  27.055  1.00  0.00     0.000 A 
ENDBRANCH  10  13
BRANCH  12  19
ATOM     19  C   UNL A   1      29.946  28.320  22.672  1.00  0.00     0.002 A 
ATOM     20  C   UNL A   1      30.064  29.598  22.115  1.00  0.00     0.010 A 
ATOM     21  C   UNL A   1      28.702  27.920  23.189  1.00  0.00     0.010 A 
ATOM     22  C   UNL A   1      28.953  30.446  22.049  1.00  0.00     0.001 A 
ATOM     23  C   UNL A   1      27.592  28.765  23.118  1.00  0.00     0.001 A 
ATOM     24  C   UNL A   1      27.718  30.027  22.544  1.00  0.00     0.000 A 
ENDBRANCH  12  19
ENDBRANCH   7   8
ENDBRANCH   5   7
ENDBRANCH   2   3
ENDBRANCH   1   2
BRANCH   1  25
ATOM     25  C   UNL A   1      37.097  22.439  25.455  1.00  0.00     0.118 C 
BRANCH  25  26
ATOM     26  N   UNL A   1      38.255  21.582  25.630  1.00  0.00    -0.352 N 
ATOM     27  C   UNL A   1      39.467  21.886  26.230  1.00  0.00     0.251 C 
ATOM     28  H   UNL A   1      38.168  20.666  25.277  1.00  0.00     0.163 HD
ATOM     29  O   UNL A   1      40.360  21.027  26.197  1.00  0.00    -0.269 OA
BRANCH  27  30
ATOM     30  C   UNL A   1      39.719  23.168  26.963  1.00  0.00     0.039 A 
ATOM     31  C   UNL A   1      38.960  24.319  26.681  1.00  0.00     0.014 A 
ATOM     32  C   UNL A   1      40.779  23.308  27.851  1.00  0.00     0.014 A 
ATOM     33  C   UNL A   1      39.342  25.571  27.198  1.00  0.00     0.010 A 
ATOM     34  C   UNL A   1      41.155  24.520  28.367  1.00  0.00     0.010 A 
ATOM     35  C   UNL A   1      40.494  25.665  27.979  1.00  0.00    -0.014 A 
BRANCH  35  36
ATOM     36  C   UNL A   1      40.970  26.855  28.663  1.00  0.00     0.031 A 
ATOM     37  C   UNL A   1      42.207  27.367  28.026  1.00  0.00     0.074 A 
ATOM     38  C   UNL A   1      40.211  27.626  29.476  1.00  0.00     0.049 A 
ATOM     39  N   UNL A   1      43.399  27.203  28.492  1.00  0.00    -0.248 NA
ATOM     40  C   UNL A   1      42.179  27.877  26.641  1.00  0.00     0.031 C 
ATOM     41  C   UNL A   1      38.847  27.426  29.957  1.00  0.00     0.029 A 
ATOM     42  N   UNL A   1      40.478  28.881  29.925  1.00  0.00    -0.354 N 
ATOM     43  C   UNL A   1      44.223  27.862  27.595  1.00  0.00     0.074 A 
ATOM     44  C   UNL A   1      43.484  27.942  26.368  1.00  0.00     0.031 C 
ATOM     45  C   UNL A   1      38.308  28.608  30.340  1.00  0.00     0.029 A 
ATOM     46  C   UNL A   1      39.359  29.603  30.336  1.00  0.00     0.049 A 
ATOM     47  H   UNL A   1      41.390  29.250  29.959  1.00  0.00     0.167 HD
ATOM     48  C   UNL A   1      45.282  28.594  28.039  1.00  0.00     0.034 A 
ATOM     49  C   UNL A   1      39.307  30.924  30.649  1.00  0.00     0.034 A 
ATOM     50  C   UNL A   1      45.494  28.375  29.455  1.00  0.00     0.049 A 
ATOM     51  C   UNL A   1      40.694  31.322  30.994  1.00  0.00     0.074 A 
ATOM     52  C   UNL A   1      45.672  27.260  30.252  1.00  0.00     0.029 A 
ATOM     53  N   UNL A   1      45.079  29.381  30.302  1.00  0.00    -0.354 N 
ATOM     54  N   UNL A   1      41.327  30.849  32.032  1.00  0.00    -0.248 NA
ATOM     55  C   UNL A   1      41.536  31.832  29.923  1.00  0.00     0.031 C 
ATOM     56  C   UNL A   1      44.891  27.515  31.417  1.00  0.00     0.029 A 
ATOM     57  C   UNL A   1      44.366  28.805  31.320  1.00  0.00     0.049 A 
ATOM     58  H   UNL A   1      45.263  30.341  30.193  1.00  0.00     0.167 HD
ATOM     59  C   UNL A   1      42.589  30.537  31.542  1.00  0.00     0.074 A 
ATOM     60  C   UNL A   1      42.694  31.266  30.275  1.00  0.00     0.031 C 
ATOM     61  C   UNL A   1      43.299  29.476  32.032  1.00  0.00     0.034 A 
BRANCH  48  62
ATOM     62  C   UNL A   1      45.878  29.795  27.345  1.00  0.00     0.023 A 
ATOM     63  C   UNL A   1      47.284  29.917  27.410  1.00  0.00     0.012 A 
ATOM     64  C   UNL A   1      45.162  30.917  26.865  1.00  0.00     0.148 A 
ATOM     65  C   UNL A   1      47.935  31.110  27.088  1.00  0.00     0.002 A 
ATOM     66  C   UNL A   1      45.821  32.074  26.468  1.00  0.00     0.091 A 
ATOM     67  F   UNL A   1      43.830  30.941  26.909  1.00  0.00    -0.205 F 
ATOM     68  C   UNL A   1      47.203  32.188  26.610  1.00  0.00     0.022 A 
BRANCH  66  69
ATOM     69  S   UNL A   1      44.928  33.486  25.800  1.00  0.00     0.127 S 
ATOM     70  O   UNL A   1      46.022  34.402  25.489  1.00  0.00    -0.237 OA
ATOM     71  O   UNL A   1      44.262  32.894  24.640  1.00  0.00    -0.237 OA
ATOM     72  O   UNL A   1      44.020  33.915  26.856  1.00  0.00    -0.744 OA
ENDBRANCH  66  69
ENDBRANCH  48  62
BRANCH  49  73
ATOM     73  C   UNL A   1      38.217  31.912  30.460  1.00  0.00     0.023 A 
ATOM     74  C   UNL A   1      37.652  32.106  29.181  1.00  0.00     0.012 A 
ATOM     75  C   UNL A   1      37.531  32.452  31.571  1.00  0.00     0.148 A 
ATOM     76  C   UNL A   1      36.431  32.776  29.020  1.00  0.00     0.002 A 
ATOM     77  C   UNL A   1      36.318  33.119  31.407  1.00  0.00     0.091 A 
ATOM     78  F   UNL A   1      38.017  32.227  32.800  1.00  0.00    -0.205 F 
ATOM     79  C   UNL A   1      35.759  33.273  30.133  1.00  0.00     0.022 A 
BRANCH  77  80
ATOM     80  S   UNL A   1      35.384  33.748  32.811  1.00  0.00     0.127 S 
ATOM     81  O   UNL A   1      35.612  32.711  33.820  1.00  0.00    -0.237 OA
ATOM     82  O   UNL A   1      36.055  35.018  33.076  1.00  0.00    -0.237 OA
ATOM     83  O   UNL A   1      34.003  33.849  32.358  1.00  0.00    -0.744 OA
ENDBRANCH  77  80
ENDBRANCH  49  73
BRANCH  61  84
ATOM     84  C   UNL A   1      42.809  28.788  33.285  1.00  0.00     0.023 A 
ATOM     85  C   UNL A   1      41.799  27.803  33.277  1.00  0.00     0.012 A 
ATOM     86  C   UNL A   1      43.531  29.002  34.471  1.00  0.00     0.148 A 
ATOM     87  C   UNL A   1      41.509  27.060  34.427  1.00  0.00     0.002 A 
ATOM     88  C   UNL A   1      43.275  28.229  35.596  1.00  0.00     0.091 A 
ATOM     89  F   UNL A   1      44.489  29.941  34.467  1.00  0.00    -0.205 F 
ATOM     90  C   UNL A   1      42.259  27.262  35.583  1.00  0.00     0.022 A 
BRANCH  88  91
ATOM     91  S   UNL A   1      44.297  28.359  37.065  1.00  0.00     0.127 S 
ATOM     92  O   UNL A   1      43.779  27.271  37.892  1.00  0.00    -0.237 OA
ATOM     93  O   UNL A   1      45.643  28.137  36.534  1.00  0.00    -0.237 OA
ATOM     94  O   UNL A   1      44.079  29.703  37.586  1.00  0.00    -0.744 OA
ENDBRANCH  88  91
ENDBRANCH  61  84
ENDBRANCH  35  36
ENDBRANCH  27  30
ENDBRANCH  25  26
ENDBRANCH   1  25
TORSDOF 16
ENDMDL
MODEL 2
REMARK VINA RESULT:     -12.9      3.093      8.682
REMARK SMILES O=C(Cn1cnc(-c2ccccc2)c1-c1ccccc1)NCCCNC(=O)c1ccc(-c2c3nc(c(-c4cccc(S(=O)(=O)[O-])c4F)c4ccc([nH]4)c(-c4cccc(S(=O)(=O)[O-])c4F)c4nc(c(-c5cccc(S(=O)(=O)[O-])c5F)c5ccc2[nH]5)C=C4)C=C3)cc1
REMARK SMILES IDX 23 1 22 2 21 3 1 4 2 5 3 7 4 8 5 9 14 10 6 11 7 12 15 13
REMARK SMILES IDX 16 14 20 15 17 16 19 17 18 18 8 19 9 20 13 21 10 22 12 23
REMARK SMILES IDX 11 24 24 25 25 26 26 27 27 29 28 30 29 31 90 32 30 33 89 34
REMARK SMILES IDX 31 35 32 36 33 37 83 38 34 39 88 40 82 41 84 42 35 43 87 44
REMARK SMILES IDX 81 45 80 46 36 48 68 49 48 50 67 51 49 52 52 53 66 54 85 55
REMARK SMILES IDX 50 56 51 57 65 59 86 60 53 61 37 62 38 63 46 64 39 65 41 66
REMARK SMILES IDX 47 67 40 68 42 69 43 70 44 71 45 72 69 73 70 74 78 75 71 76
REMARK SMILES IDX 73 77 79 78 72 79 74 80 75 81 76 82 77 83 54 84 55 85 63 86
REMARK SMILES IDX 56 87 58 88 64 89 57 90 59 91 60 92 61 93 62 94
REMARK H PARENT 21 6 25 28 84 47 52 58
REMARK Flexibility Score: inf
ROOT
ATOM      1  C   UNL A   1      32.697  30.456  26.128  1.00  0.00     0.042 C 
ENDROOT
BRANCH   1   2
ATOM      2  C   UNL A   1      31.852  29.202  25.895  1.00  0.00     0.117 C 
BRANCH   2   3
ATOM      3  N   UNL A   1      32.278  28.401  24.751  1.00  0.00    -0.354 N 
ATOM      4  O   UNL A   1      33.584  26.916  25.915  1.00  0.00    -0.273 OA
ATOM      5  C   UNL A   1      33.059  27.268  24.858  1.00  0.00     0.239 C 
ATOM      6  H   UNL A   1      31.992  28.685  23.852  1.00  0.00     0.163 HD
BRANCH   5   7
ATOM      7  C   UNL A   1      33.222  26.466  23.573  1.00  0.00     0.223 C 
BRANCH   7   8
ATOM      8  N   UNL A   1      32.561  25.174  23.661  1.00  0.00    -0.321 N 
ATOM      9  C   UNL A   1      31.228  24.949  23.434  1.00  0.00     0.201 A 
ATOM     10  C   UNL A   1      33.130  23.957  23.943  1.00  0.00     0.076 A 
ATOM     11  N   UNL A   1      30.919  23.671  23.512  1.00  0.00    -0.236 NA
ATOM     12  C   UNL A   1      32.084  23.046  23.878  1.00  0.00     0.096 A 
BRANCH  10  13
ATOM     13  C   UNL A   1      34.530  23.687  24.191  1.00  0.00     0.000 A 
ATOM     14  C   UNL A   1      35.288  23.135  23.143  1.00  0.00     0.010 A 
ATOM     15  C   UNL A   1      35.057  23.791  25.478  1.00  0.00     0.010 A 
ATOM     16  C   UNL A   1      36.525  22.588  23.398  1.00  0.00     0.001 A 
ATOM     17  C   UNL A   1      36.313  23.268  25.726  1.00  0.00     0.001 A 
ATOM     18  C   UNL A   1      37.007  22.630  24.694  1.00  0.00     0.000 A 
ENDBRANCH  10  13
BRANCH  12  19
ATOM     19  C   UNL A   1      32.245  21.610  24.073  1.00  0.00     0.002 A 
ATOM     20  C   UNL A   1      32.173  20.744  22.977  1.00  0.00     0.010 A 
ATOM     21  C   UNL A   1      32.619  21.088  25.324  1.00  0.00     0.010 A 
ATOM     22  C   UNL A   1      32.498  19.391  23.122  1.00  0.00     0.001 A 
ATOM     23  C   UNL A   1      32.949  19.738  25.467  1.00  0.00     0.001 A 
ATOM     24  C   UNL A   1      32.891  18.890  24.364  1.00  0.00     0.000 A 
ENDBRANCH  12  19
ENDBRANCH   7   8
ENDBRANCH   5   7
ENDBRANCH   2   3
ENDBRANCH   1   2
BRANCH   1  25
ATOM     25  C   UNL A   1      33.699  30.291  27.254  1.00  0.00     0.118 C 
BRANCH  25  26
ATOM     26  N   UNL A   1      33.779  31.331  28.264  1.00  0.00    -0.352 N 
ATOM     27  C   UNL A   1      34.849  31.651  29.085  1.00  0.00     0.251 C 
ATOM     28  H   UNL A   1      32.969  31.879  28.380  1.00  0.00     0.163 HD
ATOM     29  O   UNL A   1      34.675  32.526  29.945  1.00  0.00    -0.269 OA
BRANCH  27  30
ATOM     30  C   UNL A   1      36.208  31.038  28.937  1.00  0.00     0.039 A 
ATOM     31  C   UNL A   1      36.354  29.650  28.746  1.00  0.00     0.014 A 
ATOM     32  C   UNL A   1      37.370  31.781  29.103  1.00  0.00     0.014 A 
ATOM     33  C   UNL A   1      37.622  29.047  28.835  1.00  0.00     0.010 A 
ATOM     34  C   UNL A   1      38.610  31.206  29.182  1.00  0.00     0.010 A 
ATOM     35  C   UNL A   1      38.734  29.834  29.135  1.00  0.00    -0.014 A 
BRANCH  35  36
ATOM     36  C   UNL A   1      40.116  29.387  29.167  1.00  0.00     0.031 A 
ATOM     37  C   UNL A   1      40.550  29.129  30.560  1.00  0.00     0.074 A 
ATOM     38  C   UNL A   1      40.783  28.883  28.104  1.00  0.00     0.049 A 
ATOM     39  N   UNL A   1      41.290  29.920  31.262  1.00  0.00    -0.248 NA
ATOM     40  C   UNL A   1      39.926  28.049  31.350  1.00  0.00     0.031 C 
ATOM     41  C   UNL A   1      40.377  28.771  26.706  1.00  0.00     0.029 A 
ATOM     42  N   UNL A   1      41.955  28.194  28.102  1.00  0.00    -0.354 N 
ATOM     43  C   UNL A   1      41.457  29.268  32.472  1.00  0.00     0.074 A 
ATOM     44  C   UNL A   1      40.363  28.346  32.577  1.00  0.00     0.031 C 
ATOM     45  C   UNL A   1      41.103  27.813  26.082  1.00  0.00     0.029 A 
ATOM     46  C   UNL A   1      42.166  27.404  26.974  1.00  0.00     0.049 A 
ATOM     47  H   UNL A   1      42.604  28.250  28.840  1.00  0.00     0.167 HD
ATOM     48  C   UNL A   1      42.662  29.286  33.105  1.00  0.00     0.034 A 
ATOM     49  C   UNL A   1      43.147  26.481  26.794  1.00  0.00     0.034 A 
ATOM     50  C   UNL A   1      43.564  30.215  32.458  1.00  0.00     0.049 A 
ATOM     51  C   UNL A   1      44.231  26.838  27.742  1.00  0.00     0.074 A 
ATOM     52  C   UNL A   1      43.501  31.551  32.110  1.00  0.00     0.029 A 
ATOM     53  N   UNL A   1      44.548  29.666  31.663  1.00  0.00    -0.354 N 
ATOM     54  N   UNL A   1      44.915  27.944  27.647  1.00  0.00    -0.248 NA
ATOM     55  C   UNL A   1      44.200  26.228  29.062  1.00  0.00     0.031 C 
ATOM     56  C   UNL A   1      44.081  31.618  30.809  1.00  0.00     0.029 A 
ATOM     57  C   UNL A   1      44.560  30.350  30.477  1.00  0.00     0.049 A 
ATOM     58  H   UNL A   1      45.135  28.915  31.906  1.00  0.00     0.167 HD
ATOM     59  C   UNL A   1      44.962  28.422  28.951  1.00  0.00     0.074 A 
ATOM     60  C   UNL A   1      44.607  27.273  29.789  1.00  0.00     0.031 C 
ATOM     61  C   UNL A   1      44.963  29.764  29.216  1.00  0.00     0.034 A 
BRANCH  48  62
ATOM     62  C   UNL A   1      43.190  28.214  34.030  1.00  0.00     0.023 A 
ATOM     63  C   UNL A   1      43.607  28.646  35.309  1.00  0.00     0.012 A 
ATOM     64  C   UNL A   1      43.535  26.894  33.659  1.00  0.00     0.148 A 
ATOM     65  C   UNL A   1      44.386  27.838  36.140  1.00  0.00     0.002 A 
ATOM     66  C   UNL A   1      44.239  26.064  34.523  1.00  0.00     0.091 A 
ATOM     67  F   UNL A   1      43.311  26.456  32.419  1.00  0.00    -0.205 F 
ATOM     68  C   UNL A   1      44.698  26.543  35.750  1.00  0.00     0.022 A 
BRANCH  66  69
ATOM     69  S   UNL A   1      44.634  24.364  34.088  1.00  0.00     0.127 S 
ATOM     70  O   UNL A   1      45.662  24.555  33.068  1.00  0.00    -0.237 OA
ATOM     71  O   UNL A   1      45.112  23.835  35.364  1.00  0.00    -0.237 OA
ATOM     72  O   UNL A   1      43.383  23.774  33.627  1.00  0.00    -0.744 OA
ENDBRANCH  66  69
ENDBRANCH  48  62
BRANCH  49  73
ATOM     73  C   UNL A   1      43.132  25.201  26.042  1.00  0.00     0.023 A 
ATOM     74  C   UNL A   1      44.152  24.918  25.110  1.00  0.00     0.012 A 
ATOM     75  C   UNL A   1      42.292  24.138  26.444  1.00  0.00     0.148 A 
ATOM     76  C   UNL A   1      44.353  23.616  24.627  1.00  0.00     0.002 A 
ATOM     77  C   UNL A   1      42.494  22.847  25.961  1.00  0.00     0.091 A 
ATOM     78  F   UNL A   1      41.357  24.373  27.375  1.00  0.00    -0.205 F 
ATOM     79  C   UNL A   1      43.532  22.579  25.060  1.00  0.00     0.022 A 
BRANCH  77  80
ATOM     80  S   UNL A   1      41.490  21.459  26.515  1.00  0.00     0.127 S 
ATOM     81  O   UNL A   1      42.058  20.347  25.750  1.00  0.00    -0.237 OA
ATOM     82  O   UNL A   1      41.780  21.429  27.946  1.00  0.00    -0.237 OA
ATOM     83  O   UNL A   1      40.118  21.792  26.158  1.00  0.00    -0.744 OA
ENDBRANCH  77  80
ENDBRANCH  49  73
BRANCH  61  84
ATOM     84  C   UNL A   1      45.163  30.732  28.073  1.00  0.00     0.023 A 
ATOM     85  C   UNL A   1      44.093  31.294  27.344  1.00  0.00     0.012 A 
ATOM     86  C   UNL A   1      46.457  31.238  27.866  1.00  0.00     0.148 A 
ATOM     87  C   UNL A   1      44.312  32.325  26.424  1.00  0.00     0.002 A 
ATOM     88  C   UNL A   1      46.665  32.294  26.988  1.00  0.00     0.091 A 
ATOM     89  F   UNL A   1      47.467  30.696  28.564  1.00  0.00    -0.205 F 
ATOM     90  C   UNL A   1      45.596  32.836  26.258  1.00  0.00     0.022 A 
BRANCH  88  91
ATOM     91  S   UNL A   1      48.273  33.074  26.836  1.00  0.00     0.127 S 
ATOM     92  O   UNL A   1      48.034  34.058  25.782  1.00  0.00    -0.237 OA
ATOM     93  O   UNL A   1      48.476  33.641  28.170  1.00  0.00    -0.237 OA
ATOM     94  O   UNL A   1      49.205  32.005  26.498  1.00  0.00    -0.744 OA
ENDBRANCH  88  91
ENDBRANCH  61  84
ENDBRANCH  35  36
ENDBRANCH  27  30
ENDBRANCH  25  26
ENDBRANCH   1  25
TORSDOF 16
ENDMDL
MODEL 3
REMARK VINA RESULT:     -12.8      2.935      8.866
REMARK SMILES O=C(Cn1cnc(-c2ccccc2)c1-c1ccccc1)NCCCNC(=O)c1ccc(-c2c3nc(c(-c4cccc(S(=O)(=O)[O-])c4F)c4ccc([nH]4)c(-c4cccc(S(=O)(=O)[O-])c4F)c4nc(c(-c5cccc(S(=O)(=O)[O-])c5F)c5ccc2[nH]5)C=C4)C=C3)cc1
REMARK SMILES IDX 23 1 22 2 21 3 1 4 2 5 3 7 4 8 5 9 14 10 6 11 7 12 15 13
REMARK SMILES IDX 16 14 20 15 17 16 19 17 18 18 8 19 9 20 13 21 10 22 12 23
REMARK SMILES IDX 11 24 24 25 25 26 26 27 27 29 28 30 29 31 90 32 30 33 89 34
REMARK SMILES IDX 31 35 32 36 33 37 83 38 34 39 88 40 82 41 84 42 35 43 87 44
REMARK SMILES IDX 81 45 80 46 36 48 68 49 48 50 67 51 49 52 52 53 66 54 85 55
REMARK SMILES IDX 50 56 51 57 65 59 86 60 53 61 37 62 38 63 46 64 39 65 41 66
REMARK SMILES IDX 47 67 40 68 42 69 43 70 44 71 45 72 69 73 70 74 78 75 71 76
REMARK SMILES IDX 73 77 79 78 72 79 74 80 75 81 76 82 77 83 54 84 55 85 63 86
REMARK SMILES IDX 56 87 58 88 64 89 57 90 59 91 60 92 61 93 62 94
REMARK H PARENT 21 6 25 28 84 47 52 58
REMARK Flexibility Score: inf
ROOT
ATOM      1  C   UNL A   1      32.492  28.922  27.370  1.00  0.00     0.042 C 
ENDROOT
BRANCH   1   2
ATOM      2  C   UNL A   1      31.528  28.369  26.319  1.00  0.00     0.117 C 
BRANCH   2   3
ATOM      3  N   UNL A   1      32.126  27.386  25.421  1.00  0.00    -0.354 N 
ATOM      4  O   UNL A   1      31.304  28.252  23.462  1.00  0.00    -0.273 OA
ATOM      5  C   UNL A   1      32.027  27.445  24.045  1.00  0.00     0.239 C 
ATOM      6  H   UNL A   1      32.630  26.638  25.819  1.00  0.00     0.163 HD
BRANCH   5   7
ATOM      7  C   UNL A   1      32.889  26.443  23.288  1.00  0.00     0.223 C 
BRANCH   7   8
ATOM      8  N   UNL A   1      32.374  25.090  23.416  1.00  0.00    -0.321 N 
ATOM      9  C   UNL A   1      31.084  24.706  23.161  1.00  0.00     0.201 A 
ATOM     10  C   UNL A   1      33.066  23.958  23.770  1.00  0.00     0.076 A 
ATOM     11  N   UNL A   1      30.917  23.405  23.289  1.00  0.00    -0.236 NA
ATOM     12  C   UNL A   1      32.131  22.932  23.717  1.00  0.00     0.096 A 
BRANCH  10  13
ATOM     13  C   UNL A   1      34.478  23.859  24.071  1.00  0.00     0.000 A 
ATOM     14  C   UNL A   1      35.304  23.207  23.138  1.00  0.00     0.010 A 
ATOM     15  C   UNL A   1      34.966  24.226  25.324  1.00  0.00     0.010 A 
ATOM     16  C   UNL A   1      36.578  22.823  23.492  1.00  0.00     0.001 A 
ATOM     17  C   UNL A   1      36.257  23.866  25.668  1.00  0.00     0.001 A 
ATOM     18  C   UNL A   1      37.026  23.127  24.765  1.00  0.00     0.000 A 
ENDBRANCH  10  13
BRANCH  12  19
ATOM     19  C   UNL A   1      32.446  21.533  23.982  1.00  0.00     0.002 A 
ATOM     20  C   UNL A   1      32.791  21.128  25.276  1.00  0.00     0.010 A 
ATOM     21  C   UNL A   1      32.268  20.552  22.991  1.00  0.00     0.010 A 
ATOM     22  C   UNL A   1      32.924  19.769  25.579  1.00  0.00     0.001 A 
ATOM     23  C   UNL A   1      32.395  19.194  23.296  1.00  0.00     0.001 A 
ATOM     24  C   UNL A   1      32.721  18.804  24.593  1.00  0.00     0.000 A 
ENDBRANCH  12  19
ENDBRANCH   7   8
ENDBRANCH   5   7
ENDBRANCH   2   3
ENDBRANCH   1   2
BRANCH   1  25
ATOM     25  C   UNL A   1      33.375  30.032  26.835  1.00  0.00     0.118 C 
BRANCH  25  26
ATOM     26  N   UNL A   1      33.432  31.283  27.569  1.00  0.00    -0.352 N 
ATOM     27  C   UNL A   1      34.467  31.776  28.348  1.00  0.00     0.251 C 
ATOM     28  H   UNL A   1      32.632  31.854  27.506  1.00  0.00     0.163 HD
ATOM     29  O   UNL A   1      34.274  32.835  28.962  1.00  0.00    -0.269 OA
BRANCH  27  30
ATOM     30  C   UNL A   1      35.815  31.125  28.427  1.00  0.00     0.039 A 
ATOM     31  C   UNL A   1      35.944  29.726  28.335  1.00  0.00     0.014 A 
ATOM     32  C   UNL A   1      36.963  31.851  28.715  1.00  0.00     0.014 A 
ATOM     33  C   UNL A   1      37.169  29.101  28.636  1.00  0.00     0.010 A 
ATOM     34  C   UNL A   1      38.163  31.255  29.000  1.00  0.00     0.010 A 
ATOM     35  C   UNL A   1      38.251  29.880  29.045  1.00  0.00    -0.014 A 
BRANCH  35  36
ATOM     36  C   UNL A   1      39.600  29.405  29.297  1.00  0.00     0.031 A 
ATOM     37  C   UNL A   1      39.888  29.389  30.751  1.00  0.00     0.074 A 
ATOM     38  C   UNL A   1      40.342  28.699  28.413  1.00  0.00     0.049 A 
ATOM     39  N   UNL A   1      40.593  30.271  31.374  1.00  0.00    -0.248 NA
ATOM     40  C   UNL A   1      39.141  28.487  31.650  1.00  0.00     0.031 C 
ATOM     41  C   UNL A   1      40.065  28.349  27.022  1.00  0.00     0.029 A 
ATOM     42  N   UNL A   1      41.474  27.987  28.652  1.00  0.00    -0.354 N 
ATOM     43  C   UNL A   1      40.614  29.842  32.691  1.00  0.00     0.074 A 
ATOM     44  C   UNL A   1      39.472  28.987  32.844  1.00  0.00     0.031 C 
ATOM     45  C   UNL A   1      40.802  27.275  26.654  1.00  0.00     0.029 A 
ATOM     46  C   UNL A   1      41.754  27.000  27.708  1.00  0.00     0.049 A 
ATOM     47  H   UNL A   1      42.052  28.155  29.431  1.00  0.00     0.167 HD
ATOM     48  C   UNL A   1      41.753  29.938  33.431  1.00  0.00     0.034 A 
ATOM     49  C   UNL A   1      42.703  26.032  27.794  1.00  0.00     0.034 A 
ATOM     50  C   UNL A   1      42.755  30.709  32.725  1.00  0.00     0.049 A 
ATOM     51  C   UNL A   1      43.707  26.521  28.770  1.00  0.00     0.074 A 
ATOM     52  C   UNL A   1      42.788  31.962  32.144  1.00  0.00     0.029 A 
ATOM     53  N   UNL A   1      43.783  29.997  32.145  1.00  0.00    -0.354 N 
ATOM     54  N   UNL A   1      44.450  27.572  28.552  1.00  0.00    -0.248 NA
ATOM     55  C   UNL A   1      43.522  26.159  30.167  1.00  0.00     0.031 C 
ATOM     56  C   UNL A   1      43.492  31.777  30.917  1.00  0.00     0.029 A 
ATOM     57  C   UNL A   1      43.941  30.456  30.864  1.00  0.00     0.049 A 
ATOM     58  H   UNL A   1      44.308  29.285  32.574  1.00  0.00     0.167 HD
ATOM     59  C   UNL A   1      44.395  28.274  29.750  1.00  0.00     0.074 A 
ATOM     60  C   UNL A   1      43.907  27.305  30.736  1.00  0.00     0.031 C 
ATOM     61  C   UNL A   1      44.434  29.641  29.774  1.00  0.00     0.034 A 
BRANCH  48  62
ATOM     62  C   UNL A   1      42.139  29.035  34.579  1.00  0.00     0.023 A 
ATOM     63  C   UNL A   1      42.629  29.677  35.738  1.00  0.00     0.012 A 
ATOM     64  C   UNL A   1      42.291  27.630  34.514  1.00  0.00     0.148 A 
ATOM     65  C   UNL A   1      43.298  28.973  36.741  1.00  0.00     0.002 A 
ATOM     66  C   UNL A   1      42.885  26.923  35.553  1.00  0.00     0.091 A 
ATOM     67  F   UNL A   1      41.992  26.965  33.398  1.00  0.00    -0.205 F 
ATOM     68  C   UNL A   1      43.422  27.593  36.652  1.00  0.00     0.022 A 
BRANCH  66  69
ATOM     69  S   UNL A   1      43.033  25.131  35.511  1.00  0.00     0.127 S 
ATOM     70  O   UNL A   1      41.631  24.723  35.489  1.00  0.00    -0.237 OA
ATOM     71  O   UNL A   1      43.762  24.923  34.260  1.00  0.00    -0.237 OA
ATOM     72  O   UNL A   1      43.783  24.768  36.706  1.00  0.00    -0.744 OA
ENDBRANCH  66  69
ENDBRANCH  48  62
BRANCH  49  73
ATOM     73  C   UNL A   1      42.699  24.639  27.282  1.00  0.00     0.023 A 
ATOM     74  C   UNL A   1      41.505  23.888  27.283  1.00  0.00     0.012 A 
ATOM     75  C   UNL A   1      43.787  24.145  26.526  1.00  0.00     0.148 A 
ATOM     76  C   UNL A   1      41.386  22.712  26.529  1.00  0.00     0.002 A 
ATOM     77  C   UNL A   1      43.665  22.976  25.779  1.00  0.00     0.091 A 
ATOM     78  F   UNL A   1      44.910  24.874  26.461  1.00  0.00    -0.205 F 
ATOM     79  C   UNL A   1      42.461  22.261  25.769  1.00  0.00     0.022 A 
BRANCH  77  80
ATOM     80  S   UNL A   1      45.007  22.365  24.746  1.00  0.00     0.127 S 
ATOM     81  O   UNL A   1      44.416  21.164  24.154  1.00  0.00    -0.237 OA
ATOM     82  O   UNL A   1      45.199  23.474  23.814  1.00  0.00    -0.237 OA
ATOM     83  O   UNL A   1      46.119  22.104  25.649  1.00  0.00    -0.744 OA
ENDBRANCH  77  80
ENDBRANCH  49  73
BRANCH  61  84
ATOM     84  C   UNL A   1      44.787  30.382  28.505  1.00  0.00     0.023 A 
ATOM     85  C   UNL A   1      43.818  30.858  27.597  1.00  0.00     0.012 A 
ATOM     86  C   UNL A   1      46.124  30.779  28.333  1.00  0.00     0.148 A 
ATOM     87  C   UNL A   1      44.177  31.699  26.538  1.00  0.00     0.002 A 
ATOM     88  C   UNL A   1      46.469  31.652  27.310  1.00  0.00     0.091 A 
ATOM     89  F   UNL A   1      47.037  30.320  29.202  1.00  0.00    -0.205 F 
ATOM     90  C   UNL A   1      45.500  32.109  26.403  1.00  0.00     0.022 A 
BRANCH  88  91
ATOM     91  S   UNL A   1      48.131  32.314  27.173  1.00  0.00     0.127 S 
ATOM     92  O   UNL A   1      48.260  33.071  28.417  1.00  0.00    -0.237 OA
ATOM     93  O   UNL A   1      48.948  31.101  27.107  1.00  0.00    -0.237 OA
ATOM     94  O   UNL A   1      48.146  33.106  25.950  1.00  0.00    -0.744 OA
ENDBRANCH  88  91
ENDBRANCH  61  84
ENDBRANCH  35  36
ENDBRANCH  27  30
ENDBRANCH  25  26
ENDBRANCH   1  25
TORSDOF 16
ENDMDL
