MODEL 1
REMARK VINA RESULT:     -10.5      0.000      0.000
REMARK SMILES COCCCC(=O)N[C@H]1CC[C@@H](C(=O)NCCCNC(=O)c2ccc(-c3c4nc(c(-c5cccc(S(=O)(=O)[O-])c5F)c5ccc([nH]5)c(-c5cccc(S(=O)(=O)[O-])c5F)c5nc(c(-c6cccc(S(=O)(=O)[O-])c6F)c6ccc3[nH]6)C=C5)C=C4)cc2)CC1
REMARK SMILES IDX 16 1 15 2 13 3 14 4 12 6 9 7 10 8 86 9 11 10 85 11 8 12 6 13
REMARK SMILES IDX 7 14 5 16 4 17 3 18 2 19 1 20 17 21 18 22 19 23 20 24 21 26
REMARK SMILES IDX 22 27 23 28 84 29 24 30 83 31 25 32 26 33 27 34 77 35 28 36
REMARK SMILES IDX 82 37 76 38 78 39 29 40 81 41 75 42 74 43 30 45 62 46 42 47
REMARK SMILES IDX 61 48 43 49 46 50 60 51 79 52 44 53 45 54 59 56 80 57 47 58
REMARK SMILES IDX 31 59 32 60 40 61 33 62 35 63 41 64 34 65 36 66 37 67 38 68
REMARK SMILES IDX 39 69 63 70 64 71 72 72 65 73 67 74 73 75 66 76 68 77 69 78
REMARK SMILES IDX 70 79 71 80 48 81 49 82 57 83 50 84 52 85 58 86 51 87 53 88
REMARK SMILES IDX 54 89 55 90 56 91
REMARK H PARENT 15 5 8 15 19 25 78 44 46 55
REMARK Flexibility Score: inf
ROOT
ATOM      1  C   UNL A   1      36.320  19.737  24.994  1.00  0.00     0.117 C 
ENDROOT
BRANCH   1   2
ATOM      2  N   UNL A   1      36.069  21.162  24.902  1.00  0.00    -0.356 N 
ATOM      3  C   UNL A   1      34.968  21.908  24.652  1.00  0.00     0.223 C 
ATOM      4  O   UNL A   1      35.133  23.134  24.752  1.00  0.00    -0.275 OA
ATOM      5  H   UNL A   1      36.876  21.704  25.054  1.00  0.00     0.163 HD
BRANCH   3   6
ATOM      6  C   UNL A   1      33.594  21.394  24.185  1.00  0.00     0.078 C 
ATOM      7  C   UNL A   1      31.038  22.904  24.813  1.00  0.00     0.082 C 
ATOM      8  C   UNL A   1      31.696  23.067  23.432  1.00  0.00     0.026 C 
ATOM      9  C   UNL A   1      31.939  22.252  25.829  1.00  0.00     0.026 C 
ATOM     10  C   UNL A   1      32.833  22.098  23.062  1.00  0.00     0.015 C 
ATOM     11  C   UNL A   1      32.690  21.039  25.351  1.00  0.00     0.015 C 
BRANCH   7  12
ATOM     12  N   UNL A   1      30.453  24.186  25.245  1.00  0.00    -0.353 N 
ATOM     13  C   UNL A   1      30.868  25.232  26.012  1.00  0.00     0.220 C 
ATOM     14  O   UNL A   1      29.973  25.939  26.490  1.00  0.00    -0.275 OA
ATOM     15  H   UNL A   1      29.542  24.317  24.897  1.00  0.00     0.163 HD
BRANCH  13  16
ATOM     16  C   UNL A   1      32.322  25.644  26.175  1.00  0.00     0.102 C 
BRANCH  16  17
ATOM     17  C   UNL A   1      33.111  25.947  24.904  1.00  0.00     0.038 C 
BRANCH  17  18
ATOM     18  C   UNL A   1      32.536  26.955  23.900  1.00  0.00     0.160 C 
BRANCH  18  19
ATOM     19  O   UNL A   1      31.683  27.998  24.371  1.00  0.00    -0.385 OA
ATOM     20  C   UNL A   1      30.403  28.123  23.784  1.00  0.00     0.194 C 
ENDBRANCH  18  19
ENDBRANCH  17  18
ENDBRANCH  16  17
ENDBRANCH  13  16
ENDBRANCH   7  12
ENDBRANCH   3   6
ENDBRANCH   1   2
BRANCH   1  21
ATOM     21  C   UNL A   1      37.787  19.374  24.781  1.00  0.00     0.042 C 
BRANCH  21  22
ATOM     22  C   UNL A   1      38.753  20.010  25.770  1.00  0.00     0.118 C 
BRANCH  22  23
ATOM     23  N   UNL A   1      39.941  19.198  25.987  1.00  0.00    -0.352 N 
ATOM     24  C   UNL A   1      41.250  19.538  26.232  1.00  0.00     0.251 C 
ATOM     25  H   UNL A   1      39.777  18.228  25.951  1.00  0.00     0.163 HD
ATOM     26  O   UNL A   1      42.093  18.642  26.194  1.00  0.00    -0.269 OA
BRANCH  24  27
ATOM     27  C   UNL A   1      41.675  20.930  26.537  1.00  0.00     0.039 A 
ATOM     28  C   UNL A   1      41.686  21.866  25.495  1.00  0.00     0.014 A 
ATOM     29  C   UNL A   1      42.140  21.316  27.796  1.00  0.00     0.014 A 
ATOM     30  C   UNL A   1      42.125  23.177  25.723  1.00  0.00     0.010 A 
ATOM     31  C   UNL A   1      42.475  22.647  28.048  1.00  0.00     0.010 A 
ATOM     32  C   UNL A   1      42.503  23.589  27.010  1.00  0.00    -0.014 A 
BRANCH  32  33
ATOM     33  C   UNL A   1      42.952  24.983  27.283  1.00  0.00     0.031 A 
ATOM     34  C   UNL A   1      42.024  25.970  27.949  1.00  0.00     0.074 A 
ATOM     35  C   UNL A   1      44.164  25.391  26.858  1.00  0.00     0.049 A 
ATOM     36  N   UNL A   1      42.216  27.238  28.210  1.00  0.00    -0.248 NA
ATOM     37  C   UNL A   1      40.694  25.477  28.341  1.00  0.00     0.031 C 
ATOM     38  C   UNL A   1      45.127  24.565  26.127  1.00  0.00     0.029 A 
ATOM     39  N   UNL A   1      44.785  26.612  26.959  1.00  0.00    -0.354 N 
ATOM     40  C   UNL A   1      41.022  27.703  28.750  1.00  0.00     0.074 A 
ATOM     41  C   UNL A   1      40.098  26.590  28.742  1.00  0.00     0.031 C 
ATOM     42  C   UNL A   1      46.216  25.298  25.851  1.00  0.00     0.029 A 
ATOM     43  C   UNL A   1      46.020  26.654  26.356  1.00  0.00     0.049 A 
ATOM     44  H   UNL A   1      44.384  27.386  27.418  1.00  0.00     0.167 HD
ATOM     45  C   UNL A   1      40.725  28.931  29.240  1.00  0.00     0.034 A 
ATOM     46  C   UNL A   1      46.898  27.668  26.217  1.00  0.00     0.034 A 
ATOM     47  C   UNL A   1      41.663  30.021  29.300  1.00  0.00     0.049 A 
ATOM     48  C   UNL A   1      46.575  29.006  26.821  1.00  0.00     0.074 A 
ATOM     49  C   UNL A   1      41.497  31.269  29.872  1.00  0.00     0.029 A 
ATOM     50  N   UNL A   1      42.941  29.995  28.763  1.00  0.00    -0.354 N 
ATOM     51  N   UNL A   1      45.499  29.378  27.473  1.00  0.00    -0.248 NA
ATOM     52  C   UNL A   1      47.600  30.053  26.706  1.00  0.00     0.031 C 
ATOM     53  C   UNL A   1      42.666  32.008  29.656  1.00  0.00     0.029 A 
ATOM     54  C   UNL A   1      43.571  31.208  28.978  1.00  0.00     0.049 A 
ATOM     55  H   UNL A   1      43.343  29.225  28.298  1.00  0.00     0.167 HD
ATOM     56  C   UNL A   1      45.728  30.691  27.870  1.00  0.00     0.074 A 
ATOM     57  C   UNL A   1      47.055  31.040  27.407  1.00  0.00     0.031 C 
ATOM     58  C   UNL A   1      44.909  31.533  28.547  1.00  0.00     0.034 A 
BRANCH  45  59
ATOM     59  C   UNL A   1      39.340  29.146  29.798  1.00  0.00     0.023 A 
ATOM     60  C   UNL A   1      39.057  28.773  31.130  1.00  0.00     0.012 A 
ATOM     61  C   UNL A   1      38.328  29.747  29.024  1.00  0.00     0.148 A 
ATOM     62  C   UNL A   1      37.781  28.948  31.665  1.00  0.00     0.002 A 
ATOM     63  C   UNL A   1      37.071  29.963  29.580  1.00  0.00     0.091 A 
ATOM     64  F   UNL A   1      38.603  30.079  27.755  1.00  0.00    -0.205 F 
ATOM     65  C   UNL A   1      36.792  29.550  30.893  1.00  0.00     0.022 A 
BRANCH  63  66
ATOM     66  S   UNL A   1      35.754  30.806  28.696  1.00  0.00     0.127 S 
ATOM     67  O   UNL A   1      35.110  29.695  27.996  1.00  0.00    -0.237 OA
ATOM     68  O   UNL A   1      34.964  31.377  29.787  1.00  0.00    -0.237 OA
ATOM     69  O   UNL A   1      36.409  31.789  27.844  1.00  0.00    -0.744 OA
ENDBRANCH  63  66
ENDBRANCH  45  59
BRANCH  46  70
ATOM     70  C   UNL A   1      48.197  27.424  25.528  1.00  0.00     0.023 A 
ATOM     71  C   UNL A   1      49.308  26.992  26.280  1.00  0.00     0.012 A 
ATOM     72  C   UNL A   1      48.321  27.555  24.132  1.00  0.00     0.148 A 
ATOM     73  C   UNL A   1      50.525  26.716  25.655  1.00  0.00     0.002 A 
ATOM     74  C   UNL A   1      49.519  27.224  23.509  1.00  0.00     0.091 A 
ATOM     75  F   UNL A   1      47.253  27.976  23.438  1.00  0.00    -0.205 F 
ATOM     76  C   UNL A   1      50.626  26.819  24.270  1.00  0.00     0.022 A 
BRANCH  74  77
ATOM     77  S   UNL A   1      49.701  27.196  21.721  1.00  0.00     0.127 S 
ATOM     78  O   UNL A   1      49.507  28.603  21.379  1.00  0.00    -0.237 OA
ATOM     79  O   UNL A   1      51.070  26.705  21.565  1.00  0.00    -0.237 OA
ATOM     80  O   UNL A   1      48.676  26.282  21.233  1.00  0.00    -0.744 OA
ENDBRANCH  74  77
ENDBRANCH  46  70
BRANCH  58  81
ATOM     81  C   UNL A   1      45.425  32.915  28.853  1.00  0.00     0.023 A 
ATOM     82  C   UNL A   1      46.191  33.136  30.015  1.00  0.00     0.012 A 
ATOM     83  C   UNL A   1      45.214  33.978  27.952  1.00  0.00     0.148 A 
ATOM     84  C   UNL A   1      46.709  34.401  30.292  1.00  0.00     0.002 A 
ATOM     85  C   UNL A   1      45.776  35.222  28.209  1.00  0.00     0.091 A 
ATOM     86  F   UNL A   1      44.468  33.752  26.860  1.00  0.00    -0.205 F 
ATOM     87  C   UNL A   1      46.512  35.439  29.385  1.00  0.00     0.022 A 
BRANCH  85  88
ATOM     88  S   UNL A   1      45.656  36.589  27.048  1.00  0.00     0.127 S 
ATOM     89  O   UNL A   1      46.402  37.638  27.747  1.00  0.00    -0.237 OA
ATOM     90  O   UNL A   1      46.335  36.050  25.866  1.00  0.00    -0.237 OA
ATOM     91  O   UNL A   1      44.238  36.843  26.869  1.00  0.00    -0.744 OA
ENDBRANCH  85  88
ENDBRANCH  58  81
ENDBRANCH  32  33
ENDBRANCH  24  27
ENDBRANCH  22  23
ENDBRANCH  21  22
ENDBRANCH   1  21
TORSDOF 18
ENDMDL
MODEL 2
REMARK VINA RESULT:     -10.4      1.864      8.266
REMARK SMILES COCCCC(=O)N[C@H]1CC[C@@H](C(=O)NCCCNC(=O)c2ccc(-c3c4nc(c(-c5cccc(S(=O)(=O)[O-])c5F)c5ccc([nH]5)c(-c5cccc(S(=O)(=O)[O-])c5F)c5nc(c(-c6cccc(S(=O)(=O)[O-])c6F)c6ccc3[nH]6)C=C5)C=C4)cc2)CC1
REMARK SMILES IDX 16 1 15 2 13 3 14 4 12 6 9 7 10 8 86 9 11 10 85 11 8 12 6 13
REMARK SMILES IDX 7 14 5 16 4 17 3 18 2 19 1 20 17 21 18 22 19 23 20 24 21 26
REMARK SMILES IDX 22 27 23 28 84 29 24 30 83 31 25 32 26 33 27 34 77 35 28 36
REMARK SMILES IDX 82 37 76 38 78 39 29 40 81 41 75 42 74 43 30 45 62 46 42 47
REMARK SMILES IDX 61 48 43 49 46 50 60 51 79 52 44 53 45 54 59 56 80 57 47 58
REMARK SMILES IDX 31 59 32 60 40 61 33 62 35 63 41 64 34 65 36 66 37 67 38 68
REMARK SMILES IDX 39 69 63 70 64 71 72 72 65 73 67 74 73 75 66 76 68 77 69 78
REMARK SMILES IDX 70 79 71 80 48 81 49 82 57 83 50 84 52 85 58 86 51 87 53 88
REMARK SMILES IDX 54 89 55 90 56 91
REMARK H PARENT 15 5 8 15 19 25 78 44 46 55
REMARK Flexibility Score: inf
ROOT
ATOM      1  C   UNL A   1      37.986  21.681  25.272  1.00  0.00     0.117 C 
ENDROOT
BRANCH   1   2
ATOM      2  N   UNL A   1      37.393  22.160  24.039  1.00  0.00    -0.356 N 
ATOM      3  C   UNL A   1      36.317  22.927  23.749  1.00  0.00     0.223 C 
ATOM      4  O   UNL A   1      36.180  23.205  22.548  1.00  0.00    -0.275 OA
ATOM      5  H   UNL A   1      37.880  21.861  23.238  1.00  0.00     0.163 HD
BRANCH   3   6
ATOM      6  C   UNL A   1      35.233  23.400  24.735  1.00  0.00     0.078 C 
ATOM      7  C   UNL A   1      33.001  21.555  25.643  1.00  0.00     0.082 C 
ATOM      8  C   UNL A   1      34.229  21.762  26.546  1.00  0.00     0.026 C 
ATOM      9  C   UNL A   1      33.207  22.050  24.235  1.00  0.00     0.026 C 
ATOM     10  C   UNL A   1      35.207  22.891  26.176  1.00  0.00     0.015 C 
ATOM     11  C   UNL A   1      33.851  23.403  24.108  1.00  0.00     0.015 C 
BRANCH   7  12
ATOM     12  N   UNL A   1      32.535  20.160  25.740  1.00  0.00    -0.353 N 
ATOM     13  C   UNL A   1      32.853  18.986  25.129  1.00  0.00     0.220 C 
ATOM     14  O   UNL A   1      31.987  18.106  25.167  1.00  0.00    -0.275 OA
ATOM     15  H   UNL A   1      31.819  20.051  26.408  1.00  0.00     0.163 HD
BRANCH  13  16
ATOM     16  C   UNL A   1      34.227  18.668  24.560  1.00  0.00     0.102 C 
BRANCH  16  17
ATOM     17  C   UNL A   1      34.411  17.306  23.895  1.00  0.00     0.038 C 
BRANCH  17  18
ATOM     18  C   UNL A   1      34.825  16.110  24.762  1.00  0.00     0.160 C 
BRANCH  18  19
ATOM     19  O   UNL A   1      33.940  15.649  25.783  1.00  0.00    -0.385 OA
ATOM     20  C   UNL A   1      32.820  14.880  25.392  1.00  0.00     0.194 C 
ENDBRANCH  18  19
ENDBRANCH  17  18
ENDBRANCH  16  17
ENDBRANCH  13  16
ENDBRANCH   7  12
ENDBRANCH   3   6
ENDBRANCH   1   2
BRANCH   1  21
ATOM     21  C   UNL A   1      38.637  20.308  25.128  1.00  0.00     0.042 C 
BRANCH  21  22
ATOM     22  C   UNL A   1      39.298  19.778  26.393  1.00  0.00     0.118 C 
BRANCH  22  23
ATOM     23  N   UNL A   1      40.586  19.155  26.127  1.00  0.00    -0.352 N 
ATOM     24  C   UNL A   1      41.849  19.682  26.002  1.00  0.00     0.251 C 
ATOM     25  H   UNL A   1      40.545  18.178  26.016  1.00  0.00     0.163 HD
ATOM     26  O   UNL A   1      42.743  18.942  25.591  1.00  0.00    -0.269 OA
BRANCH  24  27
ATOM     27  C   UNL A   1      42.168  21.094  26.342  1.00  0.00     0.039 A 
ATOM     28  C   UNL A   1      42.354  21.429  27.690  1.00  0.00     0.014 A 
ATOM     29  C   UNL A   1      42.206  22.109  25.384  1.00  0.00     0.014 A 
ATOM     30  C   UNL A   1      42.608  22.755  28.063  1.00  0.00     0.010 A 
ATOM     31  C   UNL A   1      42.563  23.409  25.744  1.00  0.00     0.010 A 
ATOM     32  C   UNL A   1      42.739  23.758  27.091  1.00  0.00    -0.014 A 
BRANCH  32  33
ATOM     33  C   UNL A   1      43.031  25.170  27.461  1.00  0.00     0.031 A 
ATOM     34  C   UNL A   1      44.439  25.708  27.381  1.00  0.00     0.074 A 
ATOM     35  C   UNL A   1      42.047  25.952  27.949  1.00  0.00     0.049 A 
ATOM     36  N   UNL A   1      44.895  26.888  27.720  1.00  0.00    -0.248 NA
ATOM     37  C   UNL A   1      45.479  24.789  26.889  1.00  0.00     0.031 C 
ATOM     38  C   UNL A   1      40.660  25.533  28.159  1.00  0.00     0.029 A 
ATOM     39  N   UNL A   1      42.069  27.255  28.383  1.00  0.00    -0.354 N 
ATOM     40  C   UNL A   1      46.271  26.837  27.528  1.00  0.00     0.074 A 
ATOM     41  C   UNL A   1      46.582  25.497  27.082  1.00  0.00     0.031 C 
ATOM     42  C   UNL A   1      39.964  26.558  28.672  1.00  0.00     0.029 A 
ATOM     43  C   UNL A   1      40.857  27.697  28.860  1.00  0.00     0.049 A 
ATOM     44  H   UNL A   1      42.875  27.819  28.355  1.00  0.00     0.167 HD
ATOM     45  C   UNL A   1      47.192  27.820  27.676  1.00  0.00     0.034 A 
ATOM     46  C   UNL A   1      40.502  28.883  29.394  1.00  0.00     0.034 A 
ATOM     47  C   UNL A   1      46.874  29.169  28.065  1.00  0.00     0.049 A 
ATOM     48  C   UNL A   1      41.526  29.980  29.492  1.00  0.00     0.074 A 
ATOM     49  C   UNL A   1      47.715  30.264  28.141  1.00  0.00     0.029 A 
ATOM     50  N   UNL A   1      45.615  29.604  28.450  1.00  0.00    -0.354 N 
ATOM     51  N   UNL A   1      42.792  29.958  29.152  1.00  0.00    -0.248 NA
ATOM     52  C   UNL A   1      41.065  31.276  30.011  1.00  0.00     0.031 C 
ATOM     53  C   UNL A   1      46.969  31.356  28.600  1.00  0.00     0.029 A 
ATOM     54  C   UNL A   1      45.657  30.948  28.777  1.00  0.00     0.049 A 
ATOM     55  H   UNL A   1      44.808  29.041  28.484  1.00  0.00     0.167 HD
ATOM     56  C   UNL A   1      43.273  31.242  29.388  1.00  0.00     0.074 A 
ATOM     57  C   UNL A   1      42.154  32.021  29.877  1.00  0.00     0.031 C 
ATOM     58  C   UNL A   1      44.529  31.726  29.225  1.00  0.00     0.034 A 
BRANCH  45  59
ATOM     59  C   UNL A   1      48.630  27.484  27.365  1.00  0.00     0.023 A 
ATOM     60  C   UNL A   1      49.424  26.842  28.340  1.00  0.00     0.012 A 
ATOM     61  C   UNL A   1      49.188  27.767  26.103  1.00  0.00     0.148 A 
ATOM     62  C   UNL A   1      50.759  26.534  28.082  1.00  0.00     0.002 A 
ATOM     63  C   UNL A   1      50.506  27.412  25.837  1.00  0.00     0.091 A 
ATOM     64  F   UNL A   1      48.430  28.394  25.192  1.00  0.00    -0.205 F 
ATOM     65  C   UNL A   1      51.297  26.811  26.830  1.00  0.00     0.022 A 
BRANCH  63  66
ATOM     66  S   UNL A   1      51.266  27.651  24.226  1.00  0.00     0.127 S 
ATOM     67  O   UNL A   1      52.651  27.264  24.493  1.00  0.00    -0.237 OA
ATOM     68  O   UNL A   1      50.521  26.710  23.390  1.00  0.00    -0.237 OA
ATOM     69  O   UNL A   1      51.059  29.053  23.891  1.00  0.00    -0.744 OA
ENDBRANCH  63  66
ENDBRANCH  45  59
BRANCH  46  70
ATOM     70  C   UNL A   1      39.088  29.105  29.811  1.00  0.00     0.023 A 
ATOM     71  C   UNL A   1      38.691  28.764  31.119  1.00  0.00     0.012 A 
ATOM     72  C   UNL A   1      38.157  29.708  28.944  1.00  0.00     0.148 A 
ATOM     73  C   UNL A   1      37.384  28.999  31.548  1.00  0.00     0.002 A 
ATOM     74  C   UNL A   1      36.873  29.992  29.397  1.00  0.00     0.091 A 
ATOM     75  F   UNL A   1      38.554  30.016  27.701  1.00  0.00    -0.205 F 
ATOM     76  C   UNL A   1      36.480  29.624  30.693  1.00  0.00     0.022 A 
BRANCH  74  77
ATOM     77  S   UNL A   1      35.686  30.915  28.413  1.00  0.00     0.127 S 
ATOM     78  O   UNL A   1      35.073  29.858  27.613  1.00  0.00    -0.237 OA
ATOM     79  O   UNL A   1      34.821  31.488  29.445  1.00  0.00    -0.237 OA
ATOM     80  O   UNL A   1      36.465  31.897  27.671  1.00  0.00    -0.744 OA
ENDBRANCH  74  77
ENDBRANCH  46  70
BRANCH  58  81
ATOM     81  C   UNL A   1      44.767  33.177  29.556  1.00  0.00     0.023 A 
ATOM     82  C   UNL A   1      45.186  33.540  30.852  1.00  0.00     0.012 A 
ATOM     83  C   UNL A   1      44.649  34.170  28.564  1.00  0.00     0.148 A 
ATOM     84  C   UNL A   1      45.450  34.875  31.163  1.00  0.00     0.002 A 
ATOM     85  C   UNL A   1      44.961  35.489  28.868  1.00  0.00     0.091 A 
ATOM     86  F   UNL A   1      44.232  33.807  27.342  1.00  0.00    -0.205 F 
ATOM     87  C   UNL A   1      45.349  35.845  30.170  1.00  0.00     0.022 A 
BRANCH  85  88
ATOM     88  S   UNL A   1      44.955  36.789  27.626  1.00  0.00     0.127 S 
ATOM     89  O   UNL A   1      43.547  36.806  27.223  1.00  0.00    -0.237 OA
ATOM     90  O   UNL A   1      45.376  37.959  28.402  1.00  0.00    -0.237 OA
ATOM     91  O   UNL A   1      45.894  36.372  26.601  1.00  0.00    -0.744 OA
ENDBRANCH  85  88
ENDBRANCH  58  81
ENDBRANCH  32  33
ENDBRANCH  24  27
ENDBRANCH  22  23
ENDBRANCH  21  22
ENDBRANCH   1  21
TORSDOF 18
ENDMDL
MODEL 3
REMARK VINA RESULT:     -10.4      2.078      3.196
REMARK SMILES COCCCC(=O)N[C@H]1CC[C@@H](C(=O)NCCCNC(=O)c2ccc(-c3c4nc(c(-c5cccc(S(=O)(=O)[O-])c5F)c5ccc([nH]5)c(-c5cccc(S(=O)(=O)[O-])c5F)c5nc(c(-c6cccc(S(=O)(=O)[O-])c6F)c6ccc3[nH]6)C=C5)C=C4)cc2)CC1
REMARK SMILES IDX 16 1 15 2 13 3 14 4 12 6 9 7 10 8 86 9 11 10 85 11 8 12 6 13
REMARK SMILES IDX 7 14 5 16 4 17 3 18 2 19 1 20 17 21 18 22 19 23 20 24 21 26
REMARK SMILES IDX 22 27 23 28 84 29 24 30 83 31 25 32 26 33 27 34 77 35 28 36
REMARK SMILES IDX 82 37 76 38 78 39 29 40 81 41 75 42 74 43 30 45 62 46 42 47
REMARK SMILES IDX 61 48 43 49 46 50 60 51 79 52 44 53 45 54 59 56 80 57 47 58
REMARK SMILES IDX 31 59 32 60 40 61 33 62 35 63 41 64 34 65 36 66 37 67 38 68
REMARK SMILES IDX 39 69 63 70 64 71 72 72 65 73 67 74 73 75 66 76 68 77 69 78
REMARK SMILES IDX 70 79 71 80 48 81 49 82 57 83 50 84 52 85 58 86 51 87 53 88
REMARK SMILES IDX 54 89 55 90 56 91
REMARK H PARENT 15 5 8 15 19 25 78 44 46 55
REMARK Flexibility Score: inf
ROOT
ATOM      1  C   UNL A   1      34.928  23.882  24.325  1.00  0.00     0.117 C 
ENDROOT
BRANCH   1   2
ATOM      2  N   UNL A   1      34.318  24.146  23.036  1.00  0.00    -0.356 N 
ATOM      3  C   UNL A   1      33.561  25.153  22.543  1.00  0.00     0.223 C 
ATOM      4  O   UNL A   1      33.300  25.066  21.333  1.00  0.00    -0.275 OA
ATOM      5  H   UNL A   1      34.494  23.437  22.376  1.00  0.00     0.163 HD
BRANCH   3   6
ATOM      6  C   UNL A   1      32.942  26.314  23.341  1.00  0.00     0.078 C 
ATOM      7  C   UNL A   1      31.107  25.813  25.705  1.00  0.00     0.082 C 
ATOM      8  C   UNL A   1      32.590  26.138  25.952  1.00  0.00     0.026 C 
ATOM      9  C   UNL A   1      30.806  25.451  24.274  1.00  0.00     0.026 C 
ATOM     10  C   UNL A   1      33.422  26.636  24.757  1.00  0.00     0.015 C 
ATOM     11  C   UNL A   1      31.429  26.341  23.233  1.00  0.00     0.015 C 
BRANCH   7  12
ATOM     12  N   UNL A   1      30.636  24.830  26.698  1.00  0.00    -0.353 N 
ATOM     13  C   UNL A   1      30.782  23.488  26.879  1.00  0.00     0.220 C 
ATOM     14  O   UNL A   1      29.922  22.941  27.577  1.00  0.00    -0.275 OA
ATOM     15  H   UNL A   1      30.082  25.243  27.399  1.00  0.00     0.163 HD
BRANCH  13  16
ATOM     16  C   UNL A   1      31.989  22.691  26.408  1.00  0.00     0.102 C 
BRANCH  16  17
ATOM     17  C   UNL A   1      31.890  22.012  25.044  1.00  0.00     0.038 C 
BRANCH  17  18
ATOM     18  C   UNL A   1      32.152  20.503  24.949  1.00  0.00     0.160 C 
BRANCH  18  19
ATOM     19  O   UNL A   1      33.497  20.027  24.981  1.00  0.00    -0.385 OA
ATOM     20  C   UNL A   1      33.731  18.676  24.635  1.00  0.00     0.194 C 
ENDBRANCH  18  19
ENDBRANCH  17  18
ENDBRANCH  16  17
ENDBRANCH  13  16
ENDBRANCH   7  12
ENDBRANCH   3   6
ENDBRANCH   1   2
BRANCH   1  21
ATOM     21  C   UNL A   1      35.591  22.509  24.402  1.00  0.00     0.042 C 
BRANCH  21  22
ATOM     22  C   UNL A   1      36.072  22.109  25.789  1.00  0.00     0.118 C 
BRANCH  22  23
ATOM     23  N   UNL A   1      37.078  21.058  25.746  1.00  0.00    -0.352 N 
ATOM     24  C   UNL A   1      38.445  21.093  25.886  1.00  0.00     0.251 C 
ATOM     25  H   UNL A   1      36.713  20.158  25.589  1.00  0.00     0.163 HD
ATOM     26  O   UNL A   1      39.076  20.070  25.621  1.00  0.00    -0.269 OA
BRANCH  24  27
ATOM     27  C   UNL A   1      39.175  22.306  26.339  1.00  0.00     0.039 A 
ATOM     28  C   UNL A   1      38.837  23.540  25.768  1.00  0.00     0.014 A 
ATOM     29  C   UNL A   1      40.236  22.252  27.246  1.00  0.00     0.014 A 
ATOM     30  C   UNL A   1      39.530  24.703  26.128  1.00  0.00     0.010 A 
ATOM     31  C   UNL A   1      40.854  23.424  27.683  1.00  0.00     0.010 A 
ATOM     32  C   UNL A   1      40.533  24.661  27.109  1.00  0.00    -0.014 A 
BRANCH  32  33
ATOM     33  C   UNL A   1      41.269  25.888  27.525  1.00  0.00     0.031 A 
ATOM     34  C   UNL A   1      40.574  26.966  28.320  1.00  0.00     0.074 A 
ATOM     35  C   UNL A   1      42.540  26.075  27.119  1.00  0.00     0.049 A 
ATOM     36  N   UNL A   1      41.031  28.126  28.717  1.00  0.00    -0.248 NA
ATOM     37  C   UNL A   1      39.169  26.724  28.687  1.00  0.00     0.031 C 
ATOM     38  C   UNL A   1      43.304  25.154  26.276  1.00  0.00     0.029 A 
ATOM     39  N   UNL A   1      43.407  27.118  27.340  1.00  0.00    -0.354 N 
ATOM     40  C   UNL A   1      39.964  28.768  29.335  1.00  0.00     0.074 A 
ATOM     41  C   UNL A   1      38.824  27.885  29.225  1.00  0.00     0.031 C 
ATOM     42  C   UNL A   1      44.525  25.666  26.058  1.00  0.00     0.029 A 
ATOM     43  C   UNL A   1      44.623  26.966  26.715  1.00  0.00     0.049 A 
ATOM     44  H   UNL A   1      43.180  27.901  27.893  1.00  0.00     0.167 HD
ATOM     45  C   UNL A   1      39.936  29.967  29.967  1.00  0.00     0.034 A 
ATOM     46  C   UNL A   1      45.696  27.780  26.669  1.00  0.00     0.034 A 
ATOM     47  C   UNL A   1      41.085  30.819  30.126  1.00  0.00     0.049 A 
ATOM     48  C   UNL A   1      45.666  29.077  27.428  1.00  0.00     0.074 A 
ATOM     49  C   UNL A   1      41.189  32.000  30.838  1.00  0.00     0.029 A 
ATOM     50  N   UNL A   1      42.328  30.584  29.558  1.00  0.00    -0.354 N 
ATOM     51  N   UNL A   1      44.695  29.592  28.143  1.00  0.00    -0.248 NA
ATOM     52  C   UNL A   1      46.891  29.890  27.406  1.00  0.00     0.031 C 
ATOM     53  C   UNL A   1      42.489  32.494  30.677  1.00  0.00     0.029 A 
ATOM     54  C   UNL A   1      43.203  31.604  29.891  1.00  0.00     0.049 A 
ATOM     55  H   UNL A   1      42.556  29.806  28.999  1.00  0.00     0.167 HD
ATOM     56  C   UNL A   1      45.199  30.771  28.680  1.00  0.00     0.074 A 
ATOM     57  C   UNL A   1      46.570  30.883  28.225  1.00  0.00     0.031 C 
ATOM     58  C   UNL A   1      44.579  31.685  29.467  1.00  0.00     0.034 A 
BRANCH  45  59
ATOM     59  C   UNL A   1      38.629  30.405  30.580  1.00  0.00     0.023 A 
ATOM     60  C   UNL A   1      38.361  30.118  31.935  1.00  0.00     0.012 A 
ATOM     61  C   UNL A   1      37.680  31.130  29.831  1.00  0.00     0.148 A 
ATOM     62  C   UNL A   1      37.155  30.499  32.521  1.00  0.00     0.002 A 
ATOM     63  C   UNL A   1      36.500  31.549  30.436  1.00  0.00     0.091 A 
ATOM     64  F   UNL A   1      37.937  31.379  28.540  1.00  0.00    -0.205 F 
ATOM     65  C   UNL A   1      36.229  31.221  31.774  1.00  0.00     0.022 A 
BRANCH  63  66
ATOM     66  S   UNL A   1      35.281  32.555  29.583  1.00  0.00     0.127 S 
ATOM     67  O   UNL A   1      34.334  32.848  30.658  1.00  0.00    -0.237 OA
ATOM     68  O   UNL A   1      36.077  33.702  29.145  1.00  0.00    -0.237 OA
ATOM     69  O   UNL A   1      34.766  31.728  28.500  1.00  0.00    -0.744 OA
ENDBRANCH  63  66
ENDBRANCH  45  59
BRANCH  46  70
ATOM     70  C   UNL A   1      46.914  27.346  25.926  1.00  0.00     0.023 A 
ATOM     71  C   UNL A   1      47.040  27.663  24.560  1.00  0.00     0.012 A 
ATOM     72  C   UNL A   1      47.970  26.681  26.579  1.00  0.00     0.148 A 
ATOM     73  C   UNL A   1      48.188  27.305  23.851  1.00  0.00     0.002 A 
ATOM     74  C   UNL A   1      49.134  26.379  25.881  1.00  0.00     0.091 A 
ATOM     75  F   UNL A   1      47.825  26.383  27.878  1.00  0.00    -0.205 F 
ATOM     76  C   UNL A   1      49.238  26.676  24.513  1.00  0.00     0.022 A 
BRANCH  74  77
ATOM     77  S   UNL A   1      50.588  25.693  26.682  1.00  0.00     0.127 S 
ATOM     78  O   UNL A   1      50.062  24.453  27.248  1.00  0.00    -0.237 OA
ATOM     79  O   UNL A   1      51.500  25.517  25.552  1.00  0.00    -0.237 OA
ATOM     80  O   UNL A   1      51.018  26.695  27.649  1.00  0.00    -0.744 OA
ENDBRANCH  74  77
ENDBRANCH  46  70
BRANCH  58  81
ATOM     81  C   UNL A   1      45.378  32.882  29.913  1.00  0.00     0.023 A 
ATOM     82  C   UNL A   1      46.142  32.814  31.095  1.00  0.00     0.012 A 
ATOM     83  C   UNL A   1      45.430  34.047  29.122  1.00  0.00     0.148 A 
ATOM     84  C   UNL A   1      46.919  33.899  31.500  1.00  0.00     0.002 A 
ATOM     85  C   UNL A   1      46.245  35.105  29.506  1.00  0.00     0.091 A 
ATOM     86  F   UNL A   1      44.682  34.100  28.010  1.00  0.00    -0.205 F 
ATOM     87  C   UNL A   1      46.979  35.038  30.702  1.00  0.00     0.022 A 
BRANCH  85  88
ATOM     88  S   UNL A   1      46.460  36.570  28.489  1.00  0.00     0.127 S 
ATOM     89  O   UNL A   1      47.387  37.362  29.301  1.00  0.00    -0.237 OA
ATOM     90  O   UNL A   1      47.050  36.014  27.268  1.00  0.00    -0.237 OA
ATOM     91  O   UNL A   1      45.136  37.139  28.316  1.00  0.00    -0.744 OA
ENDBRANCH  85  88
ENDBRANCH  58  81
ENDBRANCH  32  33
ENDBRANCH  24  27
ENDBRANCH  22  23
ENDBRANCH  21  22
ENDBRANCH   1  21
TORSDOF 18
ENDMDL
