MODEL 1
REMARK VINA RESULT:     -12.0      0.000      0.000
REMARK SMILES O=C(NCCCNC(=O)c1ccc(-c2c3nc(c(-c4cccc(S(=O)(=O)[O-])c4F)c4ccc([nH]4)c(-c4cccc(S(=O)(=O)[O-])c4F)c4nc(c(-c5cccc(S(=O)(=O)[O-])c5F)c5ccc2[nH]5)C=C4)C=C3)cc1)c1ccc(OCc2cc(Cl)ccc2[N+](=O)[O-])cc1
REMARK SMILES IDX 4 1 3 2 1 3 2 4 73 6 74 7 90 8 75 9 89 10 76 11 77 12 78 13
REMARK SMILES IDX 79 14 80 15 85 16 81 17 84 18 82 19 83 20 86 21 87 22 88 23
REMARK SMILES IDX 5 24 6 25 7 26 8 27 9 29 10 30 11 31 72 32 12 33 71 34 13 35
REMARK SMILES IDX 14 36 15 37 65 38 16 39 70 40 64 41 66 42 17 43 69 44 63 45
REMARK SMILES IDX 62 46 18 48 50 49 30 50 49 51 31 52 34 53 48 54 67 55 32 56
REMARK SMILES IDX 33 57 47 59 68 60 35 61 19 62 20 63 28 64 21 65 23 66 29 67
REMARK SMILES IDX 22 68 24 69 25 70 26 71 27 72 51 73 52 74 60 75 53 76 55 77
REMARK SMILES IDX 61 78 54 79 56 80 57 81 58 82 59 83 36 84 37 85 45 86 38 87
REMARK SMILES IDX 40 88 46 89 39 90 41 91 42 92 43 93 44 94
REMARK H PARENT 3 5 7 28 66 47 34 58
REMARK Flexibility Score: inf
ROOT
ATOM      1  C   UNL A   1      31.670  29.321  25.141  1.00  0.00     0.118 C 
ENDROOT
BRANCH   1   2
ATOM      2  N   UNL A   1      30.974  29.724  23.929  1.00  0.00    -0.352 N 
ATOM      3  O   UNL A   1      30.011  29.456  21.900  1.00  0.00    -0.269 OA
ATOM      4  C   UNL A   1      30.504  28.948  22.904  1.00  0.00     0.251 C 
ATOM      5  H   UNL A   1      30.820  30.691  23.832  1.00  0.00     0.163 HD
BRANCH   4   6
ATOM      6  C   UNL A   1      30.628  27.485  22.991  1.00  0.00     0.040 A 
ATOM      7  C   UNL A   1      31.604  26.793  22.272  1.00  0.00     0.017 A 
ATOM      8  C   UNL A   1      29.738  26.800  23.813  1.00  0.00     0.017 A 
ATOM      9  C   UNL A   1      31.657  25.399  22.352  1.00  0.00     0.047 A 
ATOM     10  C   UNL A   1      29.789  25.408  23.874  1.00  0.00     0.047 A 
ATOM     11  C   UNL A   1      30.749  24.697  23.154  1.00  0.00     0.119 A 
BRANCH  11  12
ATOM     12  O   UNL A   1      30.911  23.337  23.149  1.00  0.00    -0.489 OA
BRANCH  12  13
ATOM     13  C   UNL A   1      31.368  22.694  24.349  1.00  0.00     0.272 C 
BRANCH  13  14
ATOM     14  C   UNL A   1      32.750  23.181  24.731  1.00  0.00     0.068 A 
ATOM     15  C   UNL A   1      33.841  22.797  23.925  1.00  0.00     0.035 A 
ATOM     16  C   UNL A   1      33.018  24.039  25.815  1.00  0.00     0.276 A 
ATOM     17  C   UNL A   1      35.123  23.299  24.164  1.00  0.00     0.041 A 
ATOM     18  C   UNL A   1      34.298  24.571  26.037  1.00  0.00     0.087 A 
ATOM     19  Cl  UNL A   1      36.432  22.807  23.162  1.00  0.00    -0.084 Cl
ATOM     20  C   UNL A   1      35.351  24.200  25.201  1.00  0.00     0.027 A 
BRANCH  16  21
ATOM     21  N   UNL A   1      31.981  24.402  26.773  1.00  0.00     0.063 N 
ATOM     22  O   UNL A   1      31.572  25.569  26.748  1.00  0.00    -0.258 OA
ATOM     23  O   UNL A   1      31.596  23.518  27.549  1.00  0.00    -0.258 OA
ENDBRANCH  16  21
ENDBRANCH  13  14
ENDBRANCH  12  13
ENDBRANCH  11  12
ENDBRANCH   4   6
ENDBRANCH   1   2
BRANCH   1  24
ATOM     24  C   UNL A   1      33.182  29.250  24.968  1.00  0.00     0.042 C 
BRANCH  24  25
ATOM     25  C   UNL A   1      33.988  29.414  26.253  1.00  0.00     0.118 C 
BRANCH  25  26
ATOM     26  N   UNL A   1      33.754  30.686  26.919  1.00  0.00    -0.352 N 
ATOM     27  C   UNL A   1      34.428  31.326  27.926  1.00  0.00     0.251 C 
ATOM     28  H   UNL A   1      32.968  31.177  26.586  1.00  0.00     0.163 HD
ATOM     29  O   UNL A   1      33.923  32.328  28.429  1.00  0.00    -0.269 OA
BRANCH  27  30
ATOM     30  C   UNL A   1      35.733  30.832  28.426  1.00  0.00     0.039 A 
ATOM     31  C   UNL A   1      35.732  29.806  29.377  1.00  0.00     0.014 A 
ATOM     32  C   UNL A   1      36.944  31.396  28.021  1.00  0.00     0.014 A 
ATOM     33  C   UNL A   1      36.941  29.314  29.877  1.00  0.00     0.010 A 
ATOM     34  C   UNL A   1      38.151  30.849  28.456  1.00  0.00     0.010 A 
ATOM     35  C   UNL A   1      38.164  29.812  29.399  1.00  0.00    -0.014 A 
BRANCH  35  36
ATOM     36  C   UNL A   1      39.454  29.246  29.872  1.00  0.00     0.031 A 
ATOM     37  C   UNL A   1      40.195  29.872  31.025  1.00  0.00     0.074 A 
ATOM     38  C   UNL A   1      40.001  28.205  29.211  1.00  0.00     0.049 A 
ATOM     39  N   UNL A   1      41.327  29.508  31.569  1.00  0.00    -0.248 NA
ATOM     40  C   UNL A   1      39.606  31.079  31.627  1.00  0.00     0.031 C 
ATOM     41  C   UNL A   1      39.439  27.577  28.012  1.00  0.00     0.029 A 
ATOM     42  N   UNL A   1      41.158  27.504  29.440  1.00  0.00    -0.354 N 
ATOM     43  C   UNL A   1      41.605  30.458  32.546  1.00  0.00     0.074 A 
ATOM     44  C   UNL A   1      40.540  31.434  32.498  1.00  0.00     0.031 C 
ATOM     45  C   UNL A   1      40.247  26.579  27.618  1.00  0.00     0.029 A 
ATOM     46  C   UNL A   1      41.388  26.503  28.525  1.00  0.00     0.049 A 
ATOM     47  H   UNL A   1      41.766  27.700  30.190  1.00  0.00     0.167 HD
ATOM     48  C   UNL A   1      42.634  30.496  33.427  1.00  0.00     0.034 A 
ATOM     49  C   UNL A   1      42.398  25.617  28.431  1.00  0.00     0.034 A 
ATOM     50  C   UNL A   1      43.655  29.488  33.517  1.00  0.00     0.049 A 
ATOM     51  C   UNL A   1      43.473  25.621  29.485  1.00  0.00     0.074 A 
ATOM     52  C   UNL A   1      44.673  29.374  34.448  1.00  0.00     0.029 A 
ATOM     53  N   UNL A   1      43.790  28.417  32.647  1.00  0.00    -0.354 N 
ATOM     54  N   UNL A   1      43.609  26.413  30.520  1.00  0.00    -0.248 NA
ATOM     55  C   UNL A   1      44.506  24.579  29.385  1.00  0.00     0.031 C 
ATOM     56  C   UNL A   1      45.427  28.238  34.137  1.00  0.00     0.029 A 
ATOM     57  C   UNL A   1      44.874  27.639  33.016  1.00  0.00     0.049 A 
ATOM     58  H   UNL A   1      43.201  28.237  31.879  1.00  0.00     0.167 HD
ATOM     59  C   UNL A   1      44.725  25.950  31.210  1.00  0.00     0.074 A 
ATOM     60  C   UNL A   1      45.207  24.789  30.490  1.00  0.00     0.031 C 
ATOM     61  C   UNL A   1      45.311  26.455  32.323  1.00  0.00     0.034 A 
BRANCH  48  62
ATOM     62  C   UNL A   1      42.666  31.630  34.419  1.00  0.00     0.023 A 
ATOM     63  C   UNL A   1      43.366  32.810  34.094  1.00  0.00     0.012 A 
ATOM     64  C   UNL A   1      41.955  31.560  35.632  1.00  0.00     0.148 A 
ATOM     65  C   UNL A   1      43.385  33.891  34.973  1.00  0.00     0.002 A 
ATOM     66  C   UNL A   1      41.944  32.656  36.486  1.00  0.00     0.091 A 
ATOM     67  F   UNL A   1      41.313  30.422  35.934  1.00  0.00    -0.205 F 
ATOM     68  C   UNL A   1      42.665  33.818  36.163  1.00  0.00     0.022 A 
BRANCH  66  69
ATOM     69  S   UNL A   1      40.988  32.691  38.008  1.00  0.00     0.127 S 
ATOM     70  O   UNL A   1      41.816  31.873  38.894  1.00  0.00    -0.237 OA
ATOM     71  O   UNL A   1      40.974  34.118  38.332  1.00  0.00    -0.237 OA
ATOM     72  O   UNL A   1      39.686  32.133  37.674  1.00  0.00    -0.744 OA
ENDBRANCH  66  69
ENDBRANCH  48  62
BRANCH  49  73
ATOM     73  C   UNL A   1      42.385  24.590  27.352  1.00  0.00     0.023 A 
ATOM     74  C   UNL A   1      43.252  24.736  26.253  1.00  0.00     0.012 A 
ATOM     75  C   UNL A   1      41.554  23.456  27.425  1.00  0.00     0.148 A 
ATOM     76  C   UNL A   1      43.272  23.787  25.231  1.00  0.00     0.002 A 
ATOM     77  C   UNL A   1      41.617  22.486  26.431  1.00  0.00     0.091 A 
ATOM     78  F   UNL A   1      40.724  23.341  28.472  1.00  0.00    -0.205 F 
ATOM     79  C   UNL A   1      42.463  22.657  25.324  1.00  0.00     0.022 A 
BRANCH  77  80
ATOM     80  S   UNL A   1      40.713  20.939  26.551  1.00  0.00     0.127 S 
ATOM     81  O   UNL A   1      41.468  20.077  25.645  1.00  0.00    -0.237 OA
ATOM     82  O   UNL A   1      40.850  20.609  27.971  1.00  0.00    -0.237 OA
ATOM     83  O   UNL A   1      39.351  21.258  26.145  1.00  0.00    -0.744 OA
ENDBRANCH  77  80
ENDBRANCH  49  73
BRANCH  61  84
ATOM     84  C   UNL A   1      46.534  25.749  32.843  1.00  0.00     0.023 A 
ATOM     85  C   UNL A   1      47.812  26.191  32.446  1.00  0.00     0.012 A 
ATOM     86  C   UNL A   1      46.425  24.691  33.767  1.00  0.00     0.148 A 
ATOM     87  C   UNL A   1      48.960  25.569  32.934  1.00  0.00     0.002 A 
ATOM     88  C   UNL A   1      47.576  24.105  34.282  1.00  0.00     0.091 A 
ATOM     89  F   UNL A   1      45.201  24.267  34.117  1.00  0.00    -0.205 F 
ATOM     90  C   UNL A   1      48.843  24.534  33.858  1.00  0.00     0.022 A 
BRANCH  88  91
ATOM     91  S   UNL A   1      47.506  22.829  35.545  1.00  0.00     0.127 S 
ATOM     92  O   UNL A   1      46.846  21.737  34.832  1.00  0.00    -0.237 OA
ATOM     93  O   UNL A   1      48.921  22.596  35.840  1.00  0.00    -0.237 OA
ATOM     94  O   UNL A   1      46.754  23.412  36.649  1.00  0.00    -0.744 OA
ENDBRANCH  88  91
ENDBRANCH  61  84
ENDBRANCH  35  36
ENDBRANCH  27  30
ENDBRANCH  25  26
ENDBRANCH  24  25
ENDBRANCH   1  24
TORSDOF 17
ENDMDL
MODEL 2
REMARK VINA RESULT:     -11.9      1.620      2.082
REMARK SMILES O=C(NCCCNC(=O)c1ccc(-c2c3nc(c(-c4cccc(S(=O)(=O)[O-])c4F)c4ccc([nH]4)c(-c4cccc(S(=O)(=O)[O-])c4F)c4nc(c(-c5cccc(S(=O)(=O)[O-])c5F)c5ccc2[nH]5)C=C4)C=C3)cc1)c1ccc(OCc2cc(Cl)ccc2[N+](=O)[O-])cc1
REMARK SMILES IDX 4 1 3 2 1 3 2 4 73 6 74 7 90 8 75 9 89 10 76 11 77 12 78 13
REMARK SMILES IDX 79 14 80 15 85 16 81 17 84 18 82 19 83 20 86 21 87 22 88 23
REMARK SMILES IDX 5 24 6 25 7 26 8 27 9 29 10 30 11 31 72 32 12 33 71 34 13 35
REMARK SMILES IDX 14 36 15 37 65 38 16 39 70 40 64 41 66 42 17 43 69 44 63 45
REMARK SMILES IDX 62 46 18 48 50 49 30 50 49 51 31 52 34 53 48 54 67 55 32 56
REMARK SMILES IDX 33 57 47 59 68 60 35 61 19 62 20 63 28 64 21 65 23 66 29 67
REMARK SMILES IDX 22 68 24 69 25 70 26 71 27 72 51 73 52 74 60 75 53 76 55 77
REMARK SMILES IDX 61 78 54 79 56 80 57 81 58 82 59 83 36 84 37 85 45 86 38 87
REMARK SMILES IDX 40 88 46 89 39 90 41 91 42 92 43 93 44 94
REMARK H PARENT 3 5 7 28 66 47 34 58
REMARK Flexibility Score: inf
ROOT
ATOM      1  C   UNL A   1      31.535  29.444  24.969  1.00  0.00     0.118 C 
ENDROOT
BRANCH   1   2
ATOM      2  N   UNL A   1      30.769  29.792  23.782  1.00  0.00    -0.352 N 
ATOM      3  O   UNL A   1      29.753  29.449  21.791  1.00  0.00    -0.269 OA
ATOM      4  C   UNL A   1      30.317  28.981  22.777  1.00  0.00     0.251 C 
ATOM      5  H   UNL A   1      30.543  30.746  23.690  1.00  0.00     0.163 HD
BRANCH   4   6
ATOM      6  C   UNL A   1      30.548  27.531  22.861  1.00  0.00     0.040 A 
ATOM      7  C   UNL A   1      31.548  26.908  22.113  1.00  0.00     0.017 A 
ATOM      8  C   UNL A   1      29.733  26.787  23.710  1.00  0.00     0.017 A 
ATOM      9  C   UNL A   1      31.703  25.521  22.193  1.00  0.00     0.047 A 
ATOM     10  C   UNL A   1      29.885  25.402  23.770  1.00  0.00     0.047 A 
ATOM     11  C   UNL A   1      30.872  24.759  23.021  1.00  0.00     0.119 A 
BRANCH  11  12
ATOM     12  O   UNL A   1      31.130  23.414  23.013  1.00  0.00    -0.489 OA
BRANCH  12  13
ATOM     13  C   UNL A   1      31.476  22.772  24.249  1.00  0.00     0.272 C 
BRANCH  13  14
ATOM     14  C   UNL A   1      32.862  23.182  24.702  1.00  0.00     0.068 A 
ATOM     15  C   UNL A   1      33.954  22.894  23.858  1.00  0.00     0.035 A 
ATOM     16  C   UNL A   1      33.133  23.881  25.895  1.00  0.00     0.276 A 
ATOM     17  C   UNL A   1      35.241  23.340  24.171  1.00  0.00     0.041 A 
ATOM     18  C   UNL A   1      34.418  24.358  26.194  1.00  0.00     0.087 A 
ATOM     19  Cl  UNL A   1      36.551  22.969  23.120  1.00  0.00    -0.084 Cl
ATOM     20  C   UNL A   1      35.472  24.089  25.322  1.00  0.00     0.027 A 
BRANCH  16  21
ATOM     21  N   UNL A   1      32.093  24.126  26.886  1.00  0.00     0.063 N 
ATOM     22  O   UNL A   1      31.525  25.224  26.850  1.00  0.00    -0.258 OA
ATOM     23  O   UNL A   1      31.865  23.222  27.699  1.00  0.00    -0.258 OA
ENDBRANCH  16  21
ENDBRANCH  13  14
ENDBRANCH  12  13
ENDBRANCH  11  12
ENDBRANCH   4   6
ENDBRANCH   1   2
BRANCH   1  24
ATOM     24  C   UNL A   1      31.414  30.477  26.083  1.00  0.00     0.042 C 
BRANCH  24  25
ATOM     25  C   UNL A   1      32.722  30.819  26.791  1.00  0.00     0.118 C 
BRANCH  25  26
ATOM     26  N   UNL A   1      32.892  32.247  27.022  1.00  0.00    -0.352 N 
ATOM     27  C   UNL A   1      33.816  32.947  27.753  1.00  0.00     0.251 C 
ATOM     28  H   UNL A   1      32.223  32.811  26.572  1.00  0.00     0.163 HD
ATOM     29  O   UNL A   1      33.640  34.153  27.923  1.00  0.00    -0.269 OA
BRANCH  27  30
ATOM     30  C   UNL A   1      35.002  32.287  28.349  1.00  0.00     0.039 A 
ATOM     31  C   UNL A   1      36.224  32.968  28.320  1.00  0.00     0.014 A 
ATOM     32  C   UNL A   1      34.944  30.998  28.880  1.00  0.00     0.014 A 
ATOM     33  C   UNL A   1      37.367  32.380  28.868  1.00  0.00     0.010 A 
ATOM     34  C   UNL A   1      36.063  30.446  29.501  1.00  0.00     0.010 A 
ATOM     35  C   UNL A   1      37.291  31.123  29.490  1.00  0.00    -0.014 A 
BRANCH  35  36
ATOM     36  C   UNL A   1      38.484  30.521  30.139  1.00  0.00     0.031 A 
ATOM     37  C   UNL A   1      38.899  30.933  31.527  1.00  0.00     0.074 A 
ATOM     38  C   UNL A   1      39.243  29.647  29.445  1.00  0.00     0.049 A 
ATOM     39  N   UNL A   1      39.908  30.509  32.244  1.00  0.00    -0.248 NA
ATOM     40  C   UNL A   1      38.100  31.980  32.185  1.00  0.00     0.031 C 
ATOM     41  C   UNL A   1      39.012  29.248  28.055  1.00  0.00     0.029 A 
ATOM     42  N   UNL A   1      40.371  28.955  29.805  1.00  0.00    -0.354 N 
ATOM     43  C   UNL A   1      39.887  31.259  33.415  1.00  0.00     0.074 A 
ATOM     44  C   UNL A   1      38.786  32.189  33.299  1.00  0.00     0.031 C 
ATOM     45  C   UNL A   1      39.962  28.374  27.685  1.00  0.00     0.029 A 
ATOM     46  C   UNL A   1      40.876  28.161  28.803  1.00  0.00     0.049 A 
ATOM     47  H   UNL A   1      40.781  29.021  30.699  1.00  0.00     0.167 HD
ATOM     48  C   UNL A   1      40.689  31.159  34.503  1.00  0.00     0.034 A 
ATOM     49  C   UNL A   1      41.948  27.344  28.786  1.00  0.00     0.034 A 
ATOM     50  C   UNL A   1      41.740  30.188  34.643  1.00  0.00     0.049 A 
ATOM     51  C   UNL A   1      42.758  27.179  30.044  1.00  0.00     0.074 A 
ATOM     52  C   UNL A   1      42.531  29.929  35.748  1.00  0.00     0.029 A 
ATOM     53  N   UNL A   1      42.147  29.313  33.648  1.00  0.00    -0.354 N 
ATOM     54  N   UNL A   1      42.599  27.758  31.209  1.00  0.00    -0.248 NA
ATOM     55  C   UNL A   1      43.865  26.212  29.999  1.00  0.00     0.031 C 
ATOM     56  C   UNL A   1      43.422  28.902  35.419  1.00  0.00     0.029 A 
ATOM     57  C   UNL A   1      43.180  28.515  34.111  1.00  0.00     0.049 A 
ATOM     58  H   UNL A   1      41.759  29.267  32.744  1.00  0.00     0.167 HD
ATOM     59  C   UNL A   1      43.567  27.207  32.043  1.00  0.00     0.074 A 
ATOM     60  C   UNL A   1      44.285  26.226  31.256  1.00  0.00     0.031 C 
ATOM     61  C   UNL A   1      43.850  27.505  33.334  1.00  0.00     0.034 A 
BRANCH  48  62
ATOM     62  C   UNL A   1      40.412  32.078  35.664  1.00  0.00     0.023 A 
ATOM     63  C   UNL A   1      41.221  33.217  35.850  1.00  0.00     0.012 A 
ATOM     64  C   UNL A   1      39.320  31.857  36.527  1.00  0.00     0.148 A 
ATOM     65  C   UNL A   1      40.969  34.107  36.893  1.00  0.00     0.002 A 
ATOM     66  C   UNL A   1      39.050  32.770  37.540  1.00  0.00     0.091 A 
ATOM     67  F   UNL A   1      38.575  30.757  36.349  1.00  0.00    -0.205 F 
ATOM     68  C   UNL A   1      39.877  33.889  37.730  1.00  0.00     0.022 A 
BRANCH  66  69
ATOM     69  S   UNL A   1      37.625  32.620  38.625  1.00  0.00     0.127 S 
ATOM     70  O   UNL A   1      37.717  31.221  39.040  1.00  0.00    -0.237 OA
ATOM     71  O   UNL A   1      37.934  33.589  39.677  1.00  0.00    -0.237 OA
ATOM     72  O   UNL A   1      36.466  32.959  37.812  1.00  0.00    -0.744 OA
ENDBRANCH  66  69
ENDBRANCH  48  62
BRANCH  49  73
ATOM     73  C   UNL A   1      42.254  26.548  27.566  1.00  0.00     0.023 A 
ATOM     74  C   UNL A   1      42.938  27.160  26.498  1.00  0.00     0.012 A 
ATOM     75  C   UNL A   1      41.911  25.186  27.470  1.00  0.00     0.148 A 
ATOM     76  C   UNL A   1      43.249  26.440  25.345  1.00  0.00     0.002 A 
ATOM     77  C   UNL A   1      42.272  24.459  26.340  1.00  0.00     0.091 A 
ATOM     78  F   UNL A   1      41.247  24.623  28.489  1.00  0.00    -0.205 F 
ATOM     79  C   UNL A   1      42.926  25.088  25.269  1.00  0.00     0.022 A 
BRANCH  77  80
ATOM     80  S   UNL A   1      42.018  22.684  26.229  1.00  0.00     0.127 S 
ATOM     81  O   UNL A   1      42.638  22.372  24.944  1.00  0.00    -0.237 OA
ATOM     82  O   UNL A   1      42.747  22.193  27.400  1.00  0.00    -0.237 OA
ATOM     83  O   UNL A   1      40.575  22.498  26.307  1.00  0.00    -0.744 OA
ENDBRANCH  77  80
ENDBRANCH  49  73
BRANCH  61  84
ATOM     84  C   UNL A   1      44.978  26.752  33.988  1.00  0.00     0.023 A 
ATOM     85  C   UNL A   1      46.286  27.272  33.924  1.00  0.00     0.012 A 
ATOM     86  C   UNL A   1      44.739  25.568  34.712  1.00  0.00     0.148 A 
ATOM     87  C   UNL A   1      47.344  26.606  34.542  1.00  0.00     0.002 A 
ATOM     88  C   UNL A   1      45.792  24.933  35.362  1.00  0.00     0.091 A 
ATOM     89  F   UNL A   1      43.492  25.074  34.743  1.00  0.00    -0.205 F 
ATOM     90  C   UNL A   1      47.096  25.444  35.268  1.00  0.00     0.022 A 
BRANCH  88  91
ATOM     91  S   UNL A   1      45.535  23.484  36.392  1.00  0.00     0.127 S 
ATOM     92  O   UNL A   1      46.902  23.005  36.583  1.00  0.00    -0.237 OA
ATOM     93  O   UNL A   1      44.915  24.052  37.590  1.00  0.00    -0.237 OA
ATOM     94  O   UNL A   1      44.658  22.609  35.624  1.00  0.00    -0.744 OA
ENDBRANCH  88  91
ENDBRANCH  61  84
ENDBRANCH  35  36
ENDBRANCH  27  30
ENDBRANCH  25  26
ENDBRANCH  24  25
ENDBRANCH   1  24
TORSDOF 17
ENDMDL
MODEL 3
REMARK VINA RESULT:     -11.7      5.092      9.911
REMARK SMILES O=C(NCCCNC(=O)c1ccc(-c2c3nc(c(-c4cccc(S(=O)(=O)[O-])c4F)c4ccc([nH]4)c(-c4cccc(S(=O)(=O)[O-])c4F)c4nc(c(-c5cccc(S(=O)(=O)[O-])c5F)c5ccc2[nH]5)C=C4)C=C3)cc1)c1ccc(OCc2cc(Cl)ccc2[N+](=O)[O-])cc1
REMARK SMILES IDX 4 1 3 2 1 3 2 4 73 6 74 7 90 8 75 9 89 10 76 11 77 12 78 13
REMARK SMILES IDX 79 14 80 15 85 16 81 17 84 18 82 19 83 20 86 21 87 22 88 23
REMARK SMILES IDX 5 24 6 25 7 26 8 27 9 29 10 30 11 31 72 32 12 33 71 34 13 35
REMARK SMILES IDX 14 36 15 37 65 38 16 39 70 40 64 41 66 42 17 43 69 44 63 45
REMARK SMILES IDX 62 46 18 48 50 49 30 50 49 51 31 52 34 53 48 54 67 55 32 56
REMARK SMILES IDX 33 57 47 59 68 60 35 61 19 62 20 63 28 64 21 65 23 66 29 67
REMARK SMILES IDX 22 68 24 69 25 70 26 71 27 72 51 73 52 74 60 75 53 76 55 77
REMARK SMILES IDX 61 78 54 79 56 80 57 81 58 82 59 83 36 84 37 85 45 86 38 87
REMARK SMILES IDX 40 88 46 89 39 90 41 91 42 92 43 93 44 94
REMARK H PARENT 3 5 7 28 66 47 34 58
REMARK Flexibility Score: inf
ROOT
ATOM      1  C   UNL A   1      35.300  20.588  24.729  1.00  0.00     0.118 C 
ENDROOT
BRANCH   1   2
ATOM      2  N   UNL A   1      34.248  19.624  25.011  1.00  0.00    -0.352 N 
ATOM      3  O   UNL A   1      32.138  18.901  25.384  1.00  0.00    -0.269 OA
ATOM      4  C   UNL A   1      32.892  19.807  25.040  1.00  0.00     0.251 C 
ATOM      5  H   UNL A   1      34.555  18.710  25.209  1.00  0.00     0.163 HD
BRANCH   4   6
ATOM      6  C   UNL A   1      32.335  21.123  24.691  1.00  0.00     0.040 A 
ATOM      7  C   UNL A   1      32.242  21.546  23.364  1.00  0.00     0.017 A 
ATOM      8  C   UNL A   1      31.901  21.946  25.727  1.00  0.00     0.017 A 
ATOM      9  C   UNL A   1      31.746  22.822  23.083  1.00  0.00     0.047 A 
ATOM     10  C   UNL A   1      31.422  23.223  25.437  1.00  0.00     0.047 A 
ATOM     11  C   UNL A   1      31.333  23.669  24.118  1.00  0.00     0.119 A 
BRANCH  11  12
ATOM     12  O   UNL A   1      30.863  24.889  23.709  1.00  0.00    -0.489 OA
BRANCH  12  13
ATOM     13  C   UNL A   1      31.793  25.839  23.168  1.00  0.00     0.272 C 
BRANCH  13  14
ATOM     14  C   UNL A   1      31.828  27.099  24.009  1.00  0.00     0.068 A 
ATOM     15  C   UNL A   1      32.841  27.227  24.981  1.00  0.00     0.035 A 
ATOM     16  C   UNL A   1      30.943  28.183  23.851  1.00  0.00     0.276 A 
ATOM     17  C   UNL A   1      32.990  28.408  25.713  1.00  0.00     0.041 A 
ATOM     18  C   UNL A   1      31.110  29.382  24.561  1.00  0.00     0.087 A 
ATOM     19  Cl  UNL A   1      34.235  28.529  26.894  1.00  0.00    -0.084 Cl
ATOM     20  C   UNL A   1      32.144  29.492  25.491  1.00  0.00     0.027 A 
BRANCH  16  21
ATOM     21  N   UNL A   1      29.796  28.105  22.956  1.00  0.00     0.063 N 
ATOM     22  O   UNL A   1      28.795  27.507  23.370  1.00  0.00    -0.258 OA
ATOM     23  O   UNL A   1      29.912  28.632  21.842  1.00  0.00    -0.258 OA
ENDBRANCH  16  21
ENDBRANCH  13  14
ENDBRANCH  12  13
ENDBRANCH  11  12
ENDBRANCH   4   6
ENDBRANCH   1   2
BRANCH   1  24
ATOM     24  C   UNL A   1      35.644  21.466  25.926  1.00  0.00     0.042 C 
BRANCH  24  25
ATOM     25  C   UNL A   1      36.998  22.164  25.848  1.00  0.00     0.118 C 
BRANCH  25  26
ATOM     26  N   UNL A   1      38.122  21.258  26.036  1.00  0.00    -0.352 N 
ATOM     27  C   UNL A   1      39.435  21.489  26.354  1.00  0.00     0.251 C 
ATOM     28  H   UNL A   1      37.899  20.307  25.912  1.00  0.00     0.163 HD
ATOM     29  O   UNL A   1      40.229  20.552  26.290  1.00  0.00    -0.269 OA
BRANCH  27  30
ATOM     30  C   UNL A   1      39.916  22.832  26.754  1.00  0.00     0.039 A 
ATOM     31  C   UNL A   1      40.808  22.924  27.828  1.00  0.00     0.014 A 
ATOM     32  C   UNL A   1      39.463  23.997  26.133  1.00  0.00     0.014 A 
ATOM     33  C   UNL A   1      41.282  24.172  28.240  1.00  0.00     0.010 A 
ATOM     34  C   UNL A   1      40.000  25.234  26.488  1.00  0.00     0.010 A 
ATOM     35  C   UNL A   1      40.905  25.338  27.554  1.00  0.00    -0.014 A 
BRANCH  35  36
ATOM     36  C   UNL A   1      41.460  26.662  27.939  1.00  0.00     0.031 A 
ATOM     37  C   UNL A   1      42.890  27.019  27.629  1.00  0.00     0.074 A 
ATOM     38  C   UNL A   1      40.691  27.523  28.636  1.00  0.00     0.049 A 
ATOM     39  N   UNL A   1      43.535  28.127  27.888  1.00  0.00    -0.248 NA
ATOM     40  C   UNL A   1      43.713  25.990  26.973  1.00  0.00     0.031 C 
ATOM     41  C   UNL A   1      39.325  27.255  29.094  1.00  0.00     0.029 A 
ATOM     42  N   UNL A   1      40.953  28.787  29.101  1.00  0.00    -0.354 N 
ATOM     43  C   UNL A   1      44.843  27.916  27.464  1.00  0.00     0.074 A 
ATOM     44  C   UNL A   1      44.909  26.562  26.961  1.00  0.00     0.031 C 
ATOM     45  C   UNL A   1      38.867  28.325  29.763  1.00  0.00     0.029 A 
ATOM     46  C   UNL A   1      39.907  29.349  29.795  1.00  0.00     0.049 A 
ATOM     47  H   UNL A   1      41.810  29.249  28.950  1.00  0.00     0.167 HD
ATOM     48  C   UNL A   1      45.885  28.782  27.460  1.00  0.00     0.034 A 
ATOM     49  C   UNL A   1      39.792  30.556  30.382  1.00  0.00     0.034 A 
ATOM     50  C   UNL A   1      45.800  30.148  27.897  1.00  0.00     0.049 A 
ATOM     51  C   UNL A   1      40.932  31.533  30.272  1.00  0.00     0.074 A 
ATOM     52  C   UNL A   1      46.765  31.138  27.826  1.00  0.00     0.029 A 
ATOM     53  N   UNL A   1      44.684  30.723  28.486  1.00  0.00    -0.354 N 
ATOM     54  N   UNL A   1      42.097  31.378  29.690  1.00  0.00    -0.248 NA
ATOM     55  C   UNL A   1      40.725  32.866  30.855  1.00  0.00     0.031 C 
ATOM     56  C   UNL A   1      46.235  32.309  28.379  1.00  0.00     0.029 A 
ATOM     57  C   UNL A   1      44.936  32.051  28.787  1.00  0.00     0.049 A 
ATOM     58  H   UNL A   1      43.837  30.254  28.666  1.00  0.00     0.167 HD
ATOM     59  C   UNL A   1      42.750  32.599  29.814  1.00  0.00     0.074 A 
ATOM     60  C   UNL A   1      41.837  33.492  30.498  1.00  0.00     0.031 C 
ATOM     61  C   UNL A   1      44.000  32.943  29.419  1.00  0.00     0.034 A 
BRANCH  48  62
ATOM     62  C   UNL A   1      47.196  28.298  26.894  1.00  0.00     0.023 A 
ATOM     63  C   UNL A   1      48.249  27.978  27.773  1.00  0.00     0.012 A 
ATOM     64  C   UNL A   1      47.365  28.096  25.510  1.00  0.00     0.148 A 
ATOM     65  C   UNL A   1      49.462  27.493  27.285  1.00  0.00     0.002 A 
ATOM     66  C   UNL A   1      48.561  27.574  25.033  1.00  0.00     0.091 A 
ATOM     67  F   UNL A   1      46.359  28.427  24.687  1.00  0.00    -0.205 F 
ATOM     68  C   UNL A   1      49.613  27.281  25.917  1.00  0.00     0.022 A 
BRANCH  66  69
ATOM     69  S   UNL A   1      48.830  27.195  23.297  1.00  0.00     0.127 S 
ATOM     70  O   UNL A   1      48.196  28.340  22.644  1.00  0.00    -0.237 OA
ATOM     71  O   UNL A   1      50.290  27.173  23.207  1.00  0.00    -0.237 OA
ATOM     72  O   UNL A   1      48.190  25.908  23.066  1.00  0.00    -0.744 OA
ENDBRANCH  66  69
ENDBRANCH  48  62
BRANCH  49  73
ATOM     73  C   UNL A   1      38.513  30.941  31.041  1.00  0.00     0.023 A 
ATOM     74  C   UNL A   1      38.362  30.732  32.426  1.00  0.00     0.012 A 
ATOM     75  C   UNL A   1      37.466  31.545  30.320  1.00  0.00     0.148 A 
ATOM     76  C   UNL A   1      37.181  31.091  33.075  1.00  0.00     0.002 A 
ATOM     77  C   UNL A   1      36.313  31.950  30.983  1.00  0.00     0.091 A 
ATOM     78  F   UNL A   1      37.620  31.722  29.000  1.00  0.00    -0.205 F 
ATOM     79  C   UNL A   1      36.161  31.709  32.357  1.00  0.00     0.022 A 
BRANCH  77  80
ATOM     80  S   UNL A   1      35.016  32.879  30.157  1.00  0.00     0.127 S 
ATOM     81  O   UNL A   1      34.115  33.188  31.263  1.00  0.00    -0.237 OA
ATOM     82  O   UNL A   1      35.750  34.026  29.621  1.00  0.00    -0.237 OA
ATOM     83  O   UNL A   1      34.492  31.981  29.135  1.00  0.00    -0.744 OA
ENDBRANCH  77  80
ENDBRANCH  49  73
BRANCH  61  84
ATOM     84  C   UNL A   1      44.455  34.350  29.704  1.00  0.00     0.023 A 
ATOM     85  C   UNL A   1      45.024  34.654  30.956  1.00  0.00     0.012 A 
ATOM     86  C   UNL A   1      44.375  35.353  28.718  1.00  0.00     0.148 A 
ATOM     87  C   UNL A   1      45.475  35.944  31.235  1.00  0.00     0.002 A 
ATOM     88  C   UNL A   1      44.867  36.625  28.989  1.00  0.00     0.091 A 
ATOM     89  F   UNL A   1      43.809  35.053  27.539  1.00  0.00    -0.205 F 
ATOM     90  C   UNL A   1      45.406  36.925  30.250  1.00  0.00     0.022 A 
BRANCH  88  91
ATOM     91  S   UNL A   1      44.896  37.916  27.740  1.00  0.00     0.127 S 
ATOM     92  O   UNL A   1      45.707  37.302  26.692  1.00  0.00    -0.237 OA
ATOM     93  O   UNL A   1      43.478  38.066  27.405  1.00  0.00    -0.237 OA
ATOM     94  O   UNL A   1      45.480  39.080  28.395  1.00  0.00    -0.744 OA
ENDBRANCH  88  91
ENDBRANCH  61  84
ENDBRANCH  35  36
ENDBRANCH  27  30
ENDBRANCH  25  26
ENDBRANCH  24  25
ENDBRANCH   1  24
TORSDOF 17
ENDMDL
