MODEL 1
REMARK VINA RESULT:     -11.5      0.000      0.000
REMARK SMILES COCC[C@H](NC(=O)c1ccc(C)cc1F)C(=O)NCCCNC(=O)c1ccc(-c2c3nc(c(-c4cccc(S(=O)(=O)[O-])c4F)c4ccc([nH]4)c(-c4cccc(S(=O)(=O)[O-])c4F)c4nc(c(-c5cccc(S(=O)(=O)[O-])c5F)c5ccc2[nH]5)C=C4)C=C3)cc1
REMARK SMILES IDX 21 1 20 2 19 3 17 4 18 5 5 7 4 8 3 9 2 10 1 11 6 12 7 13
REMARK SMILES IDX 8 15 9 16 10 17 15 18 11 19 14 20 16 21 12 22 13 23 22 24
REMARK SMILES IDX 23 25 24 26 25 28 26 29 27 30 88 31 28 32 87 33 29 34 30 35
REMARK SMILES IDX 31 36 81 37 32 38 86 39 80 40 82 41 33 42 85 43 79 44 78 45
REMARK SMILES IDX 34 47 66 48 46 49 65 50 47 51 50 52 64 53 83 54 48 55 49 56
REMARK SMILES IDX 63 58 84 59 51 60 35 61 36 62 44 63 37 64 39 65 45 66 38 67
REMARK SMILES IDX 40 68 41 69 42 70 43 71 67 72 68 73 76 74 69 75 71 76 77 77
REMARK SMILES IDX 70 78 72 79 73 80 74 81 75 82 52 83 53 84 61 85 54 86 56 87
REMARK SMILES IDX 62 88 55 89 57 90 58 91 59 92 60 93
REMARK H PARENT 19 6 6 14 23 27 82 46 50 57
REMARK Flexibility Score: inf
ROOT
ATOM      1  C   UNL A   1      31.448  31.599  26.468  1.00  0.00     0.042 C 
ENDROOT
BRANCH   1   2
ATOM      2  C   UNL A   1      31.678  30.262  25.782  1.00  0.00     0.117 C 
BRANCH   2   3
ATOM      3  N   UNL A   1      30.919  30.136  24.546  1.00  0.00    -0.354 N 
ATOM      4  C   UNL A   1      30.759  29.071  23.710  1.00  0.00     0.242 C 
ATOM      5  O   UNL A   1      29.936  29.178  22.797  1.00  0.00    -0.273 OA
ATOM      6  H   UNL A   1      30.445  30.953  24.269  1.00  0.00     0.163 HD
BRANCH   4   7
ATOM      7  C   UNL A   1      31.468  27.731  23.983  1.00  0.00     0.173 C 
BRANCH   7   8
ATOM      8  C   UNL A   1      31.832  27.049  22.653  1.00  0.00     0.063 C 
BRANCH   8   9
ATOM      9  C   UNL A   1      33.327  27.064  22.330  1.00  0.00     0.162 C 
BRANCH   9  10
ATOM     10  O   UNL A   1      33.629  26.266  21.187  1.00  0.00    -0.385 OA
ATOM     11  C   UNL A   1      32.539  25.478  20.728  1.00  0.00     0.194 C 
ENDBRANCH   9  10
ENDBRANCH   8   9
ENDBRANCH   7   8
BRANCH   7  12
ATOM     12  N   UNL A   1      30.641  26.933  24.901  1.00  0.00    -0.340 N 
ATOM     13  C   UNL A   1      30.927  25.764  25.566  1.00  0.00     0.254 C 
ATOM     14  H   UNL A   1      29.740  27.293  25.064  1.00  0.00     0.164 HD
ATOM     15  O   UNL A   1      30.162  25.311  26.394  1.00  0.00    -0.269 OA
BRANCH  13  16
ATOM     16  C   UNL A   1      32.170  25.053  25.246  1.00  0.00     0.075 A 
ATOM     17  C   UNL A   1      33.391  25.458  25.790  1.00  0.00     0.017 A 
ATOM     18  C   UNL A   1      32.119  24.026  24.308  1.00  0.00     0.136 A 
ATOM     19  C   UNL A   1      34.574  24.887  25.315  1.00  0.00     0.004 A 
ATOM     20  C   UNL A   1      33.297  23.447  23.845  1.00  0.00     0.043 A 
ATOM     21  F   UNL A   1      30.957  23.636  23.768  1.00  0.00    -0.206 F 
ATOM     22  C   UNL A   1      34.535  23.901  24.318  1.00  0.00    -0.048 A 
ATOM     23  C   UNL A   1      35.800  23.340  23.742  1.00  0.00     0.044 C 
ENDBRANCH  13  16
ENDBRANCH   7  12
ENDBRANCH   4   7
ENDBRANCH   2   3
ENDBRANCH   1   2
BRANCH   1  24
ATOM     24  C   UNL A   1      32.492  31.949  27.520  1.00  0.00     0.118 C 
BRANCH  24  25
ATOM     25  N   UNL A   1      32.861  33.360  27.509  1.00  0.00    -0.352 N 
ATOM     26  C   UNL A   1      34.001  33.961  27.987  1.00  0.00     0.251 C 
ATOM     27  H   UNL A   1      32.201  33.966  27.101  1.00  0.00     0.163 HD
ATOM     28  O   UNL A   1      34.076  35.185  28.032  1.00  0.00    -0.269 OA
BRANCH  26  29
ATOM     29  C   UNL A   1      35.121  33.126  28.466  1.00  0.00     0.039 A 
ATOM     30  C   UNL A   1      36.432  33.576  28.290  1.00  0.00     0.014 A 
ATOM     31  C   UNL A   1      34.872  31.913  29.114  1.00  0.00     0.014 A 
ATOM     32  C   UNL A   1      37.492  32.846  28.835  1.00  0.00     0.010 A 
ATOM     33  C   UNL A   1      35.919  31.229  29.720  1.00  0.00     0.010 A 
ATOM     34  C   UNL A   1      37.239  31.686  29.586  1.00  0.00    -0.014 A 
BRANCH  34  35
ATOM     35  C   UNL A   1      38.330  30.933  30.253  1.00  0.00     0.031 A 
ATOM     36  C   UNL A   1      38.743  31.295  31.653  1.00  0.00     0.074 A 
ATOM     37  C   UNL A   1      39.028  30.013  29.558  1.00  0.00     0.049 A 
ATOM     38  N   UNL A   1      39.748  30.844  32.358  1.00  0.00    -0.248 NA
ATOM     39  C   UNL A   1      37.945  32.326  32.337  1.00  0.00     0.031 C 
ATOM     40  C   UNL A   1      38.782  29.637  28.164  1.00  0.00     0.029 A 
ATOM     41  N   UNL A   1      40.110  29.250  29.920  1.00  0.00    -0.354 N 
ATOM     42  C   UNL A   1      39.736  31.572  33.541  1.00  0.00     0.074 A 
ATOM     43  C   UNL A   1      38.637  32.509  33.453  1.00  0.00     0.031 C 
ATOM     44  C   UNL A   1      39.688  28.719  27.788  1.00  0.00     0.029 A 
ATOM     45  C   UNL A   1      40.591  28.457  28.904  1.00  0.00     0.049 A 
ATOM     46  H   UNL A   1      40.505  29.270  30.821  1.00  0.00     0.167 HD
ATOM     47  C   UNL A   1      40.545  31.450  34.619  1.00  0.00     0.034 A 
ATOM     48  C   UNL A   1      41.643  27.615  28.875  1.00  0.00     0.034 A 
ATOM     49  C   UNL A   1      41.580  30.462  34.740  1.00  0.00     0.049 A 
ATOM     50  C   UNL A   1      42.467  27.431  30.120  1.00  0.00     0.074 A 
ATOM     51  C   UNL A   1      42.379  30.181  35.834  1.00  0.00     0.029 A 
ATOM     52  N   UNL A   1      41.953  29.584  33.735  1.00  0.00    -0.354 N 
ATOM     53  N   UNL A   1      42.336  28.011  31.287  1.00  0.00    -0.248 NA
ATOM     54  C   UNL A   1      43.562  26.451  30.056  1.00  0.00     0.031 C 
ATOM     55  C   UNL A   1      43.233  29.128  35.491  1.00  0.00     0.029 A 
ATOM     56  C   UNL A   1      42.968  28.756  34.183  1.00  0.00     0.049 A 
ATOM     57  H   UNL A   1      41.556  29.553  32.835  1.00  0.00     0.167 HD
ATOM     58  C   UNL A   1      43.308  27.449  32.105  1.00  0.00     0.074 A 
ATOM     59  C   UNL A   1      44.009  26.465  31.305  1.00  0.00     0.031 C 
ATOM     60  C   UNL A   1      43.608  27.736  33.395  1.00  0.00     0.034 A 
BRANCH  47  61
ATOM     61  C   UNL A   1      40.286  32.358  35.790  1.00  0.00     0.023 A 
ATOM     62  C   UNL A   1      41.063  33.524  35.942  1.00  0.00     0.012 A 
ATOM     63  C   UNL A   1      39.250  32.093  36.707  1.00  0.00     0.148 A 
ATOM     64  C   UNL A   1      40.835  34.397  37.003  1.00  0.00     0.002 A 
ATOM     65  C   UNL A   1      39.005  32.988  37.743  1.00  0.00     0.091 A 
ATOM     66  F   UNL A   1      38.539  30.965  36.564  1.00  0.00    -0.205 F 
ATOM     67  C   UNL A   1      39.801  34.135  37.896  1.00  0.00     0.022 A 
BRANCH  65  68
ATOM     68  S   UNL A   1      37.650  32.763  38.902  1.00  0.00     0.127 S 
ATOM     69  O   UNL A   1      36.487  32.880  38.024  1.00  0.00    -0.237 OA
ATOM     70  O   UNL A   1      37.894  31.412  39.411  1.00  0.00    -0.237 OA
ATOM     71  O   UNL A   1      37.803  33.816  39.896  1.00  0.00    -0.744 OA
ENDBRANCH  65  68
ENDBRANCH  47  61
BRANCH  48  72
ATOM     72  C   UNL A   1      41.914  26.813  27.649  1.00  0.00     0.023 A 
ATOM     73  C   UNL A   1      42.499  27.446  26.536  1.00  0.00     0.012 A 
ATOM     74  C   UNL A   1      41.643  25.433  27.591  1.00  0.00     0.148 A 
ATOM     75  C   UNL A   1      42.791  26.724  25.378  1.00  0.00     0.002 A 
ATOM     76  C   UNL A   1      41.979  24.710  26.451  1.00  0.00     0.091 A 
ATOM     77  F   UNL A   1      41.068  24.851  28.653  1.00  0.00    -0.205 F 
ATOM     78  C   UNL A   1      42.542  25.356  25.340  1.00  0.00     0.022 A 
BRANCH  76  79
ATOM     79  S   UNL A   1      41.806  22.924  26.373  1.00  0.00     0.127 S 
ATOM     80  O   UNL A   1      40.355  22.763  26.381  1.00  0.00    -0.237 OA
ATOM     81  O   UNL A   1      42.454  22.605  25.101  1.00  0.00    -0.237 OA
ATOM     82  O   UNL A   1      42.515  22.423  27.544  1.00  0.00    -0.744 OA
ENDBRANCH  76  79
ENDBRANCH  48  72
BRANCH  60  83
ATOM     83  C   UNL A   1      44.726  26.966  34.041  1.00  0.00     0.023 A 
ATOM     84  C   UNL A   1      46.047  27.441  33.926  1.00  0.00     0.012 A 
ATOM     85  C   UNL A   1      44.461  25.835  34.836  1.00  0.00     0.148 A 
ATOM     86  C   UNL A   1      47.092  26.790  34.579  1.00  0.00     0.002 A 
ATOM     87  C   UNL A   1      45.503  25.213  35.516  1.00  0.00     0.091 A 
ATOM     88  F   UNL A   1      43.200  25.385  34.913  1.00  0.00    -0.205 F 
ATOM     89  C   UNL A   1      46.819  25.686  35.384  1.00  0.00     0.022 A 
BRANCH  87  90
ATOM     90  S   UNL A   1      45.219  23.840  36.639  1.00  0.00     0.127 S 
ATOM     91  O   UNL A   1      44.387  24.461  37.667  1.00  0.00    -0.237 OA
ATOM     92  O   UNL A   1      44.519  22.875  35.789  1.00  0.00    -0.237 OA
ATOM     93  O   UNL A   1      46.540  23.406  37.072  1.00  0.00    -0.744 OA
ENDBRANCH  87  90
ENDBRANCH  60  83
ENDBRANCH  34  35
ENDBRANCH  26  29
ENDBRANCH  24  25
ENDBRANCH   1  24
TORSDOF 18
ENDMDL
MODEL 2
REMARK VINA RESULT:     -11.4      2.358      3.259
REMARK SMILES COCC[C@H](NC(=O)c1ccc(C)cc1F)C(=O)NCCCNC(=O)c1ccc(-c2c3nc(c(-c4cccc(S(=O)(=O)[O-])c4F)c4ccc([nH]4)c(-c4cccc(S(=O)(=O)[O-])c4F)c4nc(c(-c5cccc(S(=O)(=O)[O-])c5F)c5ccc2[nH]5)C=C4)C=C3)cc1
REMARK SMILES IDX 21 1 20 2 19 3 17 4 18 5 5 7 4 8 3 9 2 10 1 11 6 12 7 13
REMARK SMILES IDX 8 15 9 16 10 17 15 18 11 19 14 20 16 21 12 22 13 23 22 24
REMARK SMILES IDX 23 25 24 26 25 28 26 29 27 30 88 31 28 32 87 33 29 34 30 35
REMARK SMILES IDX 31 36 81 37 32 38 86 39 80 40 82 41 33 42 85 43 79 44 78 45
REMARK SMILES IDX 34 47 66 48 46 49 65 50 47 51 50 52 64 53 83 54 48 55 49 56
REMARK SMILES IDX 63 58 84 59 51 60 35 61 36 62 44 63 37 64 39 65 45 66 38 67
REMARK SMILES IDX 40 68 41 69 42 70 43 71 67 72 68 73 76 74 69 75 71 76 77 77
REMARK SMILES IDX 70 78 72 79 73 80 74 81 75 82 52 83 53 84 61 85 54 86 56 87
REMARK SMILES IDX 62 88 55 89 57 90 58 91 59 92 60 93
REMARK H PARENT 19 6 6 14 23 27 82 46 50 57
REMARK Flexibility Score: inf
ROOT
ATOM      1  C   UNL A   1      33.322  28.239  26.589  1.00  0.00     0.042 C 
ENDROOT
BRANCH   1   2
ATOM      2  C   UNL A   1      33.281  27.071  25.616  1.00  0.00     0.117 C 
BRANCH   2   3
ATOM      3  N   UNL A   1      32.069  26.277  25.757  1.00  0.00    -0.354 N 
ATOM      4  C   UNL A   1      31.546  25.309  24.951  1.00  0.00     0.242 C 
ATOM      5  O   UNL A   1      30.574  24.676  25.372  1.00  0.00    -0.273 OA
ATOM      6  H   UNL A   1      31.541  26.470  26.565  1.00  0.00     0.163 HD
BRANCH   4   7
ATOM      7  C   UNL A   1      32.233  24.919  23.628  1.00  0.00     0.173 C 
BRANCH   7   8
ATOM      8  C   UNL A   1      31.637  25.734  22.467  1.00  0.00     0.063 C 
BRANCH   8   9
ATOM      9  C   UNL A   1      32.603  25.963  21.303  1.00  0.00     0.162 C 
BRANCH   9  10
ATOM     10  O   UNL A   1      33.854  26.483  21.748  1.00  0.00    -0.385 OA
ATOM     11  C   UNL A   1      33.827  27.871  22.053  1.00  0.00     0.194 C 
ENDBRANCH   9  10
ENDBRANCH   8   9
ENDBRANCH   7   8
BRANCH   7  12
ATOM     12  N   UNL A   1      32.173  23.458  23.475  1.00  0.00    -0.340 N 
ATOM     13  C   UNL A   1      33.073  22.487  23.849  1.00  0.00     0.254 C 
ATOM     14  H   UNL A   1      31.361  23.121  23.033  1.00  0.00     0.164 HD
ATOM     15  O   UNL A   1      32.797  21.308  23.759  1.00  0.00    -0.269 OA
BRANCH  13  16
ATOM     16  C   UNL A   1      34.393  22.898  24.344  1.00  0.00     0.075 A 
ATOM     17  C   UNL A   1      35.498  22.944  23.491  1.00  0.00     0.017 A 
ATOM     18  C   UNL A   1      34.539  23.143  25.705  1.00  0.00     0.136 A 
ATOM     19  C   UNL A   1      36.769  23.148  24.031  1.00  0.00     0.004 A 
ATOM     20  C   UNL A   1      35.804  23.361  26.242  1.00  0.00     0.043 A 
ATOM     21  F   UNL A   1      33.489  23.089  26.537  1.00  0.00    -0.206 F 
ATOM     22  C   UNL A   1      36.933  23.326  25.413  1.00  0.00    -0.048 A 
ATOM     23  C   UNL A   1      38.299  23.464  26.015  1.00  0.00     0.044 C 
ENDBRANCH  13  16
ENDBRANCH   7  12
ENDBRANCH   4   7
ENDBRANCH   2   3
ENDBRANCH   1   2
BRANCH   1  24
ATOM     24  C   UNL A   1      34.041  29.471  26.055  1.00  0.00     0.118 C 
BRANCH  24  25
ATOM     25  N   UNL A   1      33.844  30.651  26.888  1.00  0.00    -0.352 N 
ATOM     26  C   UNL A   1      34.572  31.078  27.973  1.00  0.00     0.251 C 
ATOM     27  H   UNL A   1      33.083  31.223  26.637  1.00  0.00     0.163 HD
ATOM     28  O   UNL A   1      34.168  32.018  28.652  1.00  0.00    -0.269 OA
BRANCH  26  29
ATOM     29  C   UNL A   1      35.827  30.385  28.329  1.00  0.00     0.039 A 
ATOM     30  C   UNL A   1      36.970  30.603  27.555  1.00  0.00     0.014 A 
ATOM     31  C   UNL A   1      35.878  29.544  29.444  1.00  0.00     0.014 A 
ATOM     32  C   UNL A   1      38.186  30.037  27.946  1.00  0.00     0.010 A 
ATOM     33  C   UNL A   1      37.103  29.045  29.873  1.00  0.00     0.010 A 
ATOM     34  C   UNL A   1      38.268  29.285  29.129  1.00  0.00    -0.014 A 
BRANCH  34  35
ATOM     35  C   UNL A   1      39.558  28.741  29.623  1.00  0.00     0.031 A 
ATOM     36  C   UNL A   1      40.290  29.443  30.734  1.00  0.00     0.074 A 
ATOM     37  C   UNL A   1      40.128  27.695  28.992  1.00  0.00     0.049 A 
ATOM     38  N   UNL A   1      41.480  29.201  31.218  1.00  0.00    -0.248 NA
ATOM     39  C   UNL A   1      39.611  30.593  31.357  1.00  0.00     0.031 C 
ATOM     40  C   UNL A   1      39.559  26.985  27.844  1.00  0.00     0.029 A 
ATOM     41  N   UNL A   1      41.330  27.069  29.206  1.00  0.00    -0.354 N 
ATOM     42  C   UNL A   1      41.715  30.195  32.160  1.00  0.00     0.074 A 
ATOM     43  C   UNL A   1      40.553  31.057  32.166  1.00  0.00     0.031 C 
ATOM     44  C   UNL A   1      40.412  26.024  27.454  1.00  0.00     0.029 A 
ATOM     45  C   UNL A   1      41.596  26.062  28.307  1.00  0.00     0.049 A 
ATOM     46  H   UNL A   1      41.944  27.316  29.934  1.00  0.00     0.167 HD
ATOM     47  C   UNL A   1      42.786  30.358  32.971  1.00  0.00     0.034 A 
ATOM     48  C   UNL A   1      42.673  25.262  28.182  1.00  0.00     0.034 A 
ATOM     49  C   UNL A   1      43.899  29.453  33.025  1.00  0.00     0.049 A 
ATOM     50  C   UNL A   1      43.808  25.406  29.159  1.00  0.00     0.074 A 
ATOM     51  C   UNL A   1      44.978  29.466  33.890  1.00  0.00     0.029 A 
ATOM     52  N   UNL A   1      44.072  28.365  32.184  1.00  0.00    -0.354 N 
ATOM     53  N   UNL A   1      43.937  26.251  30.152  1.00  0.00    -0.248 NA
ATOM     54  C   UNL A   1      44.930  24.465  29.022  1.00  0.00     0.031 C 
ATOM     55  C   UNL A   1      45.802  28.380  33.575  1.00  0.00     0.029 A 
ATOM     56  C   UNL A   1      45.237  27.694  32.512  1.00  0.00     0.049 A 
ATOM     57  H   UNL A   1      43.456  28.107  31.460  1.00  0.00     0.167 HD
ATOM     58  C   UNL A   1      45.135  25.927  30.777  1.00  0.00     0.074 A 
ATOM     59  C   UNL A   1      45.686  24.794  30.061  1.00  0.00     0.031 C 
ATOM     60  C   UNL A   1      45.736  26.527  31.833  1.00  0.00     0.034 A 
BRANCH  47  61
ATOM     61  C   UNL A   1      42.763  31.519  33.928  1.00  0.00     0.023 A 
ATOM     62  C   UNL A   1      43.312  32.753  33.526  1.00  0.00     0.012 A 
ATOM     63  C   UNL A   1      42.161  31.409  35.196  1.00  0.00     0.148 A 
ATOM     64  C   UNL A   1      43.289  33.853  34.380  1.00  0.00     0.002 A 
ATOM     65  C   UNL A   1      42.109  32.522  36.029  1.00  0.00     0.091 A 
ATOM     66  F   UNL A   1      41.669  30.221  35.574  1.00  0.00    -0.205 F 
ATOM     67  C   UNL A   1      42.679  33.741  35.626  1.00  0.00     0.022 A 
BRANCH  65  68
ATOM     68  S   UNL A   1      41.284  32.486  37.626  1.00  0.00     0.127 S 
ATOM     69  O   UNL A   1      39.971  31.954  37.268  1.00  0.00    -0.237 OA
ATOM     70  O   UNL A   1      42.125  31.565  38.392  1.00  0.00    -0.237 OA
ATOM     71  O   UNL A   1      41.301  33.860  38.109  1.00  0.00    -0.744 OA
ENDBRANCH  65  68
ENDBRANCH  47  61
BRANCH  48  72
ATOM     72  C   UNL A   1      42.683  24.192  27.146  1.00  0.00     0.023 A 
ATOM     73  C   UNL A   1      43.374  24.417  25.940  1.00  0.00     0.012 A 
ATOM     74  C   UNL A   1      42.059  22.949  27.359  1.00  0.00     0.148 A 
ATOM     75  C   UNL A   1      43.428  23.430  24.956  1.00  0.00     0.002 A 
ATOM     76  C   UNL A   1      42.155  21.953  26.393  1.00  0.00     0.091 A 
ATOM     77  F   UNL A   1      41.389  22.760  28.505  1.00  0.00    -0.205 F 
ATOM     78  C   UNL A   1      42.829  22.196  25.186  1.00  0.00     0.022 A 
BRANCH  76  79
ATOM     79  S   UNL A   1      41.519  20.296  26.670  1.00  0.00     0.127 S 
ATOM     80  O   UNL A   1      41.920  19.612  25.444  1.00  0.00    -0.237 OA
ATOM     81  O   UNL A   1      42.244  19.882  27.872  1.00  0.00    -0.237 OA
ATOM     82  O   UNL A   1      40.085  20.468  26.870  1.00  0.00    -0.744 OA
ENDBRANCH  76  79
ENDBRANCH  48  72
BRANCH  60  83
ATOM     83  C   UNL A   1      47.048  25.963  32.303  1.00  0.00     0.023 A 
ATOM     84  C   UNL A   1      48.246  26.451  31.749  1.00  0.00     0.012 A 
ATOM     85  C   UNL A   1      47.098  25.028  33.354  1.00  0.00     0.148 A 
ATOM     86  C   UNL A   1      49.479  26.002  32.222  1.00  0.00     0.002 A 
ATOM     87  C   UNL A   1      48.331  24.613  33.847  1.00  0.00     0.091 A 
ATOM     88  F   UNL A   1      45.945  24.559  33.852  1.00  0.00    -0.205 F 
ATOM     89  C   UNL A   1      49.521  25.095  33.279  1.00  0.00     0.022 A 
BRANCH  87  90
ATOM     90  S   UNL A   1      48.468  23.514  35.262  1.00  0.00     0.127 S 
ATOM     91  O   UNL A   1      48.108  22.225  34.675  1.00  0.00    -0.237 OA
ATOM     92  O   UNL A   1      49.880  23.644  35.628  1.00  0.00    -0.237 OA
ATOM     93  O   UNL A   1      47.542  24.036  36.257  1.00  0.00    -0.744 OA
ENDBRANCH  87  90
ENDBRANCH  60  83
ENDBRANCH  34  35
ENDBRANCH  26  29
ENDBRANCH  24  25
ENDBRANCH   1  24
TORSDOF 18
ENDMDL
MODEL 3
REMARK VINA RESULT:     -11.4      1.106      2.681
REMARK SMILES COCC[C@H](NC(=O)c1ccc(C)cc1F)C(=O)NCCCNC(=O)c1ccc(-c2c3nc(c(-c4cccc(S(=O)(=O)[O-])c4F)c4ccc([nH]4)c(-c4cccc(S(=O)(=O)[O-])c4F)c4nc(c(-c5cccc(S(=O)(=O)[O-])c5F)c5ccc2[nH]5)C=C4)C=C3)cc1
REMARK SMILES IDX 21 1 20 2 19 3 17 4 18 5 5 7 4 8 3 9 2 10 1 11 6 12 7 13
REMARK SMILES IDX 8 15 9 16 10 17 15 18 11 19 14 20 16 21 12 22 13 23 22 24
REMARK SMILES IDX 23 25 24 26 25 28 26 29 27 30 88 31 28 32 87 33 29 34 30 35
REMARK SMILES IDX 31 36 81 37 32 38 86 39 80 40 82 41 33 42 85 43 79 44 78 45
REMARK SMILES IDX 34 47 66 48 46 49 65 50 47 51 50 52 64 53 83 54 48 55 49 56
REMARK SMILES IDX 63 58 84 59 51 60 35 61 36 62 44 63 37 64 39 65 45 66 38 67
REMARK SMILES IDX 40 68 41 69 42 70 43 71 67 72 68 73 76 74 69 75 71 76 77 77
REMARK SMILES IDX 70 78 72 79 73 80 74 81 75 82 52 83 53 84 61 85 54 86 56 87
REMARK SMILES IDX 62 88 55 89 57 90 58 91 59 92 60 93
REMARK H PARENT 19 6 6 14 23 27 82 46 50 57
REMARK Flexibility Score: inf
ROOT
ATOM      1  C   UNL A   1      31.496  31.831  26.416  1.00  0.00     0.042 C 
ENDROOT
BRANCH   1   2
ATOM      2  C   UNL A   1      31.327  30.435  25.838  1.00  0.00     0.117 C 
BRANCH   2   3
ATOM      3  N   UNL A   1      32.546  29.944  25.211  1.00  0.00    -0.354 N 
ATOM      4  C   UNL A   1      32.866  28.702  24.749  1.00  0.00     0.242 C 
ATOM      5  O   UNL A   1      33.919  28.579  24.118  1.00  0.00    -0.273 OA
ATOM      6  H   UNL A   1      33.254  30.620  25.102  1.00  0.00     0.163 HD
BRANCH   4   7
ATOM      7  C   UNL A   1      31.880  27.526  24.880  1.00  0.00     0.173 C 
BRANCH   7   8
ATOM      8  C   UNL A   1      32.287  26.628  26.061  1.00  0.00     0.063 C 
BRANCH   8   9
ATOM      9  C   UNL A   1      32.588  25.179  25.672  1.00  0.00     0.162 C 
BRANCH   9  10
ATOM     10  O   UNL A   1      31.394  24.433  25.451  1.00  0.00    -0.385 OA
ATOM     11  C   UNL A   1      31.563  23.312  24.594  1.00  0.00     0.194 C 
ENDBRANCH   9  10
ENDBRANCH   8   9
ENDBRANCH   7   8
BRANCH   7  12
ATOM     12  N   UNL A   1      31.768  26.851  23.579  1.00  0.00    -0.340 N 
ATOM     13  C   UNL A   1      31.039  27.189  22.462  1.00  0.00     0.254 C 
ATOM     14  H   UNL A   1      32.297  26.026  23.494  1.00  0.00     0.164 HD
ATOM     15  O   UNL A   1      31.171  26.579  21.420  1.00  0.00    -0.269 OA
BRANCH  13  16
ATOM     16  C   UNL A   1      30.077  28.294  22.552  1.00  0.00     0.075 A 
ATOM     17  C   UNL A   1      30.430  29.587  22.161  1.00  0.00     0.017 A 
ATOM     18  C   UNL A   1      28.836  28.042  23.129  1.00  0.00     0.136 A 
ATOM     19  C   UNL A   1      29.563  30.646  22.441  1.00  0.00     0.004 A 
ATOM     20  C   UNL A   1      27.966  29.095  23.395  1.00  0.00     0.043 A 
ATOM     21  F   UNL A   1      28.490  26.808  23.520  1.00  0.00    -0.206 F 
ATOM     22  C   UNL A   1      28.340  30.409  23.087  1.00  0.00    -0.048 A 
ATOM     23  C   UNL A   1      27.438  31.545  23.466  1.00  0.00     0.044 C 
ENDBRANCH  13  16
ENDBRANCH   7  12
ENDBRANCH   4   7
ENDBRANCH   2   3
ENDBRANCH   1   2
BRANCH   1  24
ATOM     24  C   UNL A   1      32.824  32.057  27.125  1.00  0.00     0.118 C 
BRANCH  24  25
ATOM     25  N   UNL A   1      33.063  33.457  27.453  1.00  0.00    -0.352 N 
ATOM     26  C   UNL A   1      34.071  34.011  28.206  1.00  0.00     0.251 C 
ATOM     27  H   UNL A   1      32.412  34.096  27.083  1.00  0.00     0.163 HD
ATOM     28  O   UNL A   1      34.030  35.200  28.507  1.00  0.00    -0.269 OA
BRANCH  26  29
ATOM     29  C   UNL A   1      35.189  33.162  28.668  1.00  0.00     0.039 A 
ATOM     30  C   UNL A   1      36.502  33.549  28.387  1.00  0.00     0.014 A 
ATOM     31  C   UNL A   1      34.937  32.000  29.403  1.00  0.00     0.014 A 
ATOM     32  C   UNL A   1      37.566  32.812  28.911  1.00  0.00     0.010 A 
ATOM     33  C   UNL A   1      35.995  31.313  29.985  1.00  0.00     0.010 A 
ATOM     34  C   UNL A   1      37.319  31.710  29.746  1.00  0.00    -0.014 A 
BRANCH  34  35
ATOM     35  C   UNL A   1      38.421  30.954  30.391  1.00  0.00     0.031 A 
ATOM     36  C   UNL A   1      38.870  31.322  31.779  1.00  0.00     0.074 A 
ATOM     37  C   UNL A   1      39.098  30.026  29.685  1.00  0.00     0.049 A 
ATOM     38  N   UNL A   1      39.888  30.871  32.463  1.00  0.00    -0.248 NA
ATOM     39  C   UNL A   1      38.093  32.362  32.476  1.00  0.00     0.031 C 
ATOM     40  C   UNL A   1      38.818  29.644  28.299  1.00  0.00     0.029 A 
ATOM     41  N   UNL A   1      40.185  29.261  30.026  1.00  0.00    -0.354 N 
ATOM     42  C   UNL A   1      39.907  31.605  33.642  1.00  0.00     0.074 A 
ATOM     43  C   UNL A   1      38.811  32.547  33.573  1.00  0.00     0.031 C 
ATOM     44  C   UNL A   1      39.711  28.720  27.908  1.00  0.00     0.029 A 
ATOM     45  C   UNL A   1      40.638  28.459  29.005  1.00  0.00     0.049 A 
ATOM     46  H   UNL A   1      40.601  29.283  30.918  1.00  0.00     0.167 HD
ATOM     47  C   UNL A   1      40.741  31.486  34.701  1.00  0.00     0.034 A 
ATOM     48  C   UNL A   1      41.685  27.611  28.956  1.00  0.00     0.034 A 
ATOM     49  C   UNL A   1      41.774  30.493  34.804  1.00  0.00     0.049 A 
ATOM     50  C   UNL A   1      42.537  27.430  30.182  1.00  0.00     0.074 A 
ATOM     51  C   UNL A   1      42.597  30.215  35.880  1.00  0.00     0.029 A 
ATOM     52  N   UNL A   1      42.119  29.607  33.795  1.00  0.00    -0.354 N 
ATOM     53  N   UNL A   1      42.436  28.019  31.348  1.00  0.00    -0.248 NA
ATOM     54  C   UNL A   1      43.625  26.444  30.098  1.00  0.00     0.031 C 
ATOM     55  C   UNL A   1      43.437  29.155  35.524  1.00  0.00     0.029 A 
ATOM     56  C   UNL A   1      43.139  28.777  34.224  1.00  0.00     0.049 A 
ATOM     57  H   UNL A   1      41.700  29.574  32.905  1.00  0.00     0.167 HD
ATOM     58  C   UNL A   1      43.424  27.456  32.147  1.00  0.00     0.074 A 
ATOM     59  C   UNL A   1      44.102  26.464  31.336  1.00  0.00     0.031 C 
ATOM     60  C   UNL A   1      43.756  27.749  33.428  1.00  0.00     0.034 A 
BRANCH  47  61
ATOM     61  C   UNL A   1      40.514  32.402  35.872  1.00  0.00     0.023 A 
ATOM     62  C   UNL A   1      41.325  33.545  36.019  1.00  0.00     0.012 A 
ATOM     63  C   UNL A   1      39.476  32.167  36.795  1.00  0.00     0.148 A 
ATOM     64  C   UNL A   1      41.127  34.425  37.081  1.00  0.00     0.002 A 
ATOM     65  C   UNL A   1      39.262  33.069  37.831  1.00  0.00     0.091 A 
ATOM     66  F   UNL A   1      38.732  31.060  36.657  1.00  0.00    -0.205 F 
ATOM     67  C   UNL A   1      40.090  34.194  37.979  1.00  0.00     0.022 A 
BRANCH  65  68
ATOM     68  S   UNL A   1      37.907  32.884  38.997  1.00  0.00     0.127 S 
ATOM     69  O   UNL A   1      38.032  34.105  39.793  1.00  0.00    -0.237 OA
ATOM     70  O   UNL A   1      36.738  32.850  38.117  1.00  0.00    -0.237 OA
ATOM     71  O   UNL A   1      38.164  31.638  39.705  1.00  0.00    -0.744 OA
ENDBRANCH  65  68
ENDBRANCH  47  61
BRANCH  48  72
ATOM     72  C   UNL A   1      41.923  26.801  27.728  1.00  0.00     0.023 A 
ATOM     73  C   UNL A   1      42.512  27.418  26.608  1.00  0.00     0.012 A 
ATOM     74  C   UNL A   1      41.618  25.428  27.676  1.00  0.00     0.148 A 
ATOM     75  C   UNL A   1      42.774  26.687  25.449  1.00  0.00     0.002 A 
ATOM     76  C   UNL A   1      41.924  24.696  26.534  1.00  0.00     0.091 A 
ATOM     77  F   UNL A   1      41.040  24.862  28.745  1.00  0.00    -0.205 F 
ATOM     78  C   UNL A   1      42.491  25.326  25.415  1.00  0.00     0.022 A 
BRANCH  76  79
ATOM     79  S   UNL A   1      41.706  22.914  26.462  1.00  0.00     0.127 S 
ATOM     80  O   UNL A   1      40.251  22.790  26.436  1.00  0.00    -0.237 OA
ATOM     81  O   UNL A   1      42.376  22.570  25.206  1.00  0.00    -0.237 OA
ATOM     82  O   UNL A   1      42.374  22.401  27.651  1.00  0.00    -0.744 OA
ENDBRANCH  76  79
ENDBRANCH  48  72
BRANCH  60  83
ATOM     83  C   UNL A   1      44.886  26.977  34.051  1.00  0.00     0.023 A 
ATOM     84  C   UNL A   1      46.210  27.412  33.854  1.00  0.00     0.012 A 
ATOM     85  C   UNL A   1      44.632  25.887  34.905  1.00  0.00     0.148 A 
ATOM     86  C   UNL A   1      47.269  26.761  34.484  1.00  0.00     0.002 A 
ATOM     87  C   UNL A   1      45.690  25.266  35.561  1.00  0.00     0.091 A 
ATOM     88  F   UNL A   1      43.365  25.474  35.061  1.00  0.00    -0.205 F 
ATOM     89  C   UNL A   1      47.009  25.699  35.347  1.00  0.00     0.022 A 
BRANCH  87  90
ATOM     90  S   UNL A   1      45.428  23.949  36.753  1.00  0.00     0.127 S 
ATOM     91  O   UNL A   1      46.751  23.831  37.364  1.00  0.00    -0.237 OA
ATOM     92  O   UNL A   1      44.400  24.514  37.630  1.00  0.00    -0.237 OA
ATOM     93  O   UNL A   1      44.985  22.799  35.978  1.00  0.00    -0.744 OA
ENDBRANCH  87  90
ENDBRANCH  60  83
ENDBRANCH  34  35
ENDBRANCH  26  29
ENDBRANCH  24  25
ENDBRANCH   1  24
TORSDOF 18
ENDMDL
