MODEL 1
REMARK VINA RESULT:     -13.5      0.000      0.000
REMARK SMILES O=C(NCCCNC(=O)c1cc(N2C(=O)[C@H]3[C@@H]4C=C[C@@H]([C@@H]5C[C@H]45)[C@@H]3C2=O)ccc1Cl)c1ccc(-c2c3nc(c(-c4cccc(S(=O)(=O)[O-])c4F)c4ccc([nH]4)c(-c4cccc(S(=O)(=O)[O-])c4F)c4nc(c(-c5cccc(S(=O)(=O)[O-])c5F)c5ccc2[nH]5)C=C4)C=C3)cc1
REMARK SMILES IDX 4 1 3 2 1 3 2 4 31 6 32 7 93 8 33 9 92 10 34 11 35 12 36 13
REMARK SMILES IDX 86 14 37 15 91 16 85 17 87 18 38 19 90 20 84 21 83 22 39 24
REMARK SMILES IDX 71 25 51 26 70 27 52 28 55 29 69 30 88 31 53 32 54 33 68 35
REMARK SMILES IDX 89 36 56 37 40 38 41 39 49 40 42 41 44 42 50 43 43 44 45 45
REMARK SMILES IDX 46 46 47 47 48 48 72 49 73 50 81 51 74 52 76 53 82 54 75 55
REMARK SMILES IDX 77 56 78 57 79 58 80 59 57 60 58 61 66 62 59 63 61 64 67 65
REMARK SMILES IDX 60 66 62 67 63 68 64 69 65 70 5 71 6 72 7 73 8 74 9 76 10 77
REMARK SMILES IDX 11 78 29 79 12 80 28 81 30 82 27 83 13 84 14 85 25 86 15 87
REMARK SMILES IDX 16 88 24 89 26 90 17 91 20 92 18 93 23 94 19 95 21 96 22 97
REMARK H PARENT 3 5 87 23 55 34 7 75
REMARK Flexibility Score: inf
ROOT
ATOM      1  C   UNL A   1      38.978  20.218  26.069  1.00  0.00     0.118 C 
ENDROOT
BRANCH   1   2
ATOM      2  N   UNL A   1      40.103  19.292  26.109  1.00  0.00    -0.352 N 
ATOM      3  O   UNL A   1      42.254  18.628  26.036  1.00  0.00    -0.269 OA
ATOM      4  C   UNL A   1      41.452  19.543  26.196  1.00  0.00     0.251 C 
ATOM      5  H   UNL A   1      39.860  18.339  26.067  1.00  0.00     0.163 HD
BRANCH   4   6
ATOM      6  C   UNL A   1      41.927  20.921  26.449  1.00  0.00     0.039 A 
ATOM      7  C   UNL A   1      42.164  21.354  27.753  1.00  0.00     0.014 A 
ATOM      8  C   UNL A   1      42.125  21.793  25.376  1.00  0.00     0.014 A 
ATOM      9  C   UNL A   1      42.397  22.698  28.002  1.00  0.00     0.010 A 
ATOM     10  C   UNL A   1      42.490  23.119  25.622  1.00  0.00     0.010 A 
ATOM     11  C   UNL A   1      42.591  23.593  26.939  1.00  0.00    -0.014 A 
BRANCH  11  12
ATOM     12  C   UNL A   1      42.990  24.990  27.243  1.00  0.00     0.031 A 
ATOM     13  C   UNL A   1      42.047  25.954  27.905  1.00  0.00     0.074 A 
ATOM     14  C   UNL A   1      44.235  25.383  26.905  1.00  0.00     0.049 A 
ATOM     15  N   UNL A   1      42.252  27.203  28.236  1.00  0.00    -0.248 NA
ATOM     16  C   UNL A   1      40.699  25.464  28.230  1.00  0.00     0.031 C 
ATOM     17  C   UNL A   1      45.222  24.546  26.216  1.00  0.00     0.029 A 
ATOM     18  N   UNL A   1      44.882  26.578  27.083  1.00  0.00    -0.354 N 
ATOM     19  C   UNL A   1      41.051  27.664  28.763  1.00  0.00     0.074 A 
ATOM     20  C   UNL A   1      40.119  26.559  28.704  1.00  0.00     0.031 C 
ATOM     21  C   UNL A   1      46.352  25.242  26.048  1.00  0.00     0.029 A 
ATOM     22  C   UNL A   1      46.147  26.596  26.547  1.00  0.00     0.049 A 
ATOM     23  H   UNL A   1      44.480  27.347  27.548  1.00  0.00     0.167 HD
ATOM     24  C   UNL A   1      40.759  28.892  29.256  1.00  0.00     0.034 A 
ATOM     25  C   UNL A   1      47.038  27.598  26.429  1.00  0.00     0.034 A 
ATOM     26  C   UNL A   1      41.702  29.978  29.326  1.00  0.00     0.049 A 
ATOM     27  C   UNL A   1      46.690  28.944  26.989  1.00  0.00     0.074 A 
ATOM     28  C   UNL A   1      41.526  31.236  29.876  1.00  0.00     0.029 A 
ATOM     29  N   UNL A   1      42.991  29.946  28.812  1.00  0.00    -0.354 N 
ATOM     30  N   UNL A   1      45.595  29.320  27.604  1.00  0.00    -0.248 NA
ATOM     31  C   UNL A   1      47.708  29.995  26.868  1.00  0.00     0.031 C 
ATOM     32  C   UNL A   1      42.690  31.979  29.653  1.00  0.00     0.029 A 
ATOM     33  C   UNL A   1      43.611  31.169  29.009  1.00  0.00     0.049 A 
ATOM     34  H   UNL A   1      43.403  29.169  28.370  1.00  0.00     0.167 HD
ATOM     35  C   UNL A   1      45.799  30.645  27.965  1.00  0.00     0.074 A 
ATOM     36  C   UNL A   1      47.134  30.996  27.522  1.00  0.00     0.031 C 
ATOM     37  C   UNL A   1      44.954  31.496  28.596  1.00  0.00     0.034 A 
BRANCH  24  38
ATOM     38  C   UNL A   1      39.360  29.131  29.768  1.00  0.00     0.023 A 
ATOM     39  C   UNL A   1      39.022  28.773  31.090  1.00  0.00     0.012 A 
ATOM     40  C   UNL A   1      38.394  29.761  28.957  1.00  0.00     0.148 A 
ATOM     41  C   UNL A   1      37.737  29.002  31.582  1.00  0.00     0.002 A 
ATOM     42  C   UNL A   1      37.130  30.028  29.470  1.00  0.00     0.091 A 
ATOM     43  F   UNL A   1      38.725  30.078  27.698  1.00  0.00    -0.205 F 
ATOM     44  C   UNL A   1      36.795  29.638  30.777  1.00  0.00     0.022 A 
BRANCH  42  45
ATOM     45  S   UNL A   1      35.875  30.915  28.541  1.00  0.00     0.127 S 
ATOM     46  O   UNL A   1      35.441  29.897  27.586  1.00  0.00    -0.237 OA
ATOM     47  O   UNL A   1      34.893  31.236  29.577  1.00  0.00    -0.237 OA
ATOM     48  O   UNL A   1      36.545  32.071  27.962  1.00  0.00    -0.744 OA
ENDBRANCH  42  45
ENDBRANCH  24  38
BRANCH  25  49
ATOM     49  C   UNL A   1      48.339  27.344  25.754  1.00  0.00     0.023 A 
ATOM     50  C   UNL A   1      49.437  26.878  26.499  1.00  0.00     0.012 A 
ATOM     51  C   UNL A   1      48.471  27.509  24.359  1.00  0.00     0.148 A 
ATOM     52  C   UNL A   1      50.652  26.603  25.871  1.00  0.00     0.002 A 
ATOM     53  C   UNL A   1      49.663  27.174  23.733  1.00  0.00     0.091 A 
ATOM     54  F   UNL A   1      47.413  27.960  23.672  1.00  0.00    -0.205 F 
ATOM     55  C   UNL A   1      50.762  26.739  24.489  1.00  0.00     0.022 A 
BRANCH  53  56
ATOM     56  S   UNL A   1      49.844  27.177  21.946  1.00  0.00     0.127 S 
ATOM     57  O   UNL A   1      48.768  26.278  21.537  1.00  0.00    -0.237 OA
ATOM     58  O   UNL A   1      49.626  28.588  21.625  1.00  0.00    -0.237 OA
ATOM     59  O   UNL A   1      51.197  26.703  21.685  1.00  0.00    -0.744 OA
ENDBRANCH  53  56
ENDBRANCH  25  49
BRANCH  37  60
ATOM     60  C   UNL A   1      45.457  32.886  28.881  1.00  0.00     0.023 A 
ATOM     61  C   UNL A   1      46.179  33.148  30.063  1.00  0.00     0.012 A 
ATOM     62  C   UNL A   1      45.264  33.921  27.944  1.00  0.00     0.148 A 
ATOM     63  C   UNL A   1      46.671  34.426  30.324  1.00  0.00     0.002 A 
ATOM     64  C   UNL A   1      45.805  35.177  28.185  1.00  0.00     0.091 A 
ATOM     65  F   UNL A   1      44.557  33.656  26.837  1.00  0.00    -0.205 F 
ATOM     66  C   UNL A   1      46.495  35.437  29.380  1.00  0.00     0.022 A 
BRANCH  64  67
ATOM     67  S   UNL A   1      45.714  36.511  26.985  1.00  0.00     0.127 S 
ATOM     68  O   UNL A   1      46.330  35.897  25.810  1.00  0.00    -0.237 OA
ATOM     69  O   UNL A   1      44.271  36.727  26.875  1.00  0.00    -0.237 OA
ATOM     70  O   UNL A   1      46.451  37.626  27.565  1.00  0.00    -0.744 OA
ENDBRANCH  64  67
ENDBRANCH  37  60
ENDBRANCH  11  12
ENDBRANCH   4   6
ENDBRANCH   1   2
BRANCH   1  71
ATOM     71  C   UNL A   1      37.955  19.869  25.000  1.00  0.00     0.042 C 
BRANCH  71  72
ATOM     72  C   UNL A   1      36.852  20.901  24.851  1.00  0.00     0.118 C 
BRANCH  72  73
ATOM     73  N   UNL A   1      36.087  21.078  26.074  1.00  0.00    -0.352 N 
ATOM     74  C   UNL A   1      34.780  21.446  26.239  1.00  0.00     0.252 C 
ATOM     75  H   UNL A   1      36.582  20.908  26.907  1.00  0.00     0.163 HD
ATOM     76  O   UNL A   1      34.323  21.627  27.364  1.00  0.00    -0.269 OA
BRANCH  74  77
ATOM     77  C   UNL A   1      33.913  21.678  25.074  1.00  0.00     0.060 A 
ATOM     78  C   UNL A   1      33.606  23.019  24.780  1.00  0.00     0.042 A 
ATOM     79  C   UNL A   1      33.320  20.637  24.344  1.00  0.00     0.053 A 
ATOM     80  C   UNL A   1      32.683  23.307  23.778  1.00  0.00     0.053 A 
ATOM     81  C   UNL A   1      32.491  20.940  23.267  1.00  0.00     0.023 A 
ATOM     82  Cl  UNL A   1      33.488  18.966  24.748  1.00  0.00    -0.083 Cl
ATOM     83  C   UNL A   1      32.154  22.265  23.002  1.00  0.00     0.028 A 
BRANCH  80  84
ATOM     84  N   UNL A   1      32.295  24.627  23.493  1.00  0.00    -0.250 N 
ATOM     85  C   UNL A   1      31.264  25.282  24.188  1.00  0.00     0.238 C 
ATOM     86  C   UNL A   1      33.142  25.529  22.814  1.00  0.00     0.238 C 
ATOM     87  O   UNL A   1      30.481  24.848  25.013  1.00  0.00    -0.274 OA
ATOM     88  C   UNL A   1      31.346  26.691  23.694  1.00  0.00     0.100 C 
ATOM     89  C   UNL A   1      32.865  26.794  23.535  1.00  0.00     0.100 C 
ATOM     90  O   UNL A   1      34.027  25.321  22.008  1.00  0.00    -0.274 OA
ATOM     91  C   UNL A   1      30.820  27.990  24.329  1.00  0.00     0.028 C 
ATOM     92  C   UNL A   1      33.271  28.253  23.416  1.00  0.00     0.028 C 
ATOM     93  C   UNL A   1      30.957  28.952  23.122  1.00  0.00    -0.026 C 
ATOM     94  C   UNL A   1      31.724  28.612  25.412  1.00  0.00     0.001 C 
ATOM     95  C   UNL A   1      32.213  29.035  22.621  1.00  0.00    -0.026 C 
ATOM     96  C   UNL A   1      33.160  28.785  24.893  1.00  0.00     0.001 C 
ATOM     97  C   UNL A   1      32.858  27.965  26.151  1.00  0.00     0.009 C 
ENDBRANCH  80  84
ENDBRANCH  74  77
ENDBRANCH  72  73
ENDBRANCH  71  72
ENDBRANCH   1  71
TORSDOF 14
ENDMDL
MODEL 2
REMARK VINA RESULT:     -13.5      5.765     11.164
REMARK SMILES O=C(NCCCNC(=O)c1cc(N2C(=O)[C@H]3[C@@H]4C=C[C@@H]([C@@H]5C[C@H]45)[C@@H]3C2=O)ccc1Cl)c1ccc(-c2c3nc(c(-c4cccc(S(=O)(=O)[O-])c4F)c4ccc([nH]4)c(-c4cccc(S(=O)(=O)[O-])c4F)c4nc(c(-c5cccc(S(=O)(=O)[O-])c5F)c5ccc2[nH]5)C=C4)C=C3)cc1
REMARK SMILES IDX 4 1 3 2 1 3 2 4 31 6 32 7 93 8 33 9 92 10 34 11 35 12 36 13
REMARK SMILES IDX 86 14 37 15 91 16 85 17 87 18 38 19 90 20 84 21 83 22 39 24
REMARK SMILES IDX 71 25 51 26 70 27 52 28 55 29 69 30 88 31 53 32 54 33 68 35
REMARK SMILES IDX 89 36 56 37 40 38 41 39 49 40 42 41 44 42 50 43 43 44 45 45
REMARK SMILES IDX 46 46 47 47 48 48 72 49 73 50 81 51 74 52 76 53 82 54 75 55
REMARK SMILES IDX 77 56 78 57 79 58 80 59 57 60 58 61 66 62 59 63 61 64 67 65
REMARK SMILES IDX 60 66 62 67 63 68 64 69 65 70 5 71 6 72 7 73 8 74 9 76 10 77
REMARK SMILES IDX 11 78 29 79 12 80 28 81 30 82 27 83 13 84 14 85 25 86 15 87
REMARK SMILES IDX 16 88 24 89 26 90 17 91 20 92 18 93 23 94 19 95 21 96 22 97
REMARK H PARENT 3 5 87 23 55 34 7 75
REMARK Flexibility Score: inf
ROOT
ATOM      1  C   UNL A   1      32.297  32.058  26.858  1.00  0.00     0.118 C 
ENDROOT
BRANCH   1   2
ATOM      2  N   UNL A   1      32.288  33.467  27.233  1.00  0.00    -0.352 N 
ATOM      3  O   UNL A   1      32.822  35.308  28.416  1.00  0.00    -0.269 OA
ATOM      4  C   UNL A   1      33.106  34.157  28.098  1.00  0.00     0.251 C 
ATOM      5  H   UNL A   1      31.589  34.009  26.801  1.00  0.00     0.163 HD
BRANCH   4   6
ATOM      6  C   UNL A   1      34.301  33.495  28.664  1.00  0.00     0.039 A 
ATOM      7  C   UNL A   1      34.170  32.316  29.398  1.00  0.00     0.014 A 
ATOM      8  C   UNL A   1      35.563  34.063  28.473  1.00  0.00     0.014 A 
ATOM      9  C   UNL A   1      35.254  31.820  30.105  1.00  0.00     0.010 A 
ATOM     10  C   UNL A   1      36.680  33.484  29.081  1.00  0.00     0.010 A 
ATOM     11  C   UNL A   1      36.529  32.381  29.935  1.00  0.00    -0.014 A 
BRANCH  11  12
ATOM     12  C   UNL A   1      37.691  31.728  30.588  1.00  0.00     0.031 A 
ATOM     13  C   UNL A   1      38.517  30.694  29.878  1.00  0.00     0.074 A 
ATOM     14  C   UNL A   1      37.994  32.086  31.852  1.00  0.00     0.049 A 
ATOM     15  N   UNL A   1      39.562  30.038  30.315  1.00  0.00    -0.248 NA
ATOM     16  C   UNL A   1      38.120  30.337  28.507  1.00  0.00     0.031 C 
ATOM     17  C   UNL A   1      37.234  33.048  32.657  1.00  0.00     0.029 A 
ATOM     18  N   UNL A   1      39.006  31.686  32.684  1.00  0.00    -0.354 N 
ATOM     19  C   UNL A   1      39.920  29.161  29.299  1.00  0.00     0.074 A 
ATOM     20  C   UNL A   1      38.975  29.365  28.220  1.00  0.00     0.031 C 
ATOM     21  C   UNL A   1      37.815  33.178  33.855  1.00  0.00     0.029 A 
ATOM     22  C   UNL A   1      38.941  32.257  33.933  1.00  0.00     0.049 A 
ATOM     23  H   UNL A   1      39.709  31.052  32.415  1.00  0.00     0.167 HD
ATOM     24  C   UNL A   1      40.944  28.274  29.266  1.00  0.00     0.034 A 
ATOM     25  C   UNL A   1      39.678  32.040  35.038  1.00  0.00     0.034 A 
ATOM     26  C   UNL A   1      41.888  28.094  30.339  1.00  0.00     0.049 A 
ATOM     27  C   UNL A   1      40.809  31.059  34.971  1.00  0.00     0.074 A 
ATOM     28  C   UNL A   1      43.004  27.276  30.374  1.00  0.00     0.029 A 
ATOM     29  N   UNL A   1      41.816  28.723  31.575  1.00  0.00    -0.354 N 
ATOM     30  N   UNL A   1      41.212  30.336  33.954  1.00  0.00    -0.248 NA
ATOM     31  C   UNL A   1      41.606  30.883  36.192  1.00  0.00     0.031 C 
ATOM     32  C   UNL A   1      43.580  27.375  31.646  1.00  0.00     0.029 A 
ATOM     33  C   UNL A   1      42.853  28.292  32.387  1.00  0.00     0.049 A 
ATOM     34  H   UNL A   1      41.129  29.377  31.836  1.00  0.00     0.167 HD
ATOM     35  C   UNL A   1      42.324  29.637  34.403  1.00  0.00     0.074 A 
ATOM     36  C   UNL A   1      42.545  30.044  35.777  1.00  0.00     0.031 C 
ATOM     37  C   UNL A   1      43.085  28.732  33.741  1.00  0.00     0.034 A 
BRANCH  24  38
ATOM     38  C   UNL A   1      41.107  27.430  28.027  1.00  0.00     0.023 A 
ATOM     39  C   UNL A   1      41.580  28.014  26.833  1.00  0.00     0.012 A 
ATOM     40  C   UNL A   1      40.844  26.045  28.059  1.00  0.00     0.148 A 
ATOM     41  C   UNL A   1      41.750  27.242  25.683  1.00  0.00     0.002 A 
ATOM     42  C   UNL A   1      41.061  25.275  26.923  1.00  0.00     0.091 A 
ATOM     43  F   UNL A   1      40.378  25.509  29.195  1.00  0.00    -0.205 F 
ATOM     44  C   UNL A   1      41.501  25.873  25.730  1.00  0.00     0.022 A 
BRANCH  42  45
ATOM     45  S   UNL A   1      40.849  23.491  26.906  1.00  0.00     0.127 S 
ATOM     46  O   UNL A   1      41.469  23.109  28.174  1.00  0.00    -0.237 OA
ATOM     47  O   UNL A   1      39.392  23.355  26.877  1.00  0.00    -0.237 OA
ATOM     48  O   UNL A   1      41.527  23.016  25.709  1.00  0.00    -0.744 OA
ENDBRANCH  42  45
ENDBRANCH  24  38
BRANCH  25  49
ATOM     49  C   UNL A   1      39.357  32.779  36.288  1.00  0.00     0.023 A 
ATOM     50  C   UNL A   1      39.893  34.062  36.503  1.00  0.00     0.012 A 
ATOM     51  C   UNL A   1      38.469  32.234  37.239  1.00  0.00     0.148 A 
ATOM     52  C   UNL A   1      39.570  34.779  37.655  1.00  0.00     0.002 A 
ATOM     53  C   UNL A   1      38.104  32.979  38.351  1.00  0.00     0.091 A 
ATOM     54  F   UNL A   1      37.976  31.008  37.015  1.00  0.00    -0.205 F 
ATOM     55  C   UNL A   1      38.668  34.245  38.572  1.00  0.00     0.022 A 
BRANCH  53  56
ATOM     56  S   UNL A   1      36.840  32.431  39.503  1.00  0.00     0.127 S 
ATOM     57  O   UNL A   1      37.316  31.095  39.853  1.00  0.00    -0.237 OA
ATOM     58  O   UNL A   1      36.954  33.426  40.569  1.00  0.00    -0.237 OA
ATOM     59  O   UNL A   1      35.584  32.481  38.766  1.00  0.00    -0.744 OA
ENDBRANCH  53  56
ENDBRANCH  25  49
BRANCH  37  60
ATOM     60  C   UNL A   1      44.257  28.140  34.479  1.00  0.00     0.023 A 
ATOM     61  C   UNL A   1      45.497  28.810  34.489  1.00  0.00     0.012 A 
ATOM     62  C   UNL A   1      44.108  26.949  35.216  1.00  0.00     0.148 A 
ATOM     63  C   UNL A   1      46.580  28.284  35.191  1.00  0.00     0.002 A 
ATOM     64  C   UNL A   1      45.176  26.460  35.958  1.00  0.00     0.091 A 
ATOM     65  F   UNL A   1      42.927  26.318  35.177  1.00  0.00    -0.205 F 
ATOM     66  C   UNL A   1      46.416  27.117  35.935  1.00  0.00     0.022 A 
BRANCH  64  67
ATOM     67  S   UNL A   1      45.030  25.020  37.022  1.00  0.00     0.127 S 
ATOM     68  O   UNL A   1      46.421  24.802  37.419  1.00  0.00    -0.237 OA
ATOM     69  O   UNL A   1      44.161  25.515  38.090  1.00  0.00    -0.237 OA
ATOM     70  O   UNL A   1      44.444  23.970  36.202  1.00  0.00    -0.744 OA
ENDBRANCH  64  67
ENDBRANCH  37  60
ENDBRANCH  11  12
ENDBRANCH   4   6
ENDBRANCH   1   2
BRANCH   1  71
ATOM     71  C   UNL A   1      31.029  31.622  26.143  1.00  0.00     0.042 C 
BRANCH  71  72
ATOM     72  C   UNL A   1      31.185  30.335  25.354  1.00  0.00     0.118 C 
BRANCH  72  73
ATOM     73  N   UNL A   1      30.639  30.436  24.011  1.00  0.00    -0.352 N 
ATOM     74  C   UNL A   1      30.279  29.445  23.140  1.00  0.00     0.252 C 
ATOM     75  H   UNL A   1      30.508  31.354  23.679  1.00  0.00     0.163 HD
ATOM     76  O   UNL A   1      29.909  29.723  22.003  1.00  0.00    -0.269 OA
BRANCH  74  77
ATOM     77  C   UNL A   1      30.373  28.030  23.531  1.00  0.00     0.060 A 
ATOM     78  C   UNL A   1      31.669  27.493  23.621  1.00  0.00     0.042 A 
ATOM     79  C   UNL A   1      29.250  27.210  23.703  1.00  0.00     0.053 A 
ATOM     80  C   UNL A   1      31.831  26.129  23.851  1.00  0.00     0.053 A 
ATOM     81  C   UNL A   1      29.423  25.872  24.051  1.00  0.00     0.023 A 
ATOM     82  Cl  UNL A   1      27.627  27.735  23.429  1.00  0.00    -0.083 Cl
ATOM     83  C   UNL A   1      30.705  25.330  24.099  1.00  0.00     0.028 A 
BRANCH  80  84
ATOM     84  N   UNL A   1      33.103  25.534  23.884  1.00  0.00    -0.250 N 
ATOM     85  C   UNL A   1      33.850  25.405  25.068  1.00  0.00     0.238 C 
ATOM     86  C   UNL A   1      33.553  24.663  22.869  1.00  0.00     0.238 C 
ATOM     87  O   UNL A   1      33.632  25.850  26.180  1.00  0.00    -0.274 OA
ATOM     88  C   UNL A   1      35.009  24.551  24.662  1.00  0.00     0.100 C 
ATOM     89  C   UNL A   1      34.292  23.648  23.655  1.00  0.00     0.100 C 
ATOM     90  O   UNL A   1      33.251  24.604  21.693  1.00  0.00    -0.274 OA
ATOM     91  C   UNL A   1      35.950  23.692  25.524  1.00  0.00     0.028 C 
ATOM     92  C   UNL A   1      35.144  22.422  23.369  1.00  0.00     0.028 C 
ATOM     93  C   UNL A   1      37.068  23.403  24.492  1.00  0.00    -0.026 C 
ATOM     94  C   UNL A   1      35.414  22.298  25.902  1.00  0.00     0.001 C 
ATOM     95  C   UNL A   1      36.632  22.801  23.359  1.00  0.00    -0.026 C 
ATOM     96  C   UNL A   1      34.948  21.533  24.653  1.00  0.00     0.001 C 
ATOM     97  C   UNL A   1      34.001  21.800  25.827  1.00  0.00     0.009 C 
ENDBRANCH  80  84
ENDBRANCH  74  77
ENDBRANCH  72  73
ENDBRANCH  71  72
ENDBRANCH   1  71
TORSDOF 14
ENDMDL
MODEL 3
REMARK VINA RESULT:     -13.4      5.851     11.239
REMARK SMILES O=C(NCCCNC(=O)c1cc(N2C(=O)[C@H]3[C@@H]4C=C[C@@H]([C@@H]5C[C@H]45)[C@@H]3C2=O)ccc1Cl)c1ccc(-c2c3nc(c(-c4cccc(S(=O)(=O)[O-])c4F)c4ccc([nH]4)c(-c4cccc(S(=O)(=O)[O-])c4F)c4nc(c(-c5cccc(S(=O)(=O)[O-])c5F)c5ccc2[nH]5)C=C4)C=C3)cc1
REMARK SMILES IDX 4 1 3 2 1 3 2 4 31 6 32 7 93 8 33 9 92 10 34 11 35 12 36 13
REMARK SMILES IDX 86 14 37 15 91 16 85 17 87 18 38 19 90 20 84 21 83 22 39 24
REMARK SMILES IDX 71 25 51 26 70 27 52 28 55 29 69 30 88 31 53 32 54 33 68 35
REMARK SMILES IDX 89 36 56 37 40 38 41 39 49 40 42 41 44 42 50 43 43 44 45 45
REMARK SMILES IDX 46 46 47 47 48 48 72 49 73 50 81 51 74 52 76 53 82 54 75 55
REMARK SMILES IDX 77 56 78 57 79 58 80 59 57 60 58 61 66 62 59 63 61 64 67 65
REMARK SMILES IDX 60 66 62 67 63 68 64 69 65 70 5 71 6 72 7 73 8 74 9 76 10 77
REMARK SMILES IDX 11 78 29 79 12 80 28 81 30 82 27 83 13 84 14 85 25 86 15 87
REMARK SMILES IDX 16 88 24 89 26 90 17 91 20 92 18 93 23 94 19 95 21 96 22 97
REMARK H PARENT 3 5 87 23 55 34 7 75
REMARK Flexibility Score: inf
ROOT
ATOM      1  C   UNL A   1      32.688  32.428  26.875  1.00  0.00     0.118 C 
ENDROOT
BRANCH   1   2
ATOM      2  N   UNL A   1      32.532  33.795  27.357  1.00  0.00    -0.352 N 
ATOM      3  O   UNL A   1      32.761  35.548  28.754  1.00  0.00    -0.269 OA
ATOM      4  C   UNL A   1      33.163  34.446  28.391  1.00  0.00     0.251 C 
ATOM      5  H   UNL A   1      31.872  34.337  26.867  1.00  0.00     0.163 HD
BRANCH   4   6
ATOM      6  C   UNL A   1      34.299  33.798  29.081  1.00  0.00     0.039 A 
ATOM      7  C   UNL A   1      35.607  34.201  28.811  1.00  0.00     0.014 A 
ATOM      8  C   UNL A   1      34.060  32.769  29.995  1.00  0.00     0.014 A 
ATOM      9  C   UNL A   1      36.672  33.453  29.289  1.00  0.00     0.010 A 
ATOM     10  C   UNL A   1      35.138  32.100  30.581  1.00  0.00     0.010 A 
ATOM     11  C   UNL A   1      36.453  32.411  30.202  1.00  0.00    -0.014 A 
BRANCH  11  12
ATOM     12  C   UNL A   1      37.626  31.734  30.811  1.00  0.00     0.031 A 
ATOM     13  C   UNL A   1      38.420  30.704  30.060  1.00  0.00     0.074 A 
ATOM     14  C   UNL A   1      37.968  32.065  32.072  1.00  0.00     0.049 A 
ATOM     15  N   UNL A   1      39.469  30.029  30.456  1.00  0.00    -0.248 NA
ATOM     16  C   UNL A   1      37.981  30.377  28.694  1.00  0.00     0.031 C 
ATOM     17  C   UNL A   1      37.241  33.020  32.916  1.00  0.00     0.029 A 
ATOM     18  N   UNL A   1      38.997  31.638  32.869  1.00  0.00    -0.354 N 
ATOM     19  C   UNL A   1      39.789  29.166  29.414  1.00  0.00     0.074 A 
ATOM     20  C   UNL A   1      38.817  29.400  28.366  1.00  0.00     0.031 C 
ATOM     21  C   UNL A   1      37.857  33.121  34.100  1.00  0.00     0.029 A 
ATOM     22  C   UNL A   1      38.974  32.187  34.129  1.00  0.00     0.049 A 
ATOM     23  H   UNL A   1      39.686  31.002  32.569  1.00  0.00     0.167 HD
ATOM     24  C   UNL A   1      40.801  28.269  29.337  1.00  0.00     0.034 A 
ATOM     25  C   UNL A   1      39.738  31.942  35.209  1.00  0.00     0.034 A 
ATOM     26  C   UNL A   1      41.773  28.059  30.380  1.00  0.00     0.049 A 
ATOM     27  C   UNL A   1      40.856  30.950  35.093  1.00  0.00     0.074 A 
ATOM     28  C   UNL A   1      42.880  27.229  30.369  1.00  0.00     0.029 A 
ATOM     29  N   UNL A   1      41.742  28.666  31.628  1.00  0.00    -0.354 N 
ATOM     30  N   UNL A   1      41.222  30.242  34.052  1.00  0.00    -0.248 NA
ATOM     31  C   UNL A   1      41.684  30.742  36.288  1.00  0.00     0.031 C 
ATOM     32  C   UNL A   1      43.492  27.298  31.625  1.00  0.00     0.029 A 
ATOM     33  C   UNL A   1      42.796  28.209  32.403  1.00  0.00     0.049 A 
ATOM     34  H   UNL A   1      41.070  29.323  31.920  1.00  0.00     0.167 HD
ATOM     35  C   UNL A   1      42.338  29.522  34.457  1.00  0.00     0.074 A 
ATOM     36  C   UNL A   1      42.602  29.901  35.831  1.00  0.00     0.031 C 
ATOM     37  C   UNL A   1      43.070  28.621  33.758  1.00  0.00     0.034 A 
BRANCH  24  38
ATOM     38  C   UNL A   1      40.921  27.447  28.078  1.00  0.00     0.023 A 
ATOM     39  C   UNL A   1      41.530  27.997  26.931  1.00  0.00     0.012 A 
ATOM     40  C   UNL A   1      40.479  26.108  28.049  1.00  0.00     0.148 A 
ATOM     41  C   UNL A   1      41.661  27.243  25.765  1.00  0.00     0.002 A 
ATOM     42  C   UNL A   1      40.655  25.348  26.898  1.00  0.00     0.091 A 
ATOM     43  F   UNL A   1      39.886  25.606  29.140  1.00  0.00    -0.205 F 
ATOM     44  C   UNL A   1      41.233  25.917  25.751  1.00  0.00     0.022 A 
BRANCH  42  45
ATOM     45  S   UNL A   1      40.214  23.610  26.808  1.00  0.00     0.127 S 
ATOM     46  O   UNL A   1      38.803  23.683  26.431  1.00  0.00    -0.237 OA
ATOM     47  O   UNL A   1      41.100  23.121  25.751  1.00  0.00    -0.237 OA
ATOM     48  O   UNL A   1      40.481  23.058  28.128  1.00  0.00    -0.744 OA
ENDBRANCH  42  45
ENDBRANCH  24  38
BRANCH  25  49
ATOM     49  C   UNL A   1      39.460  32.661  36.481  1.00  0.00     0.023 A 
ATOM     50  C   UNL A   1      40.078  33.898  36.738  1.00  0.00     0.012 A 
ATOM     51  C   UNL A   1      38.533  32.147  37.411  1.00  0.00     0.148 A 
ATOM     52  C   UNL A   1      39.798  34.598  37.911  1.00  0.00     0.002 A 
ATOM     53  C   UNL A   1      38.213  32.879  38.545  1.00  0.00     0.091 A 
ATOM     54  F   UNL A   1      37.961  30.963  37.148  1.00  0.00    -0.205 F 
ATOM     55  C   UNL A   1      38.858  34.097  38.808  1.00  0.00     0.022 A 
BRANCH  53  56
ATOM     56  S   UNL A   1      36.909  32.380  39.675  1.00  0.00     0.127 S 
ATOM     57  O   UNL A   1      37.401  31.087  40.144  1.00  0.00    -0.237 OA
ATOM     58  O   UNL A   1      36.947  33.453  40.669  1.00  0.00    -0.237 OA
ATOM     59  O   UNL A   1      35.689  32.341  38.880  1.00  0.00    -0.744 OA
ENDBRANCH  53  56
ENDBRANCH  25  49
BRANCH  37  60
ATOM     60  C   UNL A   1      44.255  28.004  34.452  1.00  0.00     0.023 A 
ATOM     61  C   UNL A   1      45.507  28.651  34.425  1.00  0.00     0.012 A 
ATOM     62  C   UNL A   1      44.110  26.809  35.184  1.00  0.00     0.148 A 
ATOM     63  C   UNL A   1      46.603  28.101  35.087  1.00  0.00     0.002 A 
ATOM     64  C   UNL A   1      45.193  26.296  35.887  1.00  0.00     0.091 A 
ATOM     65  F   UNL A   1      42.917  26.199  35.180  1.00  0.00    -0.205 F 
ATOM     66  C   UNL A   1      46.444  26.931  35.827  1.00  0.00     0.022 A 
BRANCH  64  67
ATOM     67  S   UNL A   1      45.057  24.850  36.945  1.00  0.00     0.127 S 
ATOM     68  O   UNL A   1      46.433  24.696  37.416  1.00  0.00    -0.237 OA
ATOM     69  O   UNL A   1      44.110  25.303  37.964  1.00  0.00    -0.237 OA
ATOM     70  O   UNL A   1      44.566  23.774  36.096  1.00  0.00    -0.744 OA
ENDBRANCH  64  67
ENDBRANCH  37  60
ENDBRANCH  11  12
ENDBRANCH   4   6
ENDBRANCH   1   2
BRANCH   1  71
ATOM     71  C   UNL A   1      31.366  31.754  26.551  1.00  0.00     0.042 C 
BRANCH  71  72
ATOM     72  C   UNL A   1      31.505  30.297  26.152  1.00  0.00     0.118 C 
BRANCH  72  73
ATOM     73  N   UNL A   1      32.367  30.116  24.996  1.00  0.00    -0.352 N 
ATOM     74  C   UNL A   1      32.391  29.105  24.075  1.00  0.00     0.252 C 
ATOM     75  H   UNL A   1      33.033  30.828  24.854  1.00  0.00     0.163 HD
ATOM     76  O   UNL A   1      33.255  29.080  23.203  1.00  0.00    -0.269 OA
BRANCH  74  77
ATOM     77  C   UNL A   1      31.415  28.007  24.140  1.00  0.00     0.060 A 
ATOM     78  C   UNL A   1      31.905  26.760  24.565  1.00  0.00     0.042 A 
ATOM     79  C   UNL A   1      30.088  28.139  23.706  1.00  0.00     0.053 A 
ATOM     80  C   UNL A   1      31.072  25.645  24.520  1.00  0.00     0.053 A 
ATOM     81  C   UNL A   1      29.230  27.044  23.777  1.00  0.00     0.023 A 
ATOM     82  Cl  UNL A   1      29.450  29.579  22.995  1.00  0.00    -0.083 Cl
ATOM     83  C   UNL A   1      29.726  25.800  24.158  1.00  0.00     0.028 A 
BRANCH  80  84
ATOM     84  N   UNL A   1      31.535  24.366  24.871  1.00  0.00    -0.250 N 
ATOM     85  C   UNL A   1      32.119  23.488  23.941  1.00  0.00     0.238 C 
ATOM     86  C   UNL A   1      31.843  24.017  26.204  1.00  0.00     0.238 C 
ATOM     87  O   UNL A   1      32.221  23.588  22.732  1.00  0.00    -0.274 OA
ATOM     88  C   UNL A   1      32.629  22.366  24.788  1.00  0.00     0.100 C 
ATOM     89  C   UNL A   1      33.048  23.174  26.019  1.00  0.00     0.100 C 
ATOM     90  O   UNL A   1      31.401  24.447  27.250  1.00  0.00    -0.274 OA
ATOM     91  C   UNL A   1      33.714  21.318  24.485  1.00  0.00     0.028 C 
ATOM     92  C   UNL A   1      33.964  22.337  26.895  1.00  0.00     0.028 C 
ATOM     93  C   UNL A   1      33.448  20.318  25.638  1.00  0.00    -0.026 C 
ATOM     94  C   UNL A   1      35.166  21.781  24.715  1.00  0.00     0.001 C 
ATOM     95  C   UNL A   1      33.521  20.866  26.874  1.00  0.00    -0.026 C 
ATOM     96  C   UNL A   1      35.336  22.370  26.124  1.00  0.00     0.001 C 
ATOM     97  C   UNL A   1      35.674  23.184  24.871  1.00  0.00     0.009 C 
ENDBRANCH  80  84
ENDBRANCH  74  77
ENDBRANCH  72  73
ENDBRANCH  71  72
ENDBRANCH   1  71
TORSDOF 14
ENDMDL
