MODEL 1
REMARK VINA RESULT:      -7.6      0.000      0.000
REMARK SMILES CC/C=C/C/C=C/C/C=C/C/C=C/CC/C=C/COCC(=O)NCCCNC(=O)c1ccc(-c2c3nc(c(-c4cccc(S(=O)(=O)[O-])c4F)c4ccc([nH]4)c(-c4cccc(S(=O)(=O)[O-])c4F)c4nc(c(-c5cccc(S(=O)(=O)[O-])c5F)c5ccc2[nH]5)C=C4)C=C3)cc1
REMARK SMILES IDX 18 1 17 2 16 3 15 4 14 5 13 6 12 7 11 8 10 9 9 10 8 11 7 12
REMARK SMILES IDX 6 13 5 14 4 15 3 16 2 17 1 18 19 19 20 20 21 21 22 22 23 23
REMARK SMILES IDX 24 25 25 26 26 27 27 28 28 29 29 31 30 32 31 33 92 34 32 35
REMARK SMILES IDX 91 36 33 37 34 38 35 39 85 40 36 41 90 42 84 43 86 44 37 45
REMARK SMILES IDX 89 46 83 47 82 48 38 50 70 51 50 52 69 53 51 54 54 55 68 56
REMARK SMILES IDX 87 57 52 58 53 59 67 61 88 62 55 63 39 64 40 65 48 66 41 67
REMARK SMILES IDX 43 68 49 69 42 70 44 71 45 72 46 73 47 74 71 75 72 76 80 77
REMARK SMILES IDX 73 78 75 79 81 80 74 81 76 82 77 83 78 84 79 85 56 86 57 87
REMARK SMILES IDX 65 88 58 89 60 90 66 91 59 92 61 93 62 94 63 95 64 96
REMARK H PARENT 23 24 27 30 86 49 54 60
REMARK Flexibility Score: inf
ROOT
ATOM      1  C   UNL A   1      38.877  33.719  30.592  1.00  0.00     0.188 C 
ENDROOT
BRANCH   1   2
ATOM      2  C   UNL A   1      40.089  34.500  30.189  1.00  0.00    -0.003 C 
ATOM      3  C   UNL A   1      41.284  34.351  30.781  1.00  0.00    -0.029 C 
BRANCH   3   4
ATOM      4  C   UNL A   1      42.482  35.219  30.516  1.00  0.00     0.031 C 
BRANCH   4   5
ATOM      5  C   UNL A   1      42.945  35.147  29.051  1.00  0.00     0.031 C 
BRANCH   5   6
ATOM      6  C   UNL A   1      44.388  34.741  28.908  1.00  0.00    -0.031 C 
ATOM      7  C   UNL A   1      45.227  34.546  29.937  1.00  0.00    -0.027 C 
BRANCH   7   8
ATOM      8  C   UNL A   1      46.680  34.200  29.773  1.00  0.00     0.054 C 
BRANCH   8   9
ATOM      9  C   UNL A   1      46.924  33.599  28.418  1.00  0.00    -0.027 C 
ATOM     10  C   UNL A   1      46.528  32.368  28.057  1.00  0.00    -0.027 C 
BRANCH  10  11
ATOM     11  C   UNL A   1      46.809  31.753  26.717  1.00  0.00     0.054 C 
BRANCH  11  12
ATOM     12  C   UNL A   1      46.508  30.281  26.740  1.00  0.00    -0.027 C 
ATOM     13  C   UNL A   1      45.955  29.641  27.784  1.00  0.00    -0.027 C 
BRANCH  13  14
ATOM     14  C   UNL A   1      45.679  28.166  27.818  1.00  0.00     0.054 C 
BRANCH  14  15
ATOM     15  C   UNL A   1      44.368  27.853  27.156  1.00  0.00    -0.027 C 
ATOM     16  C   UNL A   1      44.170  27.871  25.828  1.00  0.00    -0.031 C 
BRANCH  16  17
ATOM     17  C   UNL A   1      42.851  27.574  25.174  1.00  0.00     0.023 C 
ATOM     18  C   UNL A   1      41.805  28.612  25.546  1.00  0.00     0.008 C 
ENDBRANCH  16  17
ENDBRANCH  14  15
ENDBRANCH  13  14
ENDBRANCH  11  12
ENDBRANCH  10  11
ENDBRANCH   8   9
ENDBRANCH   7   8
ENDBRANCH   5   6
ENDBRANCH   4   5
ENDBRANCH   3   4
ENDBRANCH   1   2
BRANCH   1  19
ATOM     19  O   UNL A   1      37.940  34.571  31.258  1.00  0.00    -0.368 OA
BRANCH  19  20
ATOM     20  C   UNL A   1      36.811  33.889  31.787  1.00  0.00     0.260 C 
BRANCH  20  21
ATOM     21  C   UNL A   1      35.599  34.742  32.180  1.00  0.00     0.246 C 
ATOM     22  O   UNL A   1      35.411  35.119  33.338  1.00  0.00    -0.272 OA
ATOM     23  N   UNL A   1      34.714  35.120  31.209  1.00  0.00    -0.354 N 
ATOM     24  H   UNL A   1      33.963  35.684  31.504  1.00  0.00     0.163 HD
BRANCH  23  25
ATOM     25  C   UNL A   1      34.745  34.789  29.797  1.00  0.00     0.117 C 
BRANCH  25  26
ATOM     26  C   UNL A   1      34.306  33.355  29.522  1.00  0.00     0.042 C 
BRANCH  26  27
ATOM     27  C   UNL A   1      34.682  32.828  28.139  1.00  0.00     0.118 C 
BRANCH  27  28
ATOM     28  N   UNL A   1      33.986  31.597  27.788  1.00  0.00    -0.352 N 
ATOM     29  C   UNL A   1      34.432  30.301  27.731  1.00  0.00     0.251 C 
ATOM     30  H   UNL A   1      33.038  31.716  27.552  1.00  0.00     0.163 HD
ATOM     31  O   UNL A   1      33.694  29.442  27.252  1.00  0.00    -0.269 OA
BRANCH  29  32
ATOM     32  C   UNL A   1      35.779  29.925  28.218  1.00  0.00     0.039 A 
ATOM     33  C   UNL A   1      35.907  29.462  29.532  1.00  0.00     0.014 A 
ATOM     34  C   UNL A   1      36.917  30.065  27.420  1.00  0.00     0.014 A 
ATOM     35  C   UNL A   1      37.161  29.087  30.022  1.00  0.00     0.010 A 
ATOM     36  C   UNL A   1      38.156  29.618  27.885  1.00  0.00     0.010 A 
ATOM     37  C   UNL A   1      38.293  29.128  29.191  1.00  0.00    -0.014 A 
BRANCH  37  38
ATOM     38  C   UNL A   1      39.609  28.636  29.676  1.00  0.00     0.031 A 
ATOM     39  C   UNL A   1      40.352  29.354  30.772  1.00  0.00     0.074 A 
ATOM     40  C   UNL A   1      40.176  27.571  29.073  1.00  0.00     0.049 A 
ATOM     41  N   UNL A   1      41.507  29.061  31.313  1.00  0.00    -0.248 NA
ATOM     42  C   UNL A   1      39.730  30.572  31.315  1.00  0.00     0.031 C 
ATOM     43  C   UNL A   1      39.609  26.844  27.936  1.00  0.00     0.029 A 
ATOM     44  N   UNL A   1      41.366  26.930  29.316  1.00  0.00    -0.354 N 
ATOM     45  C   UNL A   1      41.768  30.072  32.230  1.00  0.00     0.074 A 
ATOM     46  C   UNL A   1      40.663  31.004  32.152  1.00  0.00     0.031 C 
ATOM     47  C   UNL A   1      40.444  25.854  27.585  1.00  0.00     0.029 A 
ATOM     48  C   UNL A   1      41.618  25.889  28.452  1.00  0.00     0.049 A 
ATOM     49  H   UNL A   1      41.981  27.189  30.040  1.00  0.00     0.167 HD
ATOM     50  C   UNL A   1      42.814  30.199  33.083  1.00  0.00     0.034 A 
ATOM     51  C   UNL A   1      42.674  25.058  28.364  1.00  0.00     0.034 A 
ATOM     52  C   UNL A   1      43.892  29.251  33.187  1.00  0.00     0.049 A 
ATOM     53  C   UNL A   1      43.792  25.184  29.360  1.00  0.00     0.074 A 
ATOM     54  C   UNL A   1      44.942  29.238  34.089  1.00  0.00     0.029 A 
ATOM     55  N   UNL A   1      44.067  28.154  32.357  1.00  0.00    -0.354 N 
ATOM     56  N   UNL A   1      43.929  26.040  30.344  1.00  0.00    -0.248 NA
ATOM     57  C   UNL A   1      44.882  24.202  29.263  1.00  0.00     0.031 C 
ATOM     58  C   UNL A   1      45.768  28.149  33.785  1.00  0.00     0.029 A 
ATOM     59  C   UNL A   1      45.215  27.466  32.715  1.00  0.00     0.049 A 
ATOM     60  H   UNL A   1      43.464  27.901  31.622  1.00  0.00     0.167 HD
ATOM     61  C   UNL A   1      45.102  25.683  31.000  1.00  0.00     0.074 A 
ATOM     62  C   UNL A   1      45.620  24.514  30.320  1.00  0.00     0.031 C 
ATOM     63  C   UNL A   1      45.703  26.280  32.060  1.00  0.00     0.034 A 
BRANCH  50  64
ATOM     64  C   UNL A   1      42.823  31.389  34.009  1.00  0.00     0.023 A 
ATOM     65  C   UNL A   1      43.447  32.586  33.600  1.00  0.00     0.012 A 
ATOM     66  C   UNL A   1      42.164  31.347  35.253  1.00  0.00     0.148 A 
ATOM     67  C   UNL A   1      43.449  33.708  34.428  1.00  0.00     0.002 A 
ATOM     68  C   UNL A   1      42.130  32.484  36.054  1.00  0.00     0.091 A 
ATOM     69  F   UNL A   1      41.593  30.195  35.636  1.00  0.00    -0.205 F 
ATOM     70  C   UNL A   1      42.782  33.660  35.648  1.00  0.00     0.022 A 
BRANCH  68  71
ATOM     71  S   UNL A   1      41.228  32.548  37.606  1.00  0.00     0.127 S 
ATOM     72  O   UNL A   1      41.178  33.988  37.859  1.00  0.00    -0.237 OA
ATOM     73  O   UNL A   1      39.943  31.950  37.240  1.00  0.00    -0.237 OA
ATOM     74  O   UNL A   1      42.008  31.772  38.557  1.00  0.00    -0.744 OA
ENDBRANCH  68  71
ENDBRANCH  50  64
BRANCH  51  75
ATOM     75  C   UNL A   1      42.687  23.987  27.327  1.00  0.00     0.023 A 
ATOM     76  C   UNL A   1      43.341  24.217  26.100  1.00  0.00     0.012 A 
ATOM     77  C   UNL A   1      42.088  22.736  27.562  1.00  0.00     0.148 A 
ATOM     78  C   UNL A   1      43.369  23.230  25.114  1.00  0.00     0.002 A 
ATOM     79  C   UNL A   1      42.170  21.737  26.599  1.00  0.00     0.091 A 
ATOM     80  F   UNL A   1      41.461  22.541  28.732  1.00  0.00    -0.205 F 
ATOM     81  C   UNL A   1      42.794  21.988  25.367  1.00  0.00     0.022 A 
BRANCH  79  82
ATOM     82  S   UNL A   1      41.581  20.066  26.896  1.00  0.00     0.127 S 
ATOM     83  O   UNL A   1      40.310  20.313  27.574  1.00  0.00    -0.237 OA
ATOM     84  O   UNL A   1      41.459  19.544  25.533  1.00  0.00    -0.237 OA
ATOM     85  O   UNL A   1      42.612  19.421  27.694  1.00  0.00    -0.744 OA
ENDBRANCH  79  82
ENDBRANCH  51  75
BRANCH  63  86
ATOM     86  C   UNL A   1      46.982  25.665  32.569  1.00  0.00     0.023 A 
ATOM     87  C   UNL A   1      48.222  26.096  32.053  1.00  0.00     0.012 A 
ATOM     88  C   UNL A   1      46.960  24.695  33.589  1.00  0.00     0.148 A 
ATOM     89  C   UNL A   1      49.414  25.540  32.515  1.00  0.00     0.002 A 
ATOM     90  C   UNL A   1      48.156  24.183  34.081  1.00  0.00     0.091 A 
ATOM     91  F   UNL A   1      45.772  24.281  34.056  1.00  0.00    -0.205 F 
ATOM     92  C   UNL A   1      49.382  24.593  33.534  1.00  0.00     0.022 A 
BRANCH  90  93
ATOM     93  S   UNL A   1      48.211  23.031  35.458  1.00  0.00     0.127 S 
ATOM     94  O   UNL A   1      47.778  23.875  36.571  1.00  0.00    -0.237 OA
ATOM     95  O   UNL A   1      47.242  22.013  35.053  1.00  0.00    -0.237 OA
ATOM     96  O   UNL A   1      49.587  22.557  35.527  1.00  0.00    -0.744 OA
ENDBRANCH  90  93
ENDBRANCH  63  86
ENDBRANCH  37  38
ENDBRANCH  29  32
ENDBRANCH  27  28
ENDBRANCH  26  27
ENDBRANCH  25  26
ENDBRANCH  23  25
ENDBRANCH  20  21
ENDBRANCH  19  20
ENDBRANCH   1  19
TORSDOF 26
ENDMDL
MODEL 2
REMARK VINA RESULT:      -7.4      3.597     10.146
REMARK SMILES CC/C=C/C/C=C/C/C=C/C/C=C/CC/C=C/COCC(=O)NCCCNC(=O)c1ccc(-c2c3nc(c(-c4cccc(S(=O)(=O)[O-])c4F)c4ccc([nH]4)c(-c4cccc(S(=O)(=O)[O-])c4F)c4nc(c(-c5cccc(S(=O)(=O)[O-])c5F)c5ccc2[nH]5)C=C4)C=C3)cc1
REMARK SMILES IDX 18 1 17 2 16 3 15 4 14 5 13 6 12 7 11 8 10 9 9 10 8 11 7 12
REMARK SMILES IDX 6 13 5 14 4 15 3 16 2 17 1 18 19 19 20 20 21 21 22 22 23 23
REMARK SMILES IDX 24 25 25 26 26 27 27 28 28 29 29 31 30 32 31 33 92 34 32 35
REMARK SMILES IDX 91 36 33 37 34 38 35 39 85 40 36 41 90 42 84 43 86 44 37 45
REMARK SMILES IDX 89 46 83 47 82 48 38 50 70 51 50 52 69 53 51 54 54 55 68 56
REMARK SMILES IDX 87 57 52 58 53 59 67 61 88 62 55 63 39 64 40 65 48 66 41 67
REMARK SMILES IDX 43 68 49 69 42 70 44 71 45 72 46 73 47 74 71 75 72 76 80 77
REMARK SMILES IDX 73 78 75 79 81 80 74 81 76 82 77 83 78 84 79 85 56 86 57 87
REMARK SMILES IDX 65 88 58 89 60 90 66 91 59 92 61 93 62 94 63 95 64 96
REMARK H PARENT 23 24 27 30 86 49 54 60
REMARK Flexibility Score: inf
ROOT
ATOM      1  C   UNL A   1      46.421  26.707  25.731  1.00  0.00     0.188 C 
ENDROOT
BRANCH   1   2
ATOM      2  C   UNL A   1      45.982  28.022  26.296  1.00  0.00    -0.003 C 
ATOM      3  C   UNL A   1      46.706  29.146  26.178  1.00  0.00    -0.029 C 
BRANCH   3   4
ATOM      4  C   UNL A   1      46.383  30.446  26.859  1.00  0.00     0.031 C 
BRANCH   4   5
ATOM      5  C   UNL A   1      44.896  30.556  27.238  1.00  0.00     0.031 C 
BRANCH   5   6
ATOM      6  C   UNL A   1      44.293  31.888  26.883  1.00  0.00    -0.031 C 
ATOM      7  C   UNL A   1      44.315  32.968  27.680  1.00  0.00    -0.027 C 
BRANCH   7   8
ATOM      8  C   UNL A   1      43.655  34.272  27.333  1.00  0.00     0.054 C 
BRANCH   8   9
ATOM      9  C   UNL A   1      44.520  35.424  27.758  1.00  0.00    -0.027 C 
ATOM     10  C   UNL A   1      45.109  36.279  26.906  1.00  0.00    -0.027 C 
BRANCH  10  11
ATOM     11  C   UNL A   1      46.007  37.405  27.330  1.00  0.00     0.054 C 
BRANCH  11  12
ATOM     12  C   UNL A   1      45.304  38.724  27.178  1.00  0.00    -0.027 C 
ATOM     13  C   UNL A   1      45.914  39.917  27.260  1.00  0.00    -0.027 C 
BRANCH  13  14
ATOM     14  C   UNL A   1      45.206  41.236  27.137  1.00  0.00     0.054 C 
BRANCH  14  15
ATOM     15  C   UNL A   1      43.748  41.032  26.837  1.00  0.00    -0.027 C 
ATOM     16  C   UNL A   1      43.182  41.277  25.645  1.00  0.00    -0.031 C 
BRANCH  16  17
ATOM     17  C   UNL A   1      41.720  41.087  25.358  1.00  0.00     0.023 C 
ATOM     18  C   UNL A   1      41.155  39.909  26.135  1.00  0.00     0.008 C 
ENDBRANCH  16  17
ENDBRANCH  14  15
ENDBRANCH  13  14
ENDBRANCH  11  12
ENDBRANCH  10  11
ENDBRANCH   8   9
ENDBRANCH   7   8
ENDBRANCH   5   6
ENDBRANCH   4   5
ENDBRANCH   3   4
ENDBRANCH   1   2
BRANCH   1  19
ATOM     19  O   UNL A   1      45.430  26.202  24.831  1.00  0.00    -0.368 OA
BRANCH  19  20
ATOM     20  C   UNL A   1      45.182  24.810  24.964  1.00  0.00     0.260 C 
BRANCH  20  21
ATOM     21  C   UNL A   1      46.267  23.853  24.456  1.00  0.00     0.246 C 
ATOM     22  O   UNL A   1      47.199  24.236  23.749  1.00  0.00    -0.272 OA
ATOM     23  N   UNL A   1      46.211  22.537  24.823  1.00  0.00    -0.354 N 
ATOM     24  H   UNL A   1      46.941  21.965  24.491  1.00  0.00     0.163 HD
BRANCH  23  25
ATOM     25  C   UNL A   1      45.210  21.880  25.641  1.00  0.00     0.117 C 
BRANCH  25  26
ATOM     26  C   UNL A   1      44.342  20.916  24.840  1.00  0.00     0.042 C 
BRANCH  26  27
ATOM     27  C   UNL A   1      43.855  19.698  25.623  1.00  0.00     0.118 C 
BRANCH  27  28
ATOM     28  N   UNL A   1      42.408  19.535  25.583  1.00  0.00    -0.352 N 
ATOM     29  C   UNL A   1      41.404  20.308  26.110  1.00  0.00     0.251 C 
ATOM     30  H   UNL A   1      42.099  18.737  25.097  1.00  0.00     0.163 HD
ATOM     31  O   UNL A   1      40.251  19.880  26.082  1.00  0.00    -0.269 OA
BRANCH  29  32
ATOM     32  C   UNL A   1      41.685  21.627  26.721  1.00  0.00     0.039 A 
ATOM     33  C   UNL A   1      42.006  21.676  28.082  1.00  0.00     0.014 A 
ATOM     34  C   UNL A   1      41.591  22.814  25.990  1.00  0.00     0.014 A 
ATOM     35  C   UNL A   1      42.288  22.902  28.690  1.00  0.00     0.010 A 
ATOM     36  C   UNL A   1      41.948  24.028  26.580  1.00  0.00     0.010 A 
ATOM     37  C   UNL A   1      42.296  24.087  27.937  1.00  0.00    -0.014 A 
BRANCH  37  38
ATOM     38  C   UNL A   1      42.693  25.379  28.556  1.00  0.00     0.031 A 
ATOM     39  C   UNL A   1      44.141  25.700  28.822  1.00  0.00     0.074 A 
ATOM     40  C   UNL A   1      41.735  26.243  28.948  1.00  0.00     0.049 A 
ATOM     41  N   UNL A   1      44.660  26.777  29.354  1.00  0.00    -0.248 NA
ATOM     42  C   UNL A   1      45.131  24.671  28.469  1.00  0.00     0.031 C 
ATOM     43  C   UNL A   1      40.294  26.012  28.838  1.00  0.00     0.029 A 
ATOM     44  N   UNL A   1      41.828  27.478  29.541  1.00  0.00    -0.354 N 
ATOM     45  C   UNL A   1      46.028  26.544  29.432  1.00  0.00     0.074 A 
ATOM     46  C   UNL A   1      46.255  25.208  28.921  1.00  0.00     0.031 C 
ATOM     47  C   UNL A   1      39.638  27.070  29.338  1.00  0.00     0.029 A 
ATOM     48  C   UNL A   1      40.607  28.045  29.828  1.00  0.00     0.049 A 
ATOM     49  H   UNL A   1      42.686  27.917  29.742  1.00  0.00     0.167 HD
ATOM     50  C   UNL A   1      47.011  27.373  29.862  1.00  0.00     0.034 A 
ATOM     51  C   UNL A   1      40.301  29.215  30.421  1.00  0.00     0.034 A 
ATOM     52  C   UNL A   1      46.787  28.715  30.333  1.00  0.00     0.049 A 
ATOM     53  C   UNL A   1      41.411  30.142  30.833  1.00  0.00     0.074 A 
ATOM     54  C   UNL A   1      47.725  29.668  30.692  1.00  0.00     0.029 A 
ATOM     55  N   UNL A   1      45.541  29.292  30.523  1.00  0.00    -0.354 N 
ATOM     56  N   UNL A   1      42.707  29.976  30.727  1.00  0.00    -0.248 NA
ATOM     57  C   UNL A   1      41.016  31.437  31.406  1.00  0.00     0.031 C 
ATOM     58  C   UNL A   1      47.045  30.811  31.126  1.00  0.00     0.029 A 
ATOM     59  C   UNL A   1      45.684  30.582  31.008  1.00  0.00     0.049 A 
ATOM     60  H   UNL A   1      44.681  28.850  30.340  1.00  0.00     0.167 HD
ATOM     61  C   UNL A   1      43.282  31.154  31.191  1.00  0.00     0.074 A 
ATOM     62  C   UNL A   1      42.190  32.036  31.550  1.00  0.00     0.031 C 
ATOM     63  C   UNL A   1      44.594  31.469  31.324  1.00  0.00     0.034 A 
BRANCH  50  64
ATOM     64  C   UNL A   1      48.430  26.869  29.799  1.00  0.00     0.023 A 
ATOM     65  C   UNL A   1      49.221  27.154  28.667  1.00  0.00     0.012 A 
ATOM     66  C   UNL A   1      49.002  26.170  30.880  1.00  0.00     0.148 A 
ATOM     67  C   UNL A   1      50.544  26.720  28.593  1.00  0.00     0.002 A 
ATOM     68  C   UNL A   1      50.337  25.781  30.820  1.00  0.00     0.091 A 
ATOM     69  F   UNL A   1      48.232  25.890  31.941  1.00  0.00    -0.205 F 
ATOM     70  C   UNL A   1      51.104  26.044  29.673  1.00  0.00     0.022 A 
BRANCH  68  71
ATOM     71  S   UNL A   1      51.173  24.977  32.191  1.00  0.00     0.127 S 
ATOM     72  O   UNL A   1      52.567  25.016  31.750  1.00  0.00    -0.237 OA
ATOM     73  O   UNL A   1      50.863  25.871  33.308  1.00  0.00    -0.237 OA
ATOM     74  O   UNL A   1      50.587  23.649  32.297  1.00  0.00    -0.744 OA
ENDBRANCH  68  71
ENDBRANCH  50  64
BRANCH  51  75
ATOM     75  C   UNL A   1      38.873  29.602  30.599  1.00  0.00     0.023 A 
ATOM     76  C   UNL A   1      38.220  29.307  31.812  1.00  0.00     0.012 A 
ATOM     77  C   UNL A   1      38.171  30.287  29.589  1.00  0.00     0.148 A 
ATOM     78  C   UNL A   1      36.883  29.660  32.004  1.00  0.00     0.002 A 
ATOM     79  C   UNL A   1      36.858  30.688  29.809  1.00  0.00     0.091 A 
ATOM     80  F   UNL A   1      38.807  30.548  28.438  1.00  0.00    -0.205 F 
ATOM     81  C   UNL A   1      36.207  30.360  31.008  1.00  0.00     0.022 A 
BRANCH  79  82
ATOM     82  S   UNL A   1      35.958  31.712  28.640  1.00  0.00     0.127 S 
ATOM     83  O   UNL A   1      34.720  31.981  29.369  1.00  0.00    -0.237 OA
ATOM     84  O   UNL A   1      36.851  32.864  28.499  1.00  0.00    -0.237 OA
ATOM     85  O   UNL A   1      35.823  30.908  27.435  1.00  0.00    -0.744 OA
ENDBRANCH  79  82
ENDBRANCH  51  75
BRANCH  63  86
ATOM     86  C   UNL A   1      44.928  32.839  31.860  1.00  0.00     0.023 A 
ATOM     87  C   UNL A   1      45.122  33.913  30.967  1.00  0.00     0.012 A 
ATOM     88  C   UNL A   1      45.003  33.072  33.246  1.00  0.00     0.148 A 
ATOM     89  C   UNL A   1      45.429  35.186  31.446  1.00  0.00     0.002 A 
ATOM     90  C   UNL A   1      45.259  34.355  33.717  1.00  0.00     0.091 A 
ATOM     91  F   UNL A   1      44.836  32.036  34.081  1.00  0.00    -0.205 F 
ATOM     92  C   UNL A   1      45.486  35.409  32.819  1.00  0.00     0.022 A 
BRANCH  90  93
ATOM     93  S   UNL A   1      45.255  34.751  35.470  1.00  0.00     0.127 S 
ATOM     94  O   UNL A   1      43.986  34.170  35.904  1.00  0.00    -0.237 OA
ATOM     95  O   UNL A   1      46.444  34.048  35.951  1.00  0.00    -0.237 OA
ATOM     96  O   UNL A   1      45.341  36.203  35.550  1.00  0.00    -0.744 OA
ENDBRANCH  90  93
ENDBRANCH  63  86
ENDBRANCH  37  38
ENDBRANCH  29  32
ENDBRANCH  27  28
ENDBRANCH  26  27
ENDBRANCH  25  26
ENDBRANCH  23  25
ENDBRANCH  20  21
ENDBRANCH  19  20
ENDBRANCH   1  19
TORSDOF 26
ENDMDL
MODEL 3
REMARK VINA RESULT:      -6.9      4.764      9.681
REMARK SMILES CC/C=C/C/C=C/C/C=C/C/C=C/CC/C=C/COCC(=O)NCCCNC(=O)c1ccc(-c2c3nc(c(-c4cccc(S(=O)(=O)[O-])c4F)c4ccc([nH]4)c(-c4cccc(S(=O)(=O)[O-])c4F)c4nc(c(-c5cccc(S(=O)(=O)[O-])c5F)c5ccc2[nH]5)C=C4)C=C3)cc1
REMARK SMILES IDX 18 1 17 2 16 3 15 4 14 5 13 6 12 7 11 8 10 9 9 10 8 11 7 12
REMARK SMILES IDX 6 13 5 14 4 15 3 16 2 17 1 18 19 19 20 20 21 21 22 22 23 23
REMARK SMILES IDX 24 25 25 26 26 27 27 28 28 29 29 31 30 32 31 33 92 34 32 35
REMARK SMILES IDX 91 36 33 37 34 38 35 39 85 40 36 41 90 42 84 43 86 44 37 45
REMARK SMILES IDX 89 46 83 47 82 48 38 50 70 51 50 52 69 53 51 54 54 55 68 56
REMARK SMILES IDX 87 57 52 58 53 59 67 61 88 62 55 63 39 64 40 65 48 66 41 67
REMARK SMILES IDX 43 68 49 69 42 70 44 71 45 72 46 73 47 74 71 75 72 76 80 77
REMARK SMILES IDX 73 78 75 79 81 80 74 81 76 82 77 83 78 84 79 85 56 86 57 87
REMARK SMILES IDX 65 88 58 89 60 90 66 91 59 92 61 93 62 94 63 95 64 96
REMARK H PARENT 23 24 27 30 86 49 54 60
REMARK Flexibility Score: inf
ROOT
ATOM      1  C   UNL A   1      38.128  33.043  38.771  1.00  0.00     0.188 C 
ENDROOT
BRANCH   1   2
ATOM      2  C   UNL A   1      38.614  32.912  37.361  1.00  0.00    -0.003 C 
ATOM      3  C   UNL A   1      39.397  33.827  36.771  1.00  0.00    -0.029 C 
BRANCH   3   4
ATOM      4  C   UNL A   1      39.779  33.815  35.317  1.00  0.00     0.031 C 
BRANCH   4   5
ATOM      5  C   UNL A   1      40.495  32.516  34.910  1.00  0.00     0.031 C 
BRANCH   5   6
ATOM      6  C   UNL A   1      39.998  31.952  33.606  1.00  0.00    -0.031 C 
ATOM      7  C   UNL A   1      38.710  31.684  33.336  1.00  0.00    -0.027 C 
BRANCH   7   8
ATOM      8  C   UNL A   1      38.239  31.065  32.051  1.00  0.00     0.054 C 
BRANCH   8   9
ATOM      9  C   UNL A   1      39.410  30.730  31.173  1.00  0.00    -0.027 C 
ATOM     10  C   UNL A   1      39.305  30.175  29.955  1.00  0.00    -0.027 C 
BRANCH  10  11
ATOM     11  C   UNL A   1      40.478  29.802  29.096  1.00  0.00     0.054 C 
BRANCH  11  12
ATOM     12  C   UNL A   1      40.607  28.308  29.004  1.00  0.00    -0.027 C 
ATOM     13  C   UNL A   1      39.576  27.473  28.797  1.00  0.00    -0.027 C 
BRANCH  13  14
ATOM     14  C   UNL A   1      39.701  25.978  28.734  1.00  0.00     0.054 C 
BRANCH  14  15
ATOM     15  C   UNL A   1      40.967  25.579  28.031  1.00  0.00    -0.027 C 
ATOM     16  C   UNL A   1      41.484  24.340  28.054  1.00  0.00    -0.031 C 
BRANCH  16  17
ATOM     17  C   UNL A   1      42.758  23.952  27.362  1.00  0.00     0.023 C 
ATOM     18  C   UNL A   1      42.607  24.017  25.851  1.00  0.00     0.008 C 
ENDBRANCH  16  17
ENDBRANCH  14  15
ENDBRANCH  13  14
ENDBRANCH  11  12
ENDBRANCH  10  11
ENDBRANCH   8   9
ENDBRANCH   7   8
ENDBRANCH   5   6
ENDBRANCH   4   5
ENDBRANCH   3   4
ENDBRANCH   1   2
BRANCH   1  19
ATOM     19  O   UNL A   1      38.965  32.290  39.654  1.00  0.00    -0.368 OA
BRANCH  19  20
ATOM     20  C   UNL A   1      39.936  33.072  40.337  1.00  0.00     0.260 C 
BRANCH  20  21
ATOM     21  C   UNL A   1      41.411  32.747  40.068  1.00  0.00     0.246 C 
ATOM     22  O   UNL A   1      41.756  31.912  39.232  1.00  0.00    -0.272 OA
ATOM     23  N   UNL A   1      42.373  33.428  40.760  1.00  0.00    -0.354 N 
ATOM     24  H   UNL A   1      43.305  33.202  40.539  1.00  0.00     0.163 HD
BRANCH  23  25
ATOM     25  C   UNL A   1      42.189  34.443  41.781  1.00  0.00     0.117 C 
BRANCH  25  26
ATOM     26  C   UNL A   1      42.339  35.858  41.232  1.00  0.00     0.042 C 
BRANCH  26  27
ATOM     27  C   UNL A   1      43.514  36.048  40.275  1.00  0.00     0.118 C 
BRANCH  27  28
ATOM     28  N   UNL A   1      43.680  37.428  39.840  1.00  0.00    -0.352 N 
ATOM     29  C   UNL A   1      43.932  37.952  38.598  1.00  0.00     0.251 C 
ATOM     30  H   UNL A   1      43.595  38.096  40.558  1.00  0.00     0.163 HD
ATOM     31  O   UNL A   1      44.189  39.151  38.502  1.00  0.00    -0.269 OA
BRANCH  29  32
ATOM     32  C   UNL A   1      43.918  37.104  37.384  1.00  0.00     0.039 A 
ATOM     33  C   UNL A   1      45.142  36.691  36.846  1.00  0.00     0.014 A 
ATOM     34  C   UNL A   1      42.727  36.749  36.746  1.00  0.00     0.014 A 
ATOM     35  C   UNL A   1      45.167  35.881  35.708  1.00  0.00     0.010 A 
ATOM     36  C   UNL A   1      42.751  35.877  35.655  1.00  0.00     0.010 A 
ATOM     37  C   UNL A   1      43.970  35.437  35.121  1.00  0.00    -0.014 A 
BRANCH  37  38
ATOM     38  C   UNL A   1      43.991  34.494  33.972  1.00  0.00     0.031 A 
ATOM     39  C   UNL A   1      43.895  34.995  32.554  1.00  0.00     0.074 A 
ATOM     40  C   UNL A   1      44.026  33.167  34.209  1.00  0.00     0.049 A 
ATOM     41  N   UNL A   1      43.898  34.311  31.438  1.00  0.00    -0.248 NA
ATOM     42  C   UNL A   1      43.751  36.447  32.365  1.00  0.00     0.031 C 
ATOM     43  C   UNL A   1      44.023  32.547  35.535  1.00  0.00     0.029 A 
ATOM     44  N   UNL A   1      44.046  32.100  33.345  1.00  0.00    -0.354 N 
ATOM     45  C   UNL A   1      43.722  35.241  30.420  1.00  0.00     0.074 A 
ATOM     46  C   UNL A   1      43.584  36.535  31.053  1.00  0.00     0.031 C 
ATOM     47  C   UNL A   1      44.049  31.213  35.399  1.00  0.00     0.029 A 
ATOM     48  C   UNL A   1      44.044  30.878  33.978  1.00  0.00     0.049 A 
ATOM     49  H   UNL A   1      44.061  32.200  32.366  1.00  0.00     0.167 HD
ATOM     50  C   UNL A   1      43.706  35.042  29.079  1.00  0.00     0.034 A 
ATOM     51  C   UNL A   1      44.034  29.629  33.473  1.00  0.00     0.034 A 
ATOM     52  C   UNL A   1      43.883  33.760  28.450  1.00  0.00     0.049 A 
ATOM     53  C   UNL A   1      44.078  29.439  31.983  1.00  0.00     0.074 A 
ATOM     54  C   UNL A   1      43.986  33.471  27.099  1.00  0.00     0.029 A 
ATOM     55  N   UNL A   1      43.972  32.551  29.122  1.00  0.00    -0.354 N 
ATOM     56  N   UNL A   1      44.097  30.345  31.036  1.00  0.00    -0.248 NA
ATOM     57  C   UNL A   1      44.143  28.055  31.492  1.00  0.00     0.031 C 
ATOM     58  C   UNL A   1      44.107  32.084  26.955  1.00  0.00     0.029 A 
ATOM     59  C   UNL A   1      44.112  31.512  28.217  1.00  0.00     0.049 A 
ATOM     60  H   UNL A   1      43.940  32.446  30.100  1.00  0.00     0.167 HD
ATOM     61  C   UNL A   1      44.206  29.644  29.840  1.00  0.00     0.074 A 
ATOM     62  C   UNL A   1      44.279  28.240  30.186  1.00  0.00     0.031 C 
ATOM     63  C   UNL A   1      44.226  30.120  28.570  1.00  0.00     0.034 A 
BRANCH  50  64
ATOM     64  C   UNL A   1      43.537  36.251  28.193  1.00  0.00     0.023 A 
ATOM     65  C   UNL A   1      42.240  36.707  27.879  1.00  0.00     0.012 A 
ATOM     66  C   UNL A   1      44.653  36.971  27.724  1.00  0.00     0.148 A 
ATOM     67  C   UNL A   1      42.056  37.836  27.081  1.00  0.00     0.002 A 
ATOM     68  C   UNL A   1      44.461  38.123  26.968  1.00  0.00     0.091 A 
ATOM     69  F   UNL A   1      45.879  36.513  28.016  1.00  0.00    -0.205 F 
ATOM     70  C   UNL A   1      43.165  38.548  26.636  1.00  0.00     0.022 A 
BRANCH  68  71
ATOM     71  S   UNL A   1      45.823  39.156  26.416  1.00  0.00     0.127 S 
ATOM     72  O   UNL A   1      45.126  40.158  25.611  1.00  0.00    -0.237 OA
ATOM     73  O   UNL A   1      46.362  39.658  27.681  1.00  0.00    -0.237 OA
ATOM     74  O   UNL A   1      46.722  38.278  25.681  1.00  0.00    -0.744 OA
ENDBRANCH  68  71
ENDBRANCH  50  64
BRANCH  51  75
ATOM     75  C   UNL A   1      44.049  28.460  34.397  1.00  0.00     0.023 A 
ATOM     76  C   UNL A   1      45.282  27.929  34.826  1.00  0.00     0.012 A 
ATOM     77  C   UNL A   1      42.853  27.894  34.879  1.00  0.00     0.148 A 
ATOM     78  C   UNL A   1      45.323  26.836  35.692  1.00  0.00     0.002 A 
ATOM     79  C   UNL A   1      42.901  26.843  35.787  1.00  0.00     0.091 A 
ATOM     80  F   UNL A   1      41.691  28.406  34.450  1.00  0.00    -0.205 F 
ATOM     81  C   UNL A   1      44.135  26.301  36.181  1.00  0.00     0.022 A 
BRANCH  79  82
ATOM     82  S   UNL A   1      41.427  26.186  36.574  1.00  0.00     0.127 S 
ATOM     83  O   UNL A   1      40.727  25.582  35.441  1.00  0.00    -0.237 OA
ATOM     84  O   UNL A   1      41.995  25.229  37.526  1.00  0.00    -0.237 OA
ATOM     85  O   UNL A   1      40.768  27.326  37.192  1.00  0.00    -0.744 OA
ENDBRANCH  79  82
ENDBRANCH  51  75
BRANCH  63  86
ATOM     86  C   UNL A   1      44.357  29.115  27.454  1.00  0.00     0.023 A 
ATOM     87  C   UNL A   1      43.202  28.643  26.796  1.00  0.00     0.012 A 
ATOM     88  C   UNL A   1      45.623  28.673  27.026  1.00  0.00     0.148 A 
ATOM     89  C   UNL A   1      43.305  27.716  25.760  1.00  0.00     0.002 A 
ATOM     90  C   UNL A   1      45.721  27.787  25.958  1.00  0.00     0.091 A 
ATOM     91  F   UNL A   1      46.711  29.116  27.674  1.00  0.00    -0.205 F 
ATOM     92  C   UNL A   1      44.563  27.297  25.334  1.00  0.00     0.022 A 
BRANCH  90  93
ATOM     93  S   UNL A   1      47.303  27.270  25.282  1.00  0.00     0.127 S 
ATOM     94  O   UNL A   1      46.890  26.479  24.124  1.00  0.00    -0.237 OA
ATOM     95  O   UNL A   1      47.934  28.549  24.953  1.00  0.00    -0.237 OA
ATOM     96  O   UNL A   1      47.967  26.528  26.346  1.00  0.00    -0.744 OA
ENDBRANCH  90  93
ENDBRANCH  63  86
ENDBRANCH  37  38
ENDBRANCH  29  32
ENDBRANCH  27  28
ENDBRANCH  26  27
ENDBRANCH  25  26
ENDBRANCH  23  25
ENDBRANCH  20  21
ENDBRANCH  19  20
ENDBRANCH   1  19
TORSDOF 26
ENDMDL
