MODEL 1
REMARK VINA RESULT:     -14.1      0.000      0.000
REMARK SMILES Cc1ccccc1C(=O)Nc1cc(C(=O)NCCCNC(=O)c2ccc(-c3c4nc(c(-c5cccc(S(=O)(=O)[O-])c5F)c5ccc([nH]5)c(-c5cccc(S(=O)(=O)[O-])c5F)c5nc(c(-c6cccc(S(=O)(=O)[O-])c6F)c6ccc3[nH]6)C=C5)C=C4)cc2)ccc1N1CC[NH+](CC(=O)Nc2ccc(F)cc2)CC1
REMARK SMILES IDX 17 1 16 2 14 3 15 4 13 6 11 7 12 8 88 9 87 10 86 11 10 12
REMARK SMILES IDX 8 13 9 14 7 16 1 17 2 18 3 19 4 20 6 21 5 22 89 23 90 24
REMARK SMILES IDX 105 25 91 26 104 27 92 28 93 30 94 31 95 32 96 33 97 35
REMARK SMILES IDX 98 36 103 37 99 38 102 39 100 40 101 41 18 42 19 43 20 44
REMARK SMILES IDX 21 45 22 47 23 48 24 49 85 50 25 51 84 52 26 53 27 54 28 55
REMARK SMILES IDX 78 56 29 57 83 58 77 59 79 60 30 61 82 62 76 63 75 64 31 66
REMARK SMILES IDX 63 67 43 68 62 69 44 70 47 71 61 72 80 73 45 74 46 75 60 77
REMARK SMILES IDX 81 78 48 79 32 80 33 81 41 82 34 83 36 84 42 85 35 86 37 87
REMARK SMILES IDX 38 88 39 89 40 90 64 91 65 92 73 93 66 94 68 95 74 96 67 97
REMARK SMILES IDX 69 98 70 99 71 100 72 101 49 102 50 103 58 104 51 105 53 106
REMARK SMILES IDX 59 107 52 108 54 109 55 110 56 111 57 112
REMARK H PARENT 16 5 10 15 92 29 96 34 20 46 79 65 47 76
REMARK Flexibility Score: inf
ROOT
ATOM      1  C   UNL A   1      33.602  31.856  28.002  1.00  0.00     0.118 C 
ENDROOT
BRANCH   1   2
ATOM      2  N   UNL A   1      32.558  32.096  27.009  1.00  0.00    -0.352 N 
ATOM      3  C   UNL A   1      31.657  31.275  26.357  1.00  0.00     0.251 C 
ATOM      4  O   UNL A   1      30.718  31.805  25.761  1.00  0.00    -0.269 OA
ATOM      5  H   UNL A   1      32.479  33.042  26.749  1.00  0.00     0.163 HD
BRANCH   3   6
ATOM      6  C   UNL A   1      31.747  29.784  26.317  1.00  0.00     0.042 A 
ATOM      7  C   UNL A   1      31.819  27.685  25.101  1.00  0.00     0.065 A 
ATOM      8  C   UNL A   1      31.730  29.065  25.142  1.00  0.00     0.042 A 
ATOM      9  C   UNL A   1      31.879  26.904  26.283  1.00  0.00     0.061 A 
ATOM     10  C   UNL A   1      31.886  27.629  27.485  1.00  0.00     0.029 A 
ATOM     11  C   UNL A   1      31.840  29.043  27.502  1.00  0.00     0.016 A 
BRANCH   7  12
ATOM     12  N   UNL A   1      31.820  27.093  23.829  1.00  0.00    -0.320 N 
ATOM     13  C   UNL A   1      31.025  27.334  22.722  1.00  0.00     0.255 C 
ATOM     14  O   UNL A   1      31.381  26.815  21.657  1.00  0.00    -0.269 OA
ATOM     15  H   UNL A   1      32.498  26.390  23.703  1.00  0.00     0.170 HD
BRANCH  13  16
ATOM     16  C   UNL A   1      29.782  28.174  22.700  1.00  0.00     0.043 A 
ATOM     17  C   UNL A   1      28.140  26.656  24.023  1.00  0.00     0.045 C 
ATOM     18  C   UNL A   1      28.508  27.881  23.235  1.00  0.00    -0.038 A 
ATOM     19  C   UNL A   1      27.458  28.808  23.038  1.00  0.00     0.004 A 
ATOM     20  C   UNL A   1      27.672  30.035  22.415  1.00  0.00     0.000 A 
ATOM     21  C   UNL A   1      29.984  29.443  22.115  1.00  0.00     0.014 A 
ATOM     22  C   UNL A   1      28.946  30.366  21.977  1.00  0.00     0.001 A 
ENDBRANCH  13  16
ENDBRANCH   7  12
BRANCH   9  23
ATOM     23  N   UNL A   1      32.000  25.520  26.251  1.00  0.00    -0.359 N 
ATOM     24  C   UNL A   1      33.228  24.778  25.861  1.00  0.00     0.178 C 
ATOM     25  C   UNL A   1      30.806  24.717  26.020  1.00  0.00     0.178 C 
ATOM     26  C   UNL A   1      33.165  23.239  26.249  1.00  0.00     0.284 C 
ATOM     27  C   UNL A   1      30.904  23.509  26.951  1.00  0.00     0.284 C 
ATOM     28  N   UNL A   1      31.854  22.555  26.398  1.00  0.00    -0.324 N 
ATOM     29  H   UNL A   1      32.050  21.781  27.033  1.00  0.00     0.348 HD
BRANCH  28  30
ATOM     30  C   UNL A   1      31.295  21.769  25.272  1.00  0.00     0.364 C 
BRANCH  30  31
ATOM     31  C   UNL A   1      32.085  21.668  23.967  1.00  0.00     0.279 C 
ATOM     32  O   UNL A   1      31.966  22.572  23.124  1.00  0.00    -0.268 OA
ATOM     33  N   UNL A   1      32.990  20.688  23.648  1.00  0.00    -0.321 N 
ATOM     34  H   UNL A   1      33.589  21.002  22.933  1.00  0.00     0.170 HD
BRANCH  33  35
ATOM     35  C   UNL A   1      33.332  19.367  24.025  1.00  0.00     0.041 A 
ATOM     36  C   UNL A   1      34.641  19.189  24.514  1.00  0.00     0.029 A 
ATOM     37  C   UNL A   1      32.564  18.221  23.855  1.00  0.00     0.029 A 
ATOM     38  C   UNL A   1      35.169  17.917  24.776  1.00  0.00     0.041 A 
ATOM     39  C   UNL A   1      33.108  16.935  24.045  1.00  0.00     0.041 A 
ATOM     40  C   UNL A   1      34.404  16.794  24.510  1.00  0.00     0.123 A 
ATOM     41  F   UNL A   1      34.917  15.574  24.716  1.00  0.00    -0.207 F 
ENDBRANCH  33  35
ENDBRANCH  30  31
ENDBRANCH  28  30
ENDBRANCH   9  23
ENDBRANCH   3   6
ENDBRANCH   1   2
BRANCH   1  42
ATOM     42  C   UNL A   1      34.569  33.027  28.230  1.00  0.00     0.042 C 
BRANCH  42  43
ATOM     43  C   UNL A   1      35.647  32.740  29.248  1.00  0.00     0.118 C 
BRANCH  43  44
ATOM     44  N   UNL A   1      35.485  31.448  29.924  1.00  0.00    -0.352 N 
ATOM     45  C   UNL A   1      36.371  30.382  29.904  1.00  0.00     0.251 C 
ATOM     46  H   UNL A   1      34.660  31.327  30.446  1.00  0.00     0.163 HD
ATOM     47  O   UNL A   1      36.138  29.349  30.526  1.00  0.00    -0.269 OA
BRANCH  45  48
ATOM     48  C   UNL A   1      37.639  30.588  29.174  1.00  0.00     0.039 A 
ATOM     49  C   UNL A   1      37.799  29.871  27.986  1.00  0.00     0.014 A 
ATOM     50  C   UNL A   1      38.737  31.029  29.911  1.00  0.00     0.014 A 
ATOM     51  C   UNL A   1      39.047  29.339  27.690  1.00  0.00     0.010 A 
ATOM     52  C   UNL A   1      39.951  30.415  29.675  1.00  0.00     0.010 A 
ATOM     53  C   UNL A   1      40.077  29.510  28.612  1.00  0.00    -0.014 A 
BRANCH  53  54
ATOM     54  C   UNL A   1      41.346  28.805  28.538  1.00  0.00     0.031 A 
ATOM     55  C   UNL A   1      41.319  27.337  28.575  1.00  0.00     0.074 A 
ATOM     56  C   UNL A   1      42.512  29.469  28.392  1.00  0.00     0.049 A 
ATOM     57  N   UNL A   1      42.314  26.593  28.911  1.00  0.00    -0.248 NA
ATOM     58  C   UNL A   1      40.091  26.598  28.310  1.00  0.00     0.031 C 
ATOM     59  C   UNL A   1      43.806  28.910  28.019  1.00  0.00     0.029 A 
ATOM     60  N   UNL A   1      42.808  30.770  28.810  1.00  0.00    -0.354 N 
ATOM     61  C   UNL A   1      41.959  25.294  28.614  1.00  0.00     0.074 A 
ATOM     62  C   UNL A   1      40.537  25.345  28.387  1.00  0.00     0.031 C 
ATOM     63  C   UNL A   1      44.774  29.718  28.480  1.00  0.00     0.029 A 
ATOM     64  C   UNL A   1      44.129  30.729  29.299  1.00  0.00     0.049 A 
ATOM     65  H   UNL A   1      42.214  31.554  28.772  1.00  0.00     0.167 HD
ATOM     66  C   UNL A   1      42.947  24.378  28.419  1.00  0.00     0.034 A 
ATOM     67  C   UNL A   1      44.480  31.060  30.576  1.00  0.00     0.034 A 
ATOM     68  C   UNL A   1      44.249  24.917  28.853  1.00  0.00     0.049 A 
ATOM     69  C   UNL A   1      45.202  29.938  31.305  1.00  0.00     0.074 A 
ATOM     70  C   UNL A   1      45.327  25.458  28.171  1.00  0.00     0.029 A 
ATOM     71  N   UNL A   1      44.449  25.222  30.198  1.00  0.00    -0.354 N 
ATOM     72  N   UNL A   1      45.315  28.719  30.854  1.00  0.00    -0.248 NA
ATOM     73  C   UNL A   1      45.818  30.099  32.618  1.00  0.00     0.031 C 
ATOM     74  C   UNL A   1      46.127  26.171  29.105  1.00  0.00     0.029 A 
ATOM     75  C   UNL A   1      45.558  26.039  30.362  1.00  0.00     0.049 A 
ATOM     76  H   UNL A   1      43.878  24.902  30.934  1.00  0.00     0.167 HD
ATOM     77  C   UNL A   1      45.873  27.914  31.817  1.00  0.00     0.074 A 
ATOM     78  C   UNL A   1      46.244  28.848  32.869  1.00  0.00     0.031 C 
ATOM     79  C   UNL A   1      45.923  26.549  31.684  1.00  0.00     0.034 A 
BRANCH  66  80
ATOM     80  C   UNL A   1      42.804  23.144  27.524  1.00  0.00     0.023 A 
ATOM     81  C   UNL A   1      41.813  22.203  27.882  1.00  0.00     0.012 A 
ATOM     82  C   UNL A   1      43.630  22.766  26.437  1.00  0.00     0.148 A 
ATOM     83  C   UNL A   1      41.713  20.941  27.277  1.00  0.00     0.002 A 
ATOM     84  C   UNL A   1      43.569  21.493  25.864  1.00  0.00     0.091 A 
ATOM     85  F   UNL A   1      44.449  23.650  25.874  1.00  0.00    -0.205 F 
ATOM     86  C   UNL A   1      42.613  20.572  26.289  1.00  0.00     0.022 A 
BRANCH  84  87
ATOM     87  S   UNL A   1      44.740  20.940  24.606  1.00  0.00     0.127 S 
ATOM     88  O   UNL A   1      46.012  20.989  25.329  1.00  0.00    -0.237 OA
ATOM     89  O   UNL A   1      44.262  19.591  24.307  1.00  0.00    -0.237 OA
ATOM     90  O   UNL A   1      44.645  21.891  23.505  1.00  0.00    -0.744 OA
ENDBRANCH  84  87
ENDBRANCH  66  80
BRANCH  67  91
ATOM     91  C   UNL A   1      43.546  32.040  31.212  1.00  0.00     0.023 A 
ATOM     92  C   UNL A   1      43.272  33.225  30.480  1.00  0.00     0.012 A 
ATOM     93  C   UNL A   1      42.658  31.652  32.226  1.00  0.00     0.148 A 
ATOM     94  C   UNL A   1      42.047  33.880  30.617  1.00  0.00     0.002 A 
ATOM     95  C   UNL A   1      41.450  32.330  32.373  1.00  0.00     0.091 A 
ATOM     96  F   UNL A   1      42.959  30.586  32.978  1.00  0.00    -0.205 F 
ATOM     97  C   UNL A   1      41.117  33.404  31.532  1.00  0.00     0.022 A 
BRANCH  95  98
ATOM     98  S   UNL A   1      40.234  31.770  33.572  1.00  0.00     0.127 S 
ATOM     99  O   UNL A   1      39.184  32.771  33.413  1.00  0.00    -0.237 OA
ATOM    100  O   UNL A   1      39.890  30.436  33.080  1.00  0.00    -0.237 OA
ATOM    101  O   UNL A   1      40.955  31.770  34.836  1.00  0.00    -0.744 OA
ENDBRANCH  95  98
ENDBRANCH  67  91
BRANCH  79 102
ATOM    102  C   UNL A   1      46.331  25.562  32.776  1.00  0.00     0.023 A 
ATOM    103  C   UNL A   1      47.677  25.296  33.096  1.00  0.00     0.012 A 
ATOM    104  C   UNL A   1      45.359  24.939  33.606  1.00  0.00     0.148 A 
ATOM    105  C   UNL A   1      48.045  24.404  34.111  1.00  0.00     0.002 A 
ATOM    106  C   UNL A   1      45.732  24.139  34.687  1.00  0.00     0.091 A 
ATOM    107  F   UNL A   1      44.054  25.095  33.341  1.00  0.00    -0.205 F 
ATOM    108  C   UNL A   1      47.073  23.838  34.919  1.00  0.00     0.022 A 
BRANCH 106 109
ATOM    109  S   UNL A   1      44.528  23.580  35.903  1.00  0.00     0.127 S 
ATOM    110  O   UNL A   1      44.097  24.839  36.506  1.00  0.00    -0.237 OA
ATOM    111  O   UNL A   1      43.515  22.931  35.066  1.00  0.00    -0.237 OA
ATOM    112  O   UNL A   1      45.256  22.665  36.771  1.00  0.00    -0.744 OA
ENDBRANCH 106 109
ENDBRANCH  79 102
ENDBRANCH  53  54
ENDBRANCH  45  48
ENDBRANCH  43  44
ENDBRANCH  42  43
ENDBRANCH   1  42
TORSDOF 19
ENDMDL
MODEL 2
REMARK VINA RESULT:     -13.9      1.909      2.476
REMARK SMILES Cc1ccccc1C(=O)Nc1cc(C(=O)NCCCNC(=O)c2ccc(-c3c4nc(c(-c5cccc(S(=O)(=O)[O-])c5F)c5ccc([nH]5)c(-c5cccc(S(=O)(=O)[O-])c5F)c5nc(c(-c6cccc(S(=O)(=O)[O-])c6F)c6ccc3[nH]6)C=C5)C=C4)cc2)ccc1N1CC[NH+](CC(=O)Nc2ccc(F)cc2)CC1
REMARK SMILES IDX 17 1 16 2 14 3 15 4 13 6 11 7 12 8 88 9 87 10 86 11 10 12
REMARK SMILES IDX 8 13 9 14 7 16 1 17 2 18 3 19 4 20 6 21 5 22 89 23 90 24
REMARK SMILES IDX 105 25 91 26 104 27 92 28 93 30 94 31 95 32 96 33 97 35
REMARK SMILES IDX 98 36 103 37 99 38 102 39 100 40 101 41 18 42 19 43 20 44
REMARK SMILES IDX 21 45 22 47 23 48 24 49 85 50 25 51 84 52 26 53 27 54 28 55
REMARK SMILES IDX 78 56 29 57 83 58 77 59 79 60 30 61 82 62 76 63 75 64 31 66
REMARK SMILES IDX 63 67 43 68 62 69 44 70 47 71 61 72 80 73 45 74 46 75 60 77
REMARK SMILES IDX 81 78 48 79 32 80 33 81 41 82 34 83 36 84 42 85 35 86 37 87
REMARK SMILES IDX 38 88 39 89 40 90 64 91 65 92 73 93 66 94 68 95 74 96 67 97
REMARK SMILES IDX 69 98 70 99 71 100 72 101 49 102 50 103 58 104 51 105 53 106
REMARK SMILES IDX 59 107 52 108 54 109 55 110 56 111 57 112
REMARK H PARENT 16 5 10 15 92 29 96 34 20 46 79 65 47 76
REMARK Flexibility Score: inf
ROOT
ATOM      1  C   UNL A   1      33.910  31.507  28.110  1.00  0.00     0.118 C 
ENDROOT
BRANCH   1   2
ATOM      2  N   UNL A   1      32.804  31.834  27.213  1.00  0.00    -0.352 N 
ATOM      3  C   UNL A   1      31.876  31.072  26.529  1.00  0.00     0.251 C 
ATOM      4  O   UNL A   1      30.896  31.645  26.052  1.00  0.00    -0.269 OA
ATOM      5  H   UNL A   1      32.698  32.801  27.063  1.00  0.00     0.163 HD
BRANCH   3   6
ATOM      6  C   UNL A   1      31.982  29.596  26.320  1.00  0.00     0.042 A 
ATOM      7  C   UNL A   1      32.001  27.644  24.879  1.00  0.00     0.065 A 
ATOM      8  C   UNL A   1      31.898  29.009  25.077  1.00  0.00     0.042 A 
ATOM      9  C   UNL A   1      32.149  26.739  25.961  1.00  0.00     0.061 A 
ATOM     10  C   UNL A   1      32.225  27.330  27.233  1.00  0.00     0.029 A 
ATOM     11  C   UNL A   1      32.163  28.733  27.408  1.00  0.00     0.016 A 
BRANCH   7  12
ATOM     12  N   UNL A   1      31.927  27.193  23.552  1.00  0.00    -0.320 N 
ATOM     13  C   UNL A   1      30.919  27.321  22.612  1.00  0.00     0.255 C 
ATOM     14  O   UNL A   1      31.201  27.014  21.448  1.00  0.00    -0.269 OA
ATOM     15  H   UNL A   1      32.722  26.706  23.237  1.00  0.00     0.170 HD
BRANCH  13  16
ATOM     16  C   UNL A   1      29.526  27.808  22.880  1.00  0.00     0.043 A 
ATOM     17  C   UNL A   1      29.586  30.135  21.727  1.00  0.00     0.045 C 
ATOM     18  C   UNL A   1      28.938  29.043  22.529  1.00  0.00    -0.038 A 
ATOM     19  C   UNL A   1      27.613  29.310  22.948  1.00  0.00     0.004 A 
ATOM     20  C   UNL A   1      26.848  28.353  23.612  1.00  0.00     0.000 A 
ATOM     21  C   UNL A   1      28.715  26.839  23.512  1.00  0.00     0.014 A 
ATOM     22  C   UNL A   1      27.392  27.104  23.869  1.00  0.00     0.001 A 
ENDBRANCH  13  16
ENDBRANCH   7  12
BRANCH   9  23
ATOM     23  N   UNL A   1      32.286  25.370  25.771  1.00  0.00    -0.359 N 
ATOM     24  C   UNL A   1      33.331  24.520  26.398  1.00  0.00     0.178 C 
ATOM     25  C   UNL A   1      31.816  24.787  24.521  1.00  0.00     0.178 C 
ATOM     26  C   UNL A   1      33.024  22.967  26.262  1.00  0.00     0.284 C 
ATOM     27  C   UNL A   1      31.146  23.461  24.881  1.00  0.00     0.284 C 
ATOM     28  N   UNL A   1      32.172  22.465  25.153  1.00  0.00    -0.324 N 
ATOM     29  H   UNL A   1      31.787  21.591  25.513  1.00  0.00     0.348 HD
BRANCH  28  30
ATOM     30  C   UNL A   1      32.798  21.929  23.920  1.00  0.00     0.364 C 
BRANCH  30  31
ATOM     31  C   UNL A   1      33.580  22.875  23.008  1.00  0.00     0.279 C 
ATOM     32  O   UNL A   1      33.041  23.279  21.964  1.00  0.00    -0.268 OA
ATOM     33  N   UNL A   1      34.824  23.392  23.260  1.00  0.00    -0.321 N 
ATOM     34  H   UNL A   1      34.971  24.199  22.716  1.00  0.00     0.170 HD
BRANCH  33  35
ATOM     35  C   UNL A   1      35.963  23.129  24.059  1.00  0.00     0.041 A 
ATOM     36  C   UNL A   1      36.532  21.848  23.912  1.00  0.00     0.029 A 
ATOM     37  C   UNL A   1      36.502  23.944  25.047  1.00  0.00     0.029 A 
ATOM     38  C   UNL A   1      37.560  21.392  24.748  1.00  0.00     0.041 A 
ATOM     39  C   UNL A   1      37.484  23.471  25.939  1.00  0.00     0.041 A 
ATOM     40  C   UNL A   1      38.010  22.201  25.778  1.00  0.00     0.123 A 
ATOM     41  F   UNL A   1      38.963  21.756  26.608  1.00  0.00    -0.207 F 
ENDBRANCH  33  35
ENDBRANCH  30  31
ENDBRANCH  28  30
ENDBRANCH   9  23
ENDBRANCH   3   6
ENDBRANCH   1   2
BRANCH   1  42
ATOM     42  C   UNL A   1      35.138  32.421  27.994  1.00  0.00     0.042 C 
BRANCH  42  43
ATOM     43  C   UNL A   1      35.964  32.500  29.256  1.00  0.00     0.118 C 
BRANCH  43  44
ATOM     44  N   UNL A   1      35.739  31.377  30.172  1.00  0.00    -0.352 N 
ATOM     45  C   UNL A   1      36.512  30.231  30.290  1.00  0.00     0.251 C 
ATOM     46  H   UNL A   1      34.957  31.444  30.766  1.00  0.00     0.163 HD
ATOM     47  O   UNL A   1      36.236  29.359  31.111  1.00  0.00    -0.269 OA
BRANCH  45  48
ATOM     48  C   UNL A   1      37.722  30.158  29.446  1.00  0.00     0.039 A 
ATOM     49  C   UNL A   1      37.778  29.110  28.524  1.00  0.00     0.014 A 
ATOM     50  C   UNL A   1      38.879  30.761  29.934  1.00  0.00     0.014 A 
ATOM     51  C   UNL A   1      38.991  28.467  28.318  1.00  0.00     0.010 A 
ATOM     52  C   UNL A   1      40.063  30.059  29.812  1.00  0.00     0.010 A 
ATOM     53  C   UNL A   1      40.092  28.871  29.070  1.00  0.00    -0.014 A 
BRANCH  53  54
ATOM     54  C   UNL A   1      41.341  28.129  29.126  1.00  0.00     0.031 A 
ATOM     55  C   UNL A   1      41.289  26.679  28.897  1.00  0.00     0.074 A 
ATOM     56  C   UNL A   1      42.521  28.752  29.334  1.00  0.00     0.049 A 
ATOM     57  N   UNL A   1      42.186  25.842  29.287  1.00  0.00    -0.248 NA
ATOM     58  C   UNL A   1      40.132  26.055  28.267  1.00  0.00     0.031 C 
ATOM     59  C   UNL A   1      43.857  28.203  29.132  1.00  0.00     0.029 A 
ATOM     60  N   UNL A   1      42.741  29.947  30.025  1.00  0.00    -0.354 N 
ATOM     61  C   UNL A   1      41.883  24.631  28.702  1.00  0.00     0.074 A 
ATOM     62  C   UNL A   1      40.538  24.788  28.210  1.00  0.00     0.031 C 
ATOM     63  C   UNL A   1      44.720  28.874  29.911  1.00  0.00     0.029 A 
ATOM     64  C   UNL A   1      43.934  29.761  30.750  1.00  0.00     0.049 A 
ATOM     65  H   UNL A   1      42.176  30.753  30.008  1.00  0.00     0.167 HD
ATOM     66  C   UNL A   1      42.879  23.715  28.548  1.00  0.00     0.034 A 
ATOM     67  C   UNL A   1      44.021  29.852  32.110  1.00  0.00     0.034 A 
ATOM     68  C   UNL A   1      44.072  24.110  29.320  1.00  0.00     0.049 A 
ATOM     69  C   UNL A   1      44.567  28.590  32.758  1.00  0.00     0.074 A 
ATOM     70  C   UNL A   1      45.273  24.707  28.971  1.00  0.00     0.029 A 
ATOM     71  N   UNL A   1      43.997  24.172  30.710  1.00  0.00    -0.354 N 
ATOM     72  N   UNL A   1      44.754  27.461  32.131  1.00  0.00    -0.248 NA
ATOM     73  C   UNL A   1      44.904  28.495  34.174  1.00  0.00     0.031 C 
ATOM     74  C   UNL A   1      45.874  25.212  30.157  1.00  0.00     0.029 A 
ATOM     75  C   UNL A   1      45.060  24.896  31.232  1.00  0.00     0.049 A 
ATOM     76  H   UNL A   1      43.285  23.759  31.250  1.00  0.00     0.167 HD
ATOM     77  C   UNL A   1      45.095  26.478  33.028  1.00  0.00     0.074 A 
ATOM     78  C   UNL A   1      45.255  27.201  34.281  1.00  0.00     0.031 C 
ATOM     79  C   UNL A   1      45.154  25.155  32.669  1.00  0.00     0.034 A 
BRANCH  66  80
ATOM     80  C   UNL A   1      42.906  22.660  27.439  1.00  0.00     0.023 A 
ATOM     81  C   UNL A   1      42.060  21.540  27.597  1.00  0.00     0.012 A 
ATOM     82  C   UNL A   1      43.771  22.609  26.318  1.00  0.00     0.148 A 
ATOM     83  C   UNL A   1      42.136  20.410  26.769  1.00  0.00     0.002 A 
ATOM     84  C   UNL A   1      43.887  21.467  25.520  1.00  0.00     0.091 A 
ATOM     85  F   UNL A   1      44.455  23.687  25.944  1.00  0.00    -0.205 F 
ATOM     86  C   UNL A   1      43.073  20.359  25.749  1.00  0.00     0.022 A 
BRANCH  84  87
ATOM     87  S   UNL A   1      45.118  21.325  24.207  1.00  0.00     0.127 S 
ATOM     88  O   UNL A   1      45.047  19.902  23.871  1.00  0.00    -0.237 OA
ATOM     89  O   UNL A   1      44.582  22.219  23.181  1.00  0.00    -0.237 OA
ATOM     90  O   UNL A   1      46.391  21.738  24.785  1.00  0.00    -0.744 OA
ENDBRANCH  84  87
ENDBRANCH  66  80
BRANCH  67  91
ATOM     91  C   UNL A   1      42.990  30.753  32.710  1.00  0.00     0.023 A 
ATOM     92  C   UNL A   1      43.032  32.117  32.322  1.00  0.00     0.012 A 
ATOM     93  C   UNL A   1      41.803  30.243  33.257  1.00  0.00     0.148 A 
ATOM     94  C   UNL A   1      41.867  32.885  32.286  1.00  0.00     0.002 A 
ATOM     95  C   UNL A   1      40.652  31.027  33.244  1.00  0.00     0.091 A 
ATOM     96  F   UNL A   1      41.787  28.983  33.709  1.00  0.00    -0.205 F 
ATOM     97  C   UNL A   1      40.667  32.323  32.705  1.00  0.00     0.022 A 
BRANCH  95  98
ATOM     98  S   UNL A   1      39.086  30.352  33.812  1.00  0.00     0.127 S 
ATOM     99  O   UNL A   1      38.145  31.367  33.347  1.00  0.00    -0.237 OA
ATOM    100  O   UNL A   1      39.011  29.075  33.103  1.00  0.00    -0.237 OA
ATOM    101  O   UNL A   1      39.256  30.225  35.251  1.00  0.00    -0.744 OA
ENDBRANCH  95  98
ENDBRANCH  67  91
BRANCH  79 102
ATOM    102  C   UNL A   1      45.319  23.978  33.628  1.00  0.00     0.023 A 
ATOM    103  C   UNL A   1      44.276  23.074  33.910  1.00  0.00     0.012 A 
ATOM    104  C   UNL A   1      46.583  23.670  34.204  1.00  0.00     0.148 A 
ATOM    105  C   UNL A   1      44.439  21.986  34.776  1.00  0.00     0.002 A 
ATOM    106  C   UNL A   1      46.769  22.522  34.976  1.00  0.00     0.091 A 
ATOM    107  F   UNL A   1      47.618  24.504  34.031  1.00  0.00    -0.205 F 
ATOM    108  C   UNL A   1      45.690  21.698  35.296  1.00  0.00     0.022 A 
BRANCH 106 109
ATOM    109  S   UNL A   1      48.411  21.978  35.471  1.00  0.00     0.127 S 
ATOM    110  O   UNL A   1      49.104  21.893  34.188  1.00  0.00    -0.237 OA
ATOM    111  O   UNL A   1      48.860  23.077  36.331  1.00  0.00    -0.237 OA
ATOM    112  O   UNL A   1      48.203  20.721  36.176  1.00  0.00    -0.744 OA
ENDBRANCH 106 109
ENDBRANCH  79 102
ENDBRANCH  53  54
ENDBRANCH  45  48
ENDBRANCH  43  44
ENDBRANCH  42  43
ENDBRANCH   1  42
TORSDOF 19
ENDMDL
MODEL 3
REMARK VINA RESULT:     -13.9      1.844      2.374
REMARK SMILES Cc1ccccc1C(=O)Nc1cc(C(=O)NCCCNC(=O)c2ccc(-c3c4nc(c(-c5cccc(S(=O)(=O)[O-])c5F)c5ccc([nH]5)c(-c5cccc(S(=O)(=O)[O-])c5F)c5nc(c(-c6cccc(S(=O)(=O)[O-])c6F)c6ccc3[nH]6)C=C5)C=C4)cc2)ccc1N1CC[NH+](CC(=O)Nc2ccc(F)cc2)CC1
REMARK SMILES IDX 17 1 16 2 14 3 15 4 13 6 11 7 12 8 88 9 87 10 86 11 10 12
REMARK SMILES IDX 8 13 9 14 7 16 1 17 2 18 3 19 4 20 6 21 5 22 89 23 90 24
REMARK SMILES IDX 105 25 91 26 104 27 92 28 93 30 94 31 95 32 96 33 97 35
REMARK SMILES IDX 98 36 103 37 99 38 102 39 100 40 101 41 18 42 19 43 20 44
REMARK SMILES IDX 21 45 22 47 23 48 24 49 85 50 25 51 84 52 26 53 27 54 28 55
REMARK SMILES IDX 78 56 29 57 83 58 77 59 79 60 30 61 82 62 76 63 75 64 31 66
REMARK SMILES IDX 63 67 43 68 62 69 44 70 47 71 61 72 80 73 45 74 46 75 60 77
REMARK SMILES IDX 81 78 48 79 32 80 33 81 41 82 34 83 36 84 42 85 35 86 37 87
REMARK SMILES IDX 38 88 39 89 40 90 64 91 65 92 73 93 66 94 68 95 74 96 67 97
REMARK SMILES IDX 69 98 70 99 71 100 72 101 49 102 50 103 58 104 51 105 53 106
REMARK SMILES IDX 59 107 52 108 54 109 55 110 56 111 57 112
REMARK H PARENT 16 5 10 15 92 29 96 34 20 46 79 65 47 76
REMARK Flexibility Score: inf
ROOT
ATOM      1  C   UNL A   1      33.469  31.785  28.049  1.00  0.00     0.118 C 
ENDROOT
BRANCH   1   2
ATOM      2  N   UNL A   1      32.465  31.989  27.007  1.00  0.00    -0.352 N 
ATOM      3  C   UNL A   1      31.613  31.140  26.326  1.00  0.00     0.251 C 
ATOM      4  O   UNL A   1      30.690  31.640  25.683  1.00  0.00    -0.269 OA
ATOM      5  H   UNL A   1      32.377  32.930  26.731  1.00  0.00     0.163 HD
BRANCH   3   6
ATOM      6  C   UNL A   1      31.738  29.651  26.310  1.00  0.00     0.042 A 
ATOM      7  C   UNL A   1      31.873  27.536  25.127  1.00  0.00     0.065 A 
ATOM      8  C   UNL A   1      31.751  28.914  25.146  1.00  0.00     0.042 A 
ATOM      9  C   UNL A   1      31.938  26.774  26.321  1.00  0.00     0.061 A 
ATOM     10  C   UNL A   1      31.914  27.517  27.512  1.00  0.00     0.029 A 
ATOM     11  C   UNL A   1      31.836  28.930  27.508  1.00  0.00     0.016 A 
BRANCH   7  12
ATOM     12  N   UNL A   1      31.902  26.925  23.864  1.00  0.00    -0.320 N 
ATOM     13  C   UNL A   1      31.145  27.164  22.730  1.00  0.00     0.255 C 
ATOM     14  O   UNL A   1      31.524  26.623  21.684  1.00  0.00    -0.269 OA
ATOM     15  H   UNL A   1      32.570  26.208  23.769  1.00  0.00     0.170 HD
BRANCH  13  16
ATOM     16  C   UNL A   1      29.920  28.026  22.658  1.00  0.00     0.043 A 
ATOM     17  C   UNL A   1      28.224  26.583  23.997  1.00  0.00     0.045 C 
ATOM     18  C   UNL A   1      28.631  27.775  23.177  1.00  0.00    -0.038 A 
ATOM     19  C   UNL A   1      27.603  28.715  22.931  1.00  0.00     0.004 A 
ATOM     20  C   UNL A   1      27.853  29.917  22.273  1.00  0.00     0.000 A 
ATOM     21  C   UNL A   1      30.158  29.272  22.036  1.00  0.00     0.014 A 
ATOM     22  C   UNL A   1      29.141  30.209  21.849  1.00  0.00     0.001 A 
ENDBRANCH  13  16
ENDBRANCH   7  12
BRANCH   9  23
ATOM     23  N   UNL A   1      32.092  25.393  26.312  1.00  0.00    -0.359 N 
ATOM     24  C   UNL A   1      33.388  24.679  26.171  1.00  0.00     0.178 C 
ATOM     25  C   UNL A   1      30.984  24.568  25.848  1.00  0.00     0.178 C 
ATOM     26  C   UNL A   1      33.281  23.136  26.536  1.00  0.00     0.284 C 
ATOM     27  C   UNL A   1      30.921  23.356  26.779  1.00  0.00     0.284 C 
ATOM     28  N   UNL A   1      31.982  22.425  26.422  1.00  0.00    -0.324 N 
ATOM     29  H   UNL A   1      32.064  21.651  27.083  1.00  0.00     0.348 HD
BRANCH  28  30
ATOM     30  C   UNL A   1      31.673  21.634  25.207  1.00  0.00     0.364 C 
BRANCH  30  31
ATOM     31  C   UNL A   1      32.795  21.309  24.222  1.00  0.00     0.279 C 
ATOM     32  O   UNL A   1      33.092  22.147  23.355  1.00  0.00    -0.268 OA
ATOM     33  N   UNL A   1      33.578  20.183  24.236  1.00  0.00    -0.321 N 
ATOM     34  H   UNL A   1      34.411  20.344  23.737  1.00  0.00     0.170 HD
BRANCH  33  35
ATOM     35  C   UNL A   1      33.563  18.862  24.745  1.00  0.00     0.041 A 
ATOM     36  C   UNL A   1      34.627  18.035  24.335  1.00  0.00     0.029 A 
ATOM     37  C   UNL A   1      32.559  18.265  25.499  1.00  0.00     0.029 A 
ATOM     38  C   UNL A   1      34.659  16.665  24.630  1.00  0.00     0.041 A 
ATOM     39  C   UNL A   1      32.544  16.876  25.739  1.00  0.00     0.041 A 
ATOM     40  C   UNL A   1      33.598  16.089  25.308  1.00  0.00     0.123 A 
ATOM     41  F   UNL A   1      33.600  14.772  25.555  1.00  0.00    -0.207 F 
ENDBRANCH  33  35
ENDBRANCH  30  31
ENDBRANCH  28  30
ENDBRANCH   9  23
ENDBRANCH   3   6
ENDBRANCH   1   2
BRANCH   1  42
ATOM     42  C   UNL A   1      34.845  31.322  27.549  1.00  0.00     0.042 C 
BRANCH  42  43
ATOM     43  C   UNL A   1      35.986  32.206  27.994  1.00  0.00     0.118 C 
BRANCH  43  44
ATOM     44  N   UNL A   1      36.127  32.290  29.451  1.00  0.00    -0.352 N 
ATOM     45  C   UNL A   1      36.776  31.385  30.278  1.00  0.00     0.251 C 
ATOM     46  H   UNL A   1      35.717  33.072  29.888  1.00  0.00     0.163 HD
ATOM     47  O   UNL A   1      36.847  31.569  31.490  1.00  0.00    -0.269 OA
BRANCH  45  48
ATOM     48  C   UNL A   1      37.446  30.247  29.617  1.00  0.00     0.039 A 
ATOM     49  C   UNL A   1      37.510  29.053  30.341  1.00  0.00     0.014 A 
ATOM     50  C   UNL A   1      38.372  30.542  28.619  1.00  0.00     0.014 A 
ATOM     51  C   UNL A   1      38.669  28.292  30.273  1.00  0.00     0.010 A 
ATOM     52  C   UNL A   1      39.565  29.845  28.629  1.00  0.00     0.010 A 
ATOM     53  C   UNL A   1      39.735  28.773  29.516  1.00  0.00    -0.014 A 
BRANCH  53  54
ATOM     54  C   UNL A   1      41.071  28.202  29.558  1.00  0.00     0.031 A 
ATOM     55  C   UNL A   1      41.233  26.803  29.140  1.00  0.00     0.074 A 
ATOM     56  C   UNL A   1      42.140  28.940  29.924  1.00  0.00     0.049 A 
ATOM     57  N   UNL A   1      42.218  26.045  29.477  1.00  0.00    -0.248 NA
ATOM     58  C   UNL A   1      40.206  26.125  28.358  1.00  0.00     0.031 C 
ATOM     59  C   UNL A   1      43.548  28.605  29.743  1.00  0.00     0.029 A 
ATOM     60  N   UNL A   1      42.157  30.047  30.778  1.00  0.00    -0.354 N 
ATOM     61  C   UNL A   1      42.116  24.898  28.720  1.00  0.00     0.074 A 
ATOM     62  C   UNL A   1      40.788  24.942  28.163  1.00  0.00     0.031 C 
ATOM     63  C   UNL A   1      44.271  29.270  30.658  1.00  0.00     0.029 A 
ATOM     64  C   UNL A   1      43.328  29.921  31.551  1.00  0.00     0.049 A 
ATOM     65  H   UNL A   1      41.488  30.766  30.828  1.00  0.00     0.167 HD
ATOM     66  C   UNL A   1      43.236  24.151  28.515  1.00  0.00     0.034 A 
ATOM     67  C   UNL A   1      43.335  29.834  32.914  1.00  0.00     0.034 A 
ATOM     68  C   UNL A   1      44.323  24.590  29.411  1.00  0.00     0.049 A 
ATOM     69  C   UNL A   1      44.019  28.578  33.428  1.00  0.00     0.074 A 
ATOM     70  C   UNL A   1      45.444  25.382  29.224  1.00  0.00     0.029 A 
ATOM     71  N   UNL A   1      44.173  24.449  30.789  1.00  0.00    -0.354 N 
ATOM     72  N   UNL A   1      44.393  27.580  32.673  1.00  0.00    -0.248 NA
ATOM     73  C   UNL A   1      44.297  28.334  34.839  1.00  0.00     0.031 C 
ATOM     74  C   UNL A   1      45.911  25.794  30.503  1.00  0.00     0.029 A 
ATOM     75  C   UNL A   1      45.097  25.227  31.471  1.00  0.00     0.049 A 
ATOM     76  H   UNL A   1      43.499  23.875  31.222  1.00  0.00     0.167 HD
ATOM     77  C   UNL A   1      44.823  26.537  33.456  1.00  0.00     0.074 A 
ATOM     78  C   UNL A   1      44.820  27.095  34.799  1.00  0.00     0.031 C 
ATOM     79  C   UNL A   1      45.084  25.295  32.933  1.00  0.00     0.034 A 
BRANCH  66  80
ATOM     80  C   UNL A   1      43.464  23.272  27.284  1.00  0.00     0.023 A 
ATOM     81  C   UNL A   1      43.927  23.914  26.113  1.00  0.00     0.012 A 
ATOM     82  C   UNL A   1      43.151  21.898  27.135  1.00  0.00     0.148 A 
ATOM     83  C   UNL A   1      43.978  23.271  24.867  1.00  0.00     0.002 A 
ATOM     84  C   UNL A   1      43.153  21.266  25.888  1.00  0.00     0.091 A 
ATOM     85  F   UNL A   1      42.914  21.142  28.203  1.00  0.00    -0.205 F 
ATOM     86  C   UNL A   1      43.560  21.955  24.747  1.00  0.00     0.022 A 
BRANCH  84  87
ATOM     87  S   UNL A   1      42.577  19.569  25.663  1.00  0.00     0.127 S 
ATOM     88  O   UNL A   1      41.133  19.752  25.511  1.00  0.00    -0.237 OA
ATOM     89  O   UNL A   1      43.271  19.166  24.441  1.00  0.00    -0.237 OA
ATOM     90  O   UNL A   1      42.962  18.838  26.864  1.00  0.00    -0.744 OA
ENDBRANCH  84  87
ENDBRANCH  66  80
BRANCH  67  91
ATOM     91  C   UNL A   1      42.160  30.501  33.556  1.00  0.00     0.023 A 
ATOM     92  C   UNL A   1      41.140  29.651  34.056  1.00  0.00     0.012 A 
ATOM     93  C   UNL A   1      42.240  31.816  34.037  1.00  0.00     0.148 A 
ATOM     94  C   UNL A   1      40.362  30.036  35.148  1.00  0.00     0.002 A 
ATOM     95  C   UNL A   1      41.439  32.201  35.110  1.00  0.00     0.091 A 
ATOM     96  F   UNL A   1      43.142  32.649  33.503  1.00  0.00    -0.205 F 
ATOM     97  C   UNL A   1      40.545  31.296  35.705  1.00  0.00     0.022 A 
BRANCH  95  98
ATOM     98  S   UNL A   1      41.616  33.835  35.836  1.00  0.00     0.127 S 
ATOM     99  O   UNL A   1      43.066  33.947  35.954  1.00  0.00    -0.237 OA
ATOM    100  O   UNL A   1      41.013  34.702  34.824  1.00  0.00    -0.237 OA
ATOM    101  O   UNL A   1      40.861  33.755  37.077  1.00  0.00    -0.744 OA
ENDBRANCH  95  98
ENDBRANCH  67  91
BRANCH  79 102
ATOM    102  C   UNL A   1      45.365  24.030  33.739  1.00  0.00     0.023 A 
ATOM    103  C   UNL A   1      44.404  23.015  33.922  1.00  0.00     0.012 A 
ATOM    104  C   UNL A   1      46.661  23.760  34.258  1.00  0.00     0.148 A 
ATOM    105  C   UNL A   1      44.674  21.848  34.647  1.00  0.00     0.002 A 
ATOM    106  C   UNL A   1      46.956  22.548  34.882  1.00  0.00     0.091 A 
ATOM    107  F   UNL A   1      47.622  24.692  34.176  1.00  0.00    -0.205 F 
ATOM    108  C   UNL A   1      45.955  21.605  35.113  1.00  0.00     0.022 A 
BRANCH 106 109
ATOM    109  S   UNL A   1      48.648  22.086  35.288  1.00  0.00     0.127 S 
ATOM    110  O   UNL A   1      48.997  23.074  36.306  1.00  0.00    -0.237 OA
ATOM    111  O   UNL A   1      48.488  20.722  35.796  1.00  0.00    -0.237 OA
ATOM    112  O   UNL A   1      49.381  22.169  34.032  1.00  0.00    -0.744 OA
ENDBRANCH 106 109
ENDBRANCH  79 102
ENDBRANCH  53  54
ENDBRANCH  45  48
ENDBRANCH  43  44
ENDBRANCH  42  43
ENDBRANCH   1  42
TORSDOF 19
ENDMDL
