MODEL 1
REMARK VINA RESULT:     -11.4      0.000      0.000
REMARK SMILES CCOc1cc(NC(=O)c2c(C(=O)NCCCNC(=O)c3ccc(-c4c5nc(c(-c6cccc(S(=O)(=O)[O-])c6F)c6ccc([nH]6)c(-c6cccc(S(=O)(=O)[O-])c6F)c6nc(c(-c7cccc(S(=O)(=O)[O-])c7F)c7ccc4[nH]7)C=C6)C=C5)cc3)cnn2C)ccc1OC(F)F
REMARK SMILES IDX 15 1 14 2 12 3 13 4 11 6 10 7 86 8 84 9 85 10 87 11 8 12
REMARK SMILES IDX 7 13 9 15 6 16 4 17 5 18 90 19 89 20 88 21 3 22 2 23 1 24
REMARK SMILES IDX 91 25 92 26 93 27 94 28 16 29 17 30 18 31 19 32 20 34 21 35
REMARK SMILES IDX 22 36 83 37 23 38 82 39 24 40 25 41 26 42 76 43 27 44 81 45
REMARK SMILES IDX 75 46 77 47 28 48 80 49 74 50 73 51 29 53 61 54 41 55 60 56
REMARK SMILES IDX 42 57 45 58 59 59 78 60 43 61 44 62 58 64 79 65 46 66 30 67
REMARK SMILES IDX 31 68 39 69 32 70 34 71 40 72 33 73 35 74 36 75 37 76 38 77
REMARK SMILES IDX 62 78 63 79 71 80 64 81 66 82 72 83 65 84 67 85 68 86 69 87
REMARK SMILES IDX 70 88 47 89 48 90 56 91 49 92 51 93 57 94 50 95 52 96 53 97
REMARK SMILES IDX 54 98 55 99
REMARK H PARENT 14 5 7 14 18 33 77 52 45 63
REMARK Flexibility Score: inf
ROOT
ATOM      1  C   UNL A   1      31.562  30.473  25.479  1.00  0.00     0.118 C 
ENDROOT
BRANCH   1   2
ATOM      2  N   UNL A   1      32.720  29.777  24.958  1.00  0.00    -0.352 N 
ATOM      3  C   UNL A   1      33.040  28.461  24.782  1.00  0.00     0.255 C 
ATOM      4  O   UNL A   1      34.172  28.266  24.327  1.00  0.00    -0.269 OA
ATOM      5  H   UNL A   1      33.433  30.388  24.663  1.00  0.00     0.163 HD
BRANCH   3   6
ATOM      6  C   UNL A   1      32.192  27.316  25.094  1.00  0.00     0.090 A 
ATOM      7  C   UNL A   1      31.764  26.175  24.417  1.00  0.00     0.138 A 
ATOM      8  N   UNL A   1      31.105  25.409  25.354  1.00  0.00    -0.262 N 
ATOM      9  C   UNL A   1      31.632  27.147  26.394  1.00  0.00     0.149 A 
ATOM     10  N   UNL A   1      30.948  26.015  26.541  1.00  0.00    -0.180 NA
ATOM     11  C   UNL A   1      30.544  24.086  25.189  1.00  0.00     0.174 C 
BRANCH   7  12
ATOM     12  C   UNL A   1      32.021  25.697  23.094  1.00  0.00     0.274 C 
ATOM     13  N   UNL A   1      32.951  24.706  22.864  1.00  0.00    -0.321 N 
ATOM     14  H   UNL A   1      33.071  24.515  21.905  1.00  0.00     0.170 HD
ATOM     15  O   UNL A   1      31.422  26.154  22.121  1.00  0.00    -0.267 OA
BRANCH  13  16
ATOM     16  C   UNL A   1      33.772  23.900  23.685  1.00  0.00     0.045 A 
ATOM     17  C   UNL A   1      34.606  21.805  24.620  1.00  0.00     0.163 A 
ATOM     18  C   UNL A   1      33.760  22.505  23.743  1.00  0.00     0.076 A 
ATOM     19  C   UNL A   1      35.553  22.499  25.372  1.00  0.00     0.168 A 
ATOM     20  C   UNL A   1      35.604  23.889  25.295  1.00  0.00     0.053 A 
ATOM     21  C   UNL A   1      34.697  24.584  24.488  1.00  0.00     0.030 A 
BRANCH  17  22
ATOM     22  O   UNL A   1      34.580  20.436  24.696  1.00  0.00    -0.490 OA
BRANCH  22  23
ATOM     23  C   UNL A   1      33.438  19.920  25.389  1.00  0.00     0.226 C 
ATOM     24  C   UNL A   1      32.523  19.249  24.381  1.00  0.00     0.049 C 
ENDBRANCH  22  23
ENDBRANCH  17  22
BRANCH  19  25
ATOM     25  O   UNL A   1      36.531  21.904  26.111  1.00  0.00    -0.431 OA
BRANCH  25  26
ATOM     26  C   UNL A   1      37.788  21.742  25.470  1.00  0.00     0.542 C 
ATOM     27  F   UNL A   1      37.673  21.704  24.116  1.00  0.00    -0.167 F 
ATOM     28  F   UNL A   1      38.590  22.791  25.783  1.00  0.00    -0.167 F 
ENDBRANCH  25  26
ENDBRANCH  19  25
ENDBRANCH  13  16
ENDBRANCH   7  12
ENDBRANCH   3   6
ENDBRANCH   1   2
BRANCH   1  29
ATOM     29  C   UNL A   1      31.775  31.092  26.863  1.00  0.00     0.042 C 
BRANCH  29  30
ATOM     30  C   UNL A   1      32.966  32.032  27.006  1.00  0.00     0.118 C 
BRANCH  30  31
ATOM     31  N   UNL A   1      32.624  33.377  27.438  1.00  0.00    -0.352 N 
ATOM     32  C   UNL A   1      33.194  34.226  28.358  1.00  0.00     0.251 C 
ATOM     33  H   UNL A   1      31.834  33.752  26.986  1.00  0.00     0.163 HD
ATOM     34  O   UNL A   1      32.643  35.304  28.580  1.00  0.00    -0.269 OA
BRANCH  32  35
ATOM     35  C   UNL A   1      34.409  33.867  29.131  1.00  0.00     0.039 A 
ATOM     36  C   UNL A   1      34.249  33.078  30.279  1.00  0.00     0.014 A 
ATOM     37  C   UNL A   1      35.686  34.314  28.792  1.00  0.00     0.014 A 
ATOM     38  C   UNL A   1      35.365  32.659  31.014  1.00  0.00     0.010 A 
ATOM     39  C   UNL A   1      36.805  33.831  29.475  1.00  0.00     0.010 A 
ATOM     40  C   UNL A   1      36.660  32.984  30.582  1.00  0.00    -0.014 A 
BRANCH  40  41
ATOM     41  C   UNL A   1      37.870  32.401  31.225  1.00  0.00     0.031 A 
ATOM     42  C   UNL A   1      38.587  31.231  30.607  1.00  0.00     0.074 A 
ATOM     43  C   UNL A   1      38.251  32.851  32.439  1.00  0.00     0.049 A 
ATOM     44  N   UNL A   1      39.558  30.506  31.101  1.00  0.00    -0.248 NA
ATOM     45  C   UNL A   1      38.141  30.805  29.271  1.00  0.00     0.031 C 
ATOM     46  C   UNL A   1      37.600  33.933  33.181  1.00  0.00     0.029 A 
ATOM     47  N   UNL A   1      39.254  32.433  33.281  1.00  0.00    -0.354 N 
ATOM     48  C   UNL A   1      39.807  29.511  30.164  1.00  0.00     0.074 A 
ATOM     49  C   UNL A   1      38.878  29.719  29.072  1.00  0.00     0.031 C 
ATOM     50  C   UNL A   1      38.213  34.090  34.363  1.00  0.00     0.029 A 
ATOM     51  C   UNL A   1      39.276  33.098  34.486  1.00  0.00     0.049 A 
ATOM     52  H   UNL A   1      39.895  31.723  33.044  1.00  0.00     0.167 HD
ATOM     53  C   UNL A   1      40.741  28.531  30.193  1.00  0.00     0.034 A 
ATOM     54  C   UNL A   1      40.050  32.923  35.576  1.00  0.00     0.034 A 
ATOM     55  C   UNL A   1      41.715  28.366  31.239  1.00  0.00     0.049 A 
ATOM     56  C   UNL A   1      41.112  31.857  35.559  1.00  0.00     0.074 A 
ATOM     57  C   UNL A   1      42.765  27.466  31.303  1.00  0.00     0.029 A 
ATOM     58  N   UNL A   1      41.766  29.121  32.399  1.00  0.00    -0.354 N 
ATOM     59  N   UNL A   1      41.424  31.023  34.599  1.00  0.00    -0.248 NA
ATOM     60  C   UNL A   1      41.942  31.724  36.765  1.00  0.00     0.031 C 
ATOM     61  C   UNL A   1      43.453  27.681  32.502  1.00  0.00     0.029 A 
ATOM     62  C   UNL A   1      42.826  28.706  33.188  1.00  0.00     0.049 A 
ATOM     63  H   UNL A   1      41.140  29.846  32.629  1.00  0.00     0.167 HD
ATOM     64  C   UNL A   1      42.494  30.276  35.076  1.00  0.00     0.074 A 
ATOM     65  C   UNL A   1      42.796  30.776  36.402  1.00  0.00     0.031 C 
ATOM     66  C   UNL A   1      43.150  29.250  34.482  1.00  0.00     0.034 A 
BRANCH  53  67
ATOM     67  C   UNL A   1      40.813  27.600  29.013  1.00  0.00     0.023 A 
ATOM     68  C   UNL A   1      39.911  26.520  28.941  1.00  0.00     0.012 A 
ATOM     69  C   UNL A   1      41.712  27.824  27.953  1.00  0.00     0.148 A 
ATOM     70  C   UNL A   1      39.915  25.664  27.840  1.00  0.00     0.002 A 
ATOM     71  C   UNL A   1      41.692  26.983  26.846  1.00  0.00     0.091 A 
ATOM     72  F   UNL A   1      42.581  28.841  28.053  1.00  0.00    -0.205 F 
ATOM     73  C   UNL A   1      40.798  25.901  26.789  1.00  0.00     0.022 A 
BRANCH  71  74
ATOM     74  S   UNL A   1      42.755  27.246  25.420  1.00  0.00     0.127 S 
ATOM     75  O   UNL A   1      42.153  28.434  24.819  1.00  0.00    -0.237 OA
ATOM     76  O   UNL A   1      44.062  27.472  26.040  1.00  0.00    -0.237 OA
ATOM     77  O   UNL A   1      42.667  26.024  24.633  1.00  0.00    -0.744 OA
ENDBRANCH  71  74
ENDBRANCH  53  67
BRANCH  54  78
ATOM     78  C   UNL A   1      39.888  33.832  36.746  1.00  0.00     0.023 A 
ATOM     79  C   UNL A   1      38.820  33.612  37.638  1.00  0.00     0.012 A 
ATOM     80  C   UNL A   1      40.809  34.860  37.024  1.00  0.00     0.148 A 
ATOM     81  C   UNL A   1      38.664  34.409  38.773  1.00  0.00     0.002 A 
ATOM     82  C   UNL A   1      40.681  35.612  38.188  1.00  0.00     0.091 A 
ATOM     83  F   UNL A   1      41.810  35.076  36.158  1.00  0.00    -0.205 F 
ATOM     84  C   UNL A   1      39.601  35.400  39.056  1.00  0.00     0.022 A 
BRANCH  82  85
ATOM     85  S   UNL A   1      41.962  36.774  38.680  1.00  0.00     0.127 S 
ATOM     86  O   UNL A   1      42.813  35.957  39.538  1.00  0.00    -0.237 OA
ATOM     87  O   UNL A   1      42.568  37.155  37.402  1.00  0.00    -0.237 OA
ATOM     88  O   UNL A   1      41.238  37.865  39.324  1.00  0.00    -0.744 OA
ENDBRANCH  82  85
ENDBRANCH  54  78
BRANCH  66  89
ATOM     89  C   UNL A   1      44.257  28.590  35.256  1.00  0.00     0.023 A 
ATOM     90  C   UNL A   1      45.578  29.046  35.082  1.00  0.00     0.012 A 
ATOM     91  C   UNL A   1      43.990  27.582  36.203  1.00  0.00     0.148 A 
ATOM     92  C   UNL A   1      46.622  28.500  35.828  1.00  0.00     0.002 A 
ATOM     93  C   UNL A   1      45.032  27.063  36.965  1.00  0.00     0.091 A 
ATOM     94  F   UNL A   1      42.731  27.142  36.335  1.00  0.00    -0.205 F 
ATOM     95  C   UNL A   1      46.347  27.517  36.776  1.00  0.00     0.022 A 
BRANCH  93  96
ATOM     96  S   UNL A   1      44.744  25.847  38.257  1.00  0.00     0.127 S 
ATOM     97  O   UNL A   1      43.840  26.569  39.150  1.00  0.00    -0.237 OA
ATOM     98  O   UNL A   1      44.124  24.742  37.525  1.00  0.00    -0.237 OA
ATOM     99  O   UNL A   1      46.061  25.539  38.801  1.00  0.00    -0.744 OA
ENDBRANCH  93  96
ENDBRANCH  66  89
ENDBRANCH  40  41
ENDBRANCH  32  35
ENDBRANCH  30  31
ENDBRANCH  29  30
ENDBRANCH   1  29
TORSDOF 19
ENDMDL
MODEL 2
REMARK VINA RESULT:     -10.9      1.615      7.532
REMARK SMILES CCOc1cc(NC(=O)c2c(C(=O)NCCCNC(=O)c3ccc(-c4c5nc(c(-c6cccc(S(=O)(=O)[O-])c6F)c6ccc([nH]6)c(-c6cccc(S(=O)(=O)[O-])c6F)c6nc(c(-c7cccc(S(=O)(=O)[O-])c7F)c7ccc4[nH]7)C=C6)C=C5)cc3)cnn2C)ccc1OC(F)F
REMARK SMILES IDX 15 1 14 2 12 3 13 4 11 6 10 7 86 8 84 9 85 10 87 11 8 12
REMARK SMILES IDX 7 13 9 15 6 16 4 17 5 18 90 19 89 20 88 21 3 22 2 23 1 24
REMARK SMILES IDX 91 25 92 26 93 27 94 28 16 29 17 30 18 31 19 32 20 34 21 35
REMARK SMILES IDX 22 36 83 37 23 38 82 39 24 40 25 41 26 42 76 43 27 44 81 45
REMARK SMILES IDX 75 46 77 47 28 48 80 49 74 50 73 51 29 53 61 54 41 55 60 56
REMARK SMILES IDX 42 57 45 58 59 59 78 60 43 61 44 62 58 64 79 65 46 66 30 67
REMARK SMILES IDX 31 68 39 69 32 70 34 71 40 72 33 73 35 74 36 75 37 76 38 77
REMARK SMILES IDX 62 78 63 79 71 80 64 81 66 82 72 83 65 84 67 85 68 86 69 87
REMARK SMILES IDX 70 88 47 89 48 90 56 91 49 92 51 93 57 94 50 95 52 96 53 97
REMARK SMILES IDX 54 98 55 99
REMARK H PARENT 14 5 7 14 18 33 77 52 45 63
REMARK Flexibility Score: inf
ROOT
ATOM      1  C   UNL A   1      31.620  30.651  25.542  1.00  0.00     0.118 C 
ENDROOT
BRANCH   1   2
ATOM      2  N   UNL A   1      32.846  29.986  25.156  1.00  0.00    -0.352 N 
ATOM      3  C   UNL A   1      33.140  28.756  24.640  1.00  0.00     0.255 C 
ATOM      4  O   UNL A   1      34.347  28.544  24.477  1.00  0.00    -0.269 OA
ATOM      5  H   UNL A   1      33.645  30.544  25.294  1.00  0.00     0.163 HD
BRANCH   3   6
ATOM      6  C   UNL A   1      32.183  27.710  24.300  1.00  0.00     0.090 A 
ATOM      7  C   UNL A   1      32.101  26.704  23.338  1.00  0.00     0.138 A 
ATOM      8  N   UNL A   1      30.999  25.949  23.679  1.00  0.00    -0.262 N 
ATOM      9  C   UNL A   1      31.014  27.497  25.087  1.00  0.00     0.149 A 
ATOM     10  N   UNL A   1      30.282  26.458  24.692  1.00  0.00    -0.180 NA
ATOM     11  C   UNL A   1      30.524  24.734  23.055  1.00  0.00     0.174 C 
BRANCH   7  12
ATOM     12  C   UNL A   1      32.982  26.320  22.279  1.00  0.00     0.274 C 
ATOM     13  N   UNL A   1      33.853  25.262  22.426  1.00  0.00    -0.321 N 
ATOM     14  H   UNL A   1      34.443  25.146  21.646  1.00  0.00     0.170 HD
ATOM     15  O   UNL A   1      32.992  26.923  21.206  1.00  0.00    -0.267 OA
BRANCH  13  16
ATOM     16  C   UNL A   1      34.097  24.305  23.438  1.00  0.00     0.045 A 
ATOM     17  C   UNL A   1      34.230  22.061  24.388  1.00  0.00     0.163 A 
ATOM     18  C   UNL A   1      33.988  22.920  23.303  1.00  0.00     0.076 A 
ATOM     19  C   UNL A   1      34.689  22.583  25.597  1.00  0.00     0.168 A 
ATOM     20  C   UNL A   1      34.840  23.960  25.735  1.00  0.00     0.053 A 
ATOM     21  C   UNL A   1      34.512  24.815  24.678  1.00  0.00     0.030 A 
BRANCH  17  22
ATOM     22  O   UNL A   1      34.101  20.702  24.265  1.00  0.00    -0.490 OA
BRANCH  22  23
ATOM     23  C   UNL A   1      32.762  20.273  23.994  1.00  0.00     0.226 C 
ATOM     24  C   UNL A   1      32.486  19.014  24.796  1.00  0.00     0.049 C 
ENDBRANCH  22  23
ENDBRANCH  17  22
BRANCH  19  25
ATOM     25  O   UNL A   1      35.120  21.824  26.644  1.00  0.00    -0.431 OA
BRANCH  25  26
ATOM     26  C   UNL A   1      34.171  21.578  27.670  1.00  0.00     0.542 C 
ATOM     27  F   UNL A   1      34.115  22.593  28.574  1.00  0.00    -0.167 F 
ATOM     28  F   UNL A   1      32.936  21.454  27.120  1.00  0.00    -0.167 F 
ENDBRANCH  25  26
ENDBRANCH  19  25
ENDBRANCH  13  16
ENDBRANCH   7  12
ENDBRANCH   3   6
ENDBRANCH   1   2
BRANCH   1  29
ATOM     29  C   UNL A   1      31.704  31.393  26.877  1.00  0.00     0.042 C 
BRANCH  29  30
ATOM     30  C   UNL A   1      32.922  32.287  27.077  1.00  0.00     0.118 C 
BRANCH  30  31
ATOM     31  N   UNL A   1      32.615  33.625  27.556  1.00  0.00    -0.352 N 
ATOM     32  C   UNL A   1      33.147  34.391  28.567  1.00  0.00     0.251 C 
ATOM     33  H   UNL A   1      31.888  34.069  27.062  1.00  0.00     0.163 HD
ATOM     34  O   UNL A   1      32.637  35.486  28.803  1.00  0.00    -0.269 OA
BRANCH  32  35
ATOM     35  C   UNL A   1      34.271  33.922  29.417  1.00  0.00     0.039 A 
ATOM     36  C   UNL A   1      33.966  33.129  30.532  1.00  0.00     0.014 A 
ATOM     37  C   UNL A   1      35.601  34.272  29.181  1.00  0.00     0.014 A 
ATOM     38  C   UNL A   1      34.989  32.610  31.335  1.00  0.00     0.010 A 
ATOM     39  C   UNL A   1      36.625  33.689  29.931  1.00  0.00     0.010 A 
ATOM     40  C   UNL A   1      36.334  32.837  31.005  1.00  0.00    -0.014 A 
BRANCH  40  41
ATOM     41  C   UNL A   1      37.444  32.149  31.719  1.00  0.00     0.031 A 
ATOM     42  C   UNL A   1      37.941  32.654  33.046  1.00  0.00     0.074 A 
ATOM     43  C   UNL A   1      38.090  31.134  31.107  1.00  0.00     0.049 A 
ATOM     44  N   UNL A   1      38.989  32.274  33.732  1.00  0.00    -0.248 NA
ATOM     45  C   UNL A   1      37.178  33.745  33.674  1.00  0.00     0.031 C 
ATOM     46  C   UNL A   1      37.754  30.592  29.789  1.00  0.00     0.029 A 
ATOM     47  N   UNL A   1      39.187  30.402  31.493  1.00  0.00    -0.354 N 
ATOM     48  C   UNL A   1      39.040  33.105  34.844  1.00  0.00     0.074 A 
ATOM     49  C   UNL A   1      37.922  34.020  34.738  1.00  0.00     0.031 C 
ATOM     50  C   UNL A   1      38.624  29.621  29.475  1.00  0.00     0.029 A 
ATOM     51  C   UNL A   1      39.605  29.494  30.547  1.00  0.00     0.049 A 
ATOM     52  H   UNL A   1      39.632  30.517  32.365  1.00  0.00     0.167 HD
ATOM     53  C   UNL A   1      39.919  33.093  35.875  1.00  0.00     0.034 A 
ATOM     54  C   UNL A   1      40.667  28.662  30.530  1.00  0.00     0.034 A 
ATOM     55  C   UNL A   1      40.986  32.139  36.023  1.00  0.00     0.049 A 
ATOM     56  C   UNL A   1      41.597  28.637  31.712  1.00  0.00     0.074 A 
ATOM     57  C   UNL A   1      41.860  31.985  37.084  1.00  0.00     0.029 A 
ATOM     58  N   UNL A   1      41.318  31.172  35.087  1.00  0.00    -0.354 N 
ATOM     59  N   UNL A   1      41.539  29.334  32.820  1.00  0.00    -0.248 NA
ATOM     60  C   UNL A   1      42.726  27.696  31.652  1.00  0.00     0.031 C 
ATOM     61  C   UNL A   1      42.721  30.920  36.791  1.00  0.00     0.029 A 
ATOM     62  C   UNL A   1      42.388  30.420  35.544  1.00  0.00     0.049 A 
ATOM     63  H   UNL A   1      40.862  31.040  34.225  1.00  0.00     0.167 HD
ATOM     64  C   UNL A   1      42.611  28.907  33.595  1.00  0.00     0.074 A 
ATOM     65  C   UNL A   1      43.286  27.869  32.842  1.00  0.00     0.031 C 
ATOM     66  C   UNL A   1      43.016  29.353  34.809  1.00  0.00     0.034 A 
BRANCH  53  67
ATOM     67  C   UNL A   1      39.717  34.097  36.977  1.00  0.00     0.023 A 
ATOM     68  C   UNL A   1      40.009  35.452  36.726  1.00  0.00     0.012 A 
ATOM     69  C   UNL A   1      39.180  33.722  38.223  1.00  0.00     0.148 A 
ATOM     70  C   UNL A   1      39.789  36.419  37.707  1.00  0.00     0.002 A 
ATOM     71  C   UNL A   1      38.938  34.695  39.187  1.00  0.00     0.091 A 
ATOM     72  F   UNL A   1      38.934  32.424  38.452  1.00  0.00    -0.205 F 
ATOM     73  C   UNL A   1      39.245  36.042  38.932  1.00  0.00     0.022 A 
BRANCH  71  74
ATOM     74  S   UNL A   1      38.186  34.309  40.774  1.00  0.00     0.127 S 
ATOM     75  O   UNL A   1      37.906  35.643  41.300  1.00  0.00    -0.237 OA
ATOM     76  O   UNL A   1      37.000  33.546  40.383  1.00  0.00    -0.237 OA
ATOM     77  O   UNL A   1      39.183  33.536  41.503  1.00  0.00    -0.744 OA
ENDBRANCH  71  74
ENDBRANCH  53  67
BRANCH  54  78
ATOM     78  C   UNL A   1      40.857  27.736  29.378  1.00  0.00     0.023 A 
ATOM     79  C   UNL A   1      40.115  26.540  29.334  1.00  0.00     0.012 A 
ATOM     80  C   UNL A   1      41.703  28.055  28.298  1.00  0.00     0.148 A 
ATOM     81  C   UNL A   1      40.226  25.672  28.247  1.00  0.00     0.002 A 
ATOM     82  C   UNL A   1      41.764  27.214  27.191  1.00  0.00     0.091 A 
ATOM     83  F   UNL A   1      42.422  29.186  28.358  1.00  0.00    -0.205 F 
ATOM     84  C   UNL A   1      41.040  26.014  27.170  1.00  0.00     0.022 A 
BRANCH  82  85
ATOM     85  S   UNL A   1      42.658  27.703  25.710  1.00  0.00     0.127 S 
ATOM     86  O   UNL A   1      42.086  29.013  25.418  1.00  0.00    -0.237 OA
ATOM     87  O   UNL A   1      44.051  27.731  26.161  1.00  0.00    -0.237 OA
ATOM     88  O   UNL A   1      42.383  26.640  24.750  1.00  0.00    -0.744 OA
ENDBRANCH  82  85
ENDBRANCH  54  78
BRANCH  66  89
ATOM     89  C   UNL A   1      44.249  28.731  35.403  1.00  0.00     0.023 A 
ATOM     90  C   UNL A   1      45.510  29.264  35.071  1.00  0.00     0.012 A 
ATOM     91  C   UNL A   1      44.164  27.682  36.337  1.00  0.00     0.148 A 
ATOM     92  C   UNL A   1      46.671  28.752  35.649  1.00  0.00     0.002 A 
ATOM     93  C   UNL A   1      45.324  27.196  36.933  1.00  0.00     0.091 A 
ATOM     94  F   UNL A   1      42.958  27.169  36.621  1.00  0.00    -0.205 F 
ATOM     95  C   UNL A   1      46.577  27.726  36.587  1.00  0.00     0.022 A 
BRANCH  93  96
ATOM     96  S   UNL A   1      45.275  25.927  38.205  1.00  0.00     0.127 S 
ATOM     97  O   UNL A   1      44.811  24.765  37.450  1.00  0.00    -0.237 OA
ATOM     98  O   UNL A   1      46.671  25.854  38.639  1.00  0.00    -0.237 OA
ATOM     99  O   UNL A   1      44.359  26.431  39.221  1.00  0.00    -0.744 OA
ENDBRANCH  93  96
ENDBRANCH  66  89
ENDBRANCH  40  41
ENDBRANCH  32  35
ENDBRANCH  30  31
ENDBRANCH  29  30
ENDBRANCH   1  29
TORSDOF 19
ENDMDL
MODEL 3
REMARK VINA RESULT:     -10.4      2.108      2.709
REMARK SMILES CCOc1cc(NC(=O)c2c(C(=O)NCCCNC(=O)c3ccc(-c4c5nc(c(-c6cccc(S(=O)(=O)[O-])c6F)c6ccc([nH]6)c(-c6cccc(S(=O)(=O)[O-])c6F)c6nc(c(-c7cccc(S(=O)(=O)[O-])c7F)c7ccc4[nH]7)C=C6)C=C5)cc3)cnn2C)ccc1OC(F)F
REMARK SMILES IDX 15 1 14 2 12 3 13 4 11 6 10 7 86 8 84 9 85 10 87 11 8 12
REMARK SMILES IDX 7 13 9 15 6 16 4 17 5 18 90 19 89 20 88 21 3 22 2 23 1 24
REMARK SMILES IDX 91 25 92 26 93 27 94 28 16 29 17 30 18 31 19 32 20 34 21 35
REMARK SMILES IDX 22 36 83 37 23 38 82 39 24 40 25 41 26 42 76 43 27 44 81 45
REMARK SMILES IDX 75 46 77 47 28 48 80 49 74 50 73 51 29 53 61 54 41 55 60 56
REMARK SMILES IDX 42 57 45 58 59 59 78 60 43 61 44 62 58 64 79 65 46 66 30 67
REMARK SMILES IDX 31 68 39 69 32 70 34 71 40 72 33 73 35 74 36 75 37 76 38 77
REMARK SMILES IDX 62 78 63 79 71 80 64 81 66 82 72 83 65 84 67 85 68 86 69 87
REMARK SMILES IDX 70 88 47 89 48 90 56 91 49 92 51 93 57 94 50 95 52 96 53 97
REMARK SMILES IDX 54 98 55 99
REMARK H PARENT 14 5 7 14 18 33 77 52 45 63
REMARK Flexibility Score: inf
ROOT
ATOM      1  C   UNL A   1      31.568  29.963  25.345  1.00  0.00     0.118 C 
ENDROOT
BRANCH   1   2
ATOM      2  N   UNL A   1      32.680  29.238  24.767  1.00  0.00    -0.352 N 
ATOM      3  C   UNL A   1      33.012  27.916  24.681  1.00  0.00     0.255 C 
ATOM      4  O   UNL A   1      34.094  27.696  24.125  1.00  0.00    -0.269 OA
ATOM      5  H   UNL A   1      33.342  29.828  24.341  1.00  0.00     0.163 HD
BRANCH   3   6
ATOM      6  C   UNL A   1      32.232  26.793  25.188  1.00  0.00     0.090 A 
ATOM      7  C   UNL A   1      31.498  25.750  24.626  1.00  0.00     0.138 A 
ATOM      8  N   UNL A   1      31.144  24.931  25.677  1.00  0.00    -0.262 N 
ATOM      9  C   UNL A   1      32.149  26.527  26.586  1.00  0.00     0.149 A 
ATOM     10  N   UNL A   1      31.465  25.424  26.883  1.00  0.00    -0.180 NA
ATOM     11  C   UNL A   1      30.450  23.664  25.624  1.00  0.00     0.174 C 
BRANCH   7  12
ATOM     12  C   UNL A   1      31.234  25.392  23.267  1.00  0.00     0.274 C 
ATOM     13  N   UNL A   1      31.773  24.250  22.714  1.00  0.00    -0.321 N 
ATOM     14  H   UNL A   1      31.561  24.157  21.756  1.00  0.00     0.170 HD
ATOM     15  O   UNL A   1      30.520  26.092  22.548  1.00  0.00    -0.267 OA
BRANCH  13  16
ATOM     16  C   UNL A   1      32.559  23.182  23.203  1.00  0.00     0.045 A 
ATOM     17  C   UNL A   1      34.514  22.156  24.243  1.00  0.00     0.163 A 
ATOM     18  C   UNL A   1      33.807  23.293  23.818  1.00  0.00     0.076 A 
ATOM     19  C   UNL A   1      33.922  20.896  24.150  1.00  0.00     0.168 A 
ATOM     20  C   UNL A   1      32.660  20.773  23.574  1.00  0.00     0.053 A 
ATOM     21  C   UNL A   1      32.002  21.900  23.072  1.00  0.00     0.030 A 
BRANCH  17  22
ATOM     22  O   UNL A   1      35.750  22.261  24.826  1.00  0.00    -0.490 OA
BRANCH  22  23
ATOM     23  C   UNL A   1      36.366  23.540  24.644  1.00  0.00     0.226 C 
ATOM     24  C   UNL A   1      35.793  24.503  25.669  1.00  0.00     0.049 C 
ENDBRANCH  22  23
ENDBRANCH  17  22
BRANCH  19  25
ATOM     25  O   UNL A   1      34.447  19.762  24.694  1.00  0.00    -0.431 OA
BRANCH  25  26
ATOM     26  C   UNL A   1      33.664  18.585  24.561  1.00  0.00     0.542 C 
ATOM     27  F   UNL A   1      34.413  17.505  24.213  1.00  0.00    -0.167 F 
ATOM     28  F   UNL A   1      33.070  18.304  25.749  1.00  0.00    -0.167 F 
ENDBRANCH  25  26
ENDBRANCH  19  25
ENDBRANCH  13  16
ENDBRANCH   7  12
ENDBRANCH   3   6
ENDBRANCH   1   2
BRANCH   1  29
ATOM     29  C   UNL A   1      31.838  30.511  26.748  1.00  0.00     0.042 C 
BRANCH  29  30
ATOM     30  C   UNL A   1      33.034  31.447  26.887  1.00  0.00     0.118 C 
BRANCH  30  31
ATOM     31  N   UNL A   1      32.689  32.820  27.217  1.00  0.00    -0.352 N 
ATOM     32  C   UNL A   1      33.236  33.726  28.096  1.00  0.00     0.251 C 
ATOM     33  H   UNL A   1      31.916  33.168  26.717  1.00  0.00     0.163 HD
ATOM     34  O   UNL A   1      32.687  34.819  28.227  1.00  0.00    -0.269 OA
BRANCH  32  35
ATOM     35  C   UNL A   1      34.424  33.412  28.929  1.00  0.00     0.039 A 
ATOM     36  C   UNL A   1      34.305  32.395  29.887  1.00  0.00     0.014 A 
ATOM     37  C   UNL A   1      35.627  34.111  28.833  1.00  0.00     0.014 A 
ATOM     38  C   UNL A   1      35.409  32.015  30.660  1.00  0.00     0.010 A 
ATOM     39  C   UNL A   1      36.749  33.680  29.544  1.00  0.00     0.010 A 
ATOM     40  C   UNL A   1      36.660  32.617  30.453  1.00  0.00    -0.014 A 
BRANCH  40  41
ATOM     41  C   UNL A   1      37.893  32.112  31.118  1.00  0.00     0.031 A 
ATOM     42  C   UNL A   1      38.807  31.142  30.420  1.00  0.00     0.074 A 
ATOM     43  C   UNL A   1      38.123  32.436  32.408  1.00  0.00     0.049 A 
ATOM     44  N   UNL A   1      39.833  30.487  30.899  1.00  0.00    -0.248 NA
ATOM     45  C   UNL A   1      38.517  30.850  29.007  1.00  0.00     0.031 C 
ATOM     46  C   UNL A   1      37.279  33.312  33.222  1.00  0.00     0.029 A 
ATOM     47  N   UNL A   1      39.115  32.038  33.272  1.00  0.00    -0.354 N 
ATOM     48  C   UNL A   1      40.282  29.672  29.867  1.00  0.00     0.074 A 
ATOM     49  C   UNL A   1      39.410  29.907  28.735  1.00  0.00     0.031 C 
ATOM     50  C   UNL A   1      37.782  33.381  34.464  1.00  0.00     0.029 A 
ATOM     51  C   UNL A   1      38.962  32.528  34.550  1.00  0.00     0.049 A 
ATOM     52  H   UNL A   1      39.864  31.457  33.003  1.00  0.00     0.167 HD
ATOM     53  C   UNL A   1      41.340  28.826  29.852  1.00  0.00     0.034 A 
ATOM     54  C   UNL A   1      39.676  32.305  35.671  1.00  0.00     0.034 A 
ATOM     55  C   UNL A   1      42.254  28.645  30.948  1.00  0.00     0.049 A 
ATOM     56  C   UNL A   1      40.875  31.399  35.610  1.00  0.00     0.074 A 
ATOM     57  C   UNL A   1      43.412  27.889  30.986  1.00  0.00     0.029 A 
ATOM     58  N   UNL A   1      42.119  29.233  32.195  1.00  0.00    -0.354 N 
ATOM     59  N   UNL A   1      41.366  30.752  34.582  1.00  0.00    -0.248 NA
ATOM     60  C   UNL A   1      41.632  31.209  36.856  1.00  0.00     0.031 C 
ATOM     61  C   UNL A   1      43.980  28.023  32.259  1.00  0.00     0.029 A 
ATOM     62  C   UNL A   1      43.170  28.854  33.013  1.00  0.00     0.049 A 
ATOM     63  H   UNL A   1      41.384  29.832  32.461  1.00  0.00     0.167 HD
ATOM     64  C   UNL A   1      42.495  30.091  35.050  1.00  0.00     0.074 A 
ATOM     65  C   UNL A   1      42.633  30.439  36.450  1.00  0.00     0.031 C 
ATOM     66  C   UNL A   1      43.327  29.251  34.388  1.00  0.00     0.034 A 
BRANCH  53  67
ATOM     67  C   UNL A   1      41.621  28.084  28.573  1.00  0.00     0.023 A 
ATOM     68  C   UNL A   1      42.429  28.696  27.593  1.00  0.00     0.012 A 
ATOM     69  C   UNL A   1      41.154  26.772  28.366  1.00  0.00     0.148 A 
ATOM     70  C   UNL A   1      42.751  28.021  26.417  1.00  0.00     0.002 A 
ATOM     71  C   UNL A   1      41.503  26.095  27.202  1.00  0.00     0.091 A 
ATOM     72  F   UNL A   1      40.365  26.217  29.298  1.00  0.00    -0.205 F 
ATOM     73  C   UNL A   1      42.297  26.719  26.225  1.00  0.00     0.022 A 
BRANCH  71  74
ATOM     74  S   UNL A   1      41.009  24.394  26.897  1.00  0.00     0.127 S 
ATOM     75  O   UNL A   1      41.253  23.778  28.199  1.00  0.00    -0.237 OA
ATOM     76  O   UNL A   1      39.595  24.535  26.544  1.00  0.00    -0.237 OA
ATOM     77  O   UNL A   1      41.855  23.928  25.807  1.00  0.00    -0.744 OA
ENDBRANCH  71  74
ENDBRANCH  53  67
BRANCH  54  78
ATOM     78  C   UNL A   1      39.309  33.016  36.929  1.00  0.00     0.023 A 
ATOM     79  C   UNL A   1      39.841  34.297  37.170  1.00  0.00     0.012 A 
ATOM     80  C   UNL A   1      38.392  32.474  37.850  1.00  0.00     0.148 A 
ATOM     81  C   UNL A   1      39.481  35.016  38.311  1.00  0.00     0.002 A 
ATOM     82  C   UNL A   1      37.993  33.219  38.955  1.00  0.00     0.091 A 
ATOM     83  F   UNL A   1      37.907  31.244  37.625  1.00  0.00    -0.205 F 
ATOM     84  C   UNL A   1      38.547  34.484  39.197  1.00  0.00     0.022 A 
BRANCH  82  85
ATOM     85  S   UNL A   1      36.662  32.648  40.021  1.00  0.00     0.127 S 
ATOM     86  O   UNL A   1      35.534  32.572  39.100  1.00  0.00    -0.237 OA
ATOM     87  O   UNL A   1      37.155  31.352  40.495  1.00  0.00    -0.237 OA
ATOM     88  O   UNL A   1      36.580  33.654  41.074  1.00  0.00    -0.744 OA
ENDBRANCH  82  85
ENDBRANCH  54  78
BRANCH  66  89
ATOM     89  C   UNL A   1      44.459  28.639  35.165  1.00  0.00     0.023 A 
ATOM     90  C   UNL A   1      45.744  29.206  35.058  1.00  0.00     0.012 A 
ATOM     91  C   UNL A   1      44.247  27.565  36.049  1.00  0.00     0.148 A 
ATOM     92  C   UNL A   1      46.806  28.704  35.810  1.00  0.00     0.002 A 
ATOM     93  C   UNL A   1      45.304  27.088  36.818  1.00  0.00     0.091 A 
ATOM     94  F   UNL A   1      43.023  27.021  36.118  1.00  0.00    -0.205 F 
ATOM     95  C   UNL A   1      46.584  27.653  36.697  1.00  0.00     0.022 A 
BRANCH  93  96
ATOM     96  S   UNL A   1      45.076  25.787  38.037  1.00  0.00     0.127 S 
ATOM     97  O   UNL A   1      46.410  25.690  38.624  1.00  0.00    -0.237 OA
ATOM     98  O   UNL A   1      44.060  26.353  38.924  1.00  0.00    -0.237 OA
ATOM     99  O   UNL A   1      44.628  24.623  37.283  1.00  0.00    -0.744 OA
ENDBRANCH  93  96
ENDBRANCH  66  89
ENDBRANCH  40  41
ENDBRANCH  32  35
ENDBRANCH  30  31
ENDBRANCH  29  30
ENDBRANCH   1  29
TORSDOF 19
ENDMDL
