MODEL 1
REMARK VINA RESULT:      -9.5      0.000      0.000
REMARK SMILES COC(=O)c1ccccc1N1C(=O)/C(=C\c2ccc(-c3ccc(Cl)c(C(=O)NCCCNC(=O)c4ccc(-c5c6nc(c(-c7cccc(S(=O)(=O)[O-])c7F)c7ccc([nH]7)c(-c7cccc(S(=O)(=O)[O-])c7F)c7nc(c(-c8cccc(S(=O)(=O)[O-])c8F)c8ccc5[nH]8)C=C7)C=C6)cc4)c3)o2)SC1=S
REMARK SMILES IDX 29 1 28 2 26 3 27 4 25 6 20 7 21 8 98 9 22 10 23 11 24 12
REMARK SMILES IDX 19 13 16 14 17 15 99 16 18 17 15 18 11 19 12 20 101 21 13 22
REMARK SMILES IDX 14 23 100 24 102 25 10 26 5 27 6 28 7 29 9 30 8 31 3 32 4 33
REMARK SMILES IDX 2 34 1 35 30 36 31 37 32 38 33 39 34 41 35 42 36 43 97 44
REMARK SMILES IDX 37 45 96 46 38 47 39 48 40 49 90 50 41 51 95 52 89 53 91 54
REMARK SMILES IDX 42 55 94 56 88 57 87 58 43 60 75 61 55 62 74 63 56 64 59 65
REMARK SMILES IDX 73 66 92 67 57 68 58 69 72 71 93 72 60 73 44 74 45 75 53 76
REMARK SMILES IDX 46 77 48 78 54 79 47 80 49 81 50 82 51 83 52 84 76 85 77 86
REMARK SMILES IDX 85 87 78 88 80 89 86 90 79 91 81 92 82 93 83 94 84 95 61 96
REMARK SMILES IDX 62 97 70 98 63 99 65 100 71 101 64 102 66 103 67 104 68 105
REMARK SMILES IDX 69 106
REMARK H PARENT 28 5 32 40 91 59 59 70
REMARK Flexibility Score: inf
ROOT
ATOM      1  C   UNL A   1      42.715  22.946  25.369  1.00  0.00     0.118 C 
ENDROOT
BRANCH   1   2
ATOM      2  N   UNL A   1      43.842  22.987  24.439  1.00  0.00    -0.352 N 
ATOM      3  C   UNL A   1      45.195  23.244  24.574  1.00  0.00     0.252 C 
ATOM      4  O   UNL A   1      45.899  23.070  23.582  1.00  0.00    -0.269 OA
ATOM      5  H   UNL A   1      43.581  22.787  23.510  1.00  0.00     0.163 HD
BRANCH   3   6
ATOM      6  C   UNL A   1      45.800  23.720  25.851  1.00  0.00     0.059 A 
ATOM      7  C   UNL A   1      45.577  23.857  28.276  1.00  0.00     0.018 A 
ATOM      8  C   UNL A   1      46.576  24.828  28.318  1.00  0.00     0.013 A 
ATOM      9  C   UNL A   1      45.312  23.221  27.058  1.00  0.00     0.027 A 
ATOM     10  C   UNL A   1      47.237  25.194  27.142  1.00  0.00     0.022 A 
ATOM     11  C   UNL A   1      46.825  24.678  25.902  1.00  0.00     0.053 A 
ATOM     12  Cl  UNL A   1      47.625  25.313  24.510  1.00  0.00    -0.083 Cl
BRANCH   7  13
ATOM     13  C   UNL A   1      44.691  23.580  29.398  1.00  0.00     0.134 A 
ATOM     14  C   UNL A   1      44.218  23.584  31.567  1.00  0.00     0.128 A 
ATOM     15  C   UNL A   1      43.027  23.411  30.873  1.00  0.00     0.051 A 
ATOM     16  O   UNL A   1      45.230  23.709  30.644  1.00  0.00    -0.457 OA
ATOM     17  C   UNL A   1      43.334  23.368  29.497  1.00  0.00     0.051 A 
BRANCH  14  18
ATOM     18  C   UNL A   1      44.426  23.594  32.970  1.00  0.00     0.068 C 
ATOM     19  N   UNL A   1      44.225  27.054  34.117  1.00  0.00    -0.260 N 
ATOM     20  C   UNL A   1      44.148  26.100  33.112  1.00  0.00     0.270 C 
ATOM     21  C   UNL A   1      44.481  26.595  35.397  1.00  0.00     0.152 C 
ATOM     22  O   UNL A   1      43.890  26.334  31.938  1.00  0.00    -0.268 OA
ATOM     23  C   UNL A   1      44.423  24.743  33.662  1.00  0.00     0.084 C 
ATOM     24  S   UNL A   1      44.732  24.848  35.354  1.00  0.00    -0.054 SA
ATOM     25  S   UNL A   1      44.466  27.445  36.837  1.00  0.00    -0.051 S 
BRANCH  19  26
ATOM     26  C   UNL A   1      43.997  28.414  33.758  1.00  0.00     0.065 A 
ATOM     27  C   UNL A   1      42.742  29.047  33.814  1.00  0.00     0.084 A 
ATOM     28  C   UNL A   1      42.646  30.415  33.488  1.00  0.00     0.018 A 
ATOM     29  C   UNL A   1      43.779  31.154  33.140  1.00  0.00     0.001 A 
ATOM     30  C   UNL A   1      45.129  29.181  33.409  1.00  0.00     0.028 A 
ATOM     31  C   UNL A   1      45.022  30.536  33.104  1.00  0.00     0.002 A 
BRANCH  27  32
ATOM     32  C   UNL A   1      41.475  28.414  34.276  1.00  0.00     0.339 C 
ATOM     33  O   UNL A   1      40.771  27.736  33.554  1.00  0.00    -0.246 OA
BRANCH  32  34
ATOM     34  O   UNL A   1      41.200  28.763  35.559  1.00  0.00    -0.465 OA
ATOM     35  C   UNL A   1      40.298  29.867  35.678  1.00  0.00     0.282 C 
ENDBRANCH  32  34
ENDBRANCH  27  32
ENDBRANCH  19  26
ENDBRANCH  14  18
ENDBRANCH   7  13
ENDBRANCH   3   6
ENDBRANCH   1   2
BRANCH   1  36
ATOM     36  C   UNL A   1      42.333  21.559  25.861  1.00  0.00     0.042 C 
BRANCH  36  37
ATOM     37  C   UNL A   1      41.282  21.526  26.958  1.00  0.00     0.118 C 
BRANCH  37  38
ATOM     38  N   UNL A   1      39.921  21.669  26.455  1.00  0.00    -0.352 N 
ATOM     39  C   UNL A   1      39.045  22.728  26.482  1.00  0.00     0.251 C 
ATOM     40  H   UNL A   1      39.567  20.863  26.016  1.00  0.00     0.163 HD
ATOM     41  O   UNL A   1      37.877  22.535  26.149  1.00  0.00    -0.269 OA
BRANCH  39  42
ATOM     42  C   UNL A   1      39.469  24.082  26.917  1.00  0.00     0.039 A 
ATOM     43  C   UNL A   1      39.323  24.435  28.264  1.00  0.00     0.014 A 
ATOM     44  C   UNL A   1      39.957  25.023  26.012  1.00  0.00     0.014 A 
ATOM     45  C   UNL A   1      39.731  25.700  28.705  1.00  0.00     0.010 A 
ATOM     46  C   UNL A   1      40.459  26.240  26.468  1.00  0.00     0.010 A 
ATOM     47  C   UNL A   1      40.339  26.600  27.817  1.00  0.00    -0.014 A 
BRANCH  47  48
ATOM     48  C   UNL A   1      40.845  27.924  28.270  1.00  0.00     0.031 A 
ATOM     49  C   UNL A   1      42.326  28.160  28.426  1.00  0.00     0.074 A 
ATOM     50  C   UNL A   1      39.969  28.885  28.628  1.00  0.00     0.049 A 
ATOM     51  N   UNL A   1      42.951  29.217  28.876  1.00  0.00    -0.248 NA
ATOM     52  C   UNL A   1      43.223  27.051  28.058  1.00  0.00     0.031 C 
ATOM     53  C   UNL A   1      38.510  28.755  28.602  1.00  0.00     0.029 A 
ATOM     54  N   UNL A   1      40.177  30.155  29.108  1.00  0.00    -0.354 N 
ATOM     55  C   UNL A   1      44.302  28.889  28.881  1.00  0.00     0.074 A 
ATOM     56  C   UNL A   1      44.405  27.520  28.430  1.00  0.00     0.031 C 
ATOM     57  C   UNL A   1      37.957  29.899  29.035  1.00  0.00     0.029 A 
ATOM     58  C   UNL A   1      39.016  30.833  29.400  1.00  0.00     0.049 A 
ATOM     59  H   UNL A   1      41.073  30.543  29.233  1.00  0.00     0.167 HD
ATOM     60  C   UNL A   1      45.366  29.667  29.197  1.00  0.00     0.034 A 
ATOM     61  C   UNL A   1      38.825  32.067  29.907  1.00  0.00     0.034 A 
ATOM     62  C   UNL A   1      45.264  31.044  29.594  1.00  0.00     0.049 A 
ATOM     63  C   UNL A   1      40.026  32.926  30.206  1.00  0.00     0.074 A 
ATOM     64  C   UNL A   1      46.283  31.942  29.854  1.00  0.00     0.029 A 
ATOM     65  N   UNL A   1      44.072  31.725  29.787  1.00  0.00    -0.354 N 
ATOM     66  N   UNL A   1      41.298  32.647  30.055  1.00  0.00    -0.248 NA
ATOM     67  C   UNL A   1      39.765  34.281  30.711  1.00  0.00     0.031 C 
ATOM     68  C   UNL A   1      45.707  33.163  30.221  1.00  0.00     0.029 A 
ATOM     69  C   UNL A   1      44.329  33.031  30.167  1.00  0.00     0.049 A 
ATOM     70  H   UNL A   1      43.174  31.336  29.673  1.00  0.00     0.167 HD
ATOM     71  C   UNL A   1      41.986  33.802  30.408  1.00  0.00     0.074 A 
ATOM     72  C   UNL A   1      40.988  34.791  30.758  1.00  0.00     0.031 C 
ATOM     73  C   UNL A   1      43.323  34.021  30.453  1.00  0.00     0.034 A 
BRANCH  60  74
ATOM     74  C   UNL A   1      46.741  29.063  29.061  1.00  0.00     0.023 A 
ATOM     75  C   UNL A   1      47.296  28.356  30.147  1.00  0.00     0.012 A 
ATOM     76  C   UNL A   1      47.456  29.140  27.851  1.00  0.00     0.148 A 
ATOM     77  C   UNL A   1      48.555  27.766  30.045  1.00  0.00     0.002 A 
ATOM     78  C   UNL A   1      48.691  28.509  27.740  1.00  0.00     0.091 A 
ATOM     79  F   UNL A   1      46.922  29.831  26.834  1.00  0.00    -0.205 F 
ATOM     80  C   UNL A   1      49.247  27.834  28.839  1.00  0.00     0.022 A 
BRANCH  78  81
ATOM     81  S   UNL A   1      49.629  28.469  26.208  1.00  0.00     0.127 S 
ATOM     82  O   UNL A   1      50.295  29.770  26.236  1.00  0.00    -0.237 OA
ATOM     83  O   UNL A   1      50.516  27.325  26.421  1.00  0.00    -0.237 OA
ATOM     84  O   UNL A   1      48.651  28.291  25.144  1.00  0.00    -0.744 OA
ENDBRANCH  78  81
ENDBRANCH  60  74
BRANCH  61  85
ATOM     85  C   UNL A   1      37.444  32.597  30.089  1.00  0.00     0.023 A 
ATOM     86  C   UNL A   1      36.662  32.887  28.953  1.00  0.00     0.012 A 
ATOM     87  C   UNL A   1      36.892  32.796  31.369  1.00  0.00     0.148 A 
ATOM     88  C   UNL A   1      35.372  33.401  29.087  1.00  0.00     0.002 A 
ATOM     89  C   UNL A   1      35.585  33.253  31.497  1.00  0.00     0.091 A 
ATOM     90  F   UNL A   1      37.653  32.527  32.440  1.00  0.00    -0.205 F 
ATOM     91  C   UNL A   1      34.830  33.575  30.358  1.00  0.00     0.022 A 
BRANCH  89  92
ATOM     92  S   UNL A   1      34.761  33.375  33.089  1.00  0.00     0.127 S 
ATOM     93  O   UNL A   1      35.666  32.622  33.953  1.00  0.00    -0.237 OA
ATOM     94  O   UNL A   1      34.750  34.821  33.316  1.00  0.00    -0.237 OA
ATOM     95  O   UNL A   1      33.440  32.794  32.890  1.00  0.00    -0.744 OA
ENDBRANCH  89  92
ENDBRANCH  61  85
BRANCH  73  96
ATOM     96  C   UNL A   1      43.793  35.393  30.858  1.00  0.00     0.023 A 
ATOM     97  C   UNL A   1      44.207  36.310  29.872  1.00  0.00     0.012 A 
ATOM     98  C   UNL A   1      43.752  35.797  32.207  1.00  0.00     0.148 A 
ATOM     99  C   UNL A   1      44.606  37.599  30.226  1.00  0.00     0.002 A 
ATOM    100  C   UNL A   1      44.104  37.098  32.546  1.00  0.00     0.091 A 
ATOM    101  F   UNL A   1      43.372  34.903  33.131  1.00  0.00    -0.205 F 
ATOM    102  C   UNL A   1      44.542  37.996  31.560  1.00  0.00     0.022 A 
BRANCH 100 103
ATOM    103  S   UNL A   1      43.959  37.726  34.224  1.00  0.00     0.127 S 
ATOM    104  O   UNL A   1      44.487  36.609  35.005  1.00  0.00    -0.237 OA
ATOM    105  O   UNL A   1      44.822  38.908  34.189  1.00  0.00    -0.237 OA
ATOM    106  O   UNL A   1      42.546  38.016  34.423  1.00  0.00    -0.744 OA
ENDBRANCH 100 103
ENDBRANCH  73  96
ENDBRANCH  47  48
ENDBRANCH  39  42
ENDBRANCH  37  38
ENDBRANCH  36  37
ENDBRANCH   1  36
TORSDOF 18
ENDMDL
MODEL 2
REMARK VINA RESULT:      -9.2      3.277      7.762
REMARK SMILES COC(=O)c1ccccc1N1C(=O)/C(=C\c2ccc(-c3ccc(Cl)c(C(=O)NCCCNC(=O)c4ccc(-c5c6nc(c(-c7cccc(S(=O)(=O)[O-])c7F)c7ccc([nH]7)c(-c7cccc(S(=O)(=O)[O-])c7F)c7nc(c(-c8cccc(S(=O)(=O)[O-])c8F)c8ccc5[nH]8)C=C7)C=C6)cc4)c3)o2)SC1=S
REMARK SMILES IDX 29 1 28 2 26 3 27 4 25 6 20 7 21 8 98 9 22 10 23 11 24 12
REMARK SMILES IDX 19 13 16 14 17 15 99 16 18 17 15 18 11 19 12 20 101 21 13 22
REMARK SMILES IDX 14 23 100 24 102 25 10 26 5 27 6 28 7 29 9 30 8 31 3 32 4 33
REMARK SMILES IDX 2 34 1 35 30 36 31 37 32 38 33 39 34 41 35 42 36 43 97 44
REMARK SMILES IDX 37 45 96 46 38 47 39 48 40 49 90 50 41 51 95 52 89 53 91 54
REMARK SMILES IDX 42 55 94 56 88 57 87 58 43 60 75 61 55 62 74 63 56 64 59 65
REMARK SMILES IDX 73 66 92 67 57 68 58 69 72 71 93 72 60 73 44 74 45 75 53 76
REMARK SMILES IDX 46 77 48 78 54 79 47 80 49 81 50 82 51 83 52 84 76 85 77 86
REMARK SMILES IDX 85 87 78 88 80 89 86 90 79 91 81 92 82 93 83 94 84 95 61 96
REMARK SMILES IDX 62 97 70 98 63 99 65 100 71 101 64 102 66 103 67 104 68 105
REMARK SMILES IDX 69 106
REMARK H PARENT 28 5 32 40 91 59 59 70
REMARK Flexibility Score: inf
ROOT
ATOM      1  C   UNL A   1      43.375  22.171  25.682  1.00  0.00     0.118 C 
ENDROOT
BRANCH   1   2
ATOM      2  N   UNL A   1      43.449  22.315  27.135  1.00  0.00    -0.352 N 
ATOM      3  C   UNL A   1      42.636  22.906  28.087  1.00  0.00     0.252 C 
ATOM      4  O   UNL A   1      42.941  22.733  29.265  1.00  0.00    -0.269 OA
ATOM      5  H   UNL A   1      44.254  21.901  27.522  1.00  0.00     0.163 HD
BRANCH   3   6
ATOM      6  C   UNL A   1      41.444  23.727  27.731  1.00  0.00     0.059 A 
ATOM      7  C   UNL A   1      40.326  25.883  27.947  1.00  0.00     0.018 A 
ATOM      8  C   UNL A   1      39.141  25.322  27.479  1.00  0.00     0.013 A 
ATOM      9  C   UNL A   1      41.490  25.106  27.926  1.00  0.00     0.027 A 
ATOM     10  C   UNL A   1      39.121  23.986  27.068  1.00  0.00     0.022 A 
ATOM     11  C   UNL A   1      40.254  23.173  27.233  1.00  0.00     0.053 A 
ATOM     12  Cl  UNL A   1      40.061  21.506  26.821  1.00  0.00    -0.083 Cl
BRANCH   7  13
ATOM     13  C   UNL A   1      40.386  27.184  28.599  1.00  0.00     0.134 A 
ATOM     14  C   UNL A   1      40.269  28.480  30.398  1.00  0.00     0.128 A 
ATOM     15  C   UNL A   1      40.896  29.205  29.392  1.00  0.00     0.051 A 
ATOM     16  O   UNL A   1      39.981  27.230  29.900  1.00  0.00    -0.457 OA
ATOM     17  C   UNL A   1      40.933  28.395  28.238  1.00  0.00     0.051 A 
BRANCH  14  18
ATOM     18  C   UNL A   1      39.920  28.907  31.705  1.00  0.00     0.068 C 
ATOM     19  N   UNL A   1      37.355  31.487  31.403  1.00  0.00    -0.260 N 
ATOM     20  C   UNL A   1      38.208  30.549  30.839  1.00  0.00     0.270 C 
ATOM     21  C   UNL A   1      37.358  31.585  32.783  1.00  0.00     0.152 C 
ATOM     22  O   UNL A   1      38.298  30.310  29.641  1.00  0.00    -0.268 OA
ATOM     23  C   UNL A   1      39.005  29.868  31.898  1.00  0.00     0.084 C 
ATOM     24  S   UNL A   1      38.573  30.488  33.446  1.00  0.00    -0.054 SA
ATOM     25  S   UNL A   1      36.343  32.473  33.772  1.00  0.00    -0.051 S 
BRANCH  19  26
ATOM     26  C   UNL A   1      36.525  32.240  30.524  1.00  0.00     0.065 A 
ATOM     27  C   UNL A   1      36.738  33.593  30.199  1.00  0.00     0.084 A 
ATOM     28  C   UNL A   1      35.884  34.221  29.272  1.00  0.00     0.018 A 
ATOM     29  C   UNL A   1      34.850  33.516  28.652  1.00  0.00     0.001 A 
ATOM     30  C   UNL A   1      35.478  31.545  29.881  1.00  0.00     0.028 A 
ATOM     31  C   UNL A   1      34.649  32.176  28.956  1.00  0.00     0.002 A 
BRANCH  27  32
ATOM     32  C   UNL A   1      37.865  34.431  30.694  1.00  0.00     0.339 C 
ATOM     33  O   UNL A   1      37.935  34.841  31.836  1.00  0.00    -0.246 OA
BRANCH  32  34
ATOM     34  O   UNL A   1      38.731  34.721  29.689  1.00  0.00    -0.465 OA
ATOM     35  C   UNL A   1      39.585  33.631  29.329  1.00  0.00     0.282 C 
ENDBRANCH  32  34
ENDBRANCH  27  32
ENDBRANCH  19  26
ENDBRANCH  14  18
ENDBRANCH   7  13
ENDBRANCH   3   6
ENDBRANCH   1   2
BRANCH   1  36
ATOM     36  C   UNL A   1      44.566  22.722  24.916  1.00  0.00     0.042 C 
BRANCH  36  37
ATOM     37  C   UNL A   1      45.651  23.356  25.770  1.00  0.00     0.118 C 
BRANCH  37  38
ATOM     38  N   UNL A   1      46.586  24.169  25.001  1.00  0.00    -0.352 N 
ATOM     39  C   UNL A   1      46.835  25.521  25.004  1.00  0.00     0.251 C 
ATOM     40  H   UNL A   1      47.138  23.659  24.366  1.00  0.00     0.163 HD
ATOM     41  O   UNL A   1      47.551  25.991  24.122  1.00  0.00    -0.269 OA
BRANCH  39  42
ATOM     42  C   UNL A   1      46.250  26.420  26.030  1.00  0.00     0.039 A 
ATOM     43  C   UNL A   1      44.868  26.639  26.027  1.00  0.00     0.014 A 
ATOM     44  C   UNL A   1      47.047  27.090  26.958  1.00  0.00     0.014 A 
ATOM     45  C   UNL A   1      44.286  27.469  26.993  1.00  0.00     0.010 A 
ATOM     46  C   UNL A   1      46.459  27.830  27.981  1.00  0.00     0.010 A 
ATOM     47  C   UNL A   1      45.074  28.042  28.004  1.00  0.00    -0.014 A 
BRANCH  47  48
ATOM     48  C   UNL A   1      44.478  28.872  29.084  1.00  0.00     0.031 A 
ATOM     49  C   UNL A   1      44.275  30.353  28.882  1.00  0.00     0.074 A 
ATOM     50  C   UNL A   1      44.203  28.313  30.281  1.00  0.00     0.049 A 
ATOM     51  N   UNL A   1      43.840  31.250  29.729  1.00  0.00    -0.248 NA
ATOM     52  C   UNL A   1      44.637  30.905  27.565  1.00  0.00     0.031 C 
ATOM     53  C   UNL A   1      44.430  26.909  30.632  1.00  0.00     0.029 A 
ATOM     54  N   UNL A   1      43.696  28.863  31.433  1.00  0.00    -0.354 N 
ATOM     55  C   UNL A   1      43.912  32.469  29.065  1.00  0.00     0.074 A 
ATOM     56  C   UNL A   1      44.473  32.205  27.759  1.00  0.00     0.031 C 
ATOM     57  C   UNL A   1      44.054  26.706  31.904  1.00  0.00     0.029 A 
ATOM     58  C   UNL A   1      43.590  27.967  32.472  1.00  0.00     0.049 A 
ATOM     59  H   UNL A   1      43.433  29.808  31.508  1.00  0.00     0.167 HD
ATOM     60  C   UNL A   1      43.515  33.694  29.487  1.00  0.00     0.034 A 
ATOM     61  C   UNL A   1      43.170  28.142  33.741  1.00  0.00     0.034 A 
ATOM     62  C   UNL A   1      42.908  33.945  30.765  1.00  0.00     0.049 A 
ATOM     63  C   UNL A   1      42.692  29.505  34.169  1.00  0.00     0.074 A 
ATOM     64  C   UNL A   1      42.395  35.132  31.256  1.00  0.00     0.029 A 
ATOM     65  N   UNL A   1      42.732  32.993  31.757  1.00  0.00    -0.354 N 
ATOM     66  N   UNL A   1      42.625  30.613  33.471  1.00  0.00    -0.248 NA
ATOM     67  C   UNL A   1      42.197  29.633  35.547  1.00  0.00     0.031 C 
ATOM     68  C   UNL A   1      41.922  34.901  32.552  1.00  0.00     0.029 A 
ATOM     69  C   UNL A   1      42.120  33.565  32.859  1.00  0.00     0.049 A 
ATOM     70  H   UNL A   1      43.003  32.048  31.688  1.00  0.00     0.167 HD
ATOM     71  C   UNL A   1      42.046  31.557  34.310  1.00  0.00     0.074 A 
ATOM     72  C   UNL A   1      41.760  30.885  35.561  1.00  0.00     0.031 C 
ATOM     73  C   UNL A   1      41.788  32.867  34.074  1.00  0.00     0.034 A 
BRANCH  60  74
ATOM     74  C   UNL A   1      43.663  34.849  28.528  1.00  0.00     0.023 A 
ATOM     75  C   UNL A   1      42.563  35.232  27.733  1.00  0.00     0.012 A 
ATOM     76  C   UNL A   1      44.858  35.590  28.455  1.00  0.00     0.148 A 
ATOM     77  C   UNL A   1      42.660  36.310  26.854  1.00  0.00     0.002 A 
ATOM     78  C   UNL A   1      44.933  36.693  27.610  1.00  0.00     0.091 A 
ATOM     79  F   UNL A   1      45.899  35.201  29.204  1.00  0.00    -0.205 F 
ATOM     80  C   UNL A   1      43.840  37.046  26.801  1.00  0.00     0.022 A 
BRANCH  78  81
ATOM     81  S   UNL A   1      46.379  37.755  27.525  1.00  0.00     0.127 S 
ATOM     82  O   UNL A   1      47.397  36.827  27.036  1.00  0.00    -0.237 OA
ATOM     83  O   UNL A   1      45.960  38.766  26.553  1.00  0.00    -0.237 OA
ATOM     84  O   UNL A   1      46.588  38.258  28.875  1.00  0.00    -0.744 OA
ENDBRANCH  78  81
ENDBRANCH  60  74
BRANCH  61  85
ATOM     85  C   UNL A   1      43.106  26.983  34.676  1.00  0.00     0.023 A 
ATOM     86  C   UNL A   1      41.891  26.285  34.825  1.00  0.00     0.012 A 
ATOM     87  C   UNL A   1      44.236  26.553  35.399  1.00  0.00     0.148 A 
ATOM     88  C   UNL A   1      41.791  25.206  35.705  1.00  0.00     0.002 A 
ATOM     89  C   UNL A   1      44.145  25.442  36.229  1.00  0.00     0.091 A 
ATOM     90  F   UNL A   1      45.381  27.235  35.254  1.00  0.00    -0.205 F 
ATOM     91  C   UNL A   1      42.919  24.779  36.399  1.00  0.00     0.022 A 
BRANCH  89  92
ATOM     92  S   UNL A   1      45.579  24.739  37.054  1.00  0.00     0.127 S 
ATOM     93  O   UNL A   1      45.044  23.479  37.564  1.00  0.00    -0.237 OA
ATOM     94  O   UNL A   1      46.529  24.603  35.948  1.00  0.00    -0.237 OA
ATOM     95  O   UNL A   1      45.971  25.718  38.058  1.00  0.00    -0.744 OA
ENDBRANCH  89  92
ENDBRANCH  61  85
BRANCH  73  96
ATOM     96  C   UNL A   1      41.128  33.658  35.172  1.00  0.00     0.023 A 
ATOM     97  C   UNL A   1      39.726  33.636  35.305  1.00  0.00     0.012 A 
ATOM     98  C   UNL A   1      41.903  34.361  36.116  1.00  0.00     0.148 A 
ATOM     99  C   UNL A   1      39.102  34.330  36.342  1.00  0.00     0.002 A 
ATOM    100  C   UNL A   1      41.277  35.008  37.174  1.00  0.00     0.091 A 
ATOM    101  F   UNL A   1      43.234  34.384  35.961  1.00  0.00    -0.205 F 
ATOM    102  C   UNL A   1      39.877  35.004  37.282  1.00  0.00     0.022 A 
BRANCH 100 103
ATOM    103  S   UNL A   1      42.200  35.819  38.485  1.00  0.00     0.127 S 
ATOM    104  O   UNL A   1      43.051  34.733  38.966  1.00  0.00    -0.237 OA
ATOM    105  O   UNL A   1      42.908  36.874  37.760  1.00  0.00    -0.237 OA
ATOM    106  O   UNL A   1      41.207  36.303  39.435  1.00  0.00    -0.744 OA
ENDBRANCH 100 103
ENDBRANCH  73  96
ENDBRANCH  47  48
ENDBRANCH  39  42
ENDBRANCH  37  38
ENDBRANCH  36  37
ENDBRANCH   1  36
TORSDOF 18
ENDMDL
MODEL 3
REMARK VINA RESULT:      -9.1      0.911      7.331
REMARK SMILES COC(=O)c1ccccc1N1C(=O)/C(=C\c2ccc(-c3ccc(Cl)c(C(=O)NCCCNC(=O)c4ccc(-c5c6nc(c(-c7cccc(S(=O)(=O)[O-])c7F)c7ccc([nH]7)c(-c7cccc(S(=O)(=O)[O-])c7F)c7nc(c(-c8cccc(S(=O)(=O)[O-])c8F)c8ccc5[nH]8)C=C7)C=C6)cc4)c3)o2)SC1=S
REMARK SMILES IDX 29 1 28 2 26 3 27 4 25 6 20 7 21 8 98 9 22 10 23 11 24 12
REMARK SMILES IDX 19 13 16 14 17 15 99 16 18 17 15 18 11 19 12 20 101 21 13 22
REMARK SMILES IDX 14 23 100 24 102 25 10 26 5 27 6 28 7 29 9 30 8 31 3 32 4 33
REMARK SMILES IDX 2 34 1 35 30 36 31 37 32 38 33 39 34 41 35 42 36 43 97 44
REMARK SMILES IDX 37 45 96 46 38 47 39 48 40 49 90 50 41 51 95 52 89 53 91 54
REMARK SMILES IDX 42 55 94 56 88 57 87 58 43 60 75 61 55 62 74 63 56 64 59 65
REMARK SMILES IDX 73 66 92 67 57 68 58 69 72 71 93 72 60 73 44 74 45 75 53 76
REMARK SMILES IDX 46 77 48 78 54 79 47 80 49 81 50 82 51 83 52 84 76 85 77 86
REMARK SMILES IDX 85 87 78 88 80 89 86 90 79 91 81 92 82 93 83 94 84 95 61 96
REMARK SMILES IDX 62 97 70 98 63 99 65 100 71 101 64 102 66 103 67 104 68 105
REMARK SMILES IDX 69 106
REMARK H PARENT 28 5 32 40 91 59 59 70
REMARK Flexibility Score: inf
ROOT
ATOM      1  C   UNL A   1      42.582  23.199  25.538  1.00  0.00     0.118 C 
ENDROOT
BRANCH   1   2
ATOM      2  N   UNL A   1      43.678  23.233  24.571  1.00  0.00    -0.352 N 
ATOM      3  C   UNL A   1      45.044  23.435  24.669  1.00  0.00     0.252 C 
ATOM      4  O   UNL A   1      45.707  23.271  23.647  1.00  0.00    -0.269 OA
ATOM      5  H   UNL A   1      43.380  23.077  23.645  1.00  0.00     0.163 HD
BRANCH   3   6
ATOM      6  C   UNL A   1      45.708  23.842  25.940  1.00  0.00     0.059 A 
ATOM      7  C   UNL A   1      45.584  23.874  28.375  1.00  0.00     0.018 A 
ATOM      8  C   UNL A   1      46.603  24.822  28.420  1.00  0.00     0.013 A 
ATOM      9  C   UNL A   1      45.259  23.298  27.142  1.00  0.00     0.027 A 
ATOM     10  C   UNL A   1      47.225  25.228  27.236  1.00  0.00     0.022 A 
ATOM     11  C   UNL A   1      46.754  24.777  25.992  1.00  0.00     0.053 A 
ATOM     12  Cl  UNL A   1      47.512  25.459  24.598  1.00  0.00    -0.083 Cl
BRANCH   7  13
ATOM     13  C   UNL A   1      44.738  23.563  29.519  1.00  0.00     0.134 A 
ATOM     14  C   UNL A   1      44.371  23.428  31.704  1.00  0.00     0.128 A 
ATOM     15  C   UNL A   1      43.139  23.378  31.062  1.00  0.00     0.051 A 
ATOM     16  O   UNL A   1      45.343  23.564  30.741  1.00  0.00    -0.457 OA
ATOM     17  C   UNL A   1      43.376  23.423  29.673  1.00  0.00     0.051 A 
BRANCH  14  18
ATOM     18  C   UNL A   1      44.646  23.318  33.091  1.00  0.00     0.068 C 
ATOM     19  N   UNL A   1      44.353  26.643  34.568  1.00  0.00    -0.260 N 
ATOM     20  C   UNL A   1      44.268  25.784  33.482  1.00  0.00     0.270 C 
ATOM     21  C   UNL A   1      44.692  26.080  35.786  1.00  0.00     0.152 C 
ATOM     22  O   UNL A   1      43.944  26.113  32.348  1.00  0.00    -0.268 OA
ATOM     23  C   UNL A   1      44.628  24.396  33.888  1.00  0.00     0.084 C 
ATOM     24  S   UNL A   1      45.014  24.358  35.567  1.00  0.00    -0.054 SA
ATOM     25  S   UNL A   1      44.710  26.792  37.299  1.00  0.00    -0.051 S 
BRANCH  19  26
ATOM     26  C   UNL A   1      44.051  28.018  34.350  1.00  0.00     0.065 A 
ATOM     27  C   UNL A   1      42.840  28.631  34.722  1.00  0.00     0.084 A 
ATOM     28  C   UNL A   1      42.674  30.013  34.508  1.00  0.00     0.018 A 
ATOM     29  C   UNL A   1      43.699  30.786  33.959  1.00  0.00     0.001 A 
ATOM     30  C   UNL A   1      45.076  28.819  33.802  1.00  0.00     0.028 A 
ATOM     31  C   UNL A   1      44.903  30.188  33.609  1.00  0.00     0.002 A 
BRANCH  27  32
ATOM     32  C   UNL A   1      41.710  27.956  35.418  1.00  0.00     0.339 C 
ATOM     33  O   UNL A   1      41.300  28.303  36.509  1.00  0.00    -0.246 OA
BRANCH  32  34
ATOM     34  O   UNL A   1      41.275  26.883  34.708  1.00  0.00    -0.465 OA
ATOM     35  C   UNL A   1      41.130  25.693  35.488  1.00  0.00     0.282 C 
ENDBRANCH  32  34
ENDBRANCH  27  32
ENDBRANCH  19  26
ENDBRANCH  14  18
ENDBRANCH   7  13
ENDBRANCH   3   6
ENDBRANCH   1   2
BRANCH   1  36
ATOM     36  C   UNL A   1      41.958  21.831  25.761  1.00  0.00     0.042 C 
BRANCH  36  37
ATOM     37  C   UNL A   1      40.831  21.790  26.779  1.00  0.00     0.118 C 
BRANCH  37  38
ATOM     38  N   UNL A   1      39.535  22.150  26.216  1.00  0.00    -0.352 N 
ATOM     39  C   UNL A   1      38.796  23.307  26.294  1.00  0.00     0.251 C 
ATOM     40  H   UNL A   1      39.114  21.438  25.683  1.00  0.00     0.163 HD
ATOM     41  O   UNL A   1      37.638  23.297  25.880  1.00  0.00    -0.269 OA
BRANCH  39  42
ATOM     42  C   UNL A   1      39.354  24.552  26.879  1.00  0.00     0.039 A 
ATOM     43  C   UNL A   1      39.176  24.795  28.246  1.00  0.00     0.014 A 
ATOM     44  C   UNL A   1      40.002  25.505  26.093  1.00  0.00     0.014 A 
ATOM     45  C   UNL A   1      39.706  25.953  28.828  1.00  0.00     0.010 A 
ATOM     46  C   UNL A   1      40.619  26.602  26.689  1.00  0.00     0.010 A 
ATOM     47  C   UNL A   1      40.467  26.848  28.060  1.00  0.00    -0.014 A 
BRANCH  47  48
ATOM     48  C   UNL A   1      41.101  28.052  28.663  1.00  0.00     0.031 A 
ATOM     49  C   UNL A   1      40.257  29.231  29.076  1.00  0.00     0.074 A 
ATOM     50  C   UNL A   1      42.446  28.122  28.754  1.00  0.00     0.049 A 
ATOM     51  N   UNL A   1      40.634  30.391  29.549  1.00  0.00    -0.248 NA
ATOM     52  C   UNL A   1      38.799  29.102  28.909  1.00  0.00     0.031 C 
ATOM     53  C   UNL A   1      43.380  27.083  28.313  1.00  0.00     0.029 A 
ATOM     54  N   UNL A   1      43.262  29.121  29.225  1.00  0.00    -0.354 N 
ATOM     55  C   UNL A   1      39.471  31.139  29.698  1.00  0.00     0.074 A 
ATOM     56  C   UNL A   1      38.379  30.318  29.225  1.00  0.00     0.031 C 
ATOM     57  C   UNL A   1      44.637  27.494  28.544  1.00  0.00     0.029 A 
ATOM     58  C   UNL A   1      44.603  28.834  29.119  1.00  0.00     0.049 A 
ATOM     59  H   UNL A   1      42.919  29.963  29.602  1.00  0.00     0.167 HD
ATOM     60  C   UNL A   1      39.318  32.382  30.214  1.00  0.00     0.034 A 
ATOM     61  C   UNL A   1      45.685  29.570  29.444  1.00  0.00     0.034 A 
ATOM     62  C   UNL A   1      40.399  33.174  30.732  1.00  0.00     0.049 A 
ATOM     63  C   UNL A   1      45.484  30.930  30.058  1.00  0.00     0.074 A 
ATOM     64  C   UNL A   1      40.340  34.410  31.352  1.00  0.00     0.029 A 
ATOM     65  N   UNL A   1      41.736  32.810  30.693  1.00  0.00    -0.354 N 
ATOM     66  N   UNL A   1      44.364  31.554  30.332  1.00  0.00    -0.248 NA
ATOM     67  C   UNL A   1      46.694  31.672  30.441  1.00  0.00     0.031 C 
ATOM     68  C   UNL A   1      41.644  34.800  31.674  1.00  0.00     0.029 A 
ATOM     69  C   UNL A   1      42.513  33.798  31.274  1.00  0.00     0.049 A 
ATOM     70  H   UNL A   1      42.082  31.973  30.307  1.00  0.00     0.167 HD
ATOM     71  C   UNL A   1      44.732  32.742  30.954  1.00  0.00     0.074 A 
ATOM     72  C   UNL A   1      46.178  32.739  31.036  1.00  0.00     0.031 C 
ATOM     73  C   UNL A   1      43.947  33.751  31.402  1.00  0.00     0.034 A 
BRANCH  60  74
ATOM     74  C   UNL A   1      37.919  32.937  30.305  1.00  0.00     0.023 A 
ATOM     75  C   UNL A   1      37.267  33.365  29.131  1.00  0.00     0.012 A 
ATOM     76  C   UNL A   1      37.228  32.978  31.532  1.00  0.00     0.148 A 
ATOM     77  C   UNL A   1      35.964  33.860  29.179  1.00  0.00     0.002 A 
ATOM     78  C   UNL A   1      35.913  33.430  31.566  1.00  0.00     0.091 A 
ATOM     79  F   UNL A   1      37.869  32.584  32.641  1.00  0.00    -0.205 F 
ATOM     80  C   UNL A   1      35.285  33.883  30.393  1.00  0.00     0.022 A 
BRANCH  78  81
ATOM     81  S   UNL A   1      34.922  33.426  33.064  1.00  0.00     0.127 S 
ATOM     82  O   UNL A   1      34.905  34.845  33.411  1.00  0.00    -0.237 OA
ATOM     83  O   UNL A   1      33.643  32.901  32.584  1.00  0.00    -0.237 OA
ATOM     84  O   UNL A   1      35.620  32.560  34.005  1.00  0.00    -0.744 OA
ENDBRANCH  78  81
ENDBRANCH  60  74
BRANCH  61  85
ATOM     85  C   UNL A   1      47.054  29.005  29.271  1.00  0.00     0.023 A 
ATOM     86  C   UNL A   1      47.591  28.179  30.279  1.00  0.00     0.012 A 
ATOM     87  C   UNL A   1      47.818  29.260  28.116  1.00  0.00     0.148 A 
ATOM     88  C   UNL A   1      48.876  27.649  30.157  1.00  0.00     0.002 A 
ATOM     89  C   UNL A   1      49.074  28.682  27.974  1.00  0.00     0.091 A 
ATOM     90  F   UNL A   1      47.298  30.058  27.172  1.00  0.00    -0.205 F 
ATOM     91  C   UNL A   1      49.613  27.892  29.002  1.00  0.00     0.022 A 
BRANCH  89  92
ATOM     92  S   UNL A   1      50.034  28.827  26.462  1.00  0.00     0.127 S 
ATOM     93  O   UNL A   1      51.180  27.968  26.751  1.00  0.00    -0.237 OA
ATOM     94  O   UNL A   1      49.105  28.302  25.460  1.00  0.00    -0.237 OA
ATOM     95  O   UNL A   1      50.323  30.248  26.319  1.00  0.00    -0.744 OA
ENDBRANCH  89  92
ENDBRANCH  61  85
BRANCH  73  96
ATOM     96  C   UNL A   1      44.624  34.924  32.061  1.00  0.00     0.023 A 
ATOM     97  C   UNL A   1      44.994  36.043  31.290  1.00  0.00     0.012 A 
ATOM     98  C   UNL A   1      44.823  34.947  33.456  1.00  0.00     0.148 A 
ATOM     99  C   UNL A   1      45.584  37.154  31.891  1.00  0.00     0.002 A 
ATOM    100  C   UNL A   1      45.366  36.078  34.054  1.00  0.00     0.091 A 
ATOM    101  F   UNL A   1      44.480  33.865  34.169  1.00  0.00    -0.205 F 
ATOM    102  C   UNL A   1      45.758  37.177  33.272  1.00  0.00     0.022 A 
BRANCH 100 103
ATOM    103  S   UNL A   1      45.537  36.234  35.836  1.00  0.00     0.127 S 
ATOM    104  O   UNL A   1      46.470  35.151  36.141  1.00  0.00    -0.237 OA
ATOM    105  O   UNL A   1      46.095  37.579  35.978  1.00  0.00    -0.237 OA
ATOM    106  O   UNL A   1      44.196  36.076  36.383  1.00  0.00    -0.744 OA
ENDBRANCH 100 103
ENDBRANCH  73  96
ENDBRANCH  47  48
ENDBRANCH  39  42
ENDBRANCH  37  38
ENDBRANCH  36  37
ENDBRANCH   1  36
TORSDOF 18
ENDMDL
