MODEL 1
REMARK VINA RESULT:     -12.4      0.000      0.000
REMARK SMILES CC[C@H](C)c1ccccc1Oc1cccc(F)c1C(=O)NCCCNC(=O)c1ccc(-c2c3nc(c(-c4cccc(S(=O)(=O)[O-])c4F)c4ccc([nH]4)c(-c4cccc(S(=O)(=O)[O-])c4F)c4nc(c(-c5cccc(S(=O)(=O)[O-])c5F)c5ccc2[nH]5)C=C4)C=C3)cc1
REMARK SMILES IDX 22 1 21 2 19 3 20 4 18 6 12 7 13 8 14 9 16 10 15 11 17 12
REMARK SMILES IDX 11 13 10 14 5 15 6 16 7 17 9 18 8 19 3 20 4 21 2 22 1 23
REMARK SMILES IDX 23 24 24 25 25 26 26 27 27 29 28 30 29 31 90 32 30 33 89 34
REMARK SMILES IDX 31 35 32 36 33 37 83 38 34 39 88 40 82 41 84 42 35 43 87 44
REMARK SMILES IDX 81 45 80 46 36 48 68 49 48 50 67 51 49 52 52 53 66 54 85 55
REMARK SMILES IDX 50 56 51 57 65 59 86 60 53 61 37 62 38 63 46 64 39 65 41 66
REMARK SMILES IDX 47 67 40 68 42 69 43 70 44 71 45 72 69 73 70 74 78 75 71 76
REMARK SMILES IDX 73 77 79 78 72 79 74 80 75 81 76 82 77 83 54 84 55 85 63 86
REMARK SMILES IDX 56 87 58 88 64 89 57 90 59 91 60 92 61 93 62 94
REMARK H PARENT 21 5 25 28 84 47 52 58
REMARK Flexibility Score: inf
ROOT
ATOM      1  C   UNL A   1      32.287  27.731  26.815  1.00  0.00     0.118 C 
ENDROOT
BRANCH   1   2
ATOM      2  N   UNL A   1      31.326  26.671  26.876  1.00  0.00    -0.352 N 
ATOM      3  C   UNL A   1      31.293  25.524  26.126  1.00  0.00     0.258 C 
ATOM      4  O   UNL A   1      30.593  24.609  26.565  1.00  0.00    -0.269 OA
ATOM      5  H   UNL A   1      30.603  26.779  27.536  1.00  0.00     0.163 HD
BRANCH   3   6
ATOM      6  C   UNL A   1      31.975  25.354  24.807  1.00  0.00     0.118 A 
ATOM      7  C   UNL A   1      33.222  24.794  24.471  1.00  0.00     0.143 A 
ATOM      8  C   UNL A   1      33.679  24.900  23.132  1.00  0.00     0.048 A 
ATOM      9  C   UNL A   1      32.906  25.442  22.111  1.00  0.00     0.007 A 
ATOM     10  C   UNL A   1      31.202  25.881  23.740  1.00  0.00     0.139 A 
ATOM     11  C   UNL A   1      31.647  25.917  22.417  1.00  0.00     0.040 A 
ATOM     12  F   UNL A   1      29.994  26.429  23.956  1.00  0.00    -0.206 F 
BRANCH   7  13
ATOM     13  O   UNL A   1      34.251  24.308  25.236  1.00  0.00    -0.456 OA
BRANCH  13  14
ATOM     14  C   UNL A   1      34.971  23.152  25.100  1.00  0.00     0.130 A 
ATOM     15  C   UNL A   1      34.576  21.816  24.996  1.00  0.00    -0.002 A 
ATOM     16  C   UNL A   1      35.601  20.832  24.997  1.00  0.00     0.008 A 
ATOM     17  C   UNL A   1      36.959  21.160  24.997  1.00  0.00     0.001 A 
ATOM     18  C   UNL A   1      36.351  23.468  24.993  1.00  0.00     0.047 A 
ATOM     19  C   UNL A   1      37.338  22.488  24.960  1.00  0.00     0.004 A 
BRANCH  15  20
ATOM     20  C   UNL A   1      33.158  21.291  24.819  1.00  0.00     0.019 C 
ATOM     21  C   UNL A   1      32.282  21.642  26.023  1.00  0.00     0.013 C 
BRANCH  20  22
ATOM     22  C   UNL A   1      32.609  21.471  23.385  1.00  0.00     0.005 C 
ATOM     23  C   UNL A   1      32.153  20.217  22.662  1.00  0.00     0.004 C 
ENDBRANCH  20  22
ENDBRANCH  15  20
ENDBRANCH  13  14
ENDBRANCH   7  13
ENDBRANCH   3   6
ENDBRANCH   1   2
BRANCH   1  24
ATOM     24  C   UNL A   1      31.751  29.138  26.854  1.00  0.00     0.042 C 
BRANCH  24  25
ATOM     25  C   UNL A   1      32.641  30.147  26.149  1.00  0.00     0.118 C 
BRANCH  25  26
ATOM     26  N   UNL A   1      32.541  31.514  26.674  1.00  0.00    -0.352 N 
ATOM     27  C   UNL A   1      33.396  32.242  27.480  1.00  0.00     0.251 C 
ATOM     28  H   UNL A   1      31.725  31.996  26.405  1.00  0.00     0.163 HD
ATOM     29  O   UNL A   1      33.070  33.342  27.894  1.00  0.00    -0.269 OA
BRANCH  27  30
ATOM     30  C   UNL A   1      34.695  31.652  27.875  1.00  0.00     0.039 A 
ATOM     31  C   UNL A   1      35.808  32.477  28.056  1.00  0.00     0.014 A 
ATOM     32  C   UNL A   1      34.784  30.291  28.147  1.00  0.00     0.014 A 
ATOM     33  C   UNL A   1      36.968  31.949  28.634  1.00  0.00     0.010 A 
ATOM     34  C   UNL A   1      35.865  29.812  28.868  1.00  0.00     0.010 A 
ATOM     35  C   UNL A   1      36.980  30.628  29.106  1.00  0.00    -0.014 A 
BRANCH  35  36
ATOM     36  C   UNL A   1      38.135  30.046  29.838  1.00  0.00     0.031 A 
ATOM     37  C   UNL A   1      38.401  30.470  31.261  1.00  0.00     0.074 A 
ATOM     38  C   UNL A   1      39.020  29.262  29.190  1.00  0.00     0.049 A 
ATOM     39  N   UNL A   1      39.430  30.211  32.023  1.00  0.00    -0.248 NA
ATOM     40  C   UNL A   1      37.406  31.359  31.889  1.00  0.00     0.031 C 
ATOM     41  C   UNL A   1      38.946  28.880  27.777  1.00  0.00     0.029 A 
ATOM     42  N   UNL A   1      40.182  28.676  29.626  1.00  0.00    -0.354 N 
ATOM     43  C   UNL A   1      39.244  30.965  33.176  1.00  0.00     0.074 A 
ATOM     44  C   UNL A   1      38.033  31.730  32.994  1.00  0.00     0.031 C 
ATOM     45  C   UNL A   1      40.004  28.113  27.469  1.00  0.00     0.029 A 
ATOM     46  C   UNL A   1      40.849  27.972  28.650  1.00  0.00     0.049 A 
ATOM     47  H   UNL A   1      40.508  28.751  30.552  1.00  0.00     0.167 HD
ATOM     48  C   UNL A   1      39.986  30.985  34.308  1.00  0.00     0.034 A 
ATOM     49  C   UNL A   1      42.010  27.290  28.701  1.00  0.00     0.034 A 
ATOM     50  C   UNL A   1      41.126  30.138  34.521  1.00  0.00     0.049 A 
ATOM     51  C   UNL A   1      42.746  27.215  30.011  1.00  0.00     0.074 A 
ATOM     52  C   UNL A   1      41.864  29.961  35.677  1.00  0.00     0.029 A 
ATOM     53  N   UNL A   1      41.684  29.315  33.556  1.00  0.00    -0.354 N 
ATOM     54  N   UNL A   1      42.455  27.791  31.153  1.00  0.00    -0.248 NA
ATOM     55  C   UNL A   1      43.945  26.367  30.055  1.00  0.00     0.031 C 
ATOM     56  C   UNL A   1      42.877  29.035  35.405  1.00  0.00     0.029 A 
ATOM     57  C   UNL A   1      42.760  28.626  34.086  1.00  0.00     0.049 A 
ATOM     58  H   UNL A   1      41.363  29.233  32.629  1.00  0.00     0.167 HD
ATOM     59  C   UNL A   1      43.414  27.352  32.058  1.00  0.00     0.074 A 
ATOM     60  C   UNL A   1      44.281  26.443  31.337  1.00  0.00     0.031 C 
ATOM     61  C   UNL A   1      43.575  27.685  33.364  1.00  0.00     0.034 A 
BRANCH  48  62
ATOM     62  C   UNL A   1      39.536  31.895  35.422  1.00  0.00     0.023 A 
ATOM     63  C   UNL A   1      39.948  33.244  35.432  1.00  0.00     0.012 A 
ATOM     64  C   UNL A   1      38.693  31.426  36.448  1.00  0.00     0.148 A 
ATOM     65  C   UNL A   1      39.575  34.097  36.469  1.00  0.00     0.002 A 
ATOM     66  C   UNL A   1      38.281  32.296  37.451  1.00  0.00     0.091 A 
ATOM     67  F   UNL A   1      38.328  30.136  36.439  1.00  0.00    -0.205 F 
ATOM     68  C   UNL A   1      38.734  33.626  37.472  1.00  0.00     0.022 A 
BRANCH  66  69
ATOM     69  S   UNL A   1      37.130  31.807  38.741  1.00  0.00     0.127 S 
ATOM     70  O   UNL A   1      37.897  32.106  39.949  1.00  0.00    -0.237 OA
ATOM     71  O   UNL A   1      35.999  32.704  38.501  1.00  0.00    -0.237 OA
ATOM     72  O   UNL A   1      36.845  30.399  38.506  1.00  0.00    -0.744 OA
ENDBRANCH  66  69
ENDBRANCH  48  62
BRANCH  49  73
ATOM     73  C   UNL A   1      42.486  26.546  27.500  1.00  0.00     0.023 A 
ATOM     74  C   UNL A   1      43.311  27.204  26.566  1.00  0.00     0.012 A 
ATOM     75  C   UNL A   1      42.180  25.185  27.305  1.00  0.00     0.148 A 
ATOM     76  C   UNL A   1      43.803  26.529  25.448  1.00  0.00     0.002 A 
ATOM     77  C   UNL A   1      42.717  24.504  26.217  1.00  0.00     0.091 A 
ATOM     78  F   UNL A   1      41.388  24.577  28.199  1.00  0.00    -0.205 F 
ATOM     79  C   UNL A   1      43.515  25.178  25.279  1.00  0.00     0.022 A 
BRANCH  77  80
ATOM     80  S   UNL A   1      42.516  22.733  25.990  1.00  0.00     0.127 S 
ATOM     81  O   UNL A   1      43.288  22.198  27.109  1.00  0.00    -0.237 OA
ATOM     82  O   UNL A   1      41.067  22.575  26.109  1.00  0.00    -0.237 OA
ATOM     83  O   UNL A   1      43.043  22.444  24.663  1.00  0.00    -0.744 OA
ENDBRANCH  77  80
ENDBRANCH  49  73
BRANCH  61  84
ATOM     84  C   UNL A   1      44.715  27.047  34.110  1.00  0.00     0.023 A 
ATOM     85  C   UNL A   1      45.987  27.653  34.091  1.00  0.00     0.012 A 
ATOM     86  C   UNL A   1      44.505  25.898  34.897  1.00  0.00     0.148 A 
ATOM     87  C   UNL A   1      47.039  27.110  34.824  1.00  0.00     0.002 A 
ATOM     88  C   UNL A   1      45.546  25.390  35.664  1.00  0.00     0.091 A 
ATOM     89  F   UNL A   1      43.293  25.325  34.884  1.00  0.00    -0.205 F 
ATOM     90  C   UNL A   1      46.817  25.987  35.620  1.00  0.00     0.022 A 
BRANCH  88  91
ATOM     91  S   UNL A   1      45.319  24.010  36.790  1.00  0.00     0.127 S 
ATOM     92  O   UNL A   1      44.874  22.954  35.883  1.00  0.00    -0.237 OA
ATOM     93  O   UNL A   1      46.667  23.822  37.330  1.00  0.00    -0.237 OA
ATOM     94  O   UNL A   1      44.336  24.453  37.770  1.00  0.00    -0.744 OA
ENDBRANCH  88  91
ENDBRANCH  61  84
ENDBRANCH  35  36
ENDBRANCH  27  30
ENDBRANCH  25  26
ENDBRANCH  24  25
ENDBRANCH   1  24
TORSDOF 17
ENDMDL
MODEL 2
REMARK VINA RESULT:     -12.2      1.233      7.624
REMARK SMILES CC[C@H](C)c1ccccc1Oc1cccc(F)c1C(=O)NCCCNC(=O)c1ccc(-c2c3nc(c(-c4cccc(S(=O)(=O)[O-])c4F)c4ccc([nH]4)c(-c4cccc(S(=O)(=O)[O-])c4F)c4nc(c(-c5cccc(S(=O)(=O)[O-])c5F)c5ccc2[nH]5)C=C4)C=C3)cc1
REMARK SMILES IDX 22 1 21 2 19 3 20 4 18 6 12 7 13 8 14 9 16 10 15 11 17 12
REMARK SMILES IDX 11 13 10 14 5 15 6 16 7 17 9 18 8 19 3 20 4 21 2 22 1 23
REMARK SMILES IDX 23 24 24 25 25 26 26 27 27 29 28 30 29 31 90 32 30 33 89 34
REMARK SMILES IDX 31 35 32 36 33 37 83 38 34 39 88 40 82 41 84 42 35 43 87 44
REMARK SMILES IDX 81 45 80 46 36 48 68 49 48 50 67 51 49 52 52 53 66 54 85 55
REMARK SMILES IDX 50 56 51 57 65 59 86 60 53 61 37 62 38 63 46 64 39 65 41 66
REMARK SMILES IDX 47 67 40 68 42 69 43 70 44 71 45 72 69 73 70 74 78 75 71 76
REMARK SMILES IDX 73 77 79 78 72 79 74 80 75 81 76 82 77 83 54 84 55 85 63 86
REMARK SMILES IDX 56 87 58 88 64 89 57 90 59 91 60 92 61 93 62 94
REMARK H PARENT 21 5 25 28 84 47 52 58
REMARK Flexibility Score: inf
ROOT
ATOM      1  C   UNL A   1      33.694  28.818  25.712  1.00  0.00     0.118 C 
ENDROOT
BRANCH   1   2
ATOM      2  N   UNL A   1      33.962  28.021  24.554  1.00  0.00    -0.352 N 
ATOM      3  C   UNL A   1      33.270  26.923  24.111  1.00  0.00     0.258 C 
ATOM      4  O   UNL A   1      33.459  26.599  22.936  1.00  0.00    -0.269 OA
ATOM      5  H   UNL A   1      34.737  28.293  24.010  1.00  0.00     0.163 HD
BRANCH   3   6
ATOM      6  C   UNL A   1      32.387  26.075  24.969  1.00  0.00     0.118 A 
ATOM      7  C   UNL A   1      32.686  25.023  25.855  1.00  0.00     0.143 A 
ATOM      8  C   UNL A   1      31.615  24.295  26.435  1.00  0.00     0.048 A 
ATOM      9  C   UNL A   1      30.280  24.638  26.249  1.00  0.00     0.007 A 
ATOM     10  C   UNL A   1      31.018  26.414  24.817  1.00  0.00     0.139 A 
ATOM     11  C   UNL A   1      29.983  25.722  25.448  1.00  0.00     0.040 A 
ATOM     12  F   UNL A   1      30.631  27.410  24.001  1.00  0.00    -0.206 F 
BRANCH   7  13
ATOM     13  O   UNL A   1      33.855  24.372  26.154  1.00  0.00    -0.456 OA
BRANCH  13  14
ATOM     14  C   UNL A   1      34.735  23.731  25.325  1.00  0.00     0.130 A 
ATOM     15  C   UNL A   1      34.538  22.915  24.208  1.00  0.00    -0.002 A 
ATOM     16  C   UNL A   1      35.683  22.293  23.645  1.00  0.00     0.008 A 
ATOM     17  C   UNL A   1      36.979  22.549  24.101  1.00  0.00     0.001 A 
ATOM     18  C   UNL A   1      36.063  24.059  25.705  1.00  0.00     0.047 A 
ATOM     19  C   UNL A   1      37.174  23.466  25.115  1.00  0.00     0.004 A 
BRANCH  15  20
ATOM     20  C   UNL A   1      33.224  22.659  23.482  1.00  0.00     0.019 C 
ATOM     21  C   UNL A   1      33.237  23.267  22.078  1.00  0.00     0.013 C 
BRANCH  20  22
ATOM     22  C   UNL A   1      32.667  21.234  23.701  1.00  0.00     0.005 C 
ATOM     23  C   UNL A   1      32.209  20.884  25.105  1.00  0.00     0.004 C 
ENDBRANCH  20  22
ENDBRANCH  15  20
ENDBRANCH  13  14
ENDBRANCH   7  13
ENDBRANCH   3   6
ENDBRANCH   1   2
BRANCH   1  24
ATOM     24  C   UNL A   1      32.744  29.973  25.538  1.00  0.00     0.042 C 
BRANCH  24  25
ATOM     25  C   UNL A   1      32.091  30.424  26.832  1.00  0.00     0.118 C 
BRANCH  25  26
ATOM     26  N   UNL A   1      32.026  31.880  27.005  1.00  0.00    -0.352 N 
ATOM     27  C   UNL A   1      32.942  32.775  27.526  1.00  0.00     0.251 C 
ATOM     28  H   UNL A   1      31.186  32.291  26.696  1.00  0.00     0.163 HD
ATOM     29  O   UNL A   1      32.645  33.948  27.679  1.00  0.00    -0.269 OA
BRANCH  27  30
ATOM     30  C   UNL A   1      34.276  32.284  27.942  1.00  0.00     0.039 A 
ATOM     31  C   UNL A   1      35.372  33.151  27.931  1.00  0.00     0.014 A 
ATOM     32  C   UNL A   1      34.418  30.986  28.422  1.00  0.00     0.014 A 
ATOM     33  C   UNL A   1      36.572  32.748  28.524  1.00  0.00     0.010 A 
ATOM     34  C   UNL A   1      35.546  30.653  29.153  1.00  0.00     0.010 A 
ATOM     35  C   UNL A   1      36.647  31.520  29.200  1.00  0.00    -0.014 A 
BRANCH  35  36
ATOM     36  C   UNL A   1      37.853  31.089  29.954  1.00  0.00     0.031 A 
ATOM     37  C   UNL A   1      38.818  30.122  29.316  1.00  0.00     0.074 A 
ATOM     38  C   UNL A   1      38.003  31.441  31.246  1.00  0.00     0.049 A 
ATOM     39  N   UNL A   1      39.837  29.499  29.847  1.00  0.00    -0.248 NA
ATOM     40  C   UNL A   1      38.564  29.754  27.911  1.00  0.00     0.031 C 
ATOM     41  C   UNL A   1      37.073  32.270  32.018  1.00  0.00     0.029 A 
ATOM     42  N   UNL A   1      38.979  31.114  32.154  1.00  0.00    -0.354 N 
ATOM     43  C   UNL A   1      40.289  28.616  28.872  1.00  0.00     0.074 A 
ATOM     44  C   UNL A   1      39.403  28.744  27.738  1.00  0.00     0.031 C 
ATOM     45  C   UNL A   1      37.531  32.398  33.274  1.00  0.00     0.029 A 
ATOM     46  C   UNL A   1      38.769  31.637  33.409  1.00  0.00     0.049 A 
ATOM     47  H   UNL A   1      39.759  30.556  31.928  1.00  0.00     0.167 HD
ATOM     48  C   UNL A   1      41.371  27.805  28.895  1.00  0.00     0.034 A 
ATOM     49  C   UNL A   1      39.491  31.518  34.540  1.00  0.00     0.034 A 
ATOM     50  C   UNL A   1      42.307  27.767  29.983  1.00  0.00     0.049 A 
ATOM     51  C   UNL A   1      40.766  30.720  34.501  1.00  0.00     0.074 A 
ATOM     52  C   UNL A   1      43.516  27.100  30.056  1.00  0.00     0.029 A 
ATOM     53  N   UNL A   1      42.142  28.436  31.185  1.00  0.00    -0.354 N 
ATOM     54  N   UNL A   1      41.278  30.034  33.507  1.00  0.00    -0.248 NA
ATOM     55  C   UNL A   1      41.585  30.710  35.721  1.00  0.00     0.031 C 
ATOM     56  C   UNL A   1      44.078  27.360  31.311  1.00  0.00     0.029 A 
ATOM     57  C   UNL A   1      43.226  28.200  32.011  1.00  0.00     0.049 A 
ATOM     58  H   UNL A   1      41.367  28.997  31.417  1.00  0.00     0.167 HD
ATOM     59  C   UNL A   1      42.491  29.537  33.970  1.00  0.00     0.074 A 
ATOM     60  C   UNL A   1      42.648  30.021  35.327  1.00  0.00     0.031 C 
ATOM     61  C   UNL A   1      43.386  28.737  33.337  1.00  0.00     0.034 A 
BRANCH  48  62
ATOM     62  C   UNL A   1      41.636  26.958  27.676  1.00  0.00     0.023 A 
ATOM     63  C   UNL A   1      42.079  27.569  26.484  1.00  0.00     0.012 A 
ATOM     64  C   UNL A   1      41.465  25.561  27.711  1.00  0.00     0.148 A 
ATOM     65  C   UNL A   1      42.297  26.813  25.333  1.00  0.00     0.002 A 
ATOM     66  C   UNL A   1      41.735  24.807  26.574  1.00  0.00     0.091 A 
ATOM     67  F   UNL A   1      41.020  24.997  28.842  1.00  0.00    -0.205 F 
ATOM     68  C   UNL A   1      42.134  25.433  25.381  1.00  0.00     0.022 A 
BRANCH  66  69
ATOM     69  S   UNL A   1      41.637  23.013  26.559  1.00  0.00     0.127 S 
ATOM     70  O   UNL A   1      42.465  22.663  27.712  1.00  0.00    -0.237 OA
ATOM     71  O   UNL A   1      40.204  22.781  26.746  1.00  0.00    -0.237 OA
ATOM     72  O   UNL A   1      42.153  22.597  25.263  1.00  0.00    -0.744 OA
ENDBRANCH  66  69
ENDBRANCH  48  62
BRANCH  49  73
ATOM     73  C   UNL A   1      39.074  32.254  35.767  1.00  0.00     0.023 A 
ATOM     74  C   UNL A   1      39.364  33.629  35.876  1.00  0.00     0.012 A 
ATOM     75  C   UNL A   1      38.345  31.624  36.795  1.00  0.00     0.148 A 
ATOM     76  C   UNL A   1      38.959  34.358  36.995  1.00  0.00     0.002 A 
ATOM     77  C   UNL A   1      37.899  32.368  37.882  1.00  0.00     0.091 A 
ATOM     78  F   UNL A   1      38.085  30.315  36.678  1.00  0.00    -0.205 F 
ATOM     79  C   UNL A   1      38.218  33.730  37.992  1.00  0.00     0.022 A 
BRANCH  77  80
ATOM     80  S   UNL A   1      36.822  31.681  39.146  1.00  0.00     0.127 S 
ATOM     81  O   UNL A   1      37.555  31.997  40.369  1.00  0.00    -0.237 OA
ATOM     82  O   UNL A   1      35.593  32.450  38.948  1.00  0.00    -0.237 OA
ATOM     83  O   UNL A   1      36.699  30.264  38.830  1.00  0.00    -0.744 OA
ENDBRANCH  77  80
ENDBRANCH  49  73
BRANCH  61  84
ATOM     84  C   UNL A   1      44.630  28.351  34.091  1.00  0.00     0.023 A 
ATOM     85  C   UNL A   1      45.786  29.148  33.981  1.00  0.00     0.012 A 
ATOM     86  C   UNL A   1      44.625  27.253  34.971  1.00  0.00     0.148 A 
ATOM     87  C   UNL A   1      46.928  28.841  34.717  1.00  0.00     0.002 A 
ATOM     88  C   UNL A   1      45.750  26.981  35.739  1.00  0.00     0.091 A 
ATOM     89  F   UNL A   1      43.521  26.495  35.045  1.00  0.00    -0.205 F 
ATOM     90  C   UNL A   1      46.907  27.767  35.605  1.00  0.00     0.022 A 
BRANCH  88  91
ATOM     91  S   UNL A   1      45.774  25.679  36.976  1.00  0.00     0.127 S 
ATOM     92  O   UNL A   1      45.642  24.481  36.150  1.00  0.00    -0.237 OA
ATOM     93  O   UNL A   1      47.091  25.855  37.590  1.00  0.00    -0.237 OA
ATOM     94  O   UNL A   1      44.655  25.957  37.866  1.00  0.00    -0.744 OA
ENDBRANCH  88  91
ENDBRANCH  61  84
ENDBRANCH  35  36
ENDBRANCH  27  30
ENDBRANCH  25  26
ENDBRANCH  24  25
ENDBRANCH   1  24
TORSDOF 17
ENDMDL
MODEL 3
REMARK VINA RESULT:     -12.2      1.280      2.998
REMARK SMILES CC[C@H](C)c1ccccc1Oc1cccc(F)c1C(=O)NCCCNC(=O)c1ccc(-c2c3nc(c(-c4cccc(S(=O)(=O)[O-])c4F)c4ccc([nH]4)c(-c4cccc(S(=O)(=O)[O-])c4F)c4nc(c(-c5cccc(S(=O)(=O)[O-])c5F)c5ccc2[nH]5)C=C4)C=C3)cc1
REMARK SMILES IDX 22 1 21 2 19 3 20 4 18 6 12 7 13 8 14 9 16 10 15 11 17 12
REMARK SMILES IDX 11 13 10 14 5 15 6 16 7 17 9 18 8 19 3 20 4 21 2 22 1 23
REMARK SMILES IDX 23 24 24 25 25 26 26 27 27 29 28 30 29 31 90 32 30 33 89 34
REMARK SMILES IDX 31 35 32 36 33 37 83 38 34 39 88 40 82 41 84 42 35 43 87 44
REMARK SMILES IDX 81 45 80 46 36 48 68 49 48 50 67 51 49 52 52 53 66 54 85 55
REMARK SMILES IDX 50 56 51 57 65 59 86 60 53 61 37 62 38 63 46 64 39 65 41 66
REMARK SMILES IDX 47 67 40 68 42 69 43 70 44 71 45 72 69 73 70 74 78 75 71 76
REMARK SMILES IDX 73 77 79 78 72 79 74 80 75 81 76 82 77 83 54 84 55 85 63 86
REMARK SMILES IDX 56 87 58 88 64 89 57 90 59 91 60 92 61 93 62 94
REMARK H PARENT 21 5 25 28 84 47 52 58
REMARK Flexibility Score: inf
ROOT
ATOM      1  C   UNL A   1      31.870  26.673  26.486  1.00  0.00     0.118 C 
ENDROOT
BRANCH   1   2
ATOM      2  N   UNL A   1      30.896  25.695  26.866  1.00  0.00    -0.352 N 
ATOM      3  C   UNL A   1      30.920  24.347  26.619  1.00  0.00     0.258 C 
ATOM      4  O   UNL A   1      30.172  23.654  27.313  1.00  0.00    -0.269 OA
ATOM      5  H   UNL A   1      30.117  26.031  27.365  1.00  0.00     0.163 HD
BRANCH   3   6
ATOM      6  C   UNL A   1      31.718  23.698  25.534  1.00  0.00     0.118 A 
ATOM      7  C   UNL A   1      31.640  23.805  24.133  1.00  0.00     0.143 A 
ATOM      8  C   UNL A   1      32.445  22.948  23.338  1.00  0.00     0.048 A 
ATOM      9  C   UNL A   1      33.384  22.078  23.878  1.00  0.00     0.007 A 
ATOM     10  C   UNL A   1      32.700  22.817  26.055  1.00  0.00     0.139 A 
ATOM     11  C   UNL A   1      33.526  22.029  25.250  1.00  0.00     0.040 A 
ATOM     12  F   UNL A   1      32.860  22.652  27.379  1.00  0.00    -0.206 F 
BRANCH   7  13
ATOM     13  O   UNL A   1      30.762  24.455  23.304  1.00  0.00    -0.456 OA
BRANCH  13  14
ATOM     14  C   UNL A   1      30.497  25.793  23.188  1.00  0.00     0.130 A 
ATOM     15  C   UNL A   1      31.290  26.867  22.777  1.00  0.00    -0.002 A 
ATOM     16  C   UNL A   1      30.736  28.170  22.900  1.00  0.00     0.008 A 
ATOM     17  C   UNL A   1      29.420  28.392  23.313  1.00  0.00     0.001 A 
ATOM     18  C   UNL A   1      29.134  26.031  23.504  1.00  0.00     0.047 A 
ATOM     19  C   UNL A   1      28.601  27.313  23.584  1.00  0.00     0.004 A 
BRANCH  15  20
ATOM     20  C   UNL A   1      32.676  26.796  22.150  1.00  0.00     0.019 C 
ATOM     21  C   UNL A   1      32.713  25.790  20.999  1.00  0.00     0.013 C 
BRANCH  20  22
ATOM     22  C   UNL A   1      33.351  28.177  21.992  1.00  0.00     0.005 C 
ATOM     23  C   UNL A   1      34.473  28.507  22.959  1.00  0.00     0.004 C 
ENDBRANCH  20  22
ENDBRANCH  15  20
ENDBRANCH  13  14
ENDBRANCH   7  13
ENDBRANCH   3   6
ENDBRANCH   1   2
BRANCH   1  24
ATOM     24  C   UNL A   1      31.481  28.119  26.647  1.00  0.00     0.042 C 
BRANCH  24  25
ATOM     25  C   UNL A   1      32.499  29.090  26.075  1.00  0.00     0.118 C 
BRANCH  25  26
ATOM     26  N   UNL A   1      32.251  30.498  26.411  1.00  0.00    -0.352 N 
ATOM     27  C   UNL A   1      33.022  31.418  27.095  1.00  0.00     0.251 C 
ATOM     28  H   UNL A   1      31.386  30.846  26.093  1.00  0.00     0.163 HD
ATOM     29  O   UNL A   1      32.578  32.522  27.362  1.00  0.00    -0.269 OA
BRANCH  27  30
ATOM     30  C   UNL A   1      34.379  31.032  27.544  1.00  0.00     0.039 A 
ATOM     31  C   UNL A   1      35.275  32.014  27.977  1.00  0.00     0.014 A 
ATOM     32  C   UNL A   1      34.731  29.689  27.614  1.00  0.00     0.014 A 
ATOM     33  C   UNL A   1      36.468  31.630  28.598  1.00  0.00     0.010 A 
ATOM     34  C   UNL A   1      35.825  29.312  28.374  1.00  0.00     0.010 A 
ATOM     35  C   UNL A   1      36.720  30.275  28.862  1.00  0.00    -0.014 A 
BRANCH  35  36
ATOM     36  C   UNL A   1      37.908  29.812  29.626  1.00  0.00     0.031 A 
ATOM     37  C   UNL A   1      38.115  30.296  31.039  1.00  0.00     0.074 A 
ATOM     38  C   UNL A   1      38.864  29.086  29.012  1.00  0.00     0.049 A 
ATOM     39  N   UNL A   1      39.150  30.145  31.821  1.00  0.00    -0.248 NA
ATOM     40  C   UNL A   1      37.041  31.117  31.628  1.00  0.00     0.031 C 
ATOM     41  C   UNL A   1      38.843  28.661  27.610  1.00  0.00     0.029 A 
ATOM     42  N   UNL A   1      40.063  28.611  29.480  1.00  0.00    -0.354 N 
ATOM     43  C   UNL A   1      38.884  30.912  32.950  1.00  0.00     0.074 A 
ATOM     44  C   UNL A   1      37.617  31.569  32.729  1.00  0.00     0.031 C 
ATOM     45  C   UNL A   1      39.966  27.975  27.339  1.00  0.00     0.029 A 
ATOM     46  C   UNL A   1      40.801  27.937  28.534  1.00  0.00     0.049 A 
ATOM     47  H   UNL A   1      40.367  28.738  30.408  1.00  0.00     0.167 HD
ATOM     48  C   UNL A   1      39.604  31.025  34.091  1.00  0.00     0.034 A 
ATOM     49  C   UNL A   1      42.013  27.356  28.621  1.00  0.00     0.034 A 
ATOM     50  C   UNL A   1      40.806  30.282  34.343  1.00  0.00     0.049 A 
ATOM     51  C   UNL A   1      42.733  27.379  29.942  1.00  0.00     0.074 A 
ATOM     52  C   UNL A   1      41.538  30.199  35.513  1.00  0.00     0.029 A 
ATOM     53  N   UNL A   1      41.446  29.481  33.409  1.00  0.00    -0.354 N 
ATOM     54  N   UNL A   1      42.377  27.960  31.063  1.00  0.00    -0.248 NA
ATOM     55  C   UNL A   1      43.997  26.634  30.027  1.00  0.00     0.031 C 
ATOM     56  C   UNL A   1      42.629  29.354  35.282  1.00  0.00     0.029 A 
ATOM     57  C   UNL A   1      42.566  28.899  33.974  1.00  0.00     0.049 A 
ATOM     58  H   UNL A   1      41.147  29.347  32.481  1.00  0.00     0.167 HD
ATOM     59  C   UNL A   1      43.355  27.627  31.993  1.00  0.00     0.074 A 
ATOM     60  C   UNL A   1      44.306  26.774  31.310  1.00  0.00     0.031 C 
ATOM     61  C   UNL A   1      43.468  28.009  33.290  1.00  0.00     0.034 A 
BRANCH  48  62
ATOM     62  C   UNL A   1      39.063  31.925  35.172  1.00  0.00     0.023 A 
ATOM     63  C   UNL A   1      39.150  33.326  35.023  1.00  0.00     0.012 A 
ATOM     64  C   UNL A   1      38.454  31.392  36.324  1.00  0.00     0.148 A 
ATOM     65  C   UNL A   1      38.688  34.180  36.023  1.00  0.00     0.002 A 
ATOM     66  C   UNL A   1      37.949  32.251  37.294  1.00  0.00     0.091 A 
ATOM     67  F   UNL A   1      38.400  30.061  36.463  1.00  0.00    -0.205 F 
ATOM     68  C   UNL A   1      38.080  33.643  37.153  1.00  0.00     0.022 A 
BRANCH  66  69
ATOM     69  S   UNL A   1      37.071  31.658  38.745  1.00  0.00     0.127 S 
ATOM     70  O   UNL A   1      38.075  31.841  39.792  1.00  0.00    -0.237 OA
ATOM     71  O   UNL A   1      35.938  32.582  38.819  1.00  0.00    -0.237 OA
ATOM     72  O   UNL A   1      36.708  30.279  38.454  1.00  0.00    -0.744 OA
ENDBRANCH  66  69
ENDBRANCH  48  62
BRANCH  49  73
ATOM     73  C   UNL A   1      42.568  26.621  27.448  1.00  0.00     0.023 A 
ATOM     74  C   UNL A   1      43.443  27.290  26.568  1.00  0.00     0.012 A 
ATOM     75  C   UNL A   1      42.287  25.258  27.230  1.00  0.00     0.148 A 
ATOM     76  C   UNL A   1      44.007  26.624  25.480  1.00  0.00     0.002 A 
ATOM     77  C   UNL A   1      42.895  24.586  26.174  1.00  0.00     0.091 A 
ATOM     78  F   UNL A   1      41.447  24.640  28.073  1.00  0.00    -0.205 F 
ATOM     79  C   UNL A   1      43.742  25.270  25.289  1.00  0.00     0.022 A 
BRANCH  77  80
ATOM     80  S   UNL A   1      42.723  22.814  25.930  1.00  0.00     0.127 S 
ATOM     81  O   UNL A   1      43.255  22.645  24.580  1.00  0.00    -0.237 OA
ATOM     82  O   UNL A   1      43.569  22.278  26.997  1.00  0.00    -0.237 OA
ATOM     83  O   UNL A   1      41.304  22.531  26.091  1.00  0.00    -0.744 OA
ENDBRANCH  77  80
ENDBRANCH  49  73
BRANCH  61  84
ATOM     84  C   UNL A   1      44.645  27.489  34.070  1.00  0.00     0.023 A 
ATOM     85  C   UNL A   1      45.853  28.214  34.076  1.00  0.00     0.012 A 
ATOM     86  C   UNL A   1      44.526  26.331  34.863  1.00  0.00     0.148 A 
ATOM     87  C   UNL A   1      46.934  27.779  34.839  1.00  0.00     0.002 A 
ATOM     88  C   UNL A   1      45.591  25.931  35.660  1.00  0.00     0.091 A 
ATOM     89  F   UNL A   1      43.375  25.645  34.826  1.00  0.00    -0.205 F 
ATOM     90  C   UNL A   1      46.800  26.647  35.640  1.00  0.00     0.022 A 
BRANCH  88  91
ATOM     91  S   UNL A   1      45.470  24.544  36.794  1.00  0.00     0.127 S 
ATOM     92  O   UNL A   1      44.242  24.859  37.521  1.00  0.00    -0.237 OA
ATOM     93  O   UNL A   1      45.363  23.403  35.882  1.00  0.00    -0.237 OA
ATOM     94  O   UNL A   1      46.693  24.568  37.584  1.00  0.00    -0.744 OA
ENDBRANCH  88  91
ENDBRANCH  61  84
ENDBRANCH  35  36
ENDBRANCH  27  30
ENDBRANCH  25  26
ENDBRANCH  24  25
ENDBRANCH   1  24
TORSDOF 17
ENDMDL
