MODEL 1
REMARK VINA RESULT:     -11.3      0.000      0.000
REMARK SMILES Cc1csc(=O)n1CC(=O)N[C@@H](C(=O)NCCCNC(=O)c1ccc(-c2c3nc(c(-c4cccc(S(=O)(=O)[O-])c4F)c4ccc([nH]4)c(-c4cccc(S(=O)(=O)[O-])c4F)c4nc(c(-c5cccc(S(=O)(=O)[O-])c5F)c5ccc2[nH]5)C=C4)C=C3)cc1)[C@@H](C)O
REMARK SMILES IDX 17 1 16 2 15 3 13 4 14 5 12 7 11 8 9 9 10 10 8 12 7 13 1 14
REMARK SMILES IDX 2 15 3 16 4 17 5 18 6 19 85 20 86 21 87 22 18 24 19 25 20 26
REMARK SMILES IDX 21 28 22 29 23 30 84 31 24 32 83 33 25 34 26 35 27 36 77 37
REMARK SMILES IDX 28 38 82 39 76 40 78 41 29 42 81 43 75 44 74 45 30 47 62 48
REMARK SMILES IDX 42 49 61 50 43 51 46 52 60 53 79 54 44 55 45 56 59 58 80 59
REMARK SMILES IDX 47 60 31 61 32 62 40 63 33 64 35 65 41 66 34 67 36 68 37 69
REMARK SMILES IDX 38 70 39 71 63 72 64 73 72 74 65 75 67 76 73 77 66 78 68 79
REMARK SMILES IDX 69 80 70 81 71 82 48 83 49 84 57 85 50 86 52 87 58 88 51 89
REMARK SMILES IDX 53 90 54 91 55 92 56 93
REMARK H PARENT 15 6 11 11 87 23 19 27 78 46 46 57
REMARK Flexibility Score: inf
ROOT
ATOM      1  C   UNL A   1      37.355  20.778  25.014  1.00  0.00     0.042 C 
ENDROOT
BRANCH   1   2
ATOM      2  C   UNL A   1      36.426  21.943  25.342  1.00  0.00     0.117 C 
BRANCH   2   3
ATOM      3  N   UNL A   1      35.648  21.783  26.554  1.00  0.00    -0.354 N 
ATOM      4  C   UNL A   1      34.282  21.834  26.669  1.00  0.00     0.245 C 
ATOM      5  O   UNL A   1      33.754  21.198  27.584  1.00  0.00    -0.273 OA
ATOM      6  H   UNL A   1      36.153  21.621  27.384  1.00  0.00     0.163 HD
BRANCH   4   7
ATOM      7  C   UNL A   1      33.428  22.486  25.551  1.00  0.00     0.200 C 
BRANCH   7   8
ATOM      8  N   UNL A   1      32.655  23.613  26.060  1.00  0.00    -0.340 N 
ATOM      9  C   UNL A   1      32.910  24.951  25.987  1.00  0.00     0.240 C 
ATOM     10  O   UNL A   1      32.097  25.708  26.524  1.00  0.00    -0.273 OA
ATOM     11  H   UNL A   1      31.822  23.372  26.528  1.00  0.00     0.164 HD
BRANCH   9  12
ATOM     12  C   UNL A   1      34.138  25.511  25.232  1.00  0.00     0.226 C 
BRANCH  12  13
ATOM     13  N   UNL A   1      33.847  26.358  24.082  1.00  0.00    -0.294 N 
ATOM     14  C   UNL A   1      33.302  24.484  22.447  1.00  0.00     0.065 C 
ATOM     15  C   UNL A   1      33.520  25.921  22.799  1.00  0.00     0.029 A 
ATOM     16  C   UNL A   1      33.348  26.924  21.927  1.00  0.00     0.091 A 
ATOM     17  S   UNL A   1      33.508  28.479  22.671  1.00  0.00    -0.082 S 
ATOM     18  C   UNL A   1      33.789  27.736  24.249  1.00  0.00     0.307 A 
ATOM     19  O   UNL A   1      33.928  28.389  25.280  1.00  0.00    -0.257 OA
ENDBRANCH  12  13
ENDBRANCH   9  12
ENDBRANCH   7   8
BRANCH   7  20
ATOM     20  C   UNL A   1      32.578  21.396  24.843  1.00  0.00     0.143 C 
ATOM     21  C   UNL A   1      33.371  20.188  24.358  1.00  0.00     0.041 C 
BRANCH  20  22
ATOM     22  O   UNL A   1      31.614  20.884  25.782  1.00  0.00    -0.391 OA
ATOM     23  H   UNL A   1      30.915  20.412  25.302  1.00  0.00     0.211 HD
ENDBRANCH  20  22
ENDBRANCH   7  20
ENDBRANCH   4   7
ENDBRANCH   2   3
ENDBRANCH   1   2
BRANCH   1  24
ATOM     24  C   UNL A   1      38.771  21.015  25.515  1.00  0.00     0.118 C 
BRANCH  24  25
ATOM     25  N   UNL A   1      39.562  19.777  25.612  1.00  0.00    -0.352 N 
ATOM     26  C   UNL A   1      40.911  19.649  25.895  1.00  0.00     0.251 C 
ATOM     27  H   UNL A   1      39.072  18.937  25.456  1.00  0.00     0.163 HD
ATOM     28  O   UNL A   1      41.531  18.621  25.650  1.00  0.00    -0.269 OA
BRANCH  26  29
ATOM     29  C   UNL A   1      41.588  20.803  26.505  1.00  0.00     0.039 A 
ATOM     30  C   UNL A   1      42.070  21.860  25.729  1.00  0.00     0.014 A 
ATOM     31  C   UNL A   1      41.551  20.875  27.893  1.00  0.00     0.014 A 
ATOM     32  C   UNL A   1      42.394  23.055  26.366  1.00  0.00     0.010 A 
ATOM     33  C   UNL A   1      41.689  22.104  28.482  1.00  0.00     0.010 A 
ATOM     34  C   UNL A   1      42.155  23.188  27.742  1.00  0.00    -0.014 A 
BRANCH  34  35
ATOM     35  C   UNL A   1      42.264  24.486  28.405  1.00  0.00     0.031 A 
ATOM     36  C   UNL A   1      41.088  25.392  28.258  1.00  0.00     0.074 A 
ATOM     37  C   UNL A   1      43.249  24.770  29.285  1.00  0.00     0.049 A 
ATOM     38  N   UNL A   1      41.039  26.511  27.611  1.00  0.00    -0.248 NA
ATOM     39  C   UNL A   1      39.786  24.958  28.786  1.00  0.00     0.031 C 
ATOM     40  C   UNL A   1      44.303  23.881  29.795  1.00  0.00     0.029 A 
ATOM     41  N   UNL A   1      43.414  25.886  30.043  1.00  0.00    -0.354 N 
ATOM     42  C   UNL A   1      39.769  27.039  27.850  1.00  0.00     0.074 A 
ATOM     43  C   UNL A   1      38.991  25.959  28.399  1.00  0.00     0.031 C 
ATOM     44  C   UNL A   1      44.790  24.378  30.951  1.00  0.00     0.029 A 
ATOM     45  C   UNL A   1      44.238  25.701  31.148  1.00  0.00     0.049 A 
ATOM     46  H   UNL A   1      42.989  26.748  29.829  1.00  0.00     0.167 HD
ATOM     47  C   UNL A   1      39.540  28.383  27.802  1.00  0.00     0.034 A 
ATOM     48  C   UNL A   1      44.424  26.567  32.171  1.00  0.00     0.034 A 
ATOM     49  C   UNL A   1      40.646  29.078  27.188  1.00  0.00     0.049 A 
ATOM     50  C   UNL A   1      44.038  27.907  31.674  1.00  0.00     0.074 A 
ATOM     51  C   UNL A   1      41.302  28.995  25.975  1.00  0.00     0.029 A 
ATOM     52  N   UNL A   1      41.494  29.765  28.024  1.00  0.00    -0.354 N 
ATOM     53  N   UNL A   1      44.689  28.538  30.736  1.00  0.00    -0.248 NA
ATOM     54  C   UNL A   1      42.676  28.356  31.905  1.00  0.00     0.031 C 
ATOM     55  C   UNL A   1      42.681  29.167  26.300  1.00  0.00     0.029 A 
ATOM     56  C   UNL A   1      42.771  29.424  27.671  1.00  0.00     0.049 A 
ATOM     57  H   UNL A   1      41.232  30.387  28.741  1.00  0.00     0.167 HD
ATOM     58  C   UNL A   1      43.693  29.116  29.960  1.00  0.00     0.074 A 
ATOM     59  C   UNL A   1      42.492  29.073  30.793  1.00  0.00     0.031 C 
ATOM     60  C   UNL A   1      43.860  29.300  28.615  1.00  0.00     0.034 A 
BRANCH  47  61
ATOM     61  C   UNL A   1      38.514  29.144  28.620  1.00  0.00     0.023 A 
ATOM     62  C   UNL A   1      37.760  30.135  27.944  1.00  0.00     0.012 A 
ATOM     63  C   UNL A   1      38.444  29.149  30.030  1.00  0.00     0.148 A 
ATOM     64  C   UNL A   1      37.049  31.125  28.633  1.00  0.00     0.002 A 
ATOM     65  C   UNL A   1      37.672  30.087  30.710  1.00  0.00     0.091 A 
ATOM     66  F   UNL A   1      39.226  28.337  30.745  1.00  0.00    -0.205 F 
ATOM     67  C   UNL A   1      37.003  31.099  30.020  1.00  0.00     0.022 A 
BRANCH  65  68
ATOM     68  S   UNL A   1      37.533  30.069  32.503  1.00  0.00     0.127 S 
ATOM     69  O   UNL A   1      36.522  31.097  32.728  1.00  0.00    -0.237 OA
ATOM     70  O   UNL A   1      37.092  28.697  32.755  1.00  0.00    -0.237 OA
ATOM     71  O   UNL A   1      38.872  30.364  32.999  1.00  0.00    -0.744 OA
ENDBRANCH  65  68
ENDBRANCH  47  61
BRANCH  48  72
ATOM     72  C   UNL A   1      44.709  26.299  33.598  1.00  0.00     0.023 A 
ATOM     73  C   UNL A   1      46.034  26.389  34.067  1.00  0.00     0.012 A 
ATOM     74  C   UNL A   1      43.666  26.237  34.551  1.00  0.00     0.148 A 
ATOM     75  C   UNL A   1      46.310  26.461  35.438  1.00  0.00     0.002 A 
ATOM     76  C   UNL A   1      43.946  26.304  35.913  1.00  0.00     0.091 A 
ATOM     77  F   UNL A   1      42.397  26.209  34.121  1.00  0.00    -0.205 F 
ATOM     78  C   UNL A   1      45.268  26.430  36.360  1.00  0.00     0.022 A 
BRANCH  76  79
ATOM     79  S   UNL A   1      42.646  26.298  37.155  1.00  0.00     0.127 S 
ATOM     80  O   UNL A   1      41.901  27.513  36.824  1.00  0.00    -0.237 OA
ATOM     81  O   UNL A   1      41.949  25.051  36.857  1.00  0.00    -0.237 OA
ATOM     82  O   UNL A   1      43.331  26.349  38.441  1.00  0.00    -0.744 OA
ENDBRANCH  76  79
ENDBRANCH  48  72
BRANCH  60  83
ATOM     83  C   UNL A   1      45.230  29.087  28.018  1.00  0.00     0.023 A 
ATOM     84  C   UNL A   1      46.240  30.071  28.075  1.00  0.00     0.012 A 
ATOM     85  C   UNL A   1      45.568  27.799  27.570  1.00  0.00     0.148 A 
ATOM     86  C   UNL A   1      47.549  29.782  27.678  1.00  0.00     0.002 A 
ATOM     87  C   UNL A   1      46.881  27.501  27.223  1.00  0.00     0.091 A 
ATOM     88  F   UNL A   1      44.601  26.870  27.522  1.00  0.00    -0.205 F 
ATOM     89  C   UNL A   1      47.873  28.493  27.266  1.00  0.00     0.022 A 
BRANCH  87  90
ATOM     90  S   UNL A   1      47.385  25.827  26.816  1.00  0.00     0.127 S 
ATOM     91  O   UNL A   1      47.037  25.099  28.033  1.00  0.00    -0.237 OA
ATOM     92  O   UNL A   1      46.546  25.518  25.657  1.00  0.00    -0.237 OA
ATOM     93  O   UNL A   1      48.809  25.903  26.513  1.00  0.00    -0.744 OA
ENDBRANCH  87  90
ENDBRANCH  60  83
ENDBRANCH  34  35
ENDBRANCH  26  29
ENDBRANCH  24  25
ENDBRANCH   1  24
TORSDOF 18
ENDMDL
MODEL 2
REMARK VINA RESULT:     -11.0      3.911      9.362
REMARK SMILES Cc1csc(=O)n1CC(=O)N[C@@H](C(=O)NCCCNC(=O)c1ccc(-c2c3nc(c(-c4cccc(S(=O)(=O)[O-])c4F)c4ccc([nH]4)c(-c4cccc(S(=O)(=O)[O-])c4F)c4nc(c(-c5cccc(S(=O)(=O)[O-])c5F)c5ccc2[nH]5)C=C4)C=C3)cc1)[C@@H](C)O
REMARK SMILES IDX 17 1 16 2 15 3 13 4 14 5 12 7 11 8 9 9 10 10 8 12 7 13 1 14
REMARK SMILES IDX 2 15 3 16 4 17 5 18 6 19 85 20 86 21 87 22 18 24 19 25 20 26
REMARK SMILES IDX 21 28 22 29 23 30 84 31 24 32 83 33 25 34 26 35 27 36 77 37
REMARK SMILES IDX 28 38 82 39 76 40 78 41 29 42 81 43 75 44 74 45 30 47 62 48
REMARK SMILES IDX 42 49 61 50 43 51 46 52 60 53 79 54 44 55 45 56 59 58 80 59
REMARK SMILES IDX 47 60 31 61 32 62 40 63 33 64 35 65 41 66 34 67 36 68 37 69
REMARK SMILES IDX 38 70 39 71 63 72 64 73 72 74 65 75 67 76 73 77 66 78 68 79
REMARK SMILES IDX 69 80 70 81 71 82 48 83 49 84 57 85 50 86 52 87 58 88 51 89
REMARK SMILES IDX 53 90 54 91 55 92 56 93
REMARK H PARENT 15 6 11 11 87 23 19 27 78 46 46 57
REMARK Flexibility Score: inf
ROOT
ATOM      1  C   UNL A   1      31.860  30.994  26.576  1.00  0.00     0.042 C 
ENDROOT
BRANCH   1   2
ATOM      2  C   UNL A   1      32.385  29.610  26.203  1.00  0.00     0.117 C 
BRANCH   2   3
ATOM      3  N   UNL A   1      33.409  29.600  25.178  1.00  0.00    -0.354 N 
ATOM      4  C   UNL A   1      33.329  29.017  23.938  1.00  0.00     0.245 C 
ATOM      5  O   UNL A   1      34.005  29.501  23.028  1.00  0.00    -0.273 OA
ATOM      6  H   UNL A   1      34.253  30.059  25.394  1.00  0.00     0.163 HD
BRANCH   4   7
ATOM      7  C   UNL A   1      32.255  27.936  23.652  1.00  0.00     0.200 C 
BRANCH   7   8
ATOM      8  N   UNL A   1      32.841  26.759  23.022  1.00  0.00    -0.340 N 
ATOM      9  C   UNL A   1      33.674  25.814  23.544  1.00  0.00     0.240 C 
ATOM     10  O   UNL A   1      34.050  24.916  22.785  1.00  0.00    -0.273 OA
ATOM     11  H   UNL A   1      32.598  26.625  22.076  1.00  0.00     0.164 HD
BRANCH   9  12
ATOM     12  C   UNL A   1      34.105  25.831  25.029  1.00  0.00     0.226 C 
BRANCH  12  13
ATOM     13  N   UNL A   1      33.808  24.624  25.793  1.00  0.00    -0.294 N 
ATOM     14  C   UNL A   1      36.178  23.695  25.835  1.00  0.00     0.065 C 
ATOM     15  C   UNL A   1      34.714  23.617  26.125  1.00  0.00     0.029 A 
ATOM     16  C   UNL A   1      34.152  22.602  26.796  1.00  0.00     0.091 A 
ATOM     17  S   UNL A   1      32.473  22.876  27.123  1.00  0.00    -0.082 S 
ATOM     18  C   UNL A   1      32.542  24.460  26.341  1.00  0.00     0.307 A 
ATOM     19  O   UNL A   1      31.585  25.227  26.301  1.00  0.00    -0.257 OA
ENDBRANCH  12  13
ENDBRANCH   9  12
ENDBRANCH   7   8
BRANCH   7  20
ATOM     20  C   UNL A   1      31.081  28.568  22.855  1.00  0.00     0.143 C 
ATOM     21  C   UNL A   1      30.054  29.301  23.712  1.00  0.00     0.041 C 
BRANCH  20  22
ATOM     22  O   UNL A   1      31.616  29.554  21.953  1.00  0.00    -0.391 OA
ATOM     23  H   UNL A   1      31.078  29.577  21.145  1.00  0.00     0.211 HD
ENDBRANCH  20  22
ENDBRANCH   7  20
ENDBRANCH   4   7
ENDBRANCH   2   3
ENDBRANCH   1   2
BRANCH   1  24
ATOM     24  C   UNL A   1      32.924  31.848  27.246  1.00  0.00     0.118 C 
BRANCH  24  25
ATOM     25  N   UNL A   1      32.493  33.240  27.462  1.00  0.00    -0.352 N 
ATOM     26  C   UNL A   1      33.002  34.158  28.364  1.00  0.00     0.251 C 
ATOM     27  H   UNL A   1      31.752  33.555  26.895  1.00  0.00     0.163 HD
ATOM     28  O   UNL A   1      32.384  35.168  28.680  1.00  0.00    -0.269 OA
BRANCH  26  29
ATOM     29  C   UNL A   1      34.325  33.879  28.942  1.00  0.00     0.039 A 
ATOM     30  C   UNL A   1      34.470  33.086  30.083  1.00  0.00     0.014 A 
ATOM     31  C   UNL A   1      35.422  34.282  28.190  1.00  0.00     0.014 A 
ATOM     32  C   UNL A   1      35.734  32.587  30.388  1.00  0.00     0.010 A 
ATOM     33  C   UNL A   1      36.615  33.637  28.386  1.00  0.00     0.010 A 
ATOM     34  C   UNL A   1      36.798  32.827  29.505  1.00  0.00    -0.014 A 
BRANCH  34  35
ATOM     35  C   UNL A   1      38.077  32.140  29.662  1.00  0.00     0.031 A 
ATOM     36  C   UNL A   1      38.153  30.766  29.085  1.00  0.00     0.074 A 
ATOM     37  C   UNL A   1      39.193  32.772  30.088  1.00  0.00     0.049 A 
ATOM     38  N   UNL A   1      38.271  29.652  29.730  1.00  0.00    -0.248 NA
ATOM     39  C   UNL A   1      37.960  30.593  27.637  1.00  0.00     0.031 C 
ATOM     40  C   UNL A   1      39.376  34.200  30.387  1.00  0.00     0.029 A 
ATOM     41  N   UNL A   1      40.460  32.287  30.184  1.00  0.00    -0.354 N 
ATOM     42  C   UNL A   1      38.407  28.657  28.760  1.00  0.00     0.074 A 
ATOM     43  C   UNL A   1      38.008  29.263  27.516  1.00  0.00     0.031 C 
ATOM     44  C   UNL A   1      40.689  34.504  30.341  1.00  0.00     0.029 A 
ATOM     45  C   UNL A   1      41.440  33.273  30.218  1.00  0.00     0.049 A 
ATOM     46  H   UNL A   1      40.664  31.326  30.226  1.00  0.00     0.167 HD
ATOM     47  C   UNL A   1      39.067  27.494  29.027  1.00  0.00     0.034 A 
ATOM     48  C   UNL A   1      42.776  33.087  30.114  1.00  0.00     0.034 A 
ATOM     49  C   UNL A   1      39.287  27.332  30.443  1.00  0.00     0.049 A 
ATOM     50  C   UNL A   1      43.042  31.679  30.485  1.00  0.00     0.074 A 
ATOM     51  C   UNL A   1      38.477  27.303  31.563  1.00  0.00     0.029 A 
ATOM     52  N   UNL A   1      40.558  27.568  30.910  1.00  0.00    -0.354 N 
ATOM     53  N   UNL A   1      42.849  31.204  31.684  1.00  0.00    -0.248 NA
ATOM     54  C   UNL A   1      43.102  30.691  29.420  1.00  0.00     0.031 C 
ATOM     55  C   UNL A   1      39.207  28.029  32.552  1.00  0.00     0.029 A 
ATOM     56  C   UNL A   1      40.442  28.383  32.002  1.00  0.00     0.049 A 
ATOM     57  H   UNL A   1      41.396  27.216  30.529  1.00  0.00     0.167 HD
ATOM     58  C   UNL A   1      42.300  29.947  31.469  1.00  0.00     0.074 A 
ATOM     59  C   UNL A   1      42.593  29.641  30.069  1.00  0.00     0.031 C 
ATOM     60  C   UNL A   1      41.405  29.405  32.349  1.00  0.00     0.034 A 
BRANCH  47  61
ATOM     61  C   UNL A   1      39.851  26.663  28.028  1.00  0.00     0.023 A 
ATOM     62  C   UNL A   1      39.689  25.257  28.092  1.00  0.00     0.012 A 
ATOM     63  C   UNL A   1      40.925  27.139  27.244  1.00  0.00     0.148 A 
ATOM     64  C   UNL A   1      40.591  24.377  27.484  1.00  0.00     0.002 A 
ATOM     65  C   UNL A   1      41.774  26.263  26.575  1.00  0.00     0.091 A 
ATOM     66  F   UNL A   1      41.228  28.439  27.238  1.00  0.00    -0.205 F 
ATOM     67  C   UNL A   1      41.635  24.881  26.721  1.00  0.00     0.022 A 
BRANCH  65  68
ATOM     68  S   UNL A   1      43.111  26.860  25.531  1.00  0.00     0.127 S 
ATOM     69  O   UNL A   1      42.397  27.761  24.631  1.00  0.00    -0.237 OA
ATOM     70  O   UNL A   1      43.982  27.517  26.505  1.00  0.00    -0.237 OA
ATOM     71  O   UNL A   1      43.690  25.668  24.923  1.00  0.00    -0.744 OA
ENDBRANCH  65  68
ENDBRANCH  47  61
BRANCH  48  72
ATOM     72  C   UNL A   1      43.812  33.965  29.527  1.00  0.00     0.023 A 
ATOM     73  C   UNL A   1      44.595  34.774  30.373  1.00  0.00     0.012 A 
ATOM     74  C   UNL A   1      44.228  33.806  28.185  1.00  0.00     0.148 A 
ATOM     75  C   UNL A   1      45.776  35.367  29.913  1.00  0.00     0.002 A 
ATOM     76  C   UNL A   1      45.401  34.401  27.731  1.00  0.00     0.091 A 
ATOM     77  F   UNL A   1      43.526  32.993  27.382  1.00  0.00    -0.205 F 
ATOM     78  C   UNL A   1      46.186  35.172  28.597  1.00  0.00     0.022 A 
BRANCH  76  79
ATOM     79  S   UNL A   1      46.002  34.167  26.052  1.00  0.00     0.127 S 
ATOM     80  O   UNL A   1      46.253  32.726  26.015  1.00  0.00    -0.237 OA
ATOM     81  O   UNL A   1      44.860  34.610  25.258  1.00  0.00    -0.237 OA
ATOM     82  O   UNL A   1      47.203  34.986  25.947  1.00  0.00    -0.744 OA
ENDBRANCH  76  79
ENDBRANCH  48  72
BRANCH  60  83
ATOM     83  C   UNL A   1      41.196  30.083  33.682  1.00  0.00     0.023 A 
ATOM     84  C   UNL A   1      42.081  29.902  34.767  1.00  0.00     0.012 A 
ATOM     85  C   UNL A   1      40.205  31.074  33.777  1.00  0.00     0.148 A 
ATOM     86  C   UNL A   1      41.967  30.679  35.924  1.00  0.00     0.002 A 
ATOM     87  C   UNL A   1      40.127  31.878  34.909  1.00  0.00     0.091 A 
ATOM     88  F   UNL A   1      39.372  31.239  32.739  1.00  0.00    -0.205 F 
ATOM     89  C   UNL A   1      41.000  31.676  35.989  1.00  0.00     0.022 A 
BRANCH  87  90
ATOM     90  S   UNL A   1      38.992  33.265  34.994  1.00  0.00     0.127 S 
ATOM     91  O   UNL A   1      37.692  32.602  34.914  1.00  0.00    -0.237 OA
ATOM     92  O   UNL A   1      39.301  33.848  36.300  1.00  0.00    -0.237 OA
ATOM     93  O   UNL A   1      39.330  34.126  33.867  1.00  0.00    -0.744 OA
ENDBRANCH  87  90
ENDBRANCH  60  83
ENDBRANCH  34  35
ENDBRANCH  26  29
ENDBRANCH  24  25
ENDBRANCH   1  24
TORSDOF 18
ENDMDL
MODEL 3
REMARK VINA RESULT:     -10.9      1.924      2.308
REMARK SMILES Cc1csc(=O)n1CC(=O)N[C@@H](C(=O)NCCCNC(=O)c1ccc(-c2c3nc(c(-c4cccc(S(=O)(=O)[O-])c4F)c4ccc([nH]4)c(-c4cccc(S(=O)(=O)[O-])c4F)c4nc(c(-c5cccc(S(=O)(=O)[O-])c5F)c5ccc2[nH]5)C=C4)C=C3)cc1)[C@@H](C)O
REMARK SMILES IDX 17 1 16 2 15 3 13 4 14 5 12 7 11 8 9 9 10 10 8 12 7 13 1 14
REMARK SMILES IDX 2 15 3 16 4 17 5 18 6 19 85 20 86 21 87 22 18 24 19 25 20 26
REMARK SMILES IDX 21 28 22 29 23 30 84 31 24 32 83 33 25 34 26 35 27 36 77 37
REMARK SMILES IDX 28 38 82 39 76 40 78 41 29 42 81 43 75 44 74 45 30 47 62 48
REMARK SMILES IDX 42 49 61 50 43 51 46 52 60 53 79 54 44 55 45 56 59 58 80 59
REMARK SMILES IDX 47 60 31 61 32 62 40 63 33 64 35 65 41 66 34 67 36 68 37 69
REMARK SMILES IDX 38 70 39 71 63 72 64 73 72 74 65 75 67 76 73 77 66 78 68 79
REMARK SMILES IDX 69 80 70 81 71 82 48 83 49 84 57 85 50 86 52 87 58 88 51 89
REMARK SMILES IDX 53 90 54 91 55 92 56 93
REMARK H PARENT 15 6 11 11 87 23 19 27 78 46 46 57
REMARK Flexibility Score: inf
ROOT
ATOM      1  C   UNL A   1      37.127  22.033  24.210  1.00  0.00     0.042 C 
ENDROOT
BRANCH   1   2
ATOM      2  C   UNL A   1      35.658  22.147  24.609  1.00  0.00     0.117 C 
BRANCH   2   3
ATOM      3  N   UNL A   1      35.411  22.152  26.037  1.00  0.00    -0.354 N 
ATOM      4  C   UNL A   1      34.253  21.781  26.674  1.00  0.00     0.245 C 
ATOM      5  O   UNL A   1      34.340  21.350  27.826  1.00  0.00    -0.273 OA
ATOM      6  H   UNL A   1      36.151  22.454  26.611  1.00  0.00     0.163 HD
BRANCH   4   7
ATOM      7  C   UNL A   1      32.920  21.699  25.886  1.00  0.00     0.200 C 
BRANCH   7   8
ATOM      8  N   UNL A   1      31.797  22.162  26.692  1.00  0.00    -0.340 N 
ATOM      9  C   UNL A   1      30.924  23.186  26.465  1.00  0.00     0.240 C 
ATOM     10  O   UNL A   1      30.062  23.390  27.324  1.00  0.00    -0.273 OA
ATOM     11  H   UNL A   1      31.644  21.660  27.525  1.00  0.00     0.164 HD
BRANCH   9  12
ATOM     12  C   UNL A   1      30.976  24.037  25.175  1.00  0.00     0.226 C 
BRANCH  12  13
ATOM     13  N   UNL A   1      32.067  25.000  25.090  1.00  0.00    -0.294 N 
ATOM     14  C   UNL A   1      33.152  24.053  22.990  1.00  0.00     0.065 C 
ATOM     15  C   UNL A   1      33.093  25.000  24.145  1.00  0.00     0.029 A 
ATOM     16  C   UNL A   1      33.986  25.982  24.335  1.00  0.00     0.091 A 
ATOM     17  S   UNL A   1      33.559  27.014  25.658  1.00  0.00    -0.082 S 
ATOM     18  C   UNL A   1      32.080  26.092  25.949  1.00  0.00     0.307 A 
ATOM     19  O   UNL A   1      31.256  26.404  26.804  1.00  0.00    -0.257 OA
ENDBRANCH  12  13
ENDBRANCH   9  12
ENDBRANCH   7   8
BRANCH   7  20
ATOM     20  C   UNL A   1      32.745  20.268  25.309  1.00  0.00     0.143 C 
ATOM     21  C   UNL A   1      32.603  20.207  23.792  1.00  0.00     0.041 C 
BRANCH  20  22
ATOM     22  O   UNL A   1      33.919  19.498  25.626  1.00  0.00    -0.391 OA
ATOM     23  H   UNL A   1      33.983  19.390  26.589  1.00  0.00     0.211 HD
ENDBRANCH  20  22
ENDBRANCH   7  20
ENDBRANCH   4   7
ENDBRANCH   2   3
ENDBRANCH   1   2
BRANCH   1  24
ATOM     24  C   UNL A   1      38.033  21.831  25.413  1.00  0.00     0.118 C 
BRANCH  24  25
ATOM     25  N   UNL A   1      38.576  20.464  25.501  1.00  0.00    -0.352 N 
ATOM     26  C   UNL A   1      39.875  20.081  25.787  1.00  0.00     0.251 C 
ATOM     27  H   UNL A   1      37.936  19.733  25.337  1.00  0.00     0.163 HD
ATOM     28  O   UNL A   1      40.290  18.956  25.535  1.00  0.00    -0.269 OA
BRANCH  26  29
ATOM     29  C   UNL A   1      40.755  21.081  26.409  1.00  0.00     0.039 A 
ATOM     30  C   UNL A   1      41.395  22.063  25.649  1.00  0.00     0.014 A 
ATOM     31  C   UNL A   1      40.763  21.115  27.798  1.00  0.00     0.014 A 
ATOM     32  C   UNL A   1      41.937  23.164  26.308  1.00  0.00     0.010 A 
ATOM     33  C   UNL A   1      41.125  22.283  28.417  1.00  0.00     0.010 A 
ATOM     34  C   UNL A   1      41.755  23.293  27.693  1.00  0.00    -0.014 A 
BRANCH  34  35
ATOM     35  C   UNL A   1      42.103  24.530  28.387  1.00  0.00     0.031 A 
ATOM     36  C   UNL A   1      41.143  25.661  28.220  1.00  0.00     0.074 A 
ATOM     37  C   UNL A   1      43.091  24.594  29.306  1.00  0.00     0.049 A 
ATOM     38  N   UNL A   1      41.348  26.775  27.597  1.00  0.00    -0.248 NA
ATOM     39  C   UNL A   1      39.761  25.495  28.696  1.00  0.00     0.031 C 
ATOM     40  C   UNL A   1      43.921  23.500  29.832  1.00  0.00     0.029 A 
ATOM     41  N   UNL A   1      43.453  25.642  30.093  1.00  0.00    -0.354 N 
ATOM     42  C   UNL A   1      40.205  27.549  27.805  1.00  0.00     0.074 A 
ATOM     43  C   UNL A   1      39.202  26.644  28.304  1.00  0.00     0.031 C 
ATOM     44  C   UNL A   1      44.456  23.870  31.013  1.00  0.00     0.029 A 
ATOM     45  C   UNL A   1      44.180  25.276  31.220  1.00  0.00     0.049 A 
ATOM     46  H   UNL A   1      43.222  26.575  29.883  1.00  0.00     0.167 HD
ATOM     47  C   UNL A   1      40.258  28.912  27.778  1.00  0.00     0.034 A 
ATOM     48  C   UNL A   1      44.501  26.070  32.268  1.00  0.00     0.034 A 
ATOM     49  C   UNL A   1      41.505  29.374  27.217  1.00  0.00     0.049 A 
ATOM     50  C   UNL A   1      44.416  27.467  31.787  1.00  0.00     0.074 A 
ATOM     51  C   UNL A   1      42.175  29.175  26.024  1.00  0.00     0.029 A 
ATOM     52  N   UNL A   1      42.444  29.860  28.095  1.00  0.00    -0.354 N 
ATOM     53  N   UNL A   1      45.216  27.965  30.885  1.00  0.00    -0.248 NA
ATOM     54  C   UNL A   1      43.167  28.184  31.982  1.00  0.00     0.031 C 
ATOM     55  C   UNL A   1      43.547  29.057  26.399  1.00  0.00     0.029 A 
ATOM     56  C   UNL A   1      43.636  29.269  27.778  1.00  0.00     0.049 A 
ATOM     57  H   UNL A   1      42.288  30.512  28.817  1.00  0.00     0.167 HD
ATOM     58  C   UNL A   1      44.390  28.746  30.089  1.00  0.00     0.074 A 
ATOM     59  C   UNL A   1      43.175  28.939  30.880  1.00  0.00     0.031 C 
ATOM     60  C   UNL A   1      44.641  28.912  28.755  1.00  0.00     0.034 A 
BRANCH  47  61
ATOM     61  C   UNL A   1      39.379  29.856  28.577  1.00  0.00     0.023 A 
ATOM     62  C   UNL A   1      39.771  30.125  29.911  1.00  0.00     0.012 A 
ATOM     63  C   UNL A   1      38.076  30.256  28.208  1.00  0.00     0.148 A 
ATOM     64  C   UNL A   1      38.890  30.682  30.845  1.00  0.00     0.002 A 
ATOM     65  C   UNL A   1      37.229  30.881  29.119  1.00  0.00     0.091 A 
ATOM     66  F   UNL A   1      37.582  29.921  27.014  1.00  0.00    -0.205 F 
ATOM     67  C   UNL A   1      37.617  31.064  30.448  1.00  0.00     0.022 A 
BRANCH  65  68
ATOM     68  S   UNL A   1      35.588  31.445  28.645  1.00  0.00     0.127 S 
ATOM     69  O   UNL A   1      34.955  30.193  28.241  1.00  0.00    -0.237 OA
ATOM     70  O   UNL A   1      35.094  32.016  29.898  1.00  0.00    -0.237 OA
ATOM     71  O   UNL A   1      35.806  32.426  27.589  1.00  0.00    -0.744 OA
ENDBRANCH  65  68
ENDBRANCH  47  61
BRANCH  48  72
ATOM     72  C   UNL A   1      44.672  25.729  33.698  1.00  0.00     0.023 A 
ATOM     73  C   UNL A   1      45.963  25.472  34.198  1.00  0.00     0.012 A 
ATOM     74  C   UNL A   1      43.624  25.931  34.626  1.00  0.00     0.148 A 
ATOM     75  C   UNL A   1      46.214  25.462  35.575  1.00  0.00     0.002 A 
ATOM     76  C   UNL A   1      43.878  25.915  35.994  1.00  0.00     0.091 A 
ATOM     77  F   UNL A   1      42.402  26.233  34.167  1.00  0.00    -0.205 F 
ATOM     78  C   UNL A   1      45.176  25.695  36.472  1.00  0.00     0.022 A 
BRANCH  76  79
ATOM     79  S   UNL A   1      42.589  26.236  37.207  1.00  0.00     0.127 S 
ATOM     80  O   UNL A   1      41.713  25.076  37.036  1.00  0.00    -0.237 OA
ATOM     81  O   UNL A   1      43.346  26.253  38.455  1.00  0.00    -0.237 OA
ATOM     82  O   UNL A   1      41.986  27.503  36.813  1.00  0.00    -0.744 OA
ENDBRANCH  76  79
ENDBRANCH  48  72
BRANCH  60  83
ATOM     83  C   UNL A   1      45.960  28.430  28.199  1.00  0.00     0.023 A 
ATOM     84  C   UNL A   1      46.108  27.160  27.602  1.00  0.00     0.012 A 
ATOM     85  C   UNL A   1      47.016  29.351  28.097  1.00  0.00     0.148 A 
ATOM     86  C   UNL A   1      47.287  26.812  26.936  1.00  0.00     0.002 A 
ATOM     87  C   UNL A   1      48.166  29.019  27.391  1.00  0.00     0.091 A 
ATOM     88  F   UNL A   1      46.863  30.557  28.665  1.00  0.00    -0.205 F 
ATOM     89  C   UNL A   1      48.310  27.747  26.818  1.00  0.00     0.022 A 
BRANCH  87  90
ATOM     90  S   UNL A   1      49.460  30.227  27.089  1.00  0.00     0.127 S 
ATOM     91  O   UNL A   1      50.095  30.329  28.401  1.00  0.00    -0.237 OA
ATOM     92  O   UNL A   1      50.273  29.570  26.065  1.00  0.00    -0.237 OA
ATOM     93  O   UNL A   1      48.780  31.430  26.624  1.00  0.00    -0.744 OA
ENDBRANCH  87  90
ENDBRANCH  60  83
ENDBRANCH  34  35
ENDBRANCH  26  29
ENDBRANCH  24  25
ENDBRANCH   1  24
TORSDOF 18
ENDMDL
