MODEL 1
REMARK VINA RESULT:      -7.3      0.000      0.000
REMARK SMILES CC(C)C[C@H](NC(=O)CNC(=O)[C@@H](NC(=O)OCc1ccccc1)C(C)C)C(=O)NCCCNC(=O)c1ccc(-c2c3nc(c(-c4cccc(S(=O)(=O)[O-])c4F)c4ccc([nH]4)c(-c4cccc(S(=O)(=O)[O-])c4F)c4nc(c(-c5cccc(S(=O)(=O)[O-])c5F)c5ccc2[nH]5)C=C4)C=C3)cc1
REMARK SMILES IDX 28 1 29 2 30 3 5 5 4 6 2 7 1 8 3 9 6 10 7 11 8 13 9 14 10 15
REMARK SMILES IDX 11 16 12 18 13 19 14 20 15 21 16 23 17 24 18 25 19 26 20 27
REMARK SMILES IDX 24 28 21 29 23 30 22 31 25 32 26 33 27 34 31 35 32 36 33 37
REMARK SMILES IDX 34 38 35 39 36 41 37 42 38 43 99 44 39 45 98 46 40 47 41 48
REMARK SMILES IDX 42 49 92 50 43 51 97 52 91 53 93 54 44 55 96 56 90 57 89 58
REMARK SMILES IDX 45 60 77 61 57 62 76 63 58 64 61 65 75 66 94 67 59 68 60 69
REMARK SMILES IDX 74 71 95 72 62 73 46 74 47 75 55 76 48 77 50 78 56 79 49 80
REMARK SMILES IDX 51 81 52 82 53 83 54 84 78 85 79 86 87 87 80 88 82 89 88 90
REMARK SMILES IDX 81 91 83 92 84 93 85 94 86 95 63 96 64 97 72 98 65 99 67 100
REMARK SMILES IDX 73 101 66 102 68 103 69 104 70 105 71 106
REMARK H PARENT 30 4 6 12 10 17 14 22 34 40 93 59 61 70
REMARK Flexibility Score: inf
ROOT
ATOM      1  C   UNL A   1      51.030  19.640  35.898  1.00  0.00     0.242 C 
ATOM      2  O   UNL A   1      50.872  18.981  36.925  1.00  0.00    -0.273 OA
ATOM      3  N   UNL A   1      51.888  19.181  34.936  1.00  0.00    -0.354 N 
ATOM      4  H   UNL A   1      52.406  18.376  35.165  1.00  0.00     0.163 HD
ENDROOT
BRANCH   1   5
ATOM      5  C   UNL A   1      50.267  20.951  35.637  1.00  0.00     0.171 C 
BRANCH   5   6
ATOM      6  C   UNL A   1      50.066  21.713  36.950  1.00  0.00     0.038 C 
BRANCH   6   7
ATOM      7  C   UNL A   1      51.213  22.577  37.509  1.00  0.00    -0.015 C 
ATOM      8  C   UNL A   1      52.537  22.336  36.785  1.00  0.00     0.007 C 
ATOM      9  C   UNL A   1      50.813  24.053  37.373  1.00  0.00     0.007 C 
ENDBRANCH   6   7
ENDBRANCH   5   6
BRANCH   5  10
ATOM     10  N   UNL A   1      49.070  20.528  34.867  1.00  0.00    -0.343 N 
ATOM     11  C   UNL A   1      47.732  20.419  34.962  1.00  0.00     0.240 C 
ATOM     12  H   UNL A   1      49.354  20.219  33.977  1.00  0.00     0.164 HD
ATOM     13  O   UNL A   1      47.162  20.160  33.891  1.00  0.00    -0.273 OA
BRANCH  11  14
ATOM     14  C   UNL A   1      46.849  20.675  36.186  1.00  0.00     0.216 C 
BRANCH  14  15
ATOM     15  N   UNL A   1      46.245  19.584  36.907  1.00  0.00    -0.345 N 
ATOM     16  C   UNL A   1      46.225  19.270  38.223  1.00  0.00     0.243 C 
ATOM     17  H   UNL A   1      45.757  18.948  36.336  1.00  0.00     0.164 HD
ATOM     18  O   UNL A   1      45.470  18.342  38.546  1.00  0.00    -0.273 OA
BRANCH  16  19
ATOM     19  C   UNL A   1      47.037  20.019  39.320  1.00  0.00     0.177 C 
BRANCH  19  20
ATOM     20  N   UNL A   1      46.258  21.022  40.061  1.00  0.00    -0.309 N 
ATOM     21  C   UNL A   1      45.796  22.258  39.760  1.00  0.00     0.408 C 
ATOM     22  H   UNL A   1      46.020  20.731  40.973  1.00  0.00     0.167 HD
ATOM     23  O   UNL A   1      45.435  23.008  40.657  1.00  0.00    -0.225 OA
BRANCH  21  24
ATOM     24  O   UNL A   1      45.725  22.513  38.439  1.00  0.00    -0.445 OA
BRANCH  24  25
ATOM     25  C   UNL A   1      45.497  23.887  38.094  1.00  0.00     0.270 C 
BRANCH  25  26
ATOM     26  C   UNL A   1      44.458  24.117  37.010  1.00  0.00    -0.011 A 
ATOM     27  C   UNL A   1      44.524  23.339  35.846  1.00  0.00     0.007 A 
ATOM     28  C   UNL A   1      43.463  25.104  37.092  1.00  0.00     0.007 A 
ATOM     29  C   UNL A   1      43.640  23.562  34.787  1.00  0.00     0.000 A 
ATOM     30  C   UNL A   1      42.591  25.340  36.029  1.00  0.00     0.000 A 
ATOM     31  C   UNL A   1      42.681  24.570  34.875  1.00  0.00     0.000 A 
ENDBRANCH  25  26
ENDBRANCH  24  25
ENDBRANCH  21  24
ENDBRANCH  19  20
BRANCH  19  32
ATOM     32  C   UNL A   1      47.955  19.079  40.132  1.00  0.00     0.015 C 
ATOM     33  C   UNL A   1      49.373  19.656  40.276  1.00  0.00     0.010 C 
ATOM     34  C   UNL A   1      47.404  18.862  41.546  1.00  0.00     0.010 C 
ENDBRANCH  19  32
ENDBRANCH  16  19
ENDBRANCH  14  15
ENDBRANCH  11  14
ENDBRANCH   5  10
ENDBRANCH   1   5
BRANCH   3  35
ATOM     35  C   UNL A   1      52.121  19.742  33.616  1.00  0.00     0.117 C 
BRANCH  35  36
ATOM     36  C   UNL A   1      53.540  20.215  33.423  1.00  0.00     0.042 C 
BRANCH  36  37
ATOM     37  C   UNL A   1      53.617  21.526  32.675  1.00  0.00     0.118 C 
BRANCH  37  38
ATOM     38  N   UNL A   1      54.425  22.528  33.364  1.00  0.00    -0.352 N 
ATOM     39  C   UNL A   1      54.127  23.848  33.604  1.00  0.00     0.251 C 
ATOM     40  H   UNL A   1      55.297  22.217  33.701  1.00  0.00     0.163 HD
ATOM     41  O   UNL A   1      54.981  24.608  34.047  1.00  0.00    -0.269 OA
BRANCH  39  42
ATOM     42  C   UNL A   1      52.769  24.326  33.289  1.00  0.00     0.039 A 
ATOM     43  C   UNL A   1      51.670  23.547  33.642  1.00  0.00     0.014 A 
ATOM     44  C   UNL A   1      52.598  25.594  32.724  1.00  0.00     0.014 A 
ATOM     45  C   UNL A   1      50.389  24.077  33.487  1.00  0.00     0.010 A 
ATOM     46  C   UNL A   1      51.337  26.165  32.704  1.00  0.00     0.010 A 
ATOM     47  C   UNL A   1      50.216  25.404  33.054  1.00  0.00    -0.014 A 
BRANCH  47  48
ATOM     48  C   UNL A   1      48.866  26.004  32.942  1.00  0.00     0.031 A 
ATOM     49  C   UNL A   1      48.157  26.021  31.615  1.00  0.00     0.074 A 
ATOM     50  C   UNL A   1      48.313  26.595  34.020  1.00  0.00     0.049 A 
ATOM     51  N   UNL A   1      46.966  26.477  31.326  1.00  0.00    -0.248 NA
ATOM     52  C   UNL A   1      48.890  25.493  30.449  1.00  0.00     0.031 C 
ATOM     53  C   UNL A   1      48.959  26.756  35.326  1.00  0.00     0.029 A 
ATOM     54  N   UNL A   1      47.085  27.180  34.185  1.00  0.00    -0.354 N 
ATOM     55  C   UNL A   1      46.827  26.326  29.951  1.00  0.00     0.074 A 
ATOM     56  C   UNL A   1      48.073  25.794  29.452  1.00  0.00     0.031 C 
ATOM     57  C   UNL A   1      48.108  27.363  36.168  1.00  0.00     0.029 A 
ATOM     58  C   UNL A   1      46.866  27.651  35.459  1.00  0.00     0.049 A 
ATOM     59  H   UNL A   1      46.422  27.255  33.461  1.00  0.00     0.167 HD
ATOM     60  C   UNL A   1      45.742  26.562  29.177  1.00  0.00     0.034 A 
ATOM     61  C   UNL A   1      45.776  28.231  35.997  1.00  0.00     0.034 A 
ATOM     62  C   UNL A   1      44.486  27.031  29.693  1.00  0.00     0.049 A 
ATOM     63  C   UNL A   1      44.548  28.385  35.141  1.00  0.00     0.074 A 
ATOM     64  C   UNL A   1      43.292  27.211  29.021  1.00  0.00     0.029 A 
ATOM     65  N   UNL A   1      44.264  27.390  31.013  1.00  0.00    -0.354 N 
ATOM     66  N   UNL A   1      44.374  28.066  33.881  1.00  0.00    -0.248 NA
ATOM     67  C   UNL A   1      43.350  28.930  35.794  1.00  0.00     0.031 C 
ATOM     68  C   UNL A   1      42.349  27.693  29.934  1.00  0.00     0.029 A 
ATOM     69  C   UNL A   1      42.950  27.790  31.179  1.00  0.00     0.049 A 
ATOM     70  H   UNL A   1      44.941  27.364  31.727  1.00  0.00     0.167 HD
ATOM     71  C   UNL A   1      43.041  28.338  33.599  1.00  0.00     0.074 A 
ATOM     72  C   UNL A   1      42.446  28.821  34.829  1.00  0.00     0.031 C 
ATOM     73  C   UNL A   1      42.370  28.219  32.425  1.00  0.00     0.034 A 
BRANCH  60  74
ATOM     74  C   UNL A   1      45.852  26.245  27.708  1.00  0.00     0.023 A 
ATOM     75  C   UNL A   1      46.349  27.224  26.822  1.00  0.00     0.012 A 
ATOM     76  C   UNL A   1      45.503  24.976  27.208  1.00  0.00     0.148 A 
ATOM     77  C   UNL A   1      46.460  26.959  25.457  1.00  0.00     0.002 A 
ATOM     78  C   UNL A   1      45.663  24.703  25.854  1.00  0.00     0.091 A 
ATOM     79  F   UNL A   1      45.008  24.067  28.060  1.00  0.00    -0.205 F 
ATOM     80  C   UNL A   1      46.128  25.696  24.977  1.00  0.00     0.022 A 
BRANCH  78  81
ATOM     81  S   UNL A   1      45.341  23.083  25.148  1.00  0.00     0.127 S 
ATOM     82  O   UNL A   1      45.636  23.313  23.735  1.00  0.00    -0.237 OA
ATOM     83  O   UNL A   1      46.317  22.244  25.846  1.00  0.00    -0.237 OA
ATOM     84  O   UNL A   1      43.951  22.780  25.456  1.00  0.00    -0.744 OA
ENDBRANCH  78  81
ENDBRANCH  60  74
BRANCH  61  85
ATOM     85  C   UNL A   1      45.762  28.601  37.439  1.00  0.00     0.023 A 
ATOM     86  C   UNL A   1      45.546  27.601  38.408  1.00  0.00     0.012 A 
ATOM     87  C   UNL A   1      45.998  29.924  37.861  1.00  0.00     0.148 A 
ATOM     88  C   UNL A   1      45.528  27.916  39.767  1.00  0.00     0.002 A 
ATOM     89  C   UNL A   1      46.034  30.221  39.219  1.00  0.00     0.091 A 
ATOM     90  F   UNL A   1      46.194  30.864  36.925  1.00  0.00    -0.205 F 
ATOM     91  C   UNL A   1      45.782  29.223  40.173  1.00  0.00     0.022 A 
BRANCH  89  92
ATOM     92  S   UNL A   1      46.489  31.847  39.834  1.00  0.00     0.127 S 
ATOM     93  O   UNL A   1      47.813  32.029  39.249  1.00  0.00    -0.237 OA
ATOM     94  O   UNL A   1      45.439  32.691  39.261  1.00  0.00    -0.237 OA
ATOM     95  O   UNL A   1      46.443  31.741  41.286  1.00  0.00    -0.744 OA
ENDBRANCH  89  92
ENDBRANCH  61  85
BRANCH  73  96
ATOM     96  C   UNL A   1      40.911  28.589  32.426  1.00  0.00     0.023 A 
ATOM     97  C   UNL A   1      39.938  27.601  32.674  1.00  0.00     0.012 A 
ATOM     98  C   UNL A   1      40.509  29.924  32.229  1.00  0.00     0.148 A 
ATOM     99  C   UNL A   1      38.582  27.928  32.680  1.00  0.00     0.002 A 
ATOM    100  C   UNL A   1      39.159  30.251  32.287  1.00  0.00     0.091 A 
ATOM    101  F   UNL A   1      41.447  30.848  31.973  1.00  0.00    -0.205 F 
ATOM    102  C   UNL A   1      38.194  29.253  32.498  1.00  0.00     0.022 A 
BRANCH 100 103
ATOM    103  S   UNL A   1      38.587  31.949  32.161  1.00  0.00     0.127 S 
ATOM    104  O   UNL A   1      39.084  32.334  30.841  1.00  0.00    -0.237 OA
ATOM    105  O   UNL A   1      37.134  31.798  32.245  1.00  0.00    -0.237 OA
ATOM    106  O   UNL A   1      39.183  32.650  33.290  1.00  0.00    -0.744 OA
ENDBRANCH 100 103
ENDBRANCH  73  96
ENDBRANCH  47  48
ENDBRANCH  39  42
ENDBRANCH  37  38
ENDBRANCH  36  37
ENDBRANCH  35  36
ENDBRANCH   3  35
TORSDOF 24
ENDMDL
MODEL 2
REMARK VINA RESULT:      -7.3      4.904     11.703
REMARK SMILES CC(C)C[C@H](NC(=O)CNC(=O)[C@@H](NC(=O)OCc1ccccc1)C(C)C)C(=O)NCCCNC(=O)c1ccc(-c2c3nc(c(-c4cccc(S(=O)(=O)[O-])c4F)c4ccc([nH]4)c(-c4cccc(S(=O)(=O)[O-])c4F)c4nc(c(-c5cccc(S(=O)(=O)[O-])c5F)c5ccc2[nH]5)C=C4)C=C3)cc1
REMARK SMILES IDX 28 1 29 2 30 3 5 5 4 6 2 7 1 8 3 9 6 10 7 11 8 13 9 14 10 15
REMARK SMILES IDX 11 16 12 18 13 19 14 20 15 21 16 23 17 24 18 25 19 26 20 27
REMARK SMILES IDX 24 28 21 29 23 30 22 31 25 32 26 33 27 34 31 35 32 36 33 37
REMARK SMILES IDX 34 38 35 39 36 41 37 42 38 43 99 44 39 45 98 46 40 47 41 48
REMARK SMILES IDX 42 49 92 50 43 51 97 52 91 53 93 54 44 55 96 56 90 57 89 58
REMARK SMILES IDX 45 60 77 61 57 62 76 63 58 64 61 65 75 66 94 67 59 68 60 69
REMARK SMILES IDX 74 71 95 72 62 73 46 74 47 75 55 76 48 77 50 78 56 79 49 80
REMARK SMILES IDX 51 81 52 82 53 83 54 84 78 85 79 86 87 87 80 88 82 89 88 90
REMARK SMILES IDX 81 91 83 92 84 93 85 94 86 95 63 96 64 97 72 98 65 99 67 100
REMARK SMILES IDX 73 101 66 102 68 103 69 104 70 105 71 106
REMARK H PARENT 30 4 6 12 10 17 14 22 34 40 93 59 61 70
REMARK Flexibility Score: inf
ROOT
ATOM      1  C   UNL A   1      39.186  32.957  38.656  1.00  0.00     0.242 C 
ATOM      2  O   UNL A   1      38.018  32.918  39.041  1.00  0.00    -0.273 OA
ATOM      3  N   UNL A   1      40.192  32.706  39.549  1.00  0.00    -0.354 N 
ATOM      4  H   UNL A   1      39.921  32.592  40.489  1.00  0.00     0.163 HD
ENDROOT
BRANCH   1   5
ATOM      5  C   UNL A   1      39.559  33.243  37.191  1.00  0.00     0.171 C 
BRANCH   5   6
ATOM      6  C   UNL A   1      38.881  34.532  36.717  1.00  0.00     0.038 C 
BRANCH   6   7
ATOM      7  C   UNL A   1      39.732  35.642  36.069  1.00  0.00    -0.015 C 
ATOM      8  C   UNL A   1      40.839  36.149  36.992  1.00  0.00     0.007 C 
ATOM      9  C   UNL A   1      40.351  35.082  34.781  1.00  0.00     0.007 C 
ENDBRANCH   6   7
ENDBRANCH   5   6
BRANCH   5  10
ATOM     10  N   UNL A   1      39.252  31.974  36.483  1.00  0.00    -0.343 N 
ATOM     11  C   UNL A   1      38.485  31.468  35.500  1.00  0.00     0.240 C 
ATOM     12  H   UNL A   1      39.800  31.252  36.866  1.00  0.00     0.164 HD
ATOM     13  O   UNL A   1      38.773  30.305  35.175  1.00  0.00    -0.273 OA
BRANCH  11  14
ATOM     14  C   UNL A   1      37.399  32.178  34.689  1.00  0.00     0.216 C 
BRANCH  14  15
ATOM     15  N   UNL A   1      36.775  31.535  33.561  1.00  0.00    -0.345 N 
ATOM     16  C   UNL A   1      37.009  31.616  32.230  1.00  0.00     0.243 C 
ATOM     17  H   UNL A   1      36.042  30.924  33.803  1.00  0.00     0.164 HD
ATOM     18  O   UNL A   1      36.399  30.801  31.525  1.00  0.00    -0.273 OA
BRANCH  16  19
ATOM     19  C   UNL A   1      38.005  32.614  31.570  1.00  0.00     0.177 C 
BRANCH  19  20
ATOM     20  N   UNL A   1      39.398  32.445  32.008  1.00  0.00    -0.309 N 
ATOM     21  C   UNL A   1      40.311  31.456  31.867  1.00  0.00     0.408 C 
ATOM     22  H   UNL A   1      39.741  33.219  32.514  1.00  0.00     0.167 HD
ATOM     23  O   UNL A   1      41.300  31.432  32.586  1.00  0.00    -0.225 OA
BRANCH  21  24
ATOM     24  O   UNL A   1      40.045  30.602  30.858  1.00  0.00    -0.445 OA
BRANCH  24  25
ATOM     25  C   UNL A   1      39.585  29.304  31.264  1.00  0.00     0.270 C 
BRANCH  25  26
ATOM     26  C   UNL A   1      39.990  28.161  30.349  1.00  0.00    -0.011 A 
ATOM     27  C   UNL A   1      41.329  28.069  29.946  1.00  0.00     0.007 A 
ATOM     28  C   UNL A   1      39.080  27.216  29.848  1.00  0.00     0.007 A 
ATOM     29  C   UNL A   1      41.738  27.082  29.045  1.00  0.00     0.000 A 
ATOM     30  C   UNL A   1      39.483  26.240  28.936  1.00  0.00     0.000 A 
ATOM     31  C   UNL A   1      40.813  26.175  28.533  1.00  0.00     0.000 A 
ENDBRANCH  25  26
ENDBRANCH  24  25
ENDBRANCH  21  24
ENDBRANCH  19  20
BRANCH  19  32
ATOM     32  C   UNL A   1      37.746  32.806  30.060  1.00  0.00     0.015 C 
ATOM     33  C   UNL A   1      36.369  33.439  29.797  1.00  0.00     0.010 C 
ATOM     34  C   UNL A   1      38.799  33.729  29.435  1.00  0.00     0.010 C 
ENDBRANCH  19  32
ENDBRANCH  16  19
ENDBRANCH  14  15
ENDBRANCH  11  14
ENDBRANCH   5  10
ENDBRANCH   1   5
BRANCH   3  35
ATOM     35  C   UNL A   1      41.613  32.587  39.272  1.00  0.00     0.117 C 
BRANCH  35  36
ATOM     36  C   UNL A   1      42.472  33.248  40.321  1.00  0.00     0.042 C 
BRANCH  36  37
ATOM     37  C   UNL A   1      43.896  33.451  39.860  1.00  0.00     0.118 C 
BRANCH  37  38
ATOM     38  N   UNL A   1      44.122  34.769  39.272  1.00  0.00    -0.352 N 
ATOM     39  C   UNL A   1      44.476  35.079  37.981  1.00  0.00     0.251 C 
ATOM     40  H   UNL A   1      44.005  35.535  39.880  1.00  0.00     0.163 HD
ATOM     41  O   UNL A   1      44.794  36.224  37.680  1.00  0.00    -0.269 OA
BRANCH  39  42
ATOM     42  C   UNL A   1      44.489  33.997  36.981  1.00  0.00     0.039 A 
ATOM     43  C   UNL A   1      43.307  33.654  36.328  1.00  0.00     0.014 A 
ATOM     44  C   UNL A   1      45.700  33.392  36.633  1.00  0.00     0.014 A 
ATOM     45  C   UNL A   1      43.357  32.744  35.272  1.00  0.00     0.010 A 
ATOM     46  C   UNL A   1      45.766  32.601  35.499  1.00  0.00     0.010 A 
ATOM     47  C   UNL A   1      44.592  32.241  34.826  1.00  0.00    -0.014 A 
BRANCH  47  48
ATOM     48  C   UNL A   1      44.672  31.323  33.666  1.00  0.00     0.031 A 
ATOM     49  C   UNL A   1      44.768  31.879  32.270  1.00  0.00     0.074 A 
ATOM     50  C   UNL A   1      44.587  29.993  33.868  1.00  0.00     0.049 A 
ATOM     51  N   UNL A   1      44.870  31.236  31.136  1.00  0.00    -0.248 NA
ATOM     52  C   UNL A   1      44.701  33.344  32.119  1.00  0.00     0.031 C 
ATOM     53  C   UNL A   1      44.362  29.342  35.162  1.00  0.00     0.029 A 
ATOM     54  N   UNL A   1      44.669  28.949  32.984  1.00  0.00    -0.354 N 
ATOM     55  C   UNL A   1      44.841  32.212  30.146  1.00  0.00     0.074 A 
ATOM     56  C   UNL A   1      44.651  33.482  30.804  1.00  0.00     0.031 C 
ATOM     57  C   UNL A   1      44.361  28.011  34.992  1.00  0.00     0.029 A 
ATOM     58  C   UNL A   1      44.566  27.713  33.579  1.00  0.00     0.049 A 
ATOM     59  H   UNL A   1      44.790  29.072  32.015  1.00  0.00     0.167 HD
ATOM     60  C   UNL A   1      45.010  32.070  28.811  1.00  0.00     0.034 A 
ATOM     61  C   UNL A   1      44.650  26.480  33.044  1.00  0.00     0.034 A 
ATOM     62  C   UNL A   1      45.263  30.808  28.172  1.00  0.00     0.049 A 
ATOM     63  C   UNL A   1      44.942  26.353  31.573  1.00  0.00     0.074 A 
ATOM     64  C   UNL A   1      45.546  30.557  26.843  1.00  0.00     0.029 A 
ATOM     65  N   UNL A   1      45.267  29.584  28.823  1.00  0.00    -0.354 N 
ATOM     66  N   UNL A   1      45.095  27.298  30.677  1.00  0.00    -0.248 NA
ATOM     67  C   UNL A   1      45.125  24.993  31.050  1.00  0.00     0.031 C 
ATOM     68  C   UNL A   1      45.709  29.176  26.688  1.00  0.00     0.029 A 
ATOM     69  C   UNL A   1      45.550  28.572  27.925  1.00  0.00     0.049 A 
ATOM     70  H   UNL A   1      45.094  29.456  29.784  1.00  0.00     0.167 HD
ATOM     71  C   UNL A   1      45.425  26.650  29.493  1.00  0.00     0.074 A 
ATOM     72  C   UNL A   1      45.478  25.234  29.795  1.00  0.00     0.031 C 
ATOM     73  C   UNL A   1      45.646  27.174  28.261  1.00  0.00     0.034 A 
BRANCH  60  74
ATOM     74  C   UNL A   1      44.996  33.320  27.970  1.00  0.00     0.023 A 
ATOM     75  C   UNL A   1      43.766  33.828  27.501  1.00  0.00     0.012 A 
ATOM     76  C   UNL A   1      46.186  34.013  27.675  1.00  0.00     0.148 A 
ATOM     77  C   UNL A   1      43.723  34.982  26.719  1.00  0.00     0.002 A 
ATOM     78  C   UNL A   1      46.130  35.190  26.937  1.00  0.00     0.091 A 
ATOM     79  F   UNL A   1      47.348  33.502  28.106  1.00  0.00    -0.205 F 
ATOM     80  C   UNL A   1      44.903  35.668  26.448  1.00  0.00     0.022 A 
BRANCH  78  81
ATOM     81  S   UNL A   1      47.582  36.192  26.602  1.00  0.00     0.127 S 
ATOM     82  O   UNL A   1      48.422  35.256  25.856  1.00  0.00    -0.237 OA
ATOM     83  O   UNL A   1      47.025  37.283  25.801  1.00  0.00    -0.237 OA
ATOM     84  O   UNL A   1      48.099  36.597  27.901  1.00  0.00    -0.744 OA
ENDBRANCH  78  81
ENDBRANCH  60  74
BRANCH  61  85
ATOM     85  C   UNL A   1      44.569  25.279  33.921  1.00  0.00     0.023 A 
ATOM     86  C   UNL A   1      43.317  24.675  34.152  1.00  0.00     0.012 A 
ATOM     87  C   UNL A   1      45.720  24.710  34.498  1.00  0.00     0.148 A 
ATOM     88  C   UNL A   1      43.207  23.549  34.969  1.00  0.00     0.002 A 
ATOM     89  C   UNL A   1      45.611  23.555  35.265  1.00  0.00     0.091 A 
ATOM     90  F   UNL A   1      46.902  25.302  34.273  1.00  0.00    -0.205 F 
ATOM     91  C   UNL A   1      44.354  22.984  35.517  1.00  0.00     0.022 A 
BRANCH  89  92
ATOM     92  S   UNL A   1      47.049  22.682  35.895  1.00  0.00     0.127 S 
ATOM     93  O   UNL A   1      46.436  21.546  36.577  1.00  0.00    -0.237 OA
ATOM     94  O   UNL A   1      47.765  22.348  34.663  1.00  0.00    -0.237 OA
ATOM     95  O   UNL A   1      47.742  23.638  36.748  1.00  0.00    -0.744 OA
ENDBRANCH  89  92
ENDBRANCH  61  85
BRANCH  73  96
ATOM     96  C   UNL A   1      45.995  26.213  27.156  1.00  0.00     0.023 A 
ATOM     97  C   UNL A   1      47.334  26.086  26.736  1.00  0.00     0.012 A 
ATOM     98  C   UNL A   1      45.005  25.401  26.571  1.00  0.00     0.148 A 
ATOM     99  C   UNL A   1      47.674  25.199  25.715  1.00  0.00     0.002 A 
ATOM    100  C   UNL A   1      45.360  24.483  25.590  1.00  0.00     0.091 A 
ATOM    101  F   UNL A   1      43.733  25.550  26.970  1.00  0.00    -0.205 F 
ATOM    102  C   UNL A   1      46.691  24.391  25.151  1.00  0.00     0.022 A 
BRANCH 100 103
ATOM    103  S   UNL A   1      44.169  23.338  24.886  1.00  0.00     0.127 S 
ATOM    104  O   UNL A   1      44.826  22.954  23.638  1.00  0.00    -0.237 OA
ATOM    105  O   UNL A   1      44.113  22.281  25.896  1.00  0.00    -0.237 OA
ATOM    106  O   UNL A   1      42.933  24.095  24.742  1.00  0.00    -0.744 OA
ENDBRANCH 100 103
ENDBRANCH  73  96
ENDBRANCH  47  48
ENDBRANCH  39  42
ENDBRANCH  37  38
ENDBRANCH  36  37
ENDBRANCH  35  36
ENDBRANCH   3  35
TORSDOF 24
ENDMDL
MODEL 3
REMARK VINA RESULT:      -7.2      6.506     13.561
REMARK SMILES CC(C)C[C@H](NC(=O)CNC(=O)[C@@H](NC(=O)OCc1ccccc1)C(C)C)C(=O)NCCCNC(=O)c1ccc(-c2c3nc(c(-c4cccc(S(=O)(=O)[O-])c4F)c4ccc([nH]4)c(-c4cccc(S(=O)(=O)[O-])c4F)c4nc(c(-c5cccc(S(=O)(=O)[O-])c5F)c5ccc2[nH]5)C=C4)C=C3)cc1
REMARK SMILES IDX 28 1 29 2 30 3 5 5 4 6 2 7 1 8 3 9 6 10 7 11 8 13 9 14 10 15
REMARK SMILES IDX 11 16 12 18 13 19 14 20 15 21 16 23 17 24 18 25 19 26 20 27
REMARK SMILES IDX 24 28 21 29 23 30 22 31 25 32 26 33 27 34 31 35 32 36 33 37
REMARK SMILES IDX 34 38 35 39 36 41 37 42 38 43 99 44 39 45 98 46 40 47 41 48
REMARK SMILES IDX 42 49 92 50 43 51 97 52 91 53 93 54 44 55 96 56 90 57 89 58
REMARK SMILES IDX 45 60 77 61 57 62 76 63 58 64 61 65 75 66 94 67 59 68 60 69
REMARK SMILES IDX 74 71 95 72 62 73 46 74 47 75 55 76 48 77 50 78 56 79 49 80
REMARK SMILES IDX 51 81 52 82 53 83 54 84 78 85 79 86 87 87 80 88 82 89 88 90
REMARK SMILES IDX 81 91 83 92 84 93 85 94 86 95 63 96 64 97 72 98 65 99 67 100
REMARK SMILES IDX 73 101 66 102 68 103 69 104 70 105 71 106
REMARK H PARENT 30 4 6 12 10 17 14 22 34 40 93 59 61 70
REMARK Flexibility Score: inf
ROOT
ATOM      1  C   UNL A   1      40.587  25.833  26.545  1.00  0.00     0.242 C 
ATOM      2  O   UNL A   1      41.005  25.469  25.447  1.00  0.00    -0.273 OA
ATOM      3  N   UNL A   1      40.232  27.142  26.723  1.00  0.00    -0.354 N 
ATOM      4  H   UNL A   1      40.418  27.749  25.971  1.00  0.00     0.163 HD
ENDROOT
BRANCH   1   5
ATOM      5  C   UNL A   1      40.414  24.858  27.723  1.00  0.00     0.171 C 
BRANCH   5   6
ATOM      6  C   UNL A   1      41.677  24.848  28.589  1.00  0.00     0.038 C 
BRANCH   6   7
ATOM      7  C   UNL A   1      42.908  24.046  28.126  1.00  0.00    -0.015 C 
ATOM      8  C   UNL A   1      44.207  24.842  28.243  1.00  0.00     0.007 C 
ATOM      9  C   UNL A   1      43.004  22.776  28.983  1.00  0.00     0.007 C 
ENDBRANCH   6   7
ENDBRANCH   5   6
BRANCH   5  10
ATOM     10  N   UNL A   1      39.977  23.590  27.085  1.00  0.00    -0.343 N 
ATOM     11  C   UNL A   1      39.013  23.076  26.300  1.00  0.00     0.240 C 
ATOM     12  H   UNL A   1      40.617  22.878  27.315  1.00  0.00     0.164 HD
ATOM     13  O   UNL A   1      39.242  21.926  25.896  1.00  0.00    -0.273 OA
BRANCH  11  14
ATOM     14  C   UNL A   1      37.750  23.767  25.780  1.00  0.00     0.216 C 
BRANCH  14  15
ATOM     15  N   UNL A   1      37.221  23.462  24.476  1.00  0.00    -0.345 N 
ATOM     16  C   UNL A   1      35.957  23.462  23.990  1.00  0.00     0.243 C 
ATOM     17  H   UNL A   1      37.904  23.205  23.816  1.00  0.00     0.164 HD
ATOM     18  O   UNL A   1      35.850  23.309  22.765  1.00  0.00    -0.273 OA
BRANCH  16  19
ATOM     19  C   UNL A   1      34.681  23.682  24.853  1.00  0.00     0.177 C 
BRANCH  19  20
ATOM     20  N   UNL A   1      34.626  22.849  26.063  1.00  0.00    -0.309 N 
ATOM     21  C   UNL A   1      34.217  21.582  26.309  1.00  0.00     0.408 C 
ATOM     22  H   UNL A   1      34.958  23.312  26.867  1.00  0.00     0.167 HD
ATOM     23  O   UNL A   1      33.990  21.227  27.458  1.00  0.00    -0.225 OA
BRANCH  21  24
ATOM     24  O   UNL A   1      34.163  20.798  25.214  1.00  0.00    -0.445 OA
BRANCH  24  25
ATOM     25  C   UNL A   1      32.956  20.036  25.069  1.00  0.00     0.270 C 
BRANCH  25  26
ATOM     26  C   UNL A   1      33.152  18.535  24.940  1.00  0.00    -0.011 A 
ATOM     27  C   UNL A   1      33.900  18.049  23.859  1.00  0.00     0.007 A 
ATOM     28  C   UNL A   1      32.581  17.604  25.823  1.00  0.00     0.007 A 
ATOM     29  C   UNL A   1      34.046  16.675  23.652  1.00  0.00     0.000 A 
ATOM     30  C   UNL A   1      32.711  16.232  25.608  1.00  0.00     0.000 A 
ATOM     31  C   UNL A   1      33.443  15.767  24.521  1.00  0.00     0.000 A 
ENDBRANCH  25  26
ENDBRANCH  24  25
ENDBRANCH  21  24
ENDBRANCH  19  20
BRANCH  19  32
ATOM     32  C   UNL A   1      34.302  25.173  24.991  1.00  0.00     0.015 C 
ATOM     33  C   UNL A   1      33.742  25.739  23.676  1.00  0.00     0.010 C 
ATOM     34  C   UNL A   1      33.227  25.370  26.066  1.00  0.00     0.010 C 
ENDBRANCH  19  32
ENDBRANCH  16  19
ENDBRANCH  14  15
ENDBRANCH  11  14
ENDBRANCH   5  10
ENDBRANCH   1   5
BRANCH   3  35
ATOM     35  C   UNL A   1      39.612  27.741  27.893  1.00  0.00     0.117 C 
BRANCH  35  36
ATOM     36  C   UNL A   1      39.766  29.240  27.936  1.00  0.00     0.042 C 
BRANCH  36  37
ATOM     37  C   UNL A   1      40.150  29.745  29.307  1.00  0.00     0.118 C 
BRANCH  37  38
ATOM     38  N   UNL A   1      39.369  29.133  30.378  1.00  0.00    -0.352 N 
ATOM     39  C   UNL A   1      39.813  28.369  31.430  1.00  0.00     0.251 C 
ATOM     40  H   UNL A   1      38.397  29.289  30.342  1.00  0.00     0.163 HD
ATOM     41  O   UNL A   1      39.016  27.784  32.155  1.00  0.00    -0.269 OA
BRANCH  39  42
ATOM     42  C   UNL A   1      41.266  28.252  31.644  1.00  0.00     0.039 A 
ATOM     43  C   UNL A   1      41.809  28.617  32.874  1.00  0.00     0.014 A 
ATOM     44  C   UNL A   1      42.068  27.691  30.645  1.00  0.00     0.014 A 
ATOM     45  C   UNL A   1      43.156  28.353  33.123  1.00  0.00     0.010 A 
ATOM     46  C   UNL A   1      43.362  27.305  30.947  1.00  0.00     0.010 A 
ATOM     47  C   UNL A   1      43.931  27.660  32.176  1.00  0.00    -0.014 A 
BRANCH  47  48
ATOM     48  C   UNL A   1      45.346  27.315  32.448  1.00  0.00     0.031 A 
ATOM     49  C   UNL A   1      45.682  26.064  33.215  1.00  0.00     0.074 A 
ATOM     50  C   UNL A   1      46.320  28.165  32.068  1.00  0.00     0.049 A 
ATOM     51  N   UNL A   1      46.857  25.583  33.529  1.00  0.00    -0.248 NA
ATOM     52  C   UNL A   1      44.556  25.264  33.732  1.00  0.00     0.031 C 
ATOM     53  C   UNL A   1      46.109  29.470  31.434  1.00  0.00     0.029 A 
ATOM     54  N   UNL A   1      47.683  28.063  32.167  1.00  0.00    -0.354 N 
ATOM     55  C   UNL A   1      46.610  24.457  34.305  1.00  0.00     0.074 A 
ATOM     56  C   UNL A   1      45.179  24.356  34.467  1.00  0.00     0.031 C 
ATOM     57  C   UNL A   1      47.300  30.030  31.169  1.00  0.00     0.029 A 
ATOM     58  C   UNL A   1      48.357  29.135  31.629  1.00  0.00     0.049 A 
ATOM     59  H   UNL A   1      48.137  27.296  32.585  1.00  0.00     0.167 HD
ATOM     60  C   UNL A   1      47.492  23.556  34.797  1.00  0.00     0.034 A 
ATOM     61  C   UNL A   1      49.679  29.357  31.502  1.00  0.00     0.034 A 
ATOM     62  C   UNL A   1      48.909  23.629  34.575  1.00  0.00     0.049 A 
ATOM     63  C   UNL A   1      50.634  28.290  31.964  1.00  0.00     0.074 A 
ATOM     64  C   UNL A   1      49.886  22.723  34.941  1.00  0.00     0.029 A 
ATOM     65  N   UNL A   1      49.549  24.672  33.923  1.00  0.00    -0.354 N 
ATOM     66  N   UNL A   1      50.373  27.139  32.535  1.00  0.00    -0.248 NA
ATOM     67  C   UNL A   1      52.063  28.529  31.717  1.00  0.00     0.031 C 
ATOM     68  C   UNL A   1      51.122  23.225  34.520  1.00  0.00     0.029 A 
ATOM     69  C   UNL A   1      50.910  24.432  33.873  1.00  0.00     0.049 A 
ATOM     70  H   UNL A   1      49.101  25.465  33.551  1.00  0.00     0.167 HD
ATOM     71  C   UNL A   1      51.599  26.501  32.685  1.00  0.00     0.074 A 
ATOM     72  C   UNL A   1      52.598  27.383  32.117  1.00  0.00     0.031 C 
ATOM     73  C   UNL A   1      51.879  25.303  33.257  1.00  0.00     0.034 A 
BRANCH  60  74
ATOM     74  C   UNL A   1      46.935  22.381  35.558  1.00  0.00     0.023 A 
ATOM     75  C   UNL A   1      46.538  21.223  34.854  1.00  0.00     0.012 A 
ATOM     76  C   UNL A   1      46.840  22.400  36.962  1.00  0.00     0.148 A 
ATOM     77  C   UNL A   1      46.018  20.121  35.532  1.00  0.00     0.002 A 
ATOM     78  C   UNL A   1      46.366  21.279  37.634  1.00  0.00     0.091 A 
ATOM     79  F   UNL A   1      47.196  23.517  37.612  1.00  0.00    -0.205 F 
ATOM     80  C   UNL A   1      45.943  20.145  36.921  1.00  0.00     0.022 A 
BRANCH  78  81
ATOM     81  S   UNL A   1      46.306  21.178  39.427  1.00  0.00     0.127 S 
ATOM     82  O   UNL A   1      45.874  19.796  39.630  1.00  0.00    -0.237 OA
ATOM     83  O   UNL A   1      47.697  21.443  39.796  1.00  0.00    -0.237 OA
ATOM     84  O   UNL A   1      45.361  22.199  39.855  1.00  0.00    -0.744 OA
ENDBRANCH  78  81
ENDBRANCH  60  74
BRANCH  61  85
ATOM     85  C   UNL A   1      50.167  30.585  30.814  1.00  0.00     0.023 A 
ATOM     86  C   UNL A   1      50.516  31.714  31.580  1.00  0.00     0.012 A 
ATOM     87  C   UNL A   1      50.323  30.631  29.415  1.00  0.00     0.148 A 
ATOM     88  C   UNL A   1      50.976  32.880  30.965  1.00  0.00     0.002 A 
ATOM     89  C   UNL A   1      50.835  31.776  28.814  1.00  0.00     0.091 A 
ATOM     90  F   UNL A   1      49.978  29.549  28.702  1.00  0.00    -0.205 F 
ATOM     91  C   UNL A   1      51.145  32.907  29.584  1.00  0.00     0.022 A 
BRANCH  89  92
ATOM     92  S   UNL A   1      51.213  31.851  27.059  1.00  0.00     0.127 S 
ATOM     93  O   UNL A   1      51.712  33.215  26.918  1.00  0.00    -0.237 OA
ATOM     94  O   UNL A   1      52.229  30.806  26.923  1.00  0.00    -0.237 OA
ATOM     95  O   UNL A   1      49.960  31.557  26.378  1.00  0.00    -0.744 OA
ENDBRANCH  89  92
ENDBRANCH  61  85
BRANCH  73  96
ATOM     96  C   UNL A   1      53.318  24.865  33.269  1.00  0.00     0.023 A 
ATOM     97  C   UNL A   1      53.816  24.068  32.219  1.00  0.00     0.012 A 
ATOM     98  C   UNL A   1      54.189  25.285  34.293  1.00  0.00     0.148 A 
ATOM     99  C   UNL A   1      55.148  23.655  32.214  1.00  0.00     0.002 A 
ATOM    100  C   UNL A   1      55.527  24.912  34.254  1.00  0.00     0.091 A 
ATOM    101  F   UNL A   1      53.693  26.027  35.294  1.00  0.00    -0.205 F 
ATOM    102  C   UNL A   1      56.005  24.086  33.224  1.00  0.00     0.022 A 
BRANCH 100 103
ATOM    103  S   UNL A   1      56.715  25.508  35.463  1.00  0.00     0.127 S 
ATOM    104  O   UNL A   1      57.173  26.749  34.844  1.00  0.00    -0.237 OA
ATOM    105  O   UNL A   1      55.886  25.690  36.655  1.00  0.00    -0.237 OA
ATOM    106  O   UNL A   1      57.714  24.455  35.584  1.00  0.00    -0.744 OA
ENDBRANCH 100 103
ENDBRANCH  73  96
ENDBRANCH  47  48
ENDBRANCH  39  42
ENDBRANCH  37  38
ENDBRANCH  36  37
ENDBRANCH  35  36
ENDBRANCH   3  35
TORSDOF 24
ENDMDL
