MODEL 1
REMARK VINA RESULT:     -10.2      0.000      0.000
REMARK SMILES C[C@@](O)(CNC(=O)c1ccc(Br)cc1N)CC(=O)NCCCNC(=O)c1ccc(-c2c3nc(c(-c4cccc(S(=O)(=O)[O-])c4F)c4ccc([nH]4)c(-c4cccc(S(=O)(=O)[O-])c4F)c4nc(c(-c5cccc(S(=O)(=O)[O-])c5F)c5ccc2[nH]5)C=C4)C=C3)cc1
REMARK SMILES IDX 20 1 19 2 17 3 18 4 16 6 2 7 1 8 3 9 4 11 5 12 6 13 7 15
REMARK SMILES IDX 8 16 9 17 14 18 10 19 13 20 11 21 12 22 15 23 21 26 22 27
REMARK SMILES IDX 23 28 24 29 25 31 26 32 27 33 88 34 28 35 87 36 29 37 30 38
REMARK SMILES IDX 31 39 81 40 32 41 86 42 80 43 82 44 33 45 85 46 79 47 78 48
REMARK SMILES IDX 34 50 66 51 46 52 65 53 47 54 50 55 64 56 83 57 48 58 49 59
REMARK SMILES IDX 63 61 84 62 51 63 35 64 36 65 44 66 37 67 39 68 45 69 38 70
REMARK SMILES IDX 40 71 41 72 42 73 43 74 67 75 68 76 76 77 69 78 71 79 77 80
REMARK SMILES IDX 70 81 72 82 73 83 74 84 75 85 52 86 53 87 61 88 54 89 56 90
REMARK SMILES IDX 62 91 55 92 57 93 58 94 59 95 60 96
REMARK H PARENT 19 5 3 10 5 14 15 24 15 25 23 30 82 49 50 60
REMARK Flexibility Score: inf
ROOT
ATOM      1  C   UNL A   1      32.903  34.928  28.768  1.00  0.00     0.117 C 
ENDROOT
BRANCH   1   2
ATOM      2  N   UNL A   1      32.883  36.208  29.489  1.00  0.00    -0.356 N 
ATOM      3  C   UNL A   1      32.808  36.660  30.767  1.00  0.00     0.222 C 
ATOM      4  O   UNL A   1      33.011  37.866  30.956  1.00  0.00    -0.275 OA
ATOM      5  H   UNL A   1      32.939  36.962  28.858  1.00  0.00     0.163 HD
BRANCH   3   6
ATOM      6  C   UNL A   1      32.568  35.790  31.957  1.00  0.00     0.136 C 
BRANCH   6   7
ATOM      7  C   UNL A   1      33.807  35.249  32.617  1.00  0.00     0.088 C 
ATOM      8  C   UNL A   1      34.194  36.104  33.837  1.00  0.00     0.044 C 
BRANCH   7   9
ATOM      9  O   UNL A   1      34.924  35.488  31.719  1.00  0.00    -0.388 OA
ATOM     10  H   UNL A   1      34.875  36.393  31.374  1.00  0.00     0.211 HD
ENDBRANCH   7   9
BRANCH   7  11
ATOM     11  C   UNL A   1      33.783  33.723  32.946  1.00  0.00     0.151 C 
BRANCH  11  12
ATOM     12  N   UNL A   1      34.938  32.750  32.904  1.00  0.00    -0.349 N 
ATOM     13  C   UNL A   1      36.319  32.563  32.746  1.00  0.00     0.253 C 
ATOM     14  H   UNL A   1      34.553  31.857  33.052  1.00  0.00     0.163 HD
ATOM     15  O   UNL A   1      36.723  31.635  33.474  1.00  0.00    -0.269 OA
BRANCH  13  16
ATOM     16  C   UNL A   1      37.424  33.123  31.829  1.00  0.00     0.062 A 
ATOM     17  C   UNL A   1      37.512  33.047  30.419  1.00  0.00     0.017 A 
ATOM     18  C   UNL A   1      38.348  34.027  32.399  1.00  0.00     0.045 A 
ATOM     19  C   UNL A   1      38.557  33.577  29.647  1.00  0.00     0.016 A 
ATOM     20  C   UNL A   1      39.456  34.497  31.648  1.00  0.00     0.042 A 
ATOM     21  C   UNL A   1      39.567  34.254  30.284  1.00  0.00     0.020 A 
ATOM     22  Br  UNL A   1      41.056  34.859  29.297  1.00  0.00    -0.051 Br
BRANCH  18  23
ATOM     23  N   UNL A   1      38.272  34.415  33.744  1.00  0.00    -0.398 N 
ATOM     24  H   UNL A   1      37.666  35.143  34.014  1.00  0.00     0.156 HD
ATOM     25  H   UNL A   1      38.825  33.959  34.420  1.00  0.00     0.156 HD
ENDBRANCH  18  23
ENDBRANCH  13  16
ENDBRANCH  11  12
ENDBRANCH   7  11
ENDBRANCH   6   7
ENDBRANCH   3   6
ENDBRANCH   1   2
BRANCH   1  26
ATOM     26  C   UNL A   1      33.919  33.674  28.904  1.00  0.00     0.042 C 
BRANCH  26  27
ATOM     27  C   UNL A   1      34.717  32.660  27.956  1.00  0.00     0.118 C 
BRANCH  27  28
ATOM     28  N   UNL A   1      34.242  31.293  27.703  1.00  0.00    -0.352 N 
ATOM     29  C   UNL A   1      34.853  30.062  27.798  1.00  0.00     0.251 C 
ATOM     30  H   UNL A   1      33.304  31.247  27.406  1.00  0.00     0.163 HD
ATOM     31  O   UNL A   1      34.316  29.051  27.411  1.00  0.00    -0.269 OA
BRANCH  29  32
ATOM     32  C   UNL A   1      36.147  30.010  28.472  1.00  0.00     0.039 A 
ATOM     33  C   UNL A   1      37.278  30.367  27.736  1.00  0.00     0.014 A 
ATOM     34  C   UNL A   1      36.217  29.532  29.777  1.00  0.00     0.014 A 
ATOM     35  C   UNL A   1      38.521  30.059  28.247  1.00  0.00     0.010 A 
ATOM     36  C   UNL A   1      37.471  29.265  30.306  1.00  0.00     0.010 A 
ATOM     37  C   UNL A   1      38.611  29.452  29.508  1.00  0.00    -0.014 A 
BRANCH  37  38
ATOM     38  C   UNL A   1      39.896  28.870  29.923  1.00  0.00     0.031 A 
ATOM     39  C   UNL A   1      40.570  29.403  31.152  1.00  0.00     0.074 A 
ATOM     40  C   UNL A   1      40.404  27.841  29.229  1.00  0.00     0.049 A 
ATOM     41  N   UNL A   1      41.733  29.088  31.653  1.00  0.00    -0.248 NA
ATOM     42  C   UNL A   1      39.843  30.430  31.920  1.00  0.00     0.031 C 
ATOM     43  C   UNL A   1      39.787  27.237  28.048  1.00  0.00     0.029 A 
ATOM     44  N   UNL A   1      41.553  27.127  29.419  1.00  0.00    -0.354 N 
ATOM     45  C   UNL A   1      41.895  29.901  32.767  1.00  0.00     0.074 A 
ATOM     46  C   UNL A   1      40.716  30.731  32.870  1.00  0.00     0.031 C 
ATOM     47  C   UNL A   1      40.567  26.236  27.617  1.00  0.00     0.029 A 
ATOM     48  C   UNL A   1      41.755  26.167  28.462  1.00  0.00     0.049 A 
ATOM     49  H   UNL A   1      42.172  27.287  30.168  1.00  0.00     0.167 HD
ATOM     50  C   UNL A   1      42.930  29.932  33.637  1.00  0.00     0.034 A 
ATOM     51  C   UNL A   1      42.802  25.344  28.275  1.00  0.00     0.034 A 
ATOM     52  C   UNL A   1      44.075  29.072  33.535  1.00  0.00     0.049 A 
ATOM     53  C   UNL A   1      43.954  25.418  29.230  1.00  0.00     0.074 A 
ATOM     54  C   UNL A   1      45.184  29.013  34.357  1.00  0.00     0.029 A 
ATOM     55  N   UNL A   1      44.253  28.113  32.548  1.00  0.00    -0.354 N 
ATOM     56  N   UNL A   1      44.094  26.182  30.287  1.00  0.00    -0.248 NA
ATOM     57  C   UNL A   1      45.082  24.517  28.977  1.00  0.00     0.031 C 
ATOM     58  C   UNL A   1      46.034  28.017  33.865  1.00  0.00     0.029 A 
ATOM     59  C   UNL A   1      45.450  27.450  32.742  1.00  0.00     0.049 A 
ATOM     60  H   UNL A   1      43.618  27.931  31.818  1.00  0.00     0.167 HD
ATOM     61  C   UNL A   1      45.330  25.858  30.829  1.00  0.00     0.074 A 
ATOM     62  C   UNL A   1      45.882  24.804  29.997  1.00  0.00     0.031 C 
ATOM     63  C   UNL A   1      45.959  26.393  31.905  1.00  0.00     0.034 A 
BRANCH  50  64
ATOM     64  C   UNL A   1      42.841  30.897  34.786  1.00  0.00     0.023 A 
ATOM     65  C   UNL A   1      42.336  30.450  36.023  1.00  0.00     0.012 A 
ATOM     66  C   UNL A   1      43.284  32.227  34.658  1.00  0.00     0.148 A 
ATOM     67  C   UNL A   1      42.255  31.316  37.112  1.00  0.00     0.002 A 
ATOM     68  C   UNL A   1      43.227  33.077  35.756  1.00  0.00     0.091 A 
ATOM     69  F   UNL A   1      43.733  32.638  33.464  1.00  0.00    -0.205 F 
ATOM     70  C   UNL A   1      42.708  32.626  36.982  1.00  0.00     0.022 A 
BRANCH  68  71
ATOM     71  S   UNL A   1      43.824  34.771  35.708  1.00  0.00     0.127 S 
ATOM     72  O   UNL A   1      45.224  34.577  35.329  1.00  0.00    -0.237 OA
ATOM     73  O   UNL A   1      42.986  35.362  34.665  1.00  0.00    -0.237 OA
ATOM     74  O   UNL A   1      43.609  35.311  37.043  1.00  0.00    -0.744 OA
ENDBRANCH  68  71
ENDBRANCH  50  64
BRANCH  51  75
ATOM     75  C   UNL A   1      42.750  24.383  27.146  1.00  0.00     0.023 A 
ATOM     76  C   UNL A   1      43.432  24.688  25.955  1.00  0.00     0.012 A 
ATOM     77  C   UNL A   1      42.169  23.110  27.308  1.00  0.00     0.148 A 
ATOM     78  C   UNL A   1      43.544  23.735  24.942  1.00  0.00     0.002 A 
ATOM     79  C   UNL A   1      42.320  22.153  26.315  1.00  0.00     0.091 A 
ATOM     80  F   UNL A   1      41.537  22.848  28.461  1.00  0.00    -0.205 F 
ATOM     81  C   UNL A   1      43.001  22.465  25.127  1.00  0.00     0.022 A 
BRANCH  79  82
ATOM     82  S   UNL A   1      41.766  20.455  26.510  1.00  0.00     0.127 S 
ATOM     83  O   UNL A   1      40.317  20.598  26.385  1.00  0.00    -0.237 OA
ATOM     84  O   UNL A   1      42.421  19.799  25.379  1.00  0.00    -0.237 OA
ATOM     85  O   UNL A   1      42.236  20.030  27.821  1.00  0.00    -0.744 OA
ENDBRANCH  79  82
ENDBRANCH  51  75
BRANCH  63  86
ATOM     86  C   UNL A   1      47.325  25.861  32.231  1.00  0.00     0.023 A 
ATOM     87  C   UNL A   1      48.445  26.390  31.563  1.00  0.00     0.012 A 
ATOM     88  C   UNL A   1      47.504  24.906  33.249  1.00  0.00     0.148 A 
ATOM     89  C   UNL A   1      49.729  25.960  31.891  1.00  0.00     0.002 A 
ATOM     90  C   UNL A   1      48.789  24.507  33.594  1.00  0.00     0.091 A 
ATOM     91  F   UNL A   1      46.418  24.411  33.860  1.00  0.00    -0.205 F 
ATOM     92  C   UNL A   1      49.902  25.028  32.912  1.00  0.00     0.022 A 
BRANCH  90  93
ATOM     93  S   UNL A   1      49.114  23.367  34.943  1.00  0.00     0.127 S 
ATOM     94  O   UNL A   1      48.439  22.157  34.476  1.00  0.00    -0.237 OA
ATOM     95  O   UNL A   1      50.575  23.291  34.939  1.00  0.00    -0.237 OA
ATOM     96  O   UNL A   1      48.543  23.981  36.134  1.00  0.00    -0.744 OA
ENDBRANCH  90  93
ENDBRANCH  63  86
ENDBRANCH  37  38
ENDBRANCH  29  32
ENDBRANCH  27  28
ENDBRANCH  26  27
ENDBRANCH   1  26
TORSDOF 19
ENDMDL
MODEL 2
REMARK VINA RESULT:     -10.1      1.967      2.314
REMARK SMILES C[C@@](O)(CNC(=O)c1ccc(Br)cc1N)CC(=O)NCCCNC(=O)c1ccc(-c2c3nc(c(-c4cccc(S(=O)(=O)[O-])c4F)c4ccc([nH]4)c(-c4cccc(S(=O)(=O)[O-])c4F)c4nc(c(-c5cccc(S(=O)(=O)[O-])c5F)c5ccc2[nH]5)C=C4)C=C3)cc1
REMARK SMILES IDX 20 1 19 2 17 3 18 4 16 6 2 7 1 8 3 9 4 11 5 12 6 13 7 15
REMARK SMILES IDX 8 16 9 17 14 18 10 19 13 20 11 21 12 22 15 23 21 26 22 27
REMARK SMILES IDX 23 28 24 29 25 31 26 32 27 33 88 34 28 35 87 36 29 37 30 38
REMARK SMILES IDX 31 39 81 40 32 41 86 42 80 43 82 44 33 45 85 46 79 47 78 48
REMARK SMILES IDX 34 50 66 51 46 52 65 53 47 54 50 55 64 56 83 57 48 58 49 59
REMARK SMILES IDX 63 61 84 62 51 63 35 64 36 65 44 66 37 67 39 68 45 69 38 70
REMARK SMILES IDX 40 71 41 72 42 73 43 74 67 75 68 76 76 77 69 78 71 79 77 80
REMARK SMILES IDX 70 81 72 82 73 83 74 84 75 85 52 86 53 87 61 88 54 89 56 90
REMARK SMILES IDX 62 91 55 92 57 93 58 94 59 95 60 96
REMARK H PARENT 19 5 3 10 5 14 15 24 15 25 23 30 82 49 50 60
REMARK Flexibility Score: inf
ROOT
ATOM      1  C   UNL A   1      32.912  34.811  28.702  1.00  0.00     0.117 C 
ENDROOT
BRANCH   1   2
ATOM      2  N   UNL A   1      32.870  36.084  29.435  1.00  0.00    -0.356 N 
ATOM      3  C   UNL A   1      32.811  36.521  30.719  1.00  0.00     0.222 C 
ATOM      4  O   UNL A   1      32.984  37.731  30.915  1.00  0.00    -0.275 OA
ATOM      5  H   UNL A   1      32.891  36.844  28.811  1.00  0.00     0.163 HD
BRANCH   3   6
ATOM      6  C   UNL A   1      32.621  35.635  31.906  1.00  0.00     0.136 C 
BRANCH   6   7
ATOM      7  C   UNL A   1      33.888  35.207  32.595  1.00  0.00     0.088 C 
ATOM      8  C   UNL A   1      34.274  36.209  33.699  1.00  0.00     0.044 C 
BRANCH   7   9
ATOM      9  O   UNL A   1      34.980  35.368  31.651  1.00  0.00    -0.388 OA
ATOM     10  H   UNL A   1      34.649  35.787  30.841  1.00  0.00     0.211 HD
ENDBRANCH   7   9
BRANCH   7  11
ATOM     11  C   UNL A   1      33.913  33.729  33.100  1.00  0.00     0.151 C 
BRANCH  11  12
ATOM     12  N   UNL A   1      34.934  32.661  32.781  1.00  0.00    -0.349 N 
ATOM     13  C   UNL A   1      36.274  32.352  32.514  1.00  0.00     0.253 C 
ATOM     14  H   UNL A   1      34.441  31.811  32.744  1.00  0.00     0.163 HD
ATOM     15  O   UNL A   1      36.573  31.240  32.992  1.00  0.00    -0.269 OA
BRANCH  13  16
ATOM     16  C   UNL A   1      37.421  32.971  31.690  1.00  0.00     0.062 A 
ATOM     17  C   UNL A   1      37.577  32.989  30.284  1.00  0.00     0.017 A 
ATOM     18  C   UNL A   1      38.314  33.836  32.363  1.00  0.00     0.045 A 
ATOM     19  C   UNL A   1      38.657  33.569  29.600  1.00  0.00     0.016 A 
ATOM     20  C   UNL A   1      39.455  34.355  31.699  1.00  0.00     0.042 A 
ATOM     21  C   UNL A   1      39.632  34.203  30.329  1.00  0.00     0.020 A 
ATOM     22  Br  UNL A   1      41.165  34.871  29.457  1.00  0.00    -0.051 Br
BRANCH  18  23
ATOM     23  N   UNL A   1      38.172  34.134  33.726  1.00  0.00    -0.398 N 
ATOM     24  H   UNL A   1      38.064  33.407  34.381  1.00  0.00     0.156 HD
ATOM     25  H   UNL A   1      38.180  35.071  34.028  1.00  0.00     0.156 HD
ENDBRANCH  18  23
ENDBRANCH  13  16
ENDBRANCH  11  12
ENDBRANCH   7  11
ENDBRANCH   6   7
ENDBRANCH   3   6
ENDBRANCH   1   2
BRANCH   1  26
ATOM     26  C   UNL A   1      33.873  33.523  28.906  1.00  0.00     0.042 C 
BRANCH  26  27
ATOM     27  C   UNL A   1      34.684  32.471  28.013  1.00  0.00     0.118 C 
BRANCH  27  28
ATOM     28  N   UNL A   1      34.242  31.079  27.854  1.00  0.00    -0.352 N 
ATOM     29  C   UNL A   1      34.904  29.874  27.945  1.00  0.00     0.251 C 
ATOM     30  H   UNL A   1      33.285  30.989  27.639  1.00  0.00     0.163 HD
ATOM     31  O   UNL A   1      34.375  28.831  27.645  1.00  0.00    -0.269 OA
BRANCH  29  32
ATOM     32  C   UNL A   1      36.250  29.896  28.511  1.00  0.00     0.039 A 
ATOM     33  C   UNL A   1      37.292  30.329  27.690  1.00  0.00     0.014 A 
ATOM     34  C   UNL A   1      36.457  29.408  29.798  1.00  0.00     0.014 A 
ATOM     35  C   UNL A   1      38.590  30.093  28.092  1.00  0.00     0.010 A 
ATOM     36  C   UNL A   1      37.765  29.213  30.217  1.00  0.00     0.010 A 
ATOM     37  C   UNL A   1      38.821  29.479  29.331  1.00  0.00    -0.014 A 
BRANCH  37  38
ATOM     38  C   UNL A   1      40.169  28.972  29.630  1.00  0.00     0.031 A 
ATOM     39  C   UNL A   1      40.968  29.633  30.714  1.00  0.00     0.074 A 
ATOM     40  C   UNL A   1      40.627  27.899  28.969  1.00  0.00     0.049 A 
ATOM     41  N   UNL A   1      42.195  29.396  31.090  1.00  0.00    -0.248 NA
ATOM     42  C   UNL A   1      40.301  30.705  31.476  1.00  0.00     0.031 C 
ATOM     43  C   UNL A   1      39.894  27.174  27.931  1.00  0.00     0.029 A 
ATOM     44  N   UNL A   1      41.817  27.238  29.073  1.00  0.00    -0.354 N 
ATOM     45  C   UNL A   1      42.460  30.311  32.100  1.00  0.00     0.074 A 
ATOM     46  C   UNL A   1      41.272  31.114  32.279  1.00  0.00     0.031 C 
ATOM     47  C   UNL A   1      40.653  26.160  27.494  1.00  0.00     0.029 A 
ATOM     48  C   UNL A   1      41.937  26.201  28.185  1.00  0.00     0.049 A 
ATOM     49  H   UNL A   1      42.518  27.481  29.722  1.00  0.00     0.167 HD
ATOM     50  C   UNL A   1      43.592  30.449  32.827  1.00  0.00     0.034 A 
ATOM     51  C   UNL A   1      42.984  25.394  27.940  1.00  0.00     0.034 A 
ATOM     52  C   UNL A   1      44.749  29.616  32.656  1.00  0.00     0.049 A 
ATOM     53  C   UNL A   1      44.241  25.585  28.732  1.00  0.00     0.074 A 
ATOM     54  C   UNL A   1      45.952  29.662  33.334  1.00  0.00     0.029 A 
ATOM     55  N   UNL A   1      44.841  28.576  31.741  1.00  0.00    -0.354 N 
ATOM     56  N   UNL A   1      44.481  26.446  29.693  1.00  0.00    -0.248 NA
ATOM     57  C   UNL A   1      45.364  24.697  28.418  1.00  0.00     0.031 C 
ATOM     58  C   UNL A   1      46.773  28.649  32.827  1.00  0.00     0.029 A 
ATOM     59  C   UNL A   1      46.078  27.967  31.840  1.00  0.00     0.049 A 
ATOM     60  H   UNL A   1      44.128  28.311  31.115  1.00  0.00     0.167 HD
ATOM     61  C   UNL A   1      45.785  26.206  30.101  1.00  0.00     0.074 A 
ATOM     62  C   UNL A   1      46.272  25.097  29.301  1.00  0.00     0.031 C 
ATOM     63  C   UNL A   1      46.521  26.853  31.039  1.00  0.00     0.034 A 
BRANCH  50  64
ATOM     64  C   UNL A   1      43.609  31.511  33.891  1.00  0.00     0.023 A 
ATOM     65  C   UNL A   1      44.101  32.793  33.577  1.00  0.00     0.012 A 
ATOM     66  C   UNL A   1      43.113  31.256  35.183  1.00  0.00     0.148 A 
ATOM     67  C   UNL A   1      44.116  33.803  34.538  1.00  0.00     0.002 A 
ATOM     68  C   UNL A   1      43.104  32.275  36.128  1.00  0.00     0.091 A 
ATOM     69  F   UNL A   1      42.678  30.020  35.469  1.00  0.00    -0.205 F 
ATOM     70  C   UNL A   1      43.610  33.547  35.809  1.00  0.00     0.022 A 
BRANCH  68  71
ATOM     71  S   UNL A   1      42.437  32.065  37.783  1.00  0.00     0.127 S 
ATOM     72  O   UNL A   1      41.049  31.701  37.494  1.00  0.00    -0.237 OA
ATOM     73  O   UNL A   1      43.256  30.973  38.307  1.00  0.00    -0.237 OA
ATOM     74  O   UNL A   1      42.619  33.343  38.455  1.00  0.00    -0.744 OA
ENDBRANCH  68  71
ENDBRANCH  50  64
BRANCH  51  75
ATOM     75  C   UNL A   1      42.832  24.333  26.913  1.00  0.00     0.023 A 
ATOM     76  C   UNL A   1      43.499  24.470  25.683  1.00  0.00     0.012 A 
ATOM     77  C   UNL A   1      42.166  23.129  27.213  1.00  0.00     0.148 A 
ATOM     78  C   UNL A   1      43.514  23.417  24.767  1.00  0.00     0.002 A 
ATOM     79  C   UNL A   1      42.219  22.071  26.317  1.00  0.00     0.091 A 
ATOM     80  F   UNL A   1      41.550  23.028  28.400  1.00  0.00    -0.205 F 
ATOM     81  C   UNL A   1      42.887  22.214  25.090  1.00  0.00     0.022 A 
BRANCH  79  82
ATOM     82  S   UNL A   1      41.551  20.446  26.692  1.00  0.00     0.127 S 
ATOM     83  O   UNL A   1      42.313  20.078  27.884  1.00  0.00    -0.237 OA
ATOM     84  O   UNL A   1      40.142  20.754  26.932  1.00  0.00    -0.237 OA
ATOM     85  O   UNL A   1      41.808  19.628  25.516  1.00  0.00    -0.744 OA
ENDBRANCH  79  82
ENDBRANCH  51  75
BRANCH  63  86
ATOM     86  C   UNL A   1      47.936  26.391  31.236  1.00  0.00     0.023 A 
ATOM     87  C   UNL A   1      48.218  25.463  32.257  1.00  0.00     0.012 A 
ATOM     88  C   UNL A   1      48.960  26.807  30.365  1.00  0.00     0.148 A 
ATOM     89  C   UNL A   1      49.510  24.969  32.422  1.00  0.00     0.002 A 
ATOM     90  C   UNL A   1      50.238  26.284  30.514  1.00  0.00     0.091 A 
ATOM     91  F   UNL A   1      48.665  27.700  29.410  1.00  0.00    -0.205 F 
ATOM     92  C   UNL A   1      50.517  25.370  31.545  1.00  0.00     0.022 A 
BRANCH  90  93
ATOM     93  S   UNL A   1      51.580  26.687  29.391  1.00  0.00     0.127 S 
ATOM     94  O   UNL A   1      51.153  26.014  28.166  1.00  0.00    -0.237 OA
ATOM     95  O   UNL A   1      51.515  28.148  29.341  1.00  0.00    -0.237 OA
ATOM     96  O   UNL A   1      52.790  26.156  30.006  1.00  0.00    -0.744 OA
ENDBRANCH  90  93
ENDBRANCH  63  86
ENDBRANCH  37  38
ENDBRANCH  29  32
ENDBRANCH  27  28
ENDBRANCH  26  27
ENDBRANCH   1  26
TORSDOF 19
ENDMDL
MODEL 3
REMARK VINA RESULT:     -10.1      4.448     10.551
REMARK SMILES C[C@@](O)(CNC(=O)c1ccc(Br)cc1N)CC(=O)NCCCNC(=O)c1ccc(-c2c3nc(c(-c4cccc(S(=O)(=O)[O-])c4F)c4ccc([nH]4)c(-c4cccc(S(=O)(=O)[O-])c4F)c4nc(c(-c5cccc(S(=O)(=O)[O-])c5F)c5ccc2[nH]5)C=C4)C=C3)cc1
REMARK SMILES IDX 20 1 19 2 17 3 18 4 16 6 2 7 1 8 3 9 4 11 5 12 6 13 7 15
REMARK SMILES IDX 8 16 9 17 14 18 10 19 13 20 11 21 12 22 15 23 21 26 22 27
REMARK SMILES IDX 23 28 24 29 25 31 26 32 27 33 88 34 28 35 87 36 29 37 30 38
REMARK SMILES IDX 31 39 81 40 32 41 86 42 80 43 82 44 33 45 85 46 79 47 78 48
REMARK SMILES IDX 34 50 66 51 46 52 65 53 47 54 50 55 64 56 83 57 48 58 49 59
REMARK SMILES IDX 63 61 84 62 51 63 35 64 36 65 44 66 37 67 39 68 45 69 38 70
REMARK SMILES IDX 40 71 41 72 42 73 43 74 67 75 68 76 76 77 69 78 71 79 77 80
REMARK SMILES IDX 70 81 72 82 73 83 74 84 75 85 52 86 53 87 61 88 54 89 56 90
REMARK SMILES IDX 62 91 55 92 57 93 58 94 59 95 60 96
REMARK H PARENT 19 5 3 10 5 14 15 24 15 25 23 30 82 49 50 60
REMARK Flexibility Score: inf
ROOT
ATOM      1  C   UNL A   1      32.066  28.088  27.464  1.00  0.00     0.117 C 
ENDROOT
BRANCH   1   2
ATOM      2  N   UNL A   1      32.714  27.122  26.567  1.00  0.00    -0.356 N 
ATOM      3  C   UNL A   1      33.083  27.025  25.264  1.00  0.00     0.222 C 
ATOM      4  O   UNL A   1      33.795  26.065  24.945  1.00  0.00    -0.275 OA
ATOM      5  H   UNL A   1      32.948  26.300  27.055  1.00  0.00     0.163 HD
BRANCH   3   6
ATOM      6  C   UNL A   1      32.745  28.033  24.215  1.00  0.00     0.136 C 
BRANCH   6   7
ATOM      7  C   UNL A   1      31.421  27.829  23.531  1.00  0.00     0.088 C 
ATOM      8  C   UNL A   1      30.515  29.059  23.717  1.00  0.00     0.044 C 
BRANCH   7   9
ATOM      9  O   UNL A   1      30.696  26.810  24.271  1.00  0.00    -0.388 OA
ATOM     10  H   UNL A   1      30.251  26.213  23.650  1.00  0.00     0.211 HD
ENDBRANCH   7   9
BRANCH   7  11
ATOM     11  C   UNL A   1      31.496  27.367  22.041  1.00  0.00     0.151 C 
BRANCH  11  12
ATOM     12  N   UNL A   1      32.437  26.351  21.435  1.00  0.00    -0.349 N 
ATOM     13  C   UNL A   1      32.840  25.010  21.364  1.00  0.00     0.253 C 
ATOM     14  H   UNL A   1      33.023  26.849  20.822  1.00  0.00     0.163 HD
ATOM     15  O   UNL A   1      33.208  24.722  20.209  1.00  0.00    -0.269 OA
BRANCH  13  16
ATOM     16  C   UNL A   1      33.054  23.855  22.362  1.00  0.00     0.062 A 
ATOM     17  C   UNL A   1      34.276  23.337  22.851  1.00  0.00     0.017 A 
ATOM     18  C   UNL A   1      31.925  23.391  23.074  1.00  0.00     0.045 A 
ATOM     19  C   UNL A   1      34.395  22.272  23.757  1.00  0.00     0.016 A 
ATOM     20  C   UNL A   1      32.022  22.260  23.924  1.00  0.00     0.042 A 
ATOM     21  C   UNL A   1      33.251  21.694  24.246  1.00  0.00     0.020 A 
ATOM     22  Br  UNL A   1      33.370  20.173  25.356  1.00  0.00    -0.051 Br
BRANCH  18  23
ATOM     23  N   UNL A   1      30.653  23.954  22.896  1.00  0.00    -0.398 N 
ATOM     24  H   UNL A   1      30.187  23.857  22.034  1.00  0.00     0.156 HD
ATOM     25  H   UNL A   1      30.226  24.446  23.634  1.00  0.00     0.156 HD
ENDBRANCH  18  23
ENDBRANCH  13  16
ENDBRANCH  11  12
ENDBRANCH   7  11
ENDBRANCH   6   7
ENDBRANCH   3   6
ENDBRANCH   1   2
BRANCH   1  26
ATOM     26  C   UNL A   1      31.729  29.656  27.236  1.00  0.00     0.042 C 
BRANCH  26  27
ATOM     27  C   UNL A   1      32.275  30.895  26.381  1.00  0.00     0.118 C 
BRANCH  27  28
ATOM     28  N   UNL A   1      32.260  32.269  26.902  1.00  0.00    -0.352 N 
ATOM     29  C   UNL A   1      33.126  32.966  27.716  1.00  0.00     0.251 C 
ATOM     30  H   UNL A   1      31.477  32.793  26.615  1.00  0.00     0.163 HD
ATOM     31  O   UNL A   1      32.857  34.066  28.139  1.00  0.00    -0.269 OA
BRANCH  29  32
ATOM     32  C   UNL A   1      34.429  32.363  27.974  1.00  0.00     0.039 A 
ATOM     33  C   UNL A   1      34.462  31.010  28.317  1.00  0.00     0.014 A 
ATOM     34  C   UNL A   1      35.568  33.162  27.957  1.00  0.00     0.014 A 
ATOM     35  C   UNL A   1      35.627  30.489  28.839  1.00  0.00     0.010 A 
ATOM     36  C   UNL A   1      36.750  32.623  28.440  1.00  0.00     0.010 A 
ATOM     37  C   UNL A   1      36.753  31.317  28.955  1.00  0.00    -0.014 A 
BRANCH  37  38
ATOM     38  C   UNL A   1      37.891  30.854  29.763  1.00  0.00     0.031 A 
ATOM     39  C   UNL A   1      38.865  29.887  29.158  1.00  0.00     0.074 A 
ATOM     40  C   UNL A   1      38.064  31.351  30.997  1.00  0.00     0.049 A 
ATOM     41  N   UNL A   1      39.890  29.298  29.712  1.00  0.00    -0.248 NA
ATOM     42  C   UNL A   1      38.659  29.530  27.742  1.00  0.00     0.031 C 
ATOM     43  C   UNL A   1      37.185  32.327  31.641  1.00  0.00     0.029 A 
ATOM     44  N   UNL A   1      39.034  31.098  31.924  1.00  0.00    -0.354 N 
ATOM     45  C   UNL A   1      40.425  28.475  28.730  1.00  0.00     0.074 A 
ATOM     46  C   UNL A   1      39.612  28.631  27.545  1.00  0.00     0.031 C 
ATOM     47  C   UNL A   1      37.661  32.596  32.865  1.00  0.00     0.029 A 
ATOM     48  C   UNL A   1      38.843  31.773  33.101  1.00  0.00     0.049 A 
ATOM     49  H   UNL A   1      39.794  30.493  31.763  1.00  0.00     0.167 HD
ATOM     50  C   UNL A   1      41.514  27.677  28.809  1.00  0.00     0.034 A 
ATOM     51  C   UNL A   1      39.532  31.708  34.254  1.00  0.00     0.034 A 
ATOM     52  C   UNL A   1      42.328  27.566  29.986  1.00  0.00     0.049 A 
ATOM     53  C   UNL A   1      40.715  30.792  34.333  1.00  0.00     0.074 A 
ATOM     54  C   UNL A   1      43.455  26.790  30.185  1.00  0.00     0.029 A 
ATOM     55  N   UNL A   1      42.103  28.259  31.167  1.00  0.00    -0.354 N 
ATOM     56  N   UNL A   1      41.221  30.025  33.397  1.00  0.00    -0.248 NA
ATOM     57  C   UNL A   1      41.427  30.737  35.614  1.00  0.00     0.031 C 
ATOM     58  C   UNL A   1      43.911  27.016  31.488  1.00  0.00     0.029 A 
ATOM     59  C   UNL A   1      43.073  27.937  32.098  1.00  0.00     0.049 A 
ATOM     60  H   UNL A   1      41.362  28.890  31.319  1.00  0.00     0.167 HD
ATOM     61  C   UNL A   1      42.313  29.391  33.974  1.00  0.00     0.074 A 
ATOM     62  C   UNL A   1      42.410  29.890  35.333  1.00  0.00     0.031 C 
ATOM     63  C   UNL A   1      43.148  28.468  33.436  1.00  0.00     0.034 A 
BRANCH  50  64
ATOM     64  C   UNL A   1      41.899  26.904  27.580  1.00  0.00     0.023 A 
ATOM     65  C   UNL A   1      42.444  27.592  26.476  1.00  0.00     0.012 A 
ATOM     66  C   UNL A   1      41.756  25.506  27.522  1.00  0.00     0.148 A 
ATOM     67  C   UNL A   1      42.825  26.901  25.327  1.00  0.00     0.002 A 
ATOM     68  C   UNL A   1      42.164  24.820  26.385  1.00  0.00     0.091 A 
ATOM     69  F   UNL A   1      41.208  24.876  28.572  1.00  0.00    -0.205 F 
ATOM     70  C   UNL A   1      42.694  25.516  25.284  1.00  0.00     0.022 A 
BRANCH  68  71
ATOM     71  S   UNL A   1      42.079  23.031  26.242  1.00  0.00     0.127 S 
ATOM     72  O   UNL A   1      42.863  22.607  27.402  1.00  0.00    -0.237 OA
ATOM     73  O   UNL A   1      40.642  22.783  26.353  1.00  0.00    -0.237 OA
ATOM     74  O   UNL A   1      42.657  22.703  24.946  1.00  0.00    -0.744 OA
ENDBRANCH  68  71
ENDBRANCH  50  64
BRANCH  51  75
ATOM     75  C   UNL A   1      39.102  32.569  35.383  1.00  0.00     0.023 A 
ATOM     76  C   UNL A   1      38.294  32.020  36.394  1.00  0.00     0.012 A 
ATOM     77  C   UNL A   1      39.621  33.870  35.536  1.00  0.00     0.148 A 
ATOM     78  C   UNL A   1      38.015  32.751  37.549  1.00  0.00     0.002 A 
ATOM     79  C   UNL A   1      39.375  34.576  36.705  1.00  0.00     0.091 A 
ATOM     80  F   UNL A   1      40.398  34.358  34.559  1.00  0.00    -0.205 F 
ATOM     81  C   UNL A   1      38.566  34.022  37.711  1.00  0.00     0.022 A 
BRANCH  79  82
ATOM     82  S   UNL A   1      40.138  36.163  37.061  1.00  0.00     0.127 S 
ATOM     83  O   UNL A   1      41.491  35.764  37.445  1.00  0.00    -0.237 OA
ATOM     84  O   UNL A   1      40.038  36.835  35.765  1.00  0.00    -0.237 OA
ATOM     85  O   UNL A   1      39.342  36.759  38.124  1.00  0.00    -0.744 OA
ENDBRANCH  79  82
ENDBRANCH  51  75
BRANCH  63  86
ATOM     86  C   UNL A   1      44.228  27.923  34.327  1.00  0.00     0.023 A 
ATOM     87  C   UNL A   1      45.403  28.675  34.518  1.00  0.00     0.012 A 
ATOM     88  C   UNL A   1      44.045  26.719  35.032  1.00  0.00     0.148 A 
ATOM     89  C   UNL A   1      46.393  28.224  35.388  1.00  0.00     0.002 A 
ATOM     90  C   UNL A   1      45.021  26.294  35.923  1.00  0.00     0.091 A 
ATOM     91  F   UNL A   1      42.922  26.019  34.821  1.00  0.00    -0.205 F 
ATOM     92  C   UNL A   1      46.199  27.041  36.098  1.00  0.00     0.022 A 
BRANCH  90  93
ATOM     93  S   UNL A   1      44.828  24.821  36.933  1.00  0.00     0.127 S 
ATOM     94  O   UNL A   1      46.019  24.883  37.778  1.00  0.00    -0.237 OA
ATOM     95  O   UNL A   1      43.569  25.086  37.630  1.00  0.00    -0.237 OA
ATOM     96  O   UNL A   1      44.780  23.701  36.002  1.00  0.00    -0.744 OA
ENDBRANCH  90  93
ENDBRANCH  63  86
ENDBRANCH  37  38
ENDBRANCH  29  32
ENDBRANCH  27  28
ENDBRANCH  26  27
ENDBRANCH   1  26
TORSDOF 19
ENDMDL
