MODEL 1
REMARK VINA RESULT:     -13.7      0.000      0.000
REMARK SMILES O=C(NCCCNC(=O)c1ccc(-c2c3nc(c(-c4cccc(S(=O)(=O)[O-])c4F)c4ccc([nH]4)c(-c4cccc(S(=O)(=O)[O-])c4F)c4nc(c(-c5cccc(S(=O)(=O)[O-])c5F)c5ccc2[nH]5)C=C4)C=C3)cc1)C1=Cc2cc(S(F)(F)(F)(F)F)ccc2O[C@@H]1C(F)(F)F
REMARK SMILES IDX 6 1 5 2 4 3 3 4 1 5 2 6 73 8 74 9 88 10 75 11 87 12 76 13
REMARK SMILES IDX 86 14 77 15 85 16 84 17 89 18 90 19 91 20 92 21 78 22 79 23
REMARK SMILES IDX 80 24 81 25 82 26 83 27 7 28 8 29 9 31 10 32 11 33 72 34
REMARK SMILES IDX 12 35 71 36 13 37 14 38 15 39 65 40 16 41 70 42 64 43 66 44
REMARK SMILES IDX 17 45 69 46 63 47 62 48 18 50 50 51 30 52 49 53 31 54 34 55
REMARK SMILES IDX 48 56 67 57 32 58 33 59 47 61 68 62 35 63 19 64 20 65 28 66
REMARK SMILES IDX 21 67 23 68 29 69 22 70 24 71 25 72 26 73 27 74 51 75 52 76
REMARK SMILES IDX 60 77 53 78 55 79 61 80 54 81 56 82 57 83 58 84 59 85 36 86
REMARK SMILES IDX 37 87 45 88 38 89 40 90 46 91 39 92 41 93 42 94 43 95 44 96
REMARK H PARENT 3 7 7 30 66 49 34 60
REMARK Flexibility Score: inf
ROOT
ATOM      1  C   UNL A   1      33.532  29.072  24.786  1.00  0.00     0.118 C 
ENDROOT
BRANCH   1   2
ATOM      2  C   UNL A   1      32.814  27.914  24.112  1.00  0.00     0.042 C 
BRANCH   2   3
ATOM      3  C   UNL A   1      33.255  26.606  24.747  1.00  0.00     0.118 C 
BRANCH   3   4
ATOM      4  N   UNL A   1      33.696  25.676  23.696  1.00  0.00    -0.352 N 
ATOM      5  O   UNL A   1      33.348  23.614  22.569  1.00  0.00    -0.270 OA
ATOM      6  C   UNL A   1      32.968  24.418  23.477  1.00  0.00     0.251 C 
ATOM      7  H   UNL A   1      34.477  25.896  23.140  1.00  0.00     0.163 HD
BRANCH   6   8
ATOM      8  C   UNL A   1      31.761  24.077  24.335  1.00  0.00     0.067 C 
ATOM      9  C   UNL A   1      31.680  22.861  24.942  1.00  0.00     0.025 C 
ATOM     10  C   UNL A   1      30.645  25.091  24.516  1.00  0.00     0.314 C 
ATOM     11  C   UNL A   1      32.796  21.845  24.761  1.00  0.00     0.019 A 
ATOM     12  O   UNL A   1      34.319  23.655  24.992  1.00  0.00    -0.475 OA
ATOM     13  C   UNL A   1      32.503  20.520  24.484  1.00  0.00     0.036 A 
ATOM     14  C   UNL A   1      34.051  22.266  24.868  1.00  0.00     0.128 A 
ATOM     15  C   UNL A   1      33.608  19.648  24.623  1.00  0.00     0.107 A 
ATOM     16  C   UNL A   1      35.092  21.369  24.859  1.00  0.00     0.048 A 
ATOM     17  C   UNL A   1      34.871  20.036  24.651  1.00  0.00     0.028 A 
BRANCH  10  18
ATOM     18  C   UNL A   1      30.499  25.427  25.991  1.00  0.00     0.429 C 
ATOM     19  F   UNL A   1      31.609  25.079  26.637  1.00  0.00    -0.167 F 
ATOM     20  F   UNL A   1      30.296  26.734  26.131  1.00  0.00    -0.167 F 
ATOM     21  F   UNL A   1      29.465  24.761  26.496  1.00  0.00    -0.167 F 
ENDBRANCH  10  18
BRANCH  15  22
ATOM     22  S   UNL A   1      33.270  17.877  24.774  1.00  0.00     0.310 S 
ATOM     23  F   UNL A   1      31.842  18.028  24.104  1.00  0.00    -0.094 F 
ATOM     24  F   UNL A   1      32.575  18.155  26.160  1.00  0.00    -0.094 F 
ATOM     25  F   UNL A   1      32.982  16.354  24.903  1.00  0.00    -0.094 F 
ATOM     26  F   UNL A   1      33.845  17.635  23.322  1.00  0.00    -0.094 F 
ATOM     27  F   UNL A   1      33.470  19.432  24.578  1.00  0.00    -0.094 F 
ENDBRANCH  15  22
ENDBRANCH   6   8
ENDBRANCH   3   4
ENDBRANCH   2   3
ENDBRANCH   1   2
BRANCH   1  28
ATOM     28  N   UNL A   1      32.545  30.059  25.247  1.00  0.00    -0.352 N 
ATOM     29  C   UNL A   1      32.784  30.815  26.485  1.00  0.00     0.251 C 
ATOM     30  H   UNL A   1      31.723  30.214  24.726  1.00  0.00     0.163 HD
ATOM     31  O   UNL A   1      31.930  31.668  26.882  1.00  0.00    -0.269 OA
BRANCH  29  32
ATOM     32  C   UNL A   1      34.052  30.576  27.288  1.00  0.00     0.039 A 
ATOM     33  C   UNL A   1      34.860  31.650  27.626  1.00  0.00     0.014 A 
ATOM     34  C   UNL A   1      34.347  29.342  27.679  1.00  0.00     0.014 A 
ATOM     35  C   UNL A   1      36.123  31.276  28.141  1.00  0.00     0.010 A 
ATOM     36  C   UNL A   1      35.543  29.073  28.300  1.00  0.00     0.010 A 
ATOM     37  C   UNL A   1      36.416  30.078  28.611  1.00  0.00    -0.014 A 
BRANCH  37  38
ATOM     38  C   UNL A   1      37.656  29.829  29.453  1.00  0.00     0.031 A 
ATOM     39  C   UNL A   1      37.757  30.491  30.679  1.00  0.00     0.074 A 
ATOM     40  C   UNL A   1      38.626  28.977  28.952  1.00  0.00     0.049 A 
ATOM     41  N   UNL A   1      38.744  30.402  31.572  1.00  0.00    -0.248 NA
ATOM     42  C   UNL A   1      36.745  31.422  31.198  1.00  0.00     0.031 C 
ATOM     43  C   UNL A   1      38.527  28.300  27.720  1.00  0.00     0.029 A 
ATOM     44  N   UNL A   1      39.829  28.634  29.527  1.00  0.00    -0.354 N 
ATOM     45  C   UNL A   1      38.476  31.169  32.631  1.00  0.00     0.074 A 
ATOM     46  C   UNL A   1      37.190  31.840  32.403  1.00  0.00     0.031 C 
ATOM     47  C   UNL A   1      39.660  27.568  27.551  1.00  0.00     0.029 A 
ATOM     48  C   UNL A   1      40.485  27.775  28.673  1.00  0.00     0.049 A 
ATOM     49  H   UNL A   1      40.162  28.948  30.398  1.00  0.00     0.167 HD
ATOM     50  C   UNL A   1      39.254  31.333  33.779  1.00  0.00     0.034 A 
ATOM     51  C   UNL A   1      41.733  27.197  28.844  1.00  0.00     0.034 A 
ATOM     52  C   UNL A   1      40.482  30.719  33.969  1.00  0.00     0.049 A 
ATOM     53  C   UNL A   1      42.536  27.405  29.966  1.00  0.00     0.074 A 
ATOM     54  C   UNL A   1      41.275  30.867  35.124  1.00  0.00     0.029 A 
ATOM     55  N   UNL A   1      41.149  29.880  33.104  1.00  0.00    -0.354 N 
ATOM     56  N   UNL A   1      42.251  28.140  31.043  1.00  0.00    -0.248 NA
ATOM     57  C   UNL A   1      43.874  26.824  30.144  1.00  0.00     0.031 C 
ATOM     58  C   UNL A   1      42.408  30.135  34.953  1.00  0.00     0.029 A 
ATOM     59  C   UNL A   1      42.342  29.519  33.689  1.00  0.00     0.049 A 
ATOM     60  H   UNL A   1      40.828  29.589  32.221  1.00  0.00     0.167 HD
ATOM     61  C   UNL A   1      43.257  28.085  31.916  1.00  0.00     0.074 A 
ATOM     62  C   UNL A   1      44.320  27.244  31.348  1.00  0.00     0.031 C 
ATOM     63  C   UNL A   1      43.332  28.701  33.168  1.00  0.00     0.034 A 
BRANCH  50  64
ATOM     64  C   UNL A   1      38.723  32.234  34.882  1.00  0.00     0.023 A 
ATOM     65  C   UNL A   1      38.829  33.608  34.744  1.00  0.00     0.012 A 
ATOM     66  C   UNL A   1      38.165  31.690  35.956  1.00  0.00     0.148 A 
ATOM     67  C   UNL A   1      38.574  34.325  35.939  1.00  0.00     0.002 A 
ATOM     68  C   UNL A   1      37.816  32.469  37.033  1.00  0.00     0.091 A 
ATOM     69  F   UNL A   1      37.942  30.379  35.991  1.00  0.00    -0.205 F 
ATOM     70  C   UNL A   1      37.949  33.828  36.991  1.00  0.00     0.022 A 
BRANCH  68  71
ATOM     71  S   UNL A   1      37.172  31.682  38.531  1.00  0.00     0.127 S 
ATOM     72  O   UNL A   1      35.805  32.279  38.874  1.00  0.00    -0.237 OA
ATOM     73  O   UNL A   1      37.028  30.177  38.294  1.00  0.00    -0.237 OA
ATOM     74  O   UNL A   1      38.253  31.953  39.827  1.00  0.00    -0.744 OA
ENDBRANCH  68  71
ENDBRANCH  50  64
BRANCH  51  75
ATOM     75  C   UNL A   1      42.256  26.282  27.748  1.00  0.00     0.023 A 
ATOM     76  C   UNL A   1      43.033  26.814  26.733  1.00  0.00     0.012 A 
ATOM     77  C   UNL A   1      41.958  24.989  27.781  1.00  0.00     0.148 A 
ATOM     78  C   UNL A   1      43.213  25.945  25.632  1.00  0.00     0.002 A 
ATOM     79  C   UNL A   1      42.284  24.168  26.728  1.00  0.00     0.091 A 
ATOM     80  F   UNL A   1      41.340  24.482  28.844  1.00  0.00    -0.205 F 
ATOM     81  C   UNL A   1      43.000  24.643  25.664  1.00  0.00     0.022 A 
BRANCH  79  82
ATOM     82  S   UNL A   1      41.757  22.437  26.749  1.00  0.00     0.127 S 
ATOM     83  O   UNL A   1      42.279  21.760  28.018  1.00  0.00    -0.237 OA
ATOM     84  O   UNL A   1      40.229  22.368  26.725  1.00  0.00    -0.237 OA
ATOM     85  O   UNL A   1      42.384  21.634  25.375  1.00  0.00    -0.744 OA
ENDBRANCH  79  82
ENDBRANCH  51  75
BRANCH  63  86
ATOM     86  C   UNL A   1      44.574  28.458  34.010  1.00  0.00     0.023 A 
ATOM     87  C   UNL A   1      45.639  29.338  33.922  1.00  0.00     0.012 A 
ATOM     88  C   UNL A   1      44.610  27.414  34.830  1.00  0.00     0.148 A 
ATOM     89  C   UNL A   1      46.825  28.868  34.534  1.00  0.00     0.002 A 
ATOM     90  C   UNL A   1      45.763  27.090  35.502  1.00  0.00     0.091 A 
ATOM     91  F   UNL A   1      43.517  26.675  35.004  1.00  0.00    -0.205 F 
ATOM     92  C   UNL A   1      46.874  27.885  35.415  1.00  0.00     0.022 A 
BRANCH  90  93
ATOM     93  S   UNL A   1      45.816  25.593  36.517  1.00  0.00     0.127 S 
ATOM     94  O   UNL A   1      47.222  25.416  37.094  1.00  0.00    -0.237 OA
ATOM     95  O   UNL A   1      44.806  25.717  37.660  1.00  0.00    -0.237 OA
ATOM     96  O   UNL A   1      45.420  24.237  35.552  1.00  0.00    -0.744 OA
ENDBRANCH  90  93
ENDBRANCH  63  86
ENDBRANCH  37  38
ENDBRANCH  29  32
ENDBRANCH   1  28
TORSDOF 15
ENDMDL
MODEL 2
REMARK VINA RESULT:     -13.6      2.244      8.404
REMARK SMILES O=C(NCCCNC(=O)c1ccc(-c2c3nc(c(-c4cccc(S(=O)(=O)[O-])c4F)c4ccc([nH]4)c(-c4cccc(S(=O)(=O)[O-])c4F)c4nc(c(-c5cccc(S(=O)(=O)[O-])c5F)c5ccc2[nH]5)C=C4)C=C3)cc1)C1=Cc2cc(S(F)(F)(F)(F)F)ccc2O[C@@H]1C(F)(F)F
REMARK SMILES IDX 6 1 5 2 4 3 3 4 1 5 2 6 73 8 74 9 88 10 75 11 87 12 76 13
REMARK SMILES IDX 86 14 77 15 85 16 84 17 89 18 90 19 91 20 92 21 78 22 79 23
REMARK SMILES IDX 80 24 81 25 82 26 83 27 7 28 8 29 9 31 10 32 11 33 72 34
REMARK SMILES IDX 12 35 71 36 13 37 14 38 15 39 65 40 16 41 70 42 64 43 66 44
REMARK SMILES IDX 17 45 69 46 63 47 62 48 18 50 50 51 30 52 49 53 31 54 34 55
REMARK SMILES IDX 48 56 67 57 32 58 33 59 47 61 68 62 35 63 19 64 20 65 28 66
REMARK SMILES IDX 21 67 23 68 29 69 22 70 24 71 25 72 26 73 27 74 51 75 52 76
REMARK SMILES IDX 60 77 53 78 55 79 61 80 54 81 56 82 57 83 58 84 59 85 36 86
REMARK SMILES IDX 37 87 45 88 38 89 40 90 46 91 39 92 41 93 42 94 43 95 44 96
REMARK H PARENT 3 7 7 30 66 49 34 60
REMARK Flexibility Score: inf
ROOT
ATOM      1  C   UNL A   1      32.669  29.238  26.396  1.00  0.00     0.118 C 
ENDROOT
BRANCH   1   2
ATOM      2  C   UNL A   1      31.693  28.389  27.193  1.00  0.00     0.042 C 
BRANCH   2   3
ATOM      3  C   UNL A   1      31.888  26.924  26.840  1.00  0.00     0.118 C 
BRANCH   3   4
ATOM      4  N   UNL A   1      33.155  26.761  26.111  1.00  0.00    -0.352 N 
ATOM      5  O   UNL A   1      34.331  25.680  24.352  1.00  0.00    -0.270 OA
ATOM      6  C   UNL A   1      33.236  25.822  24.983  1.00  0.00     0.251 C 
ATOM      7  H   UNL A   1      33.947  27.280  26.378  1.00  0.00     0.163 HD
BRANCH   6   8
ATOM      8  C   UNL A   1      32.013  25.020  24.570  1.00  0.00     0.067 C 
ATOM      9  C   UNL A   1      30.987  25.632  23.918  1.00  0.00     0.025 C 
ATOM     10  C   UNL A   1      31.935  23.536  24.884  1.00  0.00     0.314 C 
ATOM     11  C   UNL A   1      31.065  27.117  23.604  1.00  0.00     0.019 A 
ATOM     12  O   UNL A   1      33.342  26.755  23.028  1.00  0.00    -0.475 OA
ATOM     13  C   UNL A   1      29.979  27.944  23.839  1.00  0.00     0.036 A 
ATOM     14  C   UNL A   1      32.200  27.595  23.107  1.00  0.00     0.128 A 
ATOM     15  C   UNL A   1      30.091  29.222  23.244  1.00  0.00     0.107 A 
ATOM     16  C   UNL A   1      32.279  28.895  22.669  1.00  0.00     0.048 A 
ATOM     17  C   UNL A   1      31.223  29.752  22.816  1.00  0.00     0.028 A 
BRANCH  10  18
ATOM     18  C   UNL A   1      31.802  22.750  23.589  1.00  0.00     0.429 C 
ATOM     19  F   UNL A   1      30.589  22.941  23.077  1.00  0.00    -0.167 F 
ATOM     20  F   UNL A   1      32.721  23.165  22.721  1.00  0.00    -0.167 F 
ATOM     21  F   UNL A   1      31.979  21.456  23.837  1.00  0.00    -0.167 F 
ENDBRANCH  10  18
BRANCH  15  22
ATOM     22  S   UNL A   1      28.581  30.200  23.055  1.00  0.00     0.310 S 
ATOM     23  F   UNL A   1      29.264  31.169  22.003  1.00  0.00    -0.094 F 
ATOM     24  F   UNL A   1      29.099  31.169  24.184  1.00  0.00    -0.094 F 
ATOM     25  F   UNL A   1      27.281  31.038  22.893  1.00  0.00    -0.094 F 
ATOM     26  F   UNL A   1      28.143  29.301  21.832  1.00  0.00    -0.094 F 
ATOM     27  F   UNL A   1      29.945  29.405  23.131  1.00  0.00    -0.094 F 
ENDBRANCH  15  22
ENDBRANCH   6   8
ENDBRANCH   3   4
ENDBRANCH   2   3
ENDBRANCH   1   2
BRANCH   1  28
ATOM     28  N   UNL A   1      32.196  30.630  26.364  1.00  0.00    -0.352 N 
ATOM     29  C   UNL A   1      32.961  31.683  27.048  1.00  0.00     0.251 C 
ATOM     30  H   UNL A   1      31.367  30.857  25.884  1.00  0.00     0.163 HD
ATOM     31  O   UNL A   1      32.552  32.885  27.020  1.00  0.00    -0.269 OA
BRANCH  29  32
ATOM     32  C   UNL A   1      34.242  31.331  27.788  1.00  0.00     0.039 A 
ATOM     33  C   UNL A   1      35.212  32.302  27.973  1.00  0.00     0.014 A 
ATOM     34  C   UNL A   1      34.393  30.105  28.273  1.00  0.00     0.014 A 
ATOM     35  C   UNL A   1      36.448  31.796  28.440  1.00  0.00     0.010 A 
ATOM     36  C   UNL A   1      35.584  29.719  28.840  1.00  0.00     0.010 A 
ATOM     37  C   UNL A   1      36.608  30.611  29.000  1.00  0.00    -0.014 A 
BRANCH  37  38
ATOM     38  C   UNL A   1      37.863  30.257  29.781  1.00  0.00     0.031 A 
ATOM     39  C   UNL A   1      38.789  29.403  29.179  1.00  0.00     0.074 A 
ATOM     40  C   UNL A   1      38.010  30.784  31.053  1.00  0.00     0.049 A 
ATOM     41  N   UNL A   1      39.952  28.983  29.678  1.00  0.00    -0.248 NA
ATOM     42  C   UNL A   1      38.619  28.815  27.842  1.00  0.00     0.031 C 
ATOM     43  C   UNL A   1      37.084  31.653  31.664  1.00  0.00     0.029 A 
ATOM     44  N   UNL A   1      39.042  30.577  31.940  1.00  0.00    -0.354 N 
ATOM     45  C   UNL A   1      40.571  28.191  28.799  1.00  0.00     0.074 A 
ATOM     46  C   UNL A   1      39.720  28.067  27.609  1.00  0.00     0.031 C 
ATOM     47  C   UNL A   1      37.546  31.955  32.906  1.00  0.00     0.029 A 
ATOM     48  C   UNL A   1      38.768  31.281  33.092  1.00  0.00     0.049 A 
ATOM     49  H   UNL A   1      39.838  30.021  31.778  1.00  0.00     0.167 HD
ATOM     50  C   UNL A   1      41.813  27.570  28.944  1.00  0.00     0.034 A 
ATOM     51  C   UNL A   1      39.528  31.343  34.249  1.00  0.00     0.034 A 
ATOM     52  C   UNL A   1      42.593  27.668  30.085  1.00  0.00     0.049 A 
ATOM     53  C   UNL A   1      40.743  30.675  34.416  1.00  0.00     0.074 A 
ATOM     54  C   UNL A   1      43.850  27.054  30.244  1.00  0.00     0.029 A 
ATOM     55  N   UNL A   1      42.307  28.352  31.246  1.00  0.00    -0.354 N 
ATOM     56  N   UNL A   1      41.380  29.916  33.523  1.00  0.00    -0.248 NA
ATOM     57  C   UNL A   1      41.539  30.707  35.650  1.00  0.00     0.031 C 
ATOM     58  C   UNL A   1      44.312  27.356  31.487  1.00  0.00     0.029 A 
ATOM     59  C   UNL A   1      43.351  28.163  32.125  1.00  0.00     0.049 A 
ATOM     60  H   UNL A   1      41.498  28.885  31.418  1.00  0.00     0.167 HD
ATOM     61  C   UNL A   1      42.523  29.461  34.039  1.00  0.00     0.074 A 
ATOM     62  C   UNL A   1      42.640  29.957  35.417  1.00  0.00     0.031 C 
ATOM     63  C   UNL A   1      43.477  28.655  33.414  1.00  0.00     0.034 A 
BRANCH  50  64
ATOM     64  C   UNL A   1      42.338  26.739  27.784  1.00  0.00     0.023 A 
ATOM     65  C   UNL A   1      43.117  27.346  26.813  1.00  0.00     0.012 A 
ATOM     66  C   UNL A   1      42.044  25.447  27.723  1.00  0.00     0.148 A 
ATOM     67  C   UNL A   1      43.300  26.559  25.651  1.00  0.00     0.002 A 
ATOM     68  C   UNL A   1      42.374  24.705  26.614  1.00  0.00     0.091 A 
ATOM     69  F   UNL A   1      41.424  24.862  28.745  1.00  0.00    -0.205 F 
ATOM     70  C   UNL A   1      43.090  25.256  25.588  1.00  0.00     0.022 A 
BRANCH  68  71
ATOM     71  S   UNL A   1      41.850  22.976  26.508  1.00  0.00     0.127 S 
ATOM     72  O   UNL A   1      40.321  22.904  26.514  1.00  0.00    -0.237 OA
ATOM     73  O   UNL A   1      42.385  22.360  25.214  1.00  0.00    -0.237 OA
ATOM     74  O   UNL A   1      42.466  22.111  27.848  1.00  0.00    -0.744 OA
ENDBRANCH  68  71
ENDBRANCH  50  64
BRANCH  51  75
ATOM     75  C   UNL A   1      39.009  32.187  35.403  1.00  0.00     0.023 A 
ATOM     76  C   UNL A   1      39.281  33.545  35.426  1.00  0.00     0.012 A 
ATOM     77  C   UNL A   1      38.305  31.609  36.368  1.00  0.00     0.148 A 
ATOM     78  C   UNL A   1      39.009  34.162  36.670  1.00  0.00     0.002 A 
ATOM     79  C   UNL A   1      37.956  32.311  37.497  1.00  0.00     0.091 A 
ATOM     80  F   UNL A   1      37.932  30.338  36.242  1.00  0.00    -0.205 F 
ATOM     81  C   UNL A   1      38.246  33.643  37.613  1.00  0.00     0.022 A 
BRANCH  79  82
ATOM     82  S   UNL A   1      37.102  31.463  38.848  1.00  0.00     0.127 S 
ATOM     83  O   UNL A   1      36.831  30.011  38.448  1.00  0.00    -0.237 OA
ATOM     84  O   UNL A   1      37.977  31.492  40.103  1.00  0.00    -0.237 OA
ATOM     85  O   UNL A   1      35.619  32.251  39.170  1.00  0.00    -0.744 OA
ENDBRANCH  79  82
ENDBRANCH  51  75
BRANCH  63  86
ATOM     86  C   UNL A   1      44.730  28.295  34.196  1.00  0.00     0.023 A 
ATOM     87  C   UNL A   1      45.818  29.150  34.170  1.00  0.00     0.012 A 
ATOM     88  C   UNL A   1      44.752  27.174  34.908  1.00  0.00     0.148 A 
ATOM     89  C   UNL A   1      47.002  28.588  34.703  1.00  0.00     0.002 A 
ATOM     90  C   UNL A   1      45.910  26.753  35.516  1.00  0.00     0.091 A 
ATOM     91  F   UNL A   1      43.641  26.452  35.035  1.00  0.00    -0.205 F 
ATOM     92  C   UNL A   1      47.041  27.521  35.480  1.00  0.00     0.022 A 
BRANCH  90  93
ATOM     93  S   UNL A   1      45.939  25.160  36.375  1.00  0.00     0.127 S 
ATOM     94  O   UNL A   1      47.356  24.880  36.882  1.00  0.00    -0.237 OA
ATOM     95  O   UNL A   1      44.972  25.203  37.560  1.00  0.00    -0.237 OA
ATOM     96  O   UNL A   1      45.464  23.922  35.296  1.00  0.00    -0.744 OA
ENDBRANCH  90  93
ENDBRANCH  63  86
ENDBRANCH  37  38
ENDBRANCH  29  32
ENDBRANCH   1  28
TORSDOF 15
ENDMDL
MODEL 3
REMARK VINA RESULT:     -13.5      5.028      9.436
REMARK SMILES O=C(NCCCNC(=O)c1ccc(-c2c3nc(c(-c4cccc(S(=O)(=O)[O-])c4F)c4ccc([nH]4)c(-c4cccc(S(=O)(=O)[O-])c4F)c4nc(c(-c5cccc(S(=O)(=O)[O-])c5F)c5ccc2[nH]5)C=C4)C=C3)cc1)C1=Cc2cc(S(F)(F)(F)(F)F)ccc2O[C@@H]1C(F)(F)F
REMARK SMILES IDX 6 1 5 2 4 3 3 4 1 5 2 6 73 8 74 9 88 10 75 11 87 12 76 13
REMARK SMILES IDX 86 14 77 15 85 16 84 17 89 18 90 19 91 20 92 21 78 22 79 23
REMARK SMILES IDX 80 24 81 25 82 26 83 27 7 28 8 29 9 31 10 32 11 33 72 34
REMARK SMILES IDX 12 35 71 36 13 37 14 38 15 39 65 40 16 41 70 42 64 43 66 44
REMARK SMILES IDX 17 45 69 46 63 47 62 48 18 50 50 51 30 52 49 53 31 54 34 55
REMARK SMILES IDX 48 56 67 57 32 58 33 59 47 61 68 62 35 63 19 64 20 65 28 66
REMARK SMILES IDX 21 67 23 68 29 69 22 70 24 71 25 72 26 73 27 74 51 75 52 76
REMARK SMILES IDX 60 77 53 78 55 79 61 80 54 81 56 82 57 83 58 84 59 85 36 86
REMARK SMILES IDX 37 87 45 88 38 89 40 90 46 91 39 92 41 93 42 94 43 95 44 96
REMARK H PARENT 3 7 7 30 66 49 34 60
REMARK Flexibility Score: inf
ROOT
ATOM      1  C   UNL A   1      36.457  22.262  24.991  1.00  0.00     0.118 C 
ENDROOT
BRANCH   1   2
ATOM      2  C   UNL A   1      36.257  22.558  23.514  1.00  0.00     0.042 C 
BRANCH   2   3
ATOM      3  C   UNL A   1      35.190  23.627  23.350  1.00  0.00     0.118 C 
BRANCH   3   4
ATOM      4  N   UNL A   1      34.952  24.285  24.645  1.00  0.00    -0.352 N 
ATOM      5  O   UNL A   1      33.380  25.221  26.159  1.00  0.00    -0.270 OA
ATOM      6  C   UNL A   1      33.585  24.652  25.041  1.00  0.00     0.251 C 
ATOM      7  H   UNL A   1      35.708  24.478  25.244  1.00  0.00     0.163 HD
BRANCH   6   8
ATOM      8  C   UNL A   1      32.417  24.354  24.116  1.00  0.00     0.067 C 
ATOM      9  C   UNL A   1      31.982  23.074  23.963  1.00  0.00     0.025 C 
ATOM     10  C   UNL A   1      31.736  25.483  23.362  1.00  0.00     0.314 C 
ATOM     11  C   UNL A   1      32.663  21.943  24.717  1.00  0.00     0.019 A 
ATOM     12  O   UNL A   1      32.737  23.399  26.594  1.00  0.00    -0.475 OA
ATOM     13  C   UNL A   1      32.991  20.763  24.070  1.00  0.00     0.036 A 
ATOM     14  C   UNL A   1      32.939  22.124  26.003  1.00  0.00     0.128 A 
ATOM     15  C   UNL A   1      33.353  19.711  24.944  1.00  0.00     0.107 A 
ATOM     16  C   UNL A   1      33.419  21.087  26.767  1.00  0.00     0.048 A 
ATOM     17  C   UNL A   1      33.709  19.875  26.205  1.00  0.00     0.028 A 
BRANCH  10  18
ATOM     18  C   UNL A   1      30.270  25.545  23.758  1.00  0.00     0.429 C 
ATOM     19  F   UNL A   1      29.598  24.588  23.122  1.00  0.00    -0.167 F 
ATOM     20  F   UNL A   1      30.157  25.367  25.072  1.00  0.00    -0.167 F 
ATOM     21  F   UNL A   1      29.771  26.732  23.427  1.00  0.00    -0.167 F 
ENDBRANCH  10  18
BRANCH  15  22
ATOM     22  S   UNL A   1      33.325  18.025  24.289  1.00  0.00     0.310 S 
ATOM     23  F   UNL A   1      32.965  18.529  22.830  1.00  0.00    -0.094 F 
ATOM     24  F   UNL A   1      31.778  17.968  24.578  1.00  0.00    -0.094 F 
ATOM     25  F   UNL A   1      33.303  16.575  23.728  1.00  0.00    -0.094 F 
ATOM     26  F   UNL A   1      34.845  18.151  23.878  1.00  0.00    -0.094 F 
ATOM     27  F   UNL A   1      33.341  19.536  24.752  1.00  0.00    -0.094 F 
ENDBRANCH  15  22
ENDBRANCH   6   8
ENDBRANCH   3   4
ENDBRANCH   2   3
ENDBRANCH   1   2
BRANCH   1  28
ATOM     28  N   UNL A   1      37.108  20.953  25.145  1.00  0.00    -0.352 N 
ATOM     29  C   UNL A   1      38.468  20.868  25.696  1.00  0.00     0.251 C 
ATOM     30  H   UNL A   1      36.633  20.132  24.878  1.00  0.00     0.163 HD
ATOM     31  O   UNL A   1      39.030  19.737  25.829  1.00  0.00    -0.269 OA
BRANCH  29  32
ATOM     32  C   UNL A   1      39.201  22.135  26.108  1.00  0.00     0.039 A 
ATOM     33  C   UNL A   1      40.438  22.040  26.723  1.00  0.00     0.014 A 
ATOM     34  C   UNL A   1      38.654  23.315  25.840  1.00  0.00     0.014 A 
ATOM     35  C   UNL A   1      40.895  23.256  27.284  1.00  0.00     0.010 A 
ATOM     36  C   UNL A   1      39.229  24.474  26.304  1.00  0.00     0.010 A 
ATOM     37  C   UNL A   1      40.421  24.448  26.972  1.00  0.00    -0.014 A 
BRANCH  37  38
ATOM     38  C   UNL A   1      41.162  25.724  27.336  1.00  0.00     0.031 A 
ATOM     39  C   UNL A   1      42.493  25.845  26.931  1.00  0.00     0.074 A 
ATOM     40  C   UNL A   1      40.485  26.688  28.065  1.00  0.00     0.049 A 
ATOM     41  N   UNL A   1      43.313  26.878  27.130  1.00  0.00    -0.248 NA
ATOM     42  C   UNL A   1      43.224  24.810  26.186  1.00  0.00     0.031 C 
ATOM     43  C   UNL A   1      39.140  26.576  28.471  1.00  0.00     0.029 A 
ATOM     44  N   UNL A   1      40.965  27.894  28.522  1.00  0.00    -0.354 N 
ATOM     45  C   UNL A   1      44.504  26.633  26.578  1.00  0.00     0.074 A 
ATOM     46  C   UNL A   1      44.466  25.297  25.969  1.00  0.00     0.031 C 
ATOM     47  C   UNL A   1      38.818  27.695  29.172  1.00  0.00     0.029 A 
ATOM     48  C   UNL A   1      39.955  28.524  29.217  1.00  0.00     0.049 A 
ATOM     49  H   UNL A   1      41.873  28.246  28.378  1.00  0.00     0.167 HD
ATOM     50  C   UNL A   1      45.619  27.473  26.558  1.00  0.00     0.034 A 
ATOM     51  C   UNL A   1      40.005  29.750  29.860  1.00  0.00     0.034 A 
ATOM     52  C   UNL A   1      45.654  28.718  27.164  1.00  0.00     0.049 A 
ATOM     53  C   UNL A   1      41.138  30.565  29.889  1.00  0.00     0.074 A 
ATOM     54  C   UNL A   1      46.767  29.581  27.146  1.00  0.00     0.029 A 
ATOM     55  N   UNL A   1      44.652  29.337  27.879  1.00  0.00    -0.354 N 
ATOM     56  N   UNL A   1      42.316  30.338  29.304  1.00  0.00    -0.248 NA
ATOM     57  C   UNL A   1      41.212  31.851  30.596  1.00  0.00     0.031 C 
ATOM     58  C   UNL A   1      46.445  30.700  27.849  1.00  0.00     0.029 A 
ATOM     59  C   UNL A   1      45.125  30.555  28.317  1.00  0.00     0.049 A 
ATOM     60  H   UNL A   1      43.754  28.973  28.047  1.00  0.00     0.167 HD
ATOM     61  C   UNL A   1      43.149  31.353  29.540  1.00  0.00     0.074 A 
ATOM     62  C   UNL A   1      42.455  32.338  30.380  1.00  0.00     0.031 C 
ATOM     63  C   UNL A   1      44.461  31.499  29.084  1.00  0.00     0.034 A 
BRANCH  50  64
ATOM     64  C   UNL A   1      46.864  26.994  25.830  1.00  0.00     0.023 A 
ATOM     65  C   UNL A   1      47.810  26.253  26.518  1.00  0.00     0.012 A 
ATOM     66  C   UNL A   1      47.022  27.291  24.546  1.00  0.00     0.148 A 
ATOM     67  C   UNL A   1      49.041  26.116  25.833  1.00  0.00     0.002 A 
ATOM     68  C   UNL A   1      48.202  27.004  23.902  1.00  0.00     0.091 A 
ATOM     69  F   UNL A   1      46.030  27.870  23.875  1.00  0.00    -0.205 F 
ATOM     70  C   UNL A   1      49.205  26.328  24.539  1.00  0.00     0.022 A 
BRANCH  68  71
ATOM     71  S   UNL A   1      48.434  27.532  22.186  1.00  0.00     0.127 S 
ATOM     72  O   UNL A   1      48.657  26.305  21.299  1.00  0.00    -0.237 OA
ATOM     73  O   UNL A   1      47.188  28.284  21.713  1.00  0.00    -0.237 OA
ATOM     74  O   UNL A   1      49.793  28.563  22.085  1.00  0.00    -0.744 OA
ENDBRANCH  68  71
ENDBRANCH  50  64
BRANCH  51  75
ATOM     75  C   UNL A   1      38.754  30.236  30.575  1.00  0.00     0.023 A 
ATOM     76  C   UNL A   1      38.506  29.816  31.871  1.00  0.00     0.012 A 
ATOM     77  C   UNL A   1      37.920  31.054  29.945  1.00  0.00     0.148 A 
ATOM     78  C   UNL A   1      37.192  30.088  32.320  1.00  0.00     0.002 A 
ATOM     79  C   UNL A   1      36.709  31.386  30.503  1.00  0.00     0.091 A 
ATOM     80  F   UNL A   1      38.260  31.558  28.761  1.00  0.00    -0.205 F 
ATOM     81  C   UNL A   1      36.373  30.956  31.757  1.00  0.00     0.022 A 
BRANCH  79  82
ATOM     82  S   UNL A   1      35.542  32.404  29.566  1.00  0.00     0.127 S 
ATOM     83  O   UNL A   1      34.316  32.703  30.431  1.00  0.00    -0.237 OA
ATOM     84  O   UNL A   1      36.218  33.718  29.167  1.00  0.00    -0.237 OA
ATOM     85  O   UNL A   1      35.055  31.564  28.159  1.00  0.00    -0.744 OA
ENDBRANCH  79  82
ENDBRANCH  51  75
BRANCH  63  86
ATOM     86  C   UNL A   1      45.206  32.772  29.452  1.00  0.00     0.023 A 
ATOM     87  C   UNL A   1      45.992  32.796  30.592  1.00  0.00     0.012 A 
ATOM     88  C   UNL A   1      45.105  33.835  28.663  1.00  0.00     0.148 A 
ATOM     89  C   UNL A   1      46.410  34.092  30.973  1.00  0.00     0.002 A 
ATOM     90  C   UNL A   1      45.655  35.038  29.035  1.00  0.00     0.091 A 
ATOM     91  F   UNL A   1      44.467  33.734  27.500  1.00  0.00    -0.205 F 
ATOM     92  C   UNL A   1      46.396  35.148  30.180  1.00  0.00     0.022 A 
BRANCH  90  93
ATOM     93  S   UNL A   1      45.396  36.497  27.996  1.00  0.00     0.127 S 
ATOM     94  O   UNL A   1      46.022  36.262  26.620  1.00  0.00    -0.237 OA
ATOM     95  O   UNL A   1      43.895  36.750  27.838  1.00  0.00    -0.237 OA
ATOM     96  O   UNL A   1      46.129  37.856  28.731  1.00  0.00    -0.744 OA
ENDBRANCH  90  93
ENDBRANCH  63  86
ENDBRANCH  37  38
ENDBRANCH  29  32
ENDBRANCH   1  28
TORSDOF 15
ENDMDL
