MODEL 1
REMARK VINA RESULT:     -13.5      0.000      0.000
REMARK SMILES Cc1ccc(NC(=O)[C@H]2CC=CC[C@H]2C(=O)NCCCNC(=O)c2ccc(-c3c4nc(c(-c5cccc(S(=O)(=O)[O-])c5F)c5ccc([nH]5)c(-c5cccc(S(=O)(=O)[O-])c5F)c5nc(c(-c6cccc(S(=O)(=O)[O-])c6F)c6ccc3[nH]6)C=C5)C=C4)cc2)cc1F
REMARK SMILES IDX 19 1 18 2 17 3 15 4 16 5 14 7 9 8 10 9 11 10 13 11 12 12
REMARK SMILES IDX 7 13 6 14 8 16 5 17 1 18 2 19 3 20 88 21 4 22 87 23 89 24
REMARK SMILES IDX 20 25 21 26 22 27 23 29 24 30 25 31 86 32 26 33 85 34 27 35
REMARK SMILES IDX 28 36 29 37 79 38 30 39 84 40 78 41 80 42 31 43 83 44 77 45
REMARK SMILES IDX 76 46 32 48 64 49 44 50 63 51 45 52 48 53 62 54 81 55 46 56
REMARK SMILES IDX 47 57 61 59 82 60 49 61 33 62 34 63 42 64 35 65 37 66 43 67
REMARK SMILES IDX 36 68 38 69 39 70 40 71 41 72 65 73 66 74 74 75 67 76 69 77
REMARK SMILES IDX 75 78 68 79 70 80 71 81 72 82 73 83 50 84 51 85 59 86 52 87
REMARK SMILES IDX 54 88 60 89 53 90 55 91 56 92 57 93 58 94
REMARK H PARENT 17 6 6 15 21 28 80 47 48 58
REMARK Flexibility Score: inf
ROOT
ATOM      1  C   UNL A   1      33.998  28.220  26.029  1.00  0.00     0.042 C 
ENDROOT
BRANCH   1   2
ATOM      2  C   UNL A   1      33.474  26.808  26.238  1.00  0.00     0.117 C 
BRANCH   2   3
ATOM      3  N   UNL A   1      33.098  26.128  25.008  1.00  0.00    -0.356 N 
ATOM      4  C   UNL A   1      33.504  24.944  24.483  1.00  0.00     0.224 C 
ATOM      5  O   UNL A   1      32.887  24.506  23.509  1.00  0.00    -0.275 OA
ATOM      6  H   UNL A   1      32.437  26.610  24.461  1.00  0.00     0.163 HD
BRANCH   4   7
ATOM      7  C   UNL A   1      34.643  24.134  25.087  1.00  0.00     0.095 C 
ATOM      8  C   UNL A   1      34.300  23.227  26.304  1.00  0.00     0.095 C 
ATOM      9  C   UNL A   1      35.069  21.881  26.370  1.00  0.00     0.041 C 
ATOM     10  C   UNL A   1      35.759  21.410  25.137  1.00  0.00    -0.030 C 
ATOM     11  C   UNL A   1      35.496  23.571  23.930  1.00  0.00     0.041 C 
ATOM     12  C   UNL A   1      35.955  22.161  24.054  1.00  0.00    -0.030 C 
BRANCH   8  13
ATOM     13  C   UNL A   1      32.817  23.017  26.647  1.00  0.00     0.228 C 
ATOM     14  N   UNL A   1      32.059  21.989  26.172  1.00  0.00    -0.326 N 
ATOM     15  H   UNL A   1      31.234  21.851  26.693  1.00  0.00     0.169 HD
ATOM     16  O   UNL A   1      32.236  23.796  27.416  1.00  0.00    -0.274 OA
BRANCH  14  17
ATOM     17  C   UNL A   1      32.185  21.079  25.110  1.00  0.00     0.044 A 
ATOM     18  C   UNL A   1      32.542  18.077  22.022  1.00  0.00     0.047 C 
ATOM     19  C   UNL A   1      32.415  19.097  23.110  1.00  0.00    -0.015 A 
ATOM     20  C   UNL A   1      32.529  18.750  24.458  1.00  0.00     0.008 A 
ATOM     21  C   UNL A   1      32.173  20.430  22.788  1.00  0.00     0.128 A 
ATOM     22  C   UNL A   1      32.401  19.733  25.448  1.00  0.00     0.026 A 
ATOM     23  C   UNL A   1      32.050  21.413  23.768  1.00  0.00     0.065 A 
ATOM     24  F   UNL A   1      32.027  20.790  21.503  1.00  0.00    -0.207 F 
ENDBRANCH  14  17
ENDBRANCH   8  13
ENDBRANCH   4   7
ENDBRANCH   2   3
ENDBRANCH   1   2
BRANCH   1  25
ATOM     25  C   UNL A   1      34.017  29.048  27.289  1.00  0.00     0.118 C 
BRANCH  25  26
ATOM     26  N   UNL A   1      34.516  30.385  27.030  1.00  0.00    -0.352 N 
ATOM     27  C   UNL A   1      35.610  30.969  27.630  1.00  0.00     0.251 C 
ATOM     28  H   UNL A   1      34.028  30.925  26.367  1.00  0.00     0.163 HD
ATOM     29  O   UNL A   1      35.645  32.180  27.804  1.00  0.00    -0.269 OA
BRANCH  27  30
ATOM     30  C   UNL A   1      36.718  30.093  28.069  1.00  0.00     0.039 A 
ATOM     31  C   UNL A   1      36.667  29.434  29.305  1.00  0.00     0.014 A 
ATOM     32  C   UNL A   1      37.841  29.977  27.249  1.00  0.00     0.014 A 
ATOM     33  C   UNL A   1      37.745  28.650  29.711  1.00  0.00     0.010 A 
ATOM     34  C   UNL A   1      38.841  29.112  27.584  1.00  0.00     0.010 A 
ATOM     35  C   UNL A   1      38.825  28.508  28.843  1.00  0.00    -0.014 A 
BRANCH  35  36
ATOM     36  C   UNL A   1      40.076  27.841  29.142  1.00  0.00     0.031 A 
ATOM     37  C   UNL A   1      40.345  26.475  28.691  1.00  0.00     0.074 A 
ATOM     38  C   UNL A   1      41.063  28.667  29.550  1.00  0.00     0.049 A 
ATOM     39  N   UNL A   1      41.332  25.771  29.118  1.00  0.00    -0.248 NA
ATOM     40  C   UNL A   1      39.510  25.769  27.725  1.00  0.00     0.031 C 
ATOM     41  C   UNL A   1      42.502  28.511  29.429  1.00  0.00     0.029 A 
ATOM     42  N   UNL A   1      40.907  29.846  30.269  1.00  0.00    -0.354 N 
ATOM     43  C   UNL A   1      41.483  24.716  28.249  1.00  0.00     0.074 A 
ATOM     44  C   UNL A   1      40.245  24.671  27.500  1.00  0.00     0.031 C 
ATOM     45  C   UNL A   1      43.099  29.411  30.233  1.00  0.00     0.029 A 
ATOM     46  C   UNL A   1      42.057  30.022  31.049  1.00  0.00     0.049 A 
ATOM     47  H   UNL A   1      40.129  30.450  30.235  1.00  0.00     0.167 HD
ATOM     48  C   UNL A   1      42.705  24.117  28.147  1.00  0.00     0.034 A 
ATOM     49  C   UNL A   1      41.942  29.891  32.408  1.00  0.00     0.034 A 
ATOM     50  C   UNL A   1      43.683  24.775  29.012  1.00  0.00     0.049 A 
ATOM     51  C   UNL A   1      42.680  28.687  32.961  1.00  0.00     0.074 A 
ATOM     52  C   UNL A   1      44.719  25.666  28.781  1.00  0.00     0.029 A 
ATOM     53  N   UNL A   1      43.475  24.788  30.379  1.00  0.00    -0.354 N 
ATOM     54  N   UNL A   1      43.217  27.756  32.222  1.00  0.00    -0.248 NA
ATOM     55  C   UNL A   1      42.793  28.387  34.385  1.00  0.00     0.031 C 
ATOM     56  C   UNL A   1      45.152  26.185  30.032  1.00  0.00     0.029 A 
ATOM     57  C   UNL A   1      44.385  25.601  31.022  1.00  0.00     0.049 A 
ATOM     58  H   UNL A   1      42.766  24.281  30.835  1.00  0.00     0.167 HD
ATOM     59  C   UNL A   1      43.734  26.766  33.012  1.00  0.00     0.074 A 
ATOM     60  C   UNL A   1      43.416  27.194  34.362  1.00  0.00     0.031 C 
ATOM     61  C   UNL A   1      44.342  25.666  32.475  1.00  0.00     0.034 A 
BRANCH  48  62
ATOM     62  C   UNL A   1      43.091  23.097  27.094  1.00  0.00     0.023 A 
ATOM     63  C   UNL A   1      43.980  23.386  26.037  1.00  0.00     0.012 A 
ATOM     64  C   UNL A   1      42.562  21.785  27.112  1.00  0.00     0.148 A 
ATOM     65  C   UNL A   1      44.413  22.407  25.128  1.00  0.00     0.002 A 
ATOM     66  C   UNL A   1      42.973  20.819  26.193  1.00  0.00     0.091 A 
ATOM     67  F   UNL A   1      41.637  21.440  28.016  1.00  0.00    -0.205 F 
ATOM     68  C   UNL A   1      43.917  21.116  25.212  1.00  0.00     0.022 A 
BRANCH  66  69
ATOM     69  S   UNL A   1      42.268  19.171  26.292  1.00  0.00     0.127 S 
ATOM     70  O   UNL A   1      43.084  18.411  25.351  1.00  0.00    -0.237 OA
ATOM     71  O   UNL A   1      42.407  18.838  27.706  1.00  0.00    -0.237 OA
ATOM     72  O   UNL A   1      40.885  19.373  25.858  1.00  0.00    -0.744 OA
ENDBRANCH  66  69
ENDBRANCH  48  62
BRANCH  49  73
ATOM     73  C   UNL A   1      40.606  30.377  32.898  1.00  0.00     0.023 A 
ATOM     74  C   UNL A   1      39.537  29.466  33.012  1.00  0.00     0.012 A 
ATOM     75  C   UNL A   1      40.310  31.749  32.730  1.00  0.00     0.148 A 
ATOM     76  C   UNL A   1      38.216  29.900  32.834  1.00  0.00     0.002 A 
ATOM     77  C   UNL A   1      38.998  32.161  32.502  1.00  0.00     0.091 A 
ATOM     78  F   UNL A   1      41.329  32.622  32.655  1.00  0.00    -0.205 F 
ATOM     79  C   UNL A   1      37.948  31.237  32.535  1.00  0.00     0.022 A 
BRANCH  77  80
ATOM     80  S   UNL A   1      38.698  33.838  31.920  1.00  0.00     0.127 S 
ATOM     81  O   UNL A   1      37.256  33.845  31.697  1.00  0.00    -0.237 OA
ATOM     82  O   UNL A   1      39.193  34.671  33.014  1.00  0.00    -0.237 OA
ATOM     83  O   UNL A   1      39.502  33.928  30.702  1.00  0.00    -0.744 OA
ENDBRANCH  77  80
ENDBRANCH  49  73
BRANCH  61  84
ATOM     84  C   UNL A   1      44.872  24.487  33.254  1.00  0.00     0.023 A 
ATOM     85  C   UNL A   1      43.991  23.417  33.565  1.00  0.00     0.012 A 
ATOM     86  C   UNL A   1      46.200  24.339  33.663  1.00  0.00     0.148 A 
ATOM     87  C   UNL A   1      44.377  22.318  34.332  1.00  0.00     0.002 A 
ATOM     88  C   UNL A   1      46.572  23.271  34.482  1.00  0.00     0.091 A 
ATOM     89  F   UNL A   1      47.134  25.196  33.227  1.00  0.00    -0.205 F 
ATOM     90  C   UNL A   1      45.667  22.261  34.824  1.00  0.00     0.022 A 
BRANCH  88  91
ATOM     91  S   UNL A   1      48.216  23.269  35.191  1.00  0.00     0.127 S 
ATOM     92  O   UNL A   1      49.080  23.070  34.033  1.00  0.00    -0.237 OA
ATOM     93  O   UNL A   1      48.284  24.577  35.836  1.00  0.00    -0.237 OA
ATOM     94  O   UNL A   1      48.184  22.142  36.123  1.00  0.00    -0.744 OA
ENDBRANCH  88  91
ENDBRANCH  61  84
ENDBRANCH  35  36
ENDBRANCH  27  30
ENDBRANCH  25  26
ENDBRANCH   1  25
TORSDOF 15
ENDMDL
MODEL 2
REMARK VINA RESULT:     -13.4      4.119     10.227
REMARK SMILES Cc1ccc(NC(=O)[C@H]2CC=CC[C@H]2C(=O)NCCCNC(=O)c2ccc(-c3c4nc(c(-c5cccc(S(=O)(=O)[O-])c5F)c5ccc([nH]5)c(-c5cccc(S(=O)(=O)[O-])c5F)c5nc(c(-c6cccc(S(=O)(=O)[O-])c6F)c6ccc3[nH]6)C=C5)C=C4)cc2)cc1F
REMARK SMILES IDX 19 1 18 2 17 3 15 4 16 5 14 7 9 8 10 9 11 10 13 11 12 12
REMARK SMILES IDX 7 13 6 14 8 16 5 17 1 18 2 19 3 20 88 21 4 22 87 23 89 24
REMARK SMILES IDX 20 25 21 26 22 27 23 29 24 30 25 31 86 32 26 33 85 34 27 35
REMARK SMILES IDX 28 36 29 37 79 38 30 39 84 40 78 41 80 42 31 43 83 44 77 45
REMARK SMILES IDX 76 46 32 48 64 49 44 50 63 51 45 52 48 53 62 54 81 55 46 56
REMARK SMILES IDX 47 57 61 59 82 60 49 61 33 62 34 63 42 64 35 65 37 66 43 67
REMARK SMILES IDX 36 68 38 69 39 70 40 71 41 72 65 73 66 74 74 75 67 76 69 77
REMARK SMILES IDX 75 78 68 79 70 80 71 81 72 82 73 83 50 84 51 85 59 86 52 87
REMARK SMILES IDX 54 88 60 89 53 90 55 91 56 92 57 93 58 94
REMARK H PARENT 17 6 6 15 21 28 80 47 48 58
REMARK Flexibility Score: inf
ROOT
ATOM      1  C   UNL A   1      36.054  23.585  25.695  1.00  0.00     0.042 C 
ENDROOT
BRANCH   1   2
ATOM      2  C   UNL A   1      35.223  23.936  24.470  1.00  0.00     0.117 C 
BRANCH   2   3
ATOM      3  N   UNL A   1      33.787  23.922  24.706  1.00  0.00    -0.356 N 
ATOM      4  C   UNL A   1      32.917  24.927  24.982  1.00  0.00     0.224 C 
ATOM      5  O   UNL A   1      31.712  24.667  24.954  1.00  0.00    -0.275 OA
ATOM      6  H   UNL A   1      33.375  23.029  24.658  1.00  0.00     0.163 HD
BRANCH   4   7
ATOM      7  C   UNL A   1      33.382  26.349  25.266  1.00  0.00     0.095 C 
ATOM      8  C   UNL A   1      33.735  27.237  24.038  1.00  0.00     0.095 C 
ATOM      9  C   UNL A   1      33.371  28.739  24.174  1.00  0.00     0.041 C 
ATOM     10  C   UNL A   1      32.420  29.132  25.251  1.00  0.00    -0.030 C 
ATOM     11  C   UNL A   1      32.501  26.923  26.397  1.00  0.00     0.041 C 
ATOM     12  C   UNL A   1      32.037  28.328  26.243  1.00  0.00    -0.030 C 
BRANCH   8  13
ATOM     13  C   UNL A   1      33.357  26.716  22.641  1.00  0.00     0.228 C 
ATOM     14  N   UNL A   1      32.200  27.032  21.994  1.00  0.00    -0.326 N 
ATOM     15  H   UNL A   1      32.241  26.844  21.028  1.00  0.00     0.169 HD
ATOM     16  O   UNL A   1      34.131  25.975  22.020  1.00  0.00    -0.274 OA
BRANCH  14  17
ATOM     17  C   UNL A   1      30.963  27.566  22.389  1.00  0.00     0.044 A 
ATOM     18  C   UNL A   1      27.194  29.410  23.422  1.00  0.00     0.047 C 
ATOM     19  C   UNL A   1      28.503  28.791  23.045  1.00  0.00    -0.015 A 
ATOM     20  C   UNL A   1      29.465  29.493  22.316  1.00  0.00     0.008 A 
ATOM     21  C   UNL A   1      28.786  27.480  23.421  1.00  0.00     0.128 A 
ATOM     22  C   UNL A   1      30.678  28.879  21.980  1.00  0.00     0.026 A 
ATOM     23  C   UNL A   1      29.993  26.865  23.094  1.00  0.00     0.065 A 
ATOM     24  F   UNL A   1      27.870  26.768  24.096  1.00  0.00    -0.207 F 
ENDBRANCH  14  17
ENDBRANCH   8  13
ENDBRANCH   4   7
ENDBRANCH   2   3
ENDBRANCH   1   2
BRANCH   1  25
ATOM     25  C   UNL A   1      37.540  23.716  25.471  1.00  0.00     0.118 C 
BRANCH  25  26
ATOM     26  N   UNL A   1      38.286  22.910  26.419  1.00  0.00    -0.352 N 
ATOM     27  C   UNL A   1      39.410  23.308  27.108  1.00  0.00     0.251 C 
ATOM     28  H   UNL A   1      37.959  21.996  26.584  1.00  0.00     0.163 HD
ATOM     29  O   UNL A   1      40.264  22.488  27.418  1.00  0.00    -0.269 OA
BRANCH  27  30
ATOM     30  C   UNL A   1      39.558  24.742  27.438  1.00  0.00     0.039 A 
ATOM     31  C   UNL A   1      40.176  25.625  26.543  1.00  0.00     0.014 A 
ATOM     32  C   UNL A   1      39.114  25.188  28.684  1.00  0.00     0.014 A 
ATOM     33  C   UNL A   1      40.341  26.963  26.900  1.00  0.00     0.010 A 
ATOM     34  C   UNL A   1      39.159  26.517  28.984  1.00  0.00     0.010 A 
ATOM     35  C   UNL A   1      39.834  27.388  28.126  1.00  0.00    -0.014 A 
BRANCH  35  36
ATOM     36  C   UNL A   1      40.019  28.698  28.715  1.00  0.00     0.031 A 
ATOM     37  C   UNL A   1      38.958  29.706  28.697  1.00  0.00     0.074 A 
ATOM     38  C   UNL A   1      41.075  28.788  29.551  1.00  0.00     0.049 A 
ATOM     39  N   UNL A   1      39.149  30.940  29.001  1.00  0.00    -0.248 NA
ATOM     40  C   UNL A   1      37.580  29.414  28.314  1.00  0.00     0.031 C 
ATOM     41  C   UNL A   1      41.282  29.676  30.683  1.00  0.00     0.029 A 
ATOM     42  N   UNL A   1      42.267  28.079  29.454  1.00  0.00    -0.354 N 
ATOM     43  C   UNL A   1      37.912  31.500  29.216  1.00  0.00     0.074 A 
ATOM     44  C   UNL A   1      36.973  30.566  28.631  1.00  0.00     0.031 C 
ATOM     45  C   UNL A   1      42.581  29.631  31.031  1.00  0.00     0.029 A 
ATOM     46  C   UNL A   1      43.280  28.877  29.999  1.00  0.00     0.049 A 
ATOM     47  H   UNL A   1      42.379  27.178  29.072  1.00  0.00     0.167 HD
ATOM     48  C   UNL A   1      37.818  32.601  30.017  1.00  0.00     0.034 A 
ATOM     49  C   UNL A   1      44.224  29.394  29.149  1.00  0.00     0.034 A 
ATOM     50  C   UNL A   1      39.129  32.974  30.548  1.00  0.00     0.049 A 
ATOM     51  C   UNL A   1      44.157  30.903  29.022  1.00  0.00     0.074 A 
ATOM     52  C   UNL A   1      39.742  32.815  31.781  1.00  0.00     0.029 A 
ATOM     53  N   UNL A   1      40.135  33.332  29.671  1.00  0.00    -0.354 N 
ATOM     54  N   UNL A   1      43.197  31.636  29.512  1.00  0.00    -0.248 NA
ATOM     55  C   UNL A   1      45.115  31.697  28.258  1.00  0.00     0.031 C 
ATOM     56  C   UNL A   1      41.125  33.120  31.636  1.00  0.00     0.029 A 
ATOM     57  C   UNL A   1      41.345  33.473  30.318  1.00  0.00     0.049 A 
ATOM     58  H   UNL A   1      40.004  33.471  28.705  1.00  0.00     0.167 HD
ATOM     59  C   UNL A   1      43.376  32.946  29.161  1.00  0.00     0.074 A 
ATOM     60  C   UNL A   1      44.579  32.928  28.348  1.00  0.00     0.031 C 
ATOM     61  C   UNL A   1      42.494  33.917  29.543  1.00  0.00     0.034 A 
BRANCH  48  62
ATOM     62  C   UNL A   1      36.522  33.202  30.524  1.00  0.00     0.023 A 
ATOM     63  C   UNL A   1      36.120  33.130  31.875  1.00  0.00     0.012 A 
ATOM     64  C   UNL A   1      35.631  33.870  29.652  1.00  0.00     0.148 A 
ATOM     65  C   UNL A   1      34.972  33.780  32.355  1.00  0.00     0.002 A 
ATOM     66  C   UNL A   1      34.476  34.494  30.126  1.00  0.00     0.091 A 
ATOM     67  F   UNL A   1      35.873  33.910  28.337  1.00  0.00    -0.205 F 
ATOM     68  C   UNL A   1      34.152  34.474  31.481  1.00  0.00     0.022 A 
BRANCH  66  69
ATOM     69  S   UNL A   1      33.404  35.337  28.958  1.00  0.00     0.127 S 
ATOM     70  O   UNL A   1      32.486  36.065  29.828  1.00  0.00    -0.237 OA
ATOM     71  O   UNL A   1      34.338  36.132  28.168  1.00  0.00    -0.237 OA
ATOM     72  O   UNL A   1      32.783  34.236  28.220  1.00  0.00    -0.744 OA
ENDBRANCH  66  69
ENDBRANCH  48  62
BRANCH  49  73
ATOM     73  C   UNL A   1      44.521  28.450  28.016  1.00  0.00     0.023 A 
ATOM     74  C   UNL A   1      43.782  28.549  26.821  1.00  0.00     0.012 A 
ATOM     75  C   UNL A   1      45.121  27.212  28.339  1.00  0.00     0.148 A 
ATOM     76  C   UNL A   1      43.544  27.409  26.040  1.00  0.00     0.002 A 
ATOM     77  C   UNL A   1      44.834  26.075  27.586  1.00  0.00     0.091 A 
ATOM     78  F   UNL A   1      45.853  27.126  29.463  1.00  0.00    -0.205 F 
ATOM     79  C   UNL A   1      44.031  26.165  26.444  1.00  0.00     0.022 A 
BRANCH  77  80
ATOM     80  S   UNL A   1      45.297  24.459  28.231  1.00  0.00     0.127 S 
ATOM     81  O   UNL A   1      46.754  24.498  28.174  1.00  0.00    -0.237 OA
ATOM     82  O   UNL A   1      44.695  24.440  29.562  1.00  0.00    -0.237 OA
ATOM     83  O   UNL A   1      44.677  23.524  27.292  1.00  0.00    -0.744 OA
ENDBRANCH  77  80
ENDBRANCH  49  73
BRANCH  61  84
ATOM     84  C   UNL A   1      42.559  35.371  29.142  1.00  0.00     0.023 A 
ATOM     85  C   UNL A   1      41.881  35.793  27.968  1.00  0.00     0.012 A 
ATOM     86  C   UNL A   1      43.210  36.367  29.877  1.00  0.00     0.148 A 
ATOM     87  C   UNL A   1      41.938  37.101  27.490  1.00  0.00     0.002 A 
ATOM     88  C   UNL A   1      43.319  37.662  29.367  1.00  0.00     0.091 A 
ATOM     89  F   UNL A   1      43.689  36.092  31.099  1.00  0.00    -0.205 F 
ATOM     90  C   UNL A   1      42.691  38.035  28.175  1.00  0.00     0.022 A 
BRANCH  88  91
ATOM     91  S   UNL A   1      44.381  38.827  30.216  1.00  0.00     0.127 S 
ATOM     92  O   UNL A   1      45.667  38.140  30.258  1.00  0.00    -0.237 OA
ATOM     93  O   UNL A   1      44.303  40.008  29.360  1.00  0.00    -0.237 OA
ATOM     94  O   UNL A   1      43.738  38.989  31.519  1.00  0.00    -0.744 OA
ENDBRANCH  88  91
ENDBRANCH  61  84
ENDBRANCH  35  36
ENDBRANCH  27  30
ENDBRANCH  25  26
ENDBRANCH   1  25
TORSDOF 15
ENDMDL
MODEL 3
REMARK VINA RESULT:     -13.1      1.550      2.654
REMARK SMILES Cc1ccc(NC(=O)[C@H]2CC=CC[C@H]2C(=O)NCCCNC(=O)c2ccc(-c3c4nc(c(-c5cccc(S(=O)(=O)[O-])c5F)c5ccc([nH]5)c(-c5cccc(S(=O)(=O)[O-])c5F)c5nc(c(-c6cccc(S(=O)(=O)[O-])c6F)c6ccc3[nH]6)C=C5)C=C4)cc2)cc1F
REMARK SMILES IDX 19 1 18 2 17 3 15 4 16 5 14 7 9 8 10 9 11 10 13 11 12 12
REMARK SMILES IDX 7 13 6 14 8 16 5 17 1 18 2 19 3 20 88 21 4 22 87 23 89 24
REMARK SMILES IDX 20 25 21 26 22 27 23 29 24 30 25 31 86 32 26 33 85 34 27 35
REMARK SMILES IDX 28 36 29 37 79 38 30 39 84 40 78 41 80 42 31 43 83 44 77 45
REMARK SMILES IDX 76 46 32 48 64 49 44 50 63 51 45 52 48 53 62 54 81 55 46 56
REMARK SMILES IDX 47 57 61 59 82 60 49 61 33 62 34 63 42 64 35 65 37 66 43 67
REMARK SMILES IDX 36 68 38 69 39 70 40 71 41 72 65 73 66 74 74 75 67 76 69 77
REMARK SMILES IDX 75 78 68 79 70 80 71 81 72 82 73 83 50 84 51 85 59 86 52 87
REMARK SMILES IDX 54 88 60 89 53 90 55 91 56 92 57 93 58 94
REMARK H PARENT 17 6 6 15 21 28 80 47 48 58
REMARK Flexibility Score: inf
ROOT
ATOM      1  C   UNL A   1      33.997  28.459  25.620  1.00  0.00     0.042 C 
ENDROOT
BRANCH   1   2
ATOM      2  C   UNL A   1      33.518  27.015  25.624  1.00  0.00     0.117 C 
BRANCH   2   3
ATOM      3  N   UNL A   1      34.323  26.123  24.804  1.00  0.00    -0.356 N 
ATOM      4  C   UNL A   1      34.333  24.769  24.703  1.00  0.00     0.224 C 
ATOM      5  O   UNL A   1      34.989  24.267  23.787  1.00  0.00    -0.275 OA
ATOM      6  H   UNL A   1      34.973  26.579  24.222  1.00  0.00     0.163 HD
BRANCH   4   7
ATOM      7  C   UNL A   1      33.526  23.878  25.637  1.00  0.00     0.095 C 
ATOM      8  C   UNL A   1      32.404  23.011  24.997  1.00  0.00     0.095 C 
ATOM      9  C   UNL A   1      32.200  21.610  25.630  1.00  0.00     0.041 C 
ATOM     10  C   UNL A   1      33.281  21.075  26.505  1.00  0.00    -0.030 C 
ATOM     11  C   UNL A   1      34.502  23.240  26.650  1.00  0.00     0.041 C 
ATOM     12  C   UNL A   1      34.301  21.800  26.964  1.00  0.00    -0.030 C 
BRANCH   8  13
ATOM     13  C   UNL A   1      32.353  22.921  23.463  1.00  0.00     0.228 C 
ATOM     14  N   UNL A   1      31.965  23.942  22.648  1.00  0.00    -0.326 N 
ATOM     15  H   UNL A   1      32.247  23.811  21.713  1.00  0.00     0.169 HD
ATOM     16  O   UNL A   1      32.694  21.879  22.887  1.00  0.00    -0.274 OA
BRANCH  14  17
ATOM     17  C   UNL A   1      31.256  25.140  22.836  1.00  0.00     0.044 A 
ATOM     18  C   UNL A   1      29.230  28.937  23.218  1.00  0.00     0.047 C 
ATOM     19  C   UNL A   1      29.948  27.633  23.065  1.00  0.00    -0.015 A 
ATOM     20  C   UNL A   1      31.158  27.536  22.376  1.00  0.00     0.008 A 
ATOM     21  C   UNL A   1      29.406  26.474  23.616  1.00  0.00     0.128 A 
ATOM     22  C   UNL A   1      31.799  26.297  22.252  1.00  0.00     0.026 A 
ATOM     23  C   UNL A   1      30.041  25.238  23.500  1.00  0.00     0.065 A 
ATOM     24  F   UNL A   1      28.228  26.527  24.257  1.00  0.00    -0.207 F 
ENDBRANCH  14  17
ENDBRANCH   8  13
ENDBRANCH   4   7
ENDBRANCH   2   3
ENDBRANCH   1   2
BRANCH   1  25
ATOM     25  C   UNL A   1      34.138  29.050  27.001  1.00  0.00     0.118 C 
BRANCH  25  26
ATOM     26  N   UNL A   1      34.603  30.422  26.939  1.00  0.00    -0.352 N 
ATOM     27  C   UNL A   1      35.624  30.964  27.688  1.00  0.00     0.251 C 
ATOM     28  H   UNL A   1      34.147  31.021  26.304  1.00  0.00     0.163 HD
ATOM     29  O   UNL A   1      35.597  32.147  28.002  1.00  0.00    -0.269 OA
BRANCH  27  30
ATOM     30  C   UNL A   1      36.728  30.076  28.111  1.00  0.00     0.039 A 
ATOM     31  C   UNL A   1      36.661  29.374  29.323  1.00  0.00     0.014 A 
ATOM     32  C   UNL A   1      37.862  29.991  27.304  1.00  0.00     0.014 A 
ATOM     33  C   UNL A   1      37.736  28.578  29.717  1.00  0.00     0.010 A 
ATOM     34  C   UNL A   1      38.860  29.118  27.623  1.00  0.00     0.010 A 
ATOM     35  C   UNL A   1      38.828  28.470  28.860  1.00  0.00    -0.014 A 
BRANCH  35  36
ATOM     36  C   UNL A   1      40.077  27.796  29.154  1.00  0.00     0.031 A 
ATOM     37  C   UNL A   1      40.342  26.433  28.690  1.00  0.00     0.074 A 
ATOM     38  C   UNL A   1      41.066  28.615  29.568  1.00  0.00     0.049 A 
ATOM     39  N   UNL A   1      41.326  25.722  29.111  1.00  0.00    -0.248 NA
ATOM     40  C   UNL A   1      39.504  25.738  27.719  1.00  0.00     0.031 C 
ATOM     41  C   UNL A   1      42.506  28.455  29.446  1.00  0.00     0.029 A 
ATOM     42  N   UNL A   1      40.915  29.789  30.297  1.00  0.00    -0.354 N 
ATOM     43  C   UNL A   1      41.473  24.674  28.234  1.00  0.00     0.074 A 
ATOM     44  C   UNL A   1      40.235  24.640  27.484  1.00  0.00     0.031 C 
ATOM     45  C   UNL A   1      43.105  29.347  30.258  1.00  0.00     0.029 A 
ATOM     46  C   UNL A   1      42.065  29.953  31.079  1.00  0.00     0.049 A 
ATOM     47  H   UNL A   1      40.139  30.395  30.269  1.00  0.00     0.167 HD
ATOM     48  C   UNL A   1      42.693  24.071  28.126  1.00  0.00     0.034 A 
ATOM     49  C   UNL A   1      41.950  29.811  32.437  1.00  0.00     0.034 A 
ATOM     50  C   UNL A   1      43.673  24.719  28.997  1.00  0.00     0.049 A 
ATOM     51  C   UNL A   1      42.683  28.600  32.980  1.00  0.00     0.074 A 
ATOM     52  C   UNL A   1      44.713  25.608  28.773  1.00  0.00     0.029 A 
ATOM     53  N   UNL A   1      43.465  24.721  30.364  1.00  0.00    -0.354 N 
ATOM     54  N   UNL A   1      43.217  27.674  32.233  1.00  0.00    -0.248 NA
ATOM     55  C   UNL A   1      42.795  28.288  34.401  1.00  0.00     0.031 C 
ATOM     56  C   UNL A   1      45.147  26.115  30.030  1.00  0.00     0.029 A 
ATOM     57  C   UNL A   1      44.378  25.525  31.015  1.00  0.00     0.049 A 
ATOM     58  H   UNL A   1      42.754  24.212  30.816  1.00  0.00     0.167 HD
ATOM     59  C   UNL A   1      43.731  26.675  33.014  1.00  0.00     0.074 A 
ATOM     60  C   UNL A   1      43.414  27.093  34.368  1.00  0.00     0.031 C 
ATOM     61  C   UNL A   1      44.335  25.578  32.468  1.00  0.00     0.034 A 
BRANCH  48  62
ATOM     62  C   UNL A   1      43.075  23.060  27.064  1.00  0.00     0.023 A 
ATOM     63  C   UNL A   1      43.949  23.360  25.998  1.00  0.00     0.012 A 
ATOM     64  C   UNL A   1      42.559  21.743  27.084  1.00  0.00     0.148 A 
ATOM     65  C   UNL A   1      44.380  22.389  25.080  1.00  0.00     0.002 A 
ATOM     66  C   UNL A   1      42.967  20.784  26.156  1.00  0.00     0.091 A 
ATOM     67  F   UNL A   1      41.649  21.386  27.998  1.00  0.00    -0.205 F 
ATOM     68  C   UNL A   1      43.897  21.093  25.165  1.00  0.00     0.022 A 
BRANCH  66  69
ATOM     69  S   UNL A   1      42.279  19.129  26.257  1.00  0.00     0.127 S 
ATOM     70  O   UNL A   1      43.151  18.360  25.374  1.00  0.00    -0.237 OA
ATOM     71  O   UNL A   1      42.352  18.829  27.683  1.00  0.00    -0.237 OA
ATOM     72  O   UNL A   1      40.917  19.302  25.751  1.00  0.00    -0.744 OA
ENDBRANCH  66  69
ENDBRANCH  48  62
BRANCH  49  73
ATOM     73  C   UNL A   1      40.615  30.298  32.931  1.00  0.00     0.023 A 
ATOM     74  C   UNL A   1      39.546  29.388  33.046  1.00  0.00     0.012 A 
ATOM     75  C   UNL A   1      40.320  31.670  32.767  1.00  0.00     0.148 A 
ATOM     76  C   UNL A   1      38.224  29.823  32.871  1.00  0.00     0.002 A 
ATOM     77  C   UNL A   1      39.009  32.085  32.542  1.00  0.00     0.091 A 
ATOM     78  F   UNL A   1      41.340  32.542  32.691  1.00  0.00    -0.205 F 
ATOM     79  C   UNL A   1      37.958  31.161  32.576  1.00  0.00     0.022 A 
BRANCH  77  80
ATOM     80  S   UNL A   1      38.709  33.763  31.965  1.00  0.00     0.127 S 
ATOM     81  O   UNL A   1      39.045  34.568  33.135  1.00  0.00    -0.237 OA
ATOM     82  O   UNL A   1      39.595  33.888  30.810  1.00  0.00    -0.237 OA
ATOM     83  O   UNL A   1      37.288  33.758  31.618  1.00  0.00    -0.744 OA
ENDBRANCH  77  80
ENDBRANCH  49  73
BRANCH  61  84
ATOM     84  C   UNL A   1      44.860  24.390  33.236  1.00  0.00     0.023 A 
ATOM     85  C   UNL A   1      43.977  23.319  33.535  1.00  0.00     0.012 A 
ATOM     86  C   UNL A   1      46.187  24.236  33.648  1.00  0.00     0.148 A 
ATOM     87  C   UNL A   1      44.359  22.212  34.291  1.00  0.00     0.002 A 
ATOM     88  C   UNL A   1      46.555  23.159  34.457  1.00  0.00     0.091 A 
ATOM     89  F   UNL A   1      47.124  25.096  33.223  1.00  0.00    -0.205 F 
ATOM     90  C   UNL A   1      45.647  22.147  34.787  1.00  0.00     0.022 A 
BRANCH  88  91
ATOM     91  S   UNL A   1      48.197  23.147  35.171  1.00  0.00     0.127 S 
ATOM     92  O   UNL A   1      48.234  24.381  35.947  1.00  0.00    -0.237 OA
ATOM     93  O   UNL A   1      48.203  21.901  35.931  1.00  0.00    -0.237 OA
ATOM     94  O   UNL A   1      49.076  23.140  34.002  1.00  0.00    -0.744 OA
ENDBRANCH  88  91
ENDBRANCH  61  84
ENDBRANCH  35  36
ENDBRANCH  27  30
ENDBRANCH  25  26
ENDBRANCH   1  25
TORSDOF 15
ENDMDL
