MODEL 1
REMARK VINA RESULT:     -12.1      0.000      0.000
REMARK SMILES C[C@H](CS[C@H]1CCOC2(CCCCC2)C1)C(=O)NCCCNC(=O)c1ccc(-c2c3nc(c(-c4cccc(S(=O)(=O)[O-])c4F)c4ccc([nH]4)c(-c4cccc(S(=O)(=O)[O-])c4F)c4nc(c(-c5cccc(S(=O)(=O)[O-])c5F)c5ccc2[nH]5)C=C4)C=C3)cc1
REMARK SMILES IDX 20 1 19 2 18 3 16 4 17 5 2 7 1 8 3 9 4 10 5 11 6 12 15 13
REMARK SMILES IDX 7 14 9 15 8 16 10 17 14 18 11 19 13 20 12 21 21 22 22 23
REMARK SMILES IDX 23 24 24 26 25 27 26 28 87 29 27 30 86 31 28 32 29 33 30 34
REMARK SMILES IDX 80 35 31 36 85 37 79 38 81 39 32 40 84 41 78 42 77 43 33 45
REMARK SMILES IDX 65 46 45 47 64 48 46 49 49 50 63 51 82 52 47 53 48 54 62 56
REMARK SMILES IDX 83 57 50 58 34 59 35 60 43 61 36 62 38 63 44 64 37 65 39 66
REMARK SMILES IDX 40 67 41 68 42 69 66 70 67 71 75 72 68 73 70 74 76 75 69 76
REMARK SMILES IDX 71 77 72 78 73 79 74 80 51 81 52 82 60 83 53 84 55 85 61 86
REMARK SMILES IDX 54 87 56 88 57 89 58 90 59 91
REMARK H PARENT 18 6 22 25 81 44 49 55
REMARK Flexibility Score: inf
ROOT
ATOM      1  C   UNL A   1      35.371  21.504  25.599  1.00  0.00     0.042 C 
ENDROOT
BRANCH   1   2
ATOM      2  C   UNL A   1      34.805  22.597  26.508  1.00  0.00     0.117 C 
BRANCH   2   3
ATOM      3  N   UNL A   1      33.542  23.127  26.030  1.00  0.00    -0.356 N 
ATOM      4  C   UNL A   1      32.415  23.128  26.822  1.00  0.00     0.223 C 
ATOM      5  O   UNL A   1      32.430  22.733  27.987  1.00  0.00    -0.275 OA
ATOM      6  H   UNL A   1      33.489  23.495  25.119  1.00  0.00     0.163 HD
BRANCH   4   7
ATOM      7  C   UNL A   1      31.099  23.507  26.151  1.00  0.00     0.085 C 
ATOM      8  C   UNL A   1      30.000  22.788  26.949  1.00  0.00     0.019 C 
BRANCH   7   9
ATOM      9  C   UNL A   1      30.963  23.182  24.657  1.00  0.00     0.083 C 
BRANCH   9  10
ATOM     10  S   UNL A   1      30.601  24.562  23.502  1.00  0.00    -0.158 SA
BRANCH  10  11
ATOM     11  C   UNL A   1      31.902  25.781  23.925  1.00  0.00     0.052 C 
ATOM     12  C   UNL A   1      32.565  26.347  22.668  1.00  0.00     0.043 C 
ATOM     13  C   UNL A   1      31.268  26.923  24.715  1.00  0.00     0.050 C 
ATOM     14  C   UNL A   1      33.542  27.454  23.052  1.00  0.00     0.162 C 
ATOM     15  C   UNL A   1      32.295  28.020  25.055  1.00  0.00     0.069 C 
ATOM     16  O   UNL A   1      32.929  28.467  23.846  1.00  0.00    -0.375 OA
ATOM     17  C   UNL A   1      33.321  27.518  26.092  1.00  0.00     0.035 C 
ATOM     18  C   UNL A   1      31.540  29.235  25.636  1.00  0.00     0.035 C 
ATOM     19  C   UNL A   1      34.249  28.608  26.614  1.00  0.00     0.003 C 
ATOM     20  C   UNL A   1      32.475  30.320  26.176  1.00  0.00     0.003 C 
ATOM     21  C   UNL A   1      33.448  29.758  27.204  1.00  0.00     0.000 C 
ENDBRANCH  10  11
ENDBRANCH   9  10
ENDBRANCH   7   9
ENDBRANCH   4   7
ENDBRANCH   2   3
ENDBRANCH   1   2
BRANCH   1  22
ATOM     22  C   UNL A   1      36.695  21.858  24.914  1.00  0.00     0.118 C 
BRANCH  22  23
ATOM     23  N   UNL A   1      37.745  20.900  25.215  1.00  0.00    -0.352 N 
ATOM     24  C   UNL A   1      38.954  21.045  25.846  1.00  0.00     0.251 C 
ATOM     25  H   UNL A   1      37.554  19.983  24.912  1.00  0.00     0.163 HD
ATOM     26  O   UNL A   1      39.703  20.067  25.895  1.00  0.00    -0.269 OA
BRANCH  24  27
ATOM     27  C   UNL A   1      39.411  22.334  26.418  1.00  0.00     0.039 A 
ATOM     28  C   UNL A   1      40.405  22.274  27.404  1.00  0.00     0.014 A 
ATOM     29  C   UNL A   1      38.882  23.576  26.054  1.00  0.00     0.014 A 
ATOM     30  C   UNL A   1      40.920  23.444  27.963  1.00  0.00     0.010 A 
ATOM     31  C   UNL A   1      39.408  24.753  26.604  1.00  0.00     0.010 A 
ATOM     32  C   UNL A   1      40.450  24.695  27.539  1.00  0.00    -0.014 A 
BRANCH  32  33
ATOM     33  C   UNL A   1      41.198  25.915  27.927  1.00  0.00     0.031 A 
ATOM     34  C   UNL A   1      42.609  26.167  27.495  1.00  0.00     0.074 A 
ATOM     35  C   UNL A   1      40.561  26.806  28.710  1.00  0.00     0.049 A 
ATOM     36  N   UNL A   1      43.319  27.258  27.626  1.00  0.00    -0.248 NA
ATOM     37  C   UNL A   1      43.321  25.056  26.849  1.00  0.00     0.031 C 
ATOM     38  C   UNL A   1      39.217  26.621  29.263  1.00  0.00     0.029 A 
ATOM     39  N   UNL A   1      40.949  28.033  29.179  1.00  0.00    -0.354 N 
ATOM     40  C   UNL A   1      44.565  26.973  27.082  1.00  0.00     0.074 A 
ATOM     41  C   UNL A   1      44.519  25.592  26.643  1.00  0.00     0.031 C 
ATOM     42  C   UNL A   1      38.892  27.697  29.995  1.00  0.00     0.029 A 
ATOM     43  C   UNL A   1      39.995  28.652  29.951  1.00  0.00     0.049 A 
ATOM     44  H   UNL A   1      41.827  28.434  28.982  1.00  0.00     0.167 HD
ATOM     45  C   UNL A   1      45.632  27.797  26.943  1.00  0.00     0.034 A 
ATOM     46  C   UNL A   1      39.990  29.868  30.530  1.00  0.00     0.034 A 
ATOM     47  C   UNL A   1      45.654  29.173  27.375  1.00  0.00     0.049 A 
ATOM     48  C   UNL A   1      41.144  30.793  30.277  1.00  0.00     0.074 A 
ATOM     49  C   UNL A   1      46.657  30.115  27.211  1.00  0.00     0.029 A 
ATOM     50  N   UNL A   1      44.629  29.804  28.065  1.00  0.00    -0.354 N 
ATOM     51  N   UNL A   1      42.233  30.578  29.579  1.00  0.00    -0.248 NA
ATOM     52  C   UNL A   1      41.046  32.147  30.838  1.00  0.00     0.031 C 
ATOM     53  C   UNL A   1      46.240  31.310  27.809  1.00  0.00     0.029 A 
ATOM     54  C   UNL A   1      44.974  31.118  28.339  1.00  0.00     0.049 A 
ATOM     55  H   UNL A   1      43.779  29.379  28.323  1.00  0.00     0.167 HD
ATOM     56  C   UNL A   1      42.936  31.775  29.592  1.00  0.00     0.074 A 
ATOM     57  C   UNL A   1      42.135  32.720  30.345  1.00  0.00     0.031 C 
ATOM     58  C   UNL A   1      44.146  32.060  29.049  1.00  0.00     0.034 A 
BRANCH  45  59
ATOM     59  C   UNL A   1      46.847  27.259  26.231  1.00  0.00     0.023 A 
ATOM     60  C   UNL A   1      46.972  27.466  24.842  1.00  0.00     0.012 A 
ATOM     61  C   UNL A   1      47.894  26.627  26.930  1.00  0.00     0.148 A 
ATOM     62  C   UNL A   1      48.106  27.033  24.155  1.00  0.00     0.002 A 
ATOM     63  C   UNL A   1      49.038  26.227  26.243  1.00  0.00     0.091 A 
ATOM     64  F   UNL A   1      47.754  26.421  28.246  1.00  0.00    -0.205 F 
ATOM     65  C   UNL A   1      49.141  26.421  24.856  1.00  0.00     0.022 A 
BRANCH  63  66
ATOM     66  S   UNL A   1      50.454  25.492  27.071  1.00  0.00     0.127 S 
ATOM     67  O   UNL A   1      51.376  25.288  25.955  1.00  0.00    -0.237 OA
ATOM     68  O   UNL A   1      50.853  26.547  28.004  1.00  0.00    -0.237 OA
ATOM     69  O   UNL A   1      49.957  24.281  27.708  1.00  0.00    -0.744 OA
ENDBRANCH  63  66
ENDBRANCH  45  59
BRANCH  46  70
ATOM     70  C   UNL A   1      38.784  30.306  31.286  1.00  0.00     0.023 A 
ATOM     71  C   UNL A   1      38.734  30.106  32.679  1.00  0.00     0.012 A 
ATOM     72  C   UNL A   1      37.734  30.996  30.652  1.00  0.00     0.148 A 
ATOM     73  C   UNL A   1      37.649  30.567  33.424  1.00  0.00     0.002 A 
ATOM     74  C   UNL A   1      36.683  31.503  31.409  1.00  0.00     0.091 A 
ATOM     75  F   UNL A   1      37.792  31.167  29.324  1.00  0.00    -0.205 F 
ATOM     76  C   UNL A   1      36.632  31.278  32.793  1.00  0.00     0.022 A 
BRANCH  74  77
ATOM     77  S   UNL A   1      35.424  32.560  30.683  1.00  0.00     0.127 S 
ATOM     78  O   UNL A   1      35.043  31.803  29.495  1.00  0.00    -0.237 OA
ATOM     79  O   UNL A   1      34.409  32.607  31.737  1.00  0.00    -0.237 OA
ATOM     80  O   UNL A   1      36.089  33.836  30.448  1.00  0.00    -0.744 OA
ENDBRANCH  74  77
ENDBRANCH  46  70
BRANCH  58  81
ATOM     81  C   UNL A   1      44.678  33.454  29.252  1.00  0.00     0.023 A 
ATOM     82  C   UNL A   1      45.307  33.782  30.471  1.00  0.00     0.012 A 
ATOM     83  C   UNL A   1      44.594  34.423  28.235  1.00  0.00     0.148 A 
ATOM     84  C   UNL A   1      45.813  35.063  30.685  1.00  0.00     0.002 A 
ATOM     85  C   UNL A   1      45.137  35.688  28.442  1.00  0.00     0.091 A 
ATOM     86  F   UNL A   1      43.970  34.105  27.092  1.00  0.00    -0.205 F 
ATOM     87  C   UNL A   1      45.738  36.012  29.668  1.00  0.00     0.022 A 
BRANCH  85  88
ATOM     88  S   UNL A   1      45.144  36.933  27.147  1.00  0.00     0.127 S 
ATOM     89  O   UNL A   1      45.869  36.251  26.077  1.00  0.00    -0.237 OA
ATOM     90  O   UNL A   1      43.718  37.131  26.885  1.00  0.00    -0.237 OA
ATOM     91  O   UNL A   1      45.808  38.091  27.730  1.00  0.00    -0.744 OA
ENDBRANCH  85  88
ENDBRANCH  58  81
ENDBRANCH  32  33
ENDBRANCH  24  27
ENDBRANCH  22  23
ENDBRANCH   1  22
TORSDOF 16
ENDMDL
MODEL 2
REMARK VINA RESULT:     -11.9      4.709     10.069
REMARK SMILES C[C@H](CS[C@H]1CCOC2(CCCCC2)C1)C(=O)NCCCNC(=O)c1ccc(-c2c3nc(c(-c4cccc(S(=O)(=O)[O-])c4F)c4ccc([nH]4)c(-c4cccc(S(=O)(=O)[O-])c4F)c4nc(c(-c5cccc(S(=O)(=O)[O-])c5F)c5ccc2[nH]5)C=C4)C=C3)cc1
REMARK SMILES IDX 20 1 19 2 18 3 16 4 17 5 2 7 1 8 3 9 4 10 5 11 6 12 15 13
REMARK SMILES IDX 7 14 9 15 8 16 10 17 14 18 11 19 13 20 12 21 21 22 22 23
REMARK SMILES IDX 23 24 24 26 25 27 26 28 87 29 27 30 86 31 28 32 29 33 30 34
REMARK SMILES IDX 80 35 31 36 85 37 79 38 81 39 32 40 84 41 78 42 77 43 33 45
REMARK SMILES IDX 65 46 45 47 64 48 46 49 49 50 63 51 82 52 47 53 48 54 62 56
REMARK SMILES IDX 83 57 50 58 34 59 35 60 43 61 36 62 38 63 44 64 37 65 39 66
REMARK SMILES IDX 40 67 41 68 42 69 66 70 67 71 75 72 68 73 70 74 76 75 69 76
REMARK SMILES IDX 71 77 72 78 73 79 74 80 51 81 52 82 60 83 53 84 55 85 61 86
REMARK SMILES IDX 54 87 56 88 57 89 58 90 59 91
REMARK H PARENT 18 6 22 25 81 44 49 55
REMARK Flexibility Score: inf
ROOT
ATOM      1  C   UNL A   1      33.050  29.635  25.026  1.00  0.00     0.042 C 
ENDROOT
BRANCH   1   2
ATOM      2  C   UNL A   1      32.338  28.835  23.934  1.00  0.00     0.117 C 
BRANCH   2   3
ATOM      3  N   UNL A   1      31.856  27.549  24.403  1.00  0.00    -0.356 N 
ATOM      4  C   UNL A   1      30.635  27.048  24.007  1.00  0.00     0.223 C 
ATOM      5  O   UNL A   1      29.916  27.633  23.197  1.00  0.00    -0.275 OA
ATOM      6  H   UNL A   1      32.414  27.022  25.019  1.00  0.00     0.163 HD
BRANCH   4   7
ATOM      7  C   UNL A   1      30.135  25.799  24.723  1.00  0.00     0.085 C 
ATOM      8  C   UNL A   1      30.757  25.844  26.127  1.00  0.00     0.019 C 
BRANCH   7   9
ATOM      9  C   UNL A   1      30.436  24.448  24.057  1.00  0.00     0.083 C 
BRANCH   9  10
ATOM     10  S   UNL A   1      31.005  23.067  25.123  1.00  0.00    -0.158 SA
BRANCH  10  11
ATOM     11  C   UNL A   1      32.688  22.739  24.479  1.00  0.00     0.052 C 
ATOM     12  C   UNL A   1      32.944  23.498  23.176  1.00  0.00     0.043 C 
ATOM     13  C   UNL A   1      33.709  23.179  25.525  1.00  0.00     0.050 C 
ATOM     14  C   UNL A   1      34.395  23.311  22.744  1.00  0.00     0.162 C 
ATOM     15  C   UNL A   1      35.155  22.988  25.027  1.00  0.00     0.069 C 
ATOM     16  O   UNL A   1      35.317  23.669  23.772  1.00  0.00    -0.375 OA
ATOM     17  C   UNL A   1      35.513  21.492  24.921  1.00  0.00     0.035 C 
ATOM     18  C   UNL A   1      36.113  23.669  26.028  1.00  0.00     0.035 C 
ATOM     19  C   UNL A   1      36.983  21.232  24.616  1.00  0.00     0.003 C 
ATOM     20  C   UNL A   1      37.588  23.392  25.730  1.00  0.00     0.003 C 
ATOM     21  C   UNL A   1      37.872  21.897  25.656  1.00  0.00     0.000 C 
ENDBRANCH  10  11
ENDBRANCH   9  10
ENDBRANCH   7   9
ENDBRANCH   4   7
ENDBRANCH   2   3
ENDBRANCH   1   2
BRANCH   1  22
ATOM     22  C   UNL A   1      32.230  29.856  26.301  1.00  0.00     0.118 C 
BRANCH  22  23
ATOM     23  N   UNL A   1      32.202  31.252  26.703  1.00  0.00    -0.352 N 
ATOM     24  C   UNL A   1      33.103  32.014  27.402  1.00  0.00     0.251 C 
ATOM     25  H   UNL A   1      31.392  31.737  26.425  1.00  0.00     0.163 HD
ATOM     26  O   UNL A   1      32.787  33.171  27.683  1.00  0.00    -0.269 OA
BRANCH  24  27
ATOM     27  C   UNL A   1      34.406  31.486  27.871  1.00  0.00     0.039 A 
ATOM     28  C   UNL A   1      35.474  32.392  27.928  1.00  0.00     0.014 A 
ATOM     29  C   UNL A   1      34.624  30.149  28.217  1.00  0.00     0.014 A 
ATOM     30  C   UNL A   1      36.724  31.986  28.399  1.00  0.00     0.010 A 
ATOM     31  C   UNL A   1      35.873  29.742  28.704  1.00  0.00     0.010 A 
ATOM     32  C   UNL A   1      36.921  30.665  28.826  1.00  0.00    -0.014 A 
BRANCH  32  33
ATOM     33  C   UNL A   1      38.152  30.328  29.581  1.00  0.00     0.031 A 
ATOM     34  C   UNL A   1      38.404  30.820  30.972  1.00  0.00     0.074 A 
ATOM     35  C   UNL A   1      39.066  29.559  28.959  1.00  0.00     0.049 A 
ATOM     36  N   UNL A   1      39.354  30.471  31.800  1.00  0.00    -0.248 NA
ATOM     37  C   UNL A   1      37.488  31.841  31.498  1.00  0.00     0.031 C 
ATOM     38  C   UNL A   1      38.965  29.098  27.572  1.00  0.00     0.029 A 
ATOM     39  N   UNL A   1      40.253  29.035  29.400  1.00  0.00    -0.354 N 
ATOM     40  C   UNL A   1      39.159  31.227  32.949  1.00  0.00     0.074 A 
ATOM     41  C   UNL A   1      38.011  32.075  32.697  1.00  0.00     0.031 C 
ATOM     42  C   UNL A   1      40.044  28.358  27.277  1.00  0.00     0.029 A 
ATOM     43  C   UNL A   1      40.903  28.279  28.454  1.00  0.00     0.049 A 
ATOM     44  H   UNL A   1      40.605  29.184  30.307  1.00  0.00     0.167 HD
ATOM     45  C   UNL A   1      39.860  31.192  34.110  1.00  0.00     0.034 A 
ATOM     46  C   UNL A   1      42.045  27.571  28.533  1.00  0.00     0.034 A 
ATOM     47  C   UNL A   1      40.993  30.331  34.346  1.00  0.00     0.049 A 
ATOM     48  C   UNL A   1      42.746  27.475  29.857  1.00  0.00     0.074 A 
ATOM     49  C   UNL A   1      41.723  30.165  35.511  1.00  0.00     0.029 A 
ATOM     50  N   UNL A   1      41.567  29.498  33.397  1.00  0.00    -0.354 N 
ATOM     51  N   UNL A   1      42.427  28.035  30.999  1.00  0.00    -0.248 NA
ATOM     52  C   UNL A   1      43.926  26.603  29.923  1.00  0.00     0.031 C 
ATOM     53  C   UNL A   1      42.743  29.237  35.262  1.00  0.00     0.029 A 
ATOM     54  C   UNL A   1      42.643  28.819  33.945  1.00  0.00     0.049 A 
ATOM     55  H   UNL A   1      41.254  29.403  32.468  1.00  0.00     0.167 HD
ATOM     56  C   UNL A   1      43.348  27.564  31.925  1.00  0.00     0.074 A 
ATOM     57  C   UNL A   1      44.221  26.650  31.214  1.00  0.00     0.031 C 
ATOM     58  C   UNL A   1      43.474  27.877  33.238  1.00  0.00     0.034 A 
BRANCH  45  59
ATOM     59  C   UNL A   1      39.381  32.060  35.245  1.00  0.00     0.023 A 
ATOM     60  C   UNL A   1      38.469  31.524  36.177  1.00  0.00     0.012 A 
ATOM     61  C   UNL A   1      39.882  33.362  35.443  1.00  0.00     0.148 A 
ATOM     62  C   UNL A   1      38.043  32.275  37.272  1.00  0.00     0.002 A 
ATOM     63  C   UNL A   1      39.478  34.094  36.556  1.00  0.00     0.091 A 
ATOM     64  F   UNL A   1      40.734  33.865  34.539  1.00  0.00    -0.205 F 
ATOM     65  C   UNL A   1      38.554  33.556  37.466  1.00  0.00     0.022 A 
BRANCH  63  66
ATOM     66  S   UNL A   1      40.133  35.727  36.929  1.00  0.00     0.127 S 
ATOM     67  O   UNL A   1      39.579  35.971  38.259  1.00  0.00    -0.237 OA
ATOM     68  O   UNL A   1      41.578  35.496  36.905  1.00  0.00    -0.237 OA
ATOM     69  O   UNL A   1      39.644  36.601  35.871  1.00  0.00    -0.744 OA
ENDBRANCH  63  66
ENDBRANCH  45  59
BRANCH  46  70
ATOM     70  C   UNL A   1      42.502  26.797  27.346  1.00  0.00     0.023 A 
ATOM     71  C   UNL A   1      43.346  27.414  26.404  1.00  0.00     0.012 A 
ATOM     72  C   UNL A   1      42.181  25.434  27.193  1.00  0.00     0.148 A 
ATOM     73  C   UNL A   1      43.846  26.695  25.319  1.00  0.00     0.002 A 
ATOM     74  C   UNL A   1      42.728  24.709  26.140  1.00  0.00     0.091 A 
ATOM     75  F   UNL A   1      41.366  24.866  28.092  1.00  0.00    -0.205 F 
ATOM     76  C   UNL A   1      43.549  25.340  25.194  1.00  0.00     0.022 A 
BRANCH  74  77
ATOM     77  S   UNL A   1      42.515  22.929  26.012  1.00  0.00     0.127 S 
ATOM     78  O   UNL A   1      43.022  22.660  24.670  1.00  0.00    -0.237 OA
ATOM     79  O   UNL A   1      43.358  22.434  27.101  1.00  0.00    -0.237 OA
ATOM     80  O   UNL A   1      41.091  22.701  26.220  1.00  0.00    -0.744 OA
ENDBRANCH  74  77
ENDBRANCH  46  70
BRANCH  58  81
ATOM     81  C   UNL A   1      44.601  27.223  33.994  1.00  0.00     0.023 A 
ATOM     82  C   UNL A   1      45.901  27.759  33.893  1.00  0.00     0.012 A 
ATOM     83  C   UNL A   1      44.373  26.113  34.828  1.00  0.00     0.148 A 
ATOM     84  C   UNL A   1      46.963  27.178  34.586  1.00  0.00     0.002 A 
ATOM     85  C   UNL A   1      45.431  25.563  35.547  1.00  0.00     0.091 A 
ATOM     86  F   UNL A   1      43.137  25.597  34.892  1.00  0.00    -0.205 F 
ATOM     87  C   UNL A   1      46.727  26.088  35.419  1.00  0.00     0.022 A 
BRANCH  85  88
ATOM     88  S   UNL A   1      45.182  24.207  36.698  1.00  0.00     0.127 S 
ATOM     89  O   UNL A   1      46.490  24.117  37.344  1.00  0.00    -0.237 OA
ATOM     90  O   UNL A   1      44.112  24.710  37.560  1.00  0.00    -0.237 OA
ATOM     91  O   UNL A   1      44.798  23.069  35.875  1.00  0.00    -0.744 OA
ENDBRANCH  85  88
ENDBRANCH  58  81
ENDBRANCH  32  33
ENDBRANCH  24  27
ENDBRANCH  22  23
ENDBRANCH   1  22
TORSDOF 16
ENDMDL
MODEL 3
REMARK VINA RESULT:     -11.7      2.142      4.099
REMARK SMILES C[C@H](CS[C@H]1CCOC2(CCCCC2)C1)C(=O)NCCCNC(=O)c1ccc(-c2c3nc(c(-c4cccc(S(=O)(=O)[O-])c4F)c4ccc([nH]4)c(-c4cccc(S(=O)(=O)[O-])c4F)c4nc(c(-c5cccc(S(=O)(=O)[O-])c5F)c5ccc2[nH]5)C=C4)C=C3)cc1
REMARK SMILES IDX 20 1 19 2 18 3 16 4 17 5 2 7 1 8 3 9 4 10 5 11 6 12 15 13
REMARK SMILES IDX 7 14 9 15 8 16 10 17 14 18 11 19 13 20 12 21 21 22 22 23
REMARK SMILES IDX 23 24 24 26 25 27 26 28 87 29 27 30 86 31 28 32 29 33 30 34
REMARK SMILES IDX 80 35 31 36 85 37 79 38 81 39 32 40 84 41 78 42 77 43 33 45
REMARK SMILES IDX 65 46 45 47 64 48 46 49 49 50 63 51 82 52 47 53 48 54 62 56
REMARK SMILES IDX 83 57 50 58 34 59 35 60 43 61 36 62 38 63 44 64 37 65 39 66
REMARK SMILES IDX 40 67 41 68 42 69 66 70 67 71 75 72 68 73 70 74 76 75 69 76
REMARK SMILES IDX 71 77 72 78 73 79 74 80 51 81 52 82 60 83 53 84 55 85 61 86
REMARK SMILES IDX 54 87 56 88 57 89 58 90 59 91
REMARK H PARENT 18 6 22 25 81 44 49 55
REMARK Flexibility Score: inf
ROOT
ATOM      1  C   UNL A   1      36.542  21.821  24.305  1.00  0.00     0.042 C 
ENDROOT
BRANCH   1   2
ATOM      2  C   UNL A   1      36.621  23.139  23.534  1.00  0.00     0.117 C 
BRANCH   2   3
ATOM      3  N   UNL A   1      35.325  23.597  23.069  1.00  0.00    -0.356 N 
ATOM      4  C   UNL A   1      34.514  24.386  23.855  1.00  0.00     0.223 C 
ATOM      5  O   UNL A   1      34.864  24.787  24.965  1.00  0.00    -0.275 OA
ATOM      6  H   UNL A   1      35.018  23.338  22.171  1.00  0.00     0.163 HD
BRANCH   4   7
ATOM      7  C   UNL A   1      33.093  24.628  23.359  1.00  0.00     0.085 C 
ATOM      8  C   UNL A   1      32.670  25.983  23.944  1.00  0.00     0.019 C 
BRANCH   7   9
ATOM      9  C   UNL A   1      32.046  23.557  23.699  1.00  0.00     0.083 C 
BRANCH   9  10
ATOM     10  S   UNL A   1      32.078  21.985  22.751  1.00  0.00    -0.158 SA
BRANCH  10  11
ATOM     11  C   UNL A   1      33.010  20.871  23.868  1.00  0.00     0.052 C 
ATOM     12  C   UNL A   1      32.982  21.377  25.310  1.00  0.00     0.043 C 
ATOM     13  C   UNL A   1      32.382  19.481  23.811  1.00  0.00     0.050 C 
ATOM     14  C   UNL A   1      33.648  20.357  26.230  1.00  0.00     0.162 C 
ATOM     15  C   UNL A   1      33.079  18.501  24.774  1.00  0.00     0.069 C 
ATOM     16  O   UNL A   1      33.078  19.056  26.098  1.00  0.00    -0.375 OA
ATOM     17  C   UNL A   1      34.505  18.167  24.290  1.00  0.00     0.035 C 
ATOM     18  C   UNL A   1      32.248  17.201  24.837  1.00  0.00     0.035 C 
ATOM     19  C   UNL A   1      35.181  17.060  25.090  1.00  0.00     0.003 C 
ATOM     20  C   UNL A   1      32.938  16.085  25.626  1.00  0.00     0.003 C 
ATOM     21  C   UNL A   1      34.332  15.798  25.085  1.00  0.00     0.000 C 
ENDBRANCH  10  11
ENDBRANCH   9  10
ENDBRANCH   7   9
ENDBRANCH   4   7
ENDBRANCH   2   3
ENDBRANCH   1   2
BRANCH   1  22
ATOM     22  C   UNL A   1      37.163  21.856  25.705  1.00  0.00     0.118 C 
BRANCH  22  23
ATOM     23  N   UNL A   1      38.404  21.103  25.777  1.00  0.00    -0.352 N 
ATOM     24  C   UNL A   1      39.655  21.454  26.216  1.00  0.00     0.251 C 
ATOM     25  H   UNL A   1      38.335  20.177  25.452  1.00  0.00     0.163 HD
ATOM     26  O   UNL A   1      40.566  20.634  26.086  1.00  0.00    -0.269 OA
BRANCH  24  27
ATOM     27  C   UNL A   1      39.961  22.788  26.786  1.00  0.00     0.039 A 
ATOM     28  C   UNL A   1      40.892  22.832  27.833  1.00  0.00     0.014 A 
ATOM     29  C   UNL A   1      39.349  23.972  26.363  1.00  0.00     0.014 A 
ATOM     30  C   UNL A   1      41.267  24.053  28.397  1.00  0.00     0.010 A 
ATOM     31  C   UNL A   1      39.735  25.200  26.918  1.00  0.00     0.010 A 
ATOM     32  C   UNL A   1      40.717  25.250  27.916  1.00  0.00    -0.014 A 
BRANCH  32  33
ATOM     33  C   UNL A   1      41.329  26.537  28.323  1.00  0.00     0.031 A 
ATOM     34  C   UNL A   1      42.773  26.855  28.082  1.00  0.00     0.074 A 
ATOM     35  C   UNL A   1      40.535  27.430  28.942  1.00  0.00     0.049 A 
ATOM     36  N   UNL A   1      43.393  27.996  28.237  1.00  0.00    -0.248 NA
ATOM     37  C   UNL A   1      43.633  25.757  27.623  1.00  0.00     0.031 C 
ATOM     38  C   UNL A   1      39.137  27.191  29.308  1.00  0.00     0.029 A 
ATOM     39  N   UNL A   1      40.780  28.706  29.376  1.00  0.00    -0.354 N 
ATOM     40  C   UNL A   1      44.720  27.761  27.899  1.00  0.00     0.074 A 
ATOM     41  C   UNL A   1      44.817  26.357  27.555  1.00  0.00     0.031 C 
ATOM     42  C   UNL A   1      38.648  28.285  29.910  1.00  0.00     0.029 A 
ATOM     43  C   UNL A   1      39.689  29.307  29.959  1.00  0.00     0.049 A 
ATOM     44  H   UNL A   1      41.653  29.151  29.280  1.00  0.00     0.167 HD
ATOM     45  C   UNL A   1      45.748  28.644  27.858  1.00  0.00     0.034 A 
ATOM     46  C   UNL A   1      39.530  30.552  30.445  1.00  0.00     0.034 A 
ATOM     47  C   UNL A   1      45.628  30.042  28.192  1.00  0.00     0.049 A 
ATOM     48  C   UNL A   1      40.655  31.534  30.298  1.00  0.00     0.074 A 
ATOM     49  C   UNL A   1      46.590  31.036  28.109  1.00  0.00     0.029 A 
ATOM     50  N   UNL A   1      44.479  30.645  28.683  1.00  0.00    -0.354 N 
ATOM     51  N   UNL A   1      41.846  31.349  29.780  1.00  0.00    -0.248 NA
ATOM     52  C   UNL A   1      40.400  32.910  30.744  1.00  0.00     0.031 C 
ATOM     53  C   UNL A   1      46.022  32.236  28.557  1.00  0.00     0.029 A 
ATOM     54  C   UNL A   1      44.705  31.992  28.912  1.00  0.00     0.049 A 
ATOM     55  H   UNL A   1      43.625  30.181  28.844  1.00  0.00     0.167 HD
ATOM     56  C   UNL A   1      42.471  32.588  29.811  1.00  0.00     0.074 A 
ATOM     57  C   UNL A   1      41.516  33.522  30.374  1.00  0.00     0.031 C 
ATOM     58  C   UNL A   1      43.730  32.919  29.429  1.00  0.00     0.034 A 
BRANCH  45  59
ATOM     59  C   UNL A   1      47.082  28.145  27.366  1.00  0.00     0.023 A 
ATOM     60  C   UNL A   1      48.097  27.871  28.306  1.00  0.00     0.012 A 
ATOM     61  C   UNL A   1      47.313  27.870  26.004  1.00  0.00     0.148 A 
ATOM     62  C   UNL A   1      49.327  27.356  27.898  1.00  0.00     0.002 A 
ATOM     63  C   UNL A   1      48.532  27.325  25.608  1.00  0.00     0.091 A 
ATOM     64  F   UNL A   1      46.346  28.152  25.120  1.00  0.00    -0.205 F 
ATOM     65  C   UNL A   1      49.541  27.075  26.551  1.00  0.00     0.022 A 
BRANCH  63  66
ATOM     66  S   UNL A   1      48.876  26.865  23.904  1.00  0.00     0.127 S 
ATOM     67  O   UNL A   1      48.654  28.130  23.207  1.00  0.00    -0.237 OA
ATOM     68  O   UNL A   1      50.277  26.445  23.971  1.00  0.00    -0.237 OA
ATOM     69  O   UNL A   1      47.941  25.796  23.585  1.00  0.00    -0.744 OA
ENDBRANCH  63  66
ENDBRANCH  45  59
BRANCH  46  70
ATOM     70  C   UNL A   1      38.204  30.954  30.988  1.00  0.00     0.023 A 
ATOM     71  C   UNL A   1      37.935  30.771  32.358  1.00  0.00     0.012 A 
ATOM     72  C   UNL A   1      37.246  31.597  30.180  1.00  0.00     0.148 A 
ATOM     73  C   UNL A   1      36.729  31.201  32.909  1.00  0.00     0.002 A 
ATOM     74  C   UNL A   1      36.070  32.074  30.747  1.00  0.00     0.091 A 
ATOM     75  F   UNL A   1      37.513  31.752  28.876  1.00  0.00    -0.205 F 
ATOM     76  C   UNL A   1      35.803  31.865  32.109  1.00  0.00     0.022 A 
BRANCH  74  77
ATOM     77  S   UNL A   1      34.910  33.073  29.808  1.00  0.00     0.127 S 
ATOM     78  O   UNL A   1      34.337  32.091  28.892  1.00  0.00    -0.237 OA
ATOM     79  O   UNL A   1      33.996  33.553  30.847  1.00  0.00    -0.237 OA
ATOM     80  O   UNL A   1      35.717  34.124  29.203  1.00  0.00    -0.744 OA
ENDBRANCH  74  77
ENDBRANCH  46  70
BRANCH  58  81
ATOM     81  C   UNL A   1      44.146  34.355  29.609  1.00  0.00     0.023 A 
ATOM     82  C   UNL A   1      44.702  34.762  30.839  1.00  0.00     0.012 A 
ATOM     83  C   UNL A   1      44.029  35.286  28.561  1.00  0.00     0.148 A 
ATOM     84  C   UNL A   1      45.101  36.085  31.033  1.00  0.00     0.002 A 
ATOM     85  C   UNL A   1      44.466  36.594  28.750  1.00  0.00     0.091 A 
ATOM     86  F   UNL A   1      43.474  34.891  27.406  1.00  0.00    -0.205 F 
ATOM     87  C   UNL A   1      44.993  36.997  29.987  1.00  0.00     0.022 A 
BRANCH  85  88
ATOM     88  S   UNL A   1      44.428  37.801  27.419  1.00  0.00     0.127 S 
ATOM     89  O   UNL A   1      44.715  39.044  28.132  1.00  0.00    -0.237 OA
ATOM     90  O   UNL A   1      45.504  37.341  26.539  1.00  0.00    -0.237 OA
ATOM     91  O   UNL A   1      43.097  37.692  26.839  1.00  0.00    -0.744 OA
ENDBRANCH  85  88
ENDBRANCH  58  81
ENDBRANCH  32  33
ENDBRANCH  24  27
ENDBRANCH  22  23
ENDBRANCH   1  22
TORSDOF 16
ENDMDL
