MODEL 1
REMARK VINA RESULT:     -12.5      0.000      0.000
REMARK SMILES Cc1ccc(Br)cc1S(=O)(=O)N[C@H]1C=C[C@H](C(=O)NCCCNC(=O)c2ccc(-c3c4nc(c(-c5cccc(S(=O)(=O)[O-])c5F)c5ccc([nH]5)c(-c5cccc(S(=O)(=O)[O-])c5F)c5nc(c(-c6cccc(S(=O)(=O)[O-])c6F)c6ccc3[nH]6)C=C5)C=C4)cc2)C1
REMARK SMILES IDX 21 1 20 2 19 3 17 4 18 5 16 7 13 8 14 9 89 10 15 11 12 12
REMARK SMILES IDX 9 14 10 15 11 16 8 17 1 18 2 19 3 20 4 21 7 22 5 23 6 24
REMARK SMILES IDX 22 25 23 26 24 27 25 29 26 30 27 31 88 32 28 33 87 34 29 35
REMARK SMILES IDX 30 36 31 37 81 38 32 39 86 40 80 41 82 42 33 43 85 44 79 45
REMARK SMILES IDX 78 46 34 48 66 49 46 50 65 51 47 52 50 53 64 54 83 55 48 56
REMARK SMILES IDX 49 57 63 59 84 60 51 61 35 62 36 63 44 64 37 65 39 66 45 67
REMARK SMILES IDX 38 68 40 69 41 70 42 71 43 72 67 73 68 74 76 75 69 76 71 77
REMARK SMILES IDX 77 78 70 79 72 80 73 81 74 82 75 83 52 84 53 85 61 86 54 87
REMARK SMILES IDX 56 88 62 89 55 90 57 91 58 92 59 93 60 94
REMARK H PARENT 19 6 12 13 23 28 82 47 50 58
REMARK Flexibility Score: inf
ROOT
ATOM      1  C   UNL A   1      31.539  32.184  26.800  1.00  0.00     0.042 C 
ENDROOT
BRANCH   1   2
ATOM      2  C   UNL A   1      31.787  30.805  26.202  1.00  0.00     0.117 C 
BRANCH   2   3
ATOM      3  N   UNL A   1      31.725  29.757  27.207  1.00  0.00    -0.356 N 
ATOM      4  C   UNL A   1      31.701  28.404  27.182  1.00  0.00     0.226 C 
ATOM      5  O   UNL A   1      31.511  27.857  28.278  1.00  0.00    -0.274 OA
ATOM      6  H   UNL A   1      31.696  30.116  28.123  1.00  0.00     0.163 HD
BRANCH   4   7
ATOM      7  C   UNL A   1      31.865  27.521  25.941  1.00  0.00     0.103 C 
ATOM      8  C   UNL A   1      32.386  25.151  26.185  1.00  0.00     0.093 C 
ATOM      9  C   UNL A   1      33.569  25.918  25.687  1.00  0.00    -0.011 C 
ATOM     10  C   UNL A   1      31.245  26.136  25.890  1.00  0.00     0.042 C 
ATOM     11  C   UNL A   1      33.297  27.228  25.603  1.00  0.00    -0.016 C 
BRANCH   8  12
ATOM     12  N   UNL A   1      32.190  23.927  25.429  1.00  0.00    -0.204 NA
ATOM     13  H   UNL A   1      31.402  24.084  24.800  1.00  0.00     0.142 HD
BRANCH  12  14
ATOM     14  S   UNL A   1      31.874  22.502  26.275  1.00  0.00     0.241 S 
ATOM     15  O   UNL A   1      30.588  22.020  25.807  1.00  0.00    -0.207 OA
ATOM     16  O   UNL A   1      32.126  22.765  27.666  1.00  0.00    -0.207 OA
BRANCH  14  17
ATOM     17  C   UNL A   1      33.117  21.345  25.722  1.00  0.00     0.086 A 
ATOM     18  C   UNL A   1      35.120  22.750  26.553  1.00  0.00     0.046 C 
ATOM     19  C   UNL A   1      34.500  21.584  25.836  1.00  0.00    -0.031 A 
ATOM     20  C   UNL A   1      35.385  20.648  25.266  1.00  0.00     0.006 A 
ATOM     21  C   UNL A   1      34.916  19.483  24.653  1.00  0.00     0.016 A 
ATOM     22  C   UNL A   1      32.649  20.159  25.125  1.00  0.00     0.037 A 
ATOM     23  C   UNL A   1      33.550  19.234  24.607  1.00  0.00     0.019 A 
ATOM     24  Br  UNL A   1      32.919  17.626  23.845  1.00  0.00    -0.051 Br
ENDBRANCH  14  17
ENDBRANCH  12  14
ENDBRANCH   8  12
ENDBRANCH   4   7
ENDBRANCH   2   3
ENDBRANCH   1   2
BRANCH   1  25
ATOM     25  C   UNL A   1      32.812  32.853  27.300  1.00  0.00     0.118 C 
BRANCH  25  26
ATOM     26  N   UNL A   1      32.586  34.235  27.710  1.00  0.00    -0.352 N 
ATOM     27  C   UNL A   1      33.124  34.942  28.757  1.00  0.00     0.251 C 
ATOM     28  H   UNL A   1      31.950  34.737  27.152  1.00  0.00     0.163 HD
ATOM     29  O   UNL A   1      32.644  36.029  29.063  1.00  0.00    -0.269 OA
BRANCH  27  30
ATOM     30  C   UNL A   1      34.271  34.394  29.513  1.00  0.00     0.039 A 
ATOM     31  C   UNL A   1      34.037  33.695  30.701  1.00  0.00     0.014 A 
ATOM     32  C   UNL A   1      35.578  34.590  29.062  1.00  0.00     0.014 A 
ATOM     33  C   UNL A   1      35.113  33.146  31.403  1.00  0.00     0.010 A 
ATOM     34  C   UNL A   1      36.635  33.965  29.709  1.00  0.00     0.010 A 
ATOM     35  C   UNL A   1      36.418  33.251  30.897  1.00  0.00    -0.014 A 
BRANCH  35  36
ATOM     36  C   UNL A   1      37.581  32.648  31.595  1.00  0.00     0.031 A 
ATOM     37  C   UNL A   1      38.319  31.497  30.963  1.00  0.00     0.074 A 
ATOM     38  C   UNL A   1      37.899  33.056  32.839  1.00  0.00     0.049 A 
ATOM     39  N   UNL A   1      39.281  30.762  31.456  1.00  0.00    -0.248 NA
ATOM     40  C   UNL A   1      37.890  31.090  29.613  1.00  0.00     0.031 C 
ATOM     41  C   UNL A   1      37.200  34.097  33.595  1.00  0.00     0.029 A 
ATOM     42  N   UNL A   1      38.875  32.620  33.700  1.00  0.00    -0.354 N 
ATOM     43  C   UNL A   1      39.528  29.775  30.509  1.00  0.00     0.074 A 
ATOM     44  C   UNL A   1      38.596  29.985  29.424  1.00  0.00     0.031 C 
ATOM     45  C   UNL A   1      37.773  34.225  34.803  1.00  0.00     0.029 A 
ATOM     46  C   UNL A   1      38.863  33.261  34.918  1.00  0.00     0.049 A 
ATOM     47  H   UNL A   1      39.522  31.915  33.469  1.00  0.00     0.167 HD
ATOM     48  C   UNL A   1      40.469  28.802  30.523  1.00  0.00     0.034 A 
ATOM     49  C   UNL A   1      39.645  33.091  36.002  1.00  0.00     0.034 A 
ATOM     50  C   UNL A   1      41.453  28.656  31.561  1.00  0.00     0.049 A 
ATOM     51  C   UNL A   1      40.750  32.071  35.948  1.00  0.00     0.074 A 
ATOM     52  C   UNL A   1      42.526  27.784  31.614  1.00  0.00     0.029 A 
ATOM     53  N   UNL A   1      41.490  29.411  32.723  1.00  0.00    -0.354 N 
ATOM     54  N   UNL A   1      41.075  31.256  34.974  1.00  0.00    -0.248 NA
ATOM     55  C   UNL A   1      41.623  31.974  37.128  1.00  0.00     0.031 C 
ATOM     56  C   UNL A   1      43.212  28.013  32.812  1.00  0.00     0.029 A 
ATOM     57  C   UNL A   1      42.569  29.030  33.499  1.00  0.00     0.049 A 
ATOM     58  H   UNL A   1      40.844  30.115  32.959  1.00  0.00     0.167 HD
ATOM     59  C   UNL A   1      42.205  30.575  35.406  1.00  0.00     0.074 A 
ATOM     60  C   UNL A   1      42.523  31.087  36.723  1.00  0.00     0.031 C 
ATOM     61  C   UNL A   1      42.905  29.598  34.779  1.00  0.00     0.034 A 
BRANCH  48  62
ATOM     62  C   UNL A   1      40.530  27.870  29.342  1.00  0.00     0.023 A 
ATOM     63  C   UNL A   1      39.644  26.775  29.278  1.00  0.00     0.012 A 
ATOM     64  C   UNL A   1      41.426  28.096  28.278  1.00  0.00     0.148 A 
ATOM     65  C   UNL A   1      39.670  25.900  28.193  1.00  0.00     0.002 A 
ATOM     66  C   UNL A   1      41.417  27.243  27.179  1.00  0.00     0.091 A 
ATOM     67  F   UNL A   1      42.279  29.126  28.366  1.00  0.00    -0.205 F 
ATOM     68  C   UNL A   1      40.549  26.139  27.141  1.00  0.00     0.022 A 
BRANCH  66  69
ATOM     69  S   UNL A   1      42.460  27.510  25.741  1.00  0.00     0.127 S 
ATOM     70  O   UNL A   1      42.078  28.865  25.346  1.00  0.00    -0.237 OA
ATOM     71  O   UNL A   1      43.805  27.398  26.308  1.00  0.00    -0.237 OA
ATOM     72  O   UNL A   1      42.114  26.457  24.798  1.00  0.00    -0.744 OA
ENDBRANCH  66  69
ENDBRANCH  48  62
BRANCH  49  73
ATOM     73  C   UNL A   1      39.471  33.976  37.187  1.00  0.00     0.023 A 
ATOM     74  C   UNL A   1      39.879  35.322  37.099  1.00  0.00     0.012 A 
ATOM     75  C   UNL A   1      38.873  33.517  38.376  1.00  0.00     0.148 A 
ATOM     76  C   UNL A   1      39.718  36.188  38.180  1.00  0.00     0.002 A 
ATOM     77  C   UNL A   1      38.671  34.398  39.434  1.00  0.00     0.091 A 
ATOM     78  F   UNL A   1      38.506  32.230  38.449  1.00  0.00    -0.205 F 
ATOM     79  C   UNL A   1      39.105  35.730  39.343  1.00  0.00     0.022 A 
BRANCH  77  80
ATOM     80  S   UNL A   1      37.776  33.921  40.917  1.00  0.00     0.127 S 
ATOM     81  O   UNL A   1      36.573  33.308  40.357  1.00  0.00    -0.237 OA
ATOM     82  O   UNL A   1      38.705  32.985  41.551  1.00  0.00    -0.237 OA
ATOM     83  O   UNL A   1      37.575  35.158  41.660  1.00  0.00    -0.744 OA
ENDBRANCH  77  80
ENDBRANCH  49  73
BRANCH  61  84
ATOM     84  C   UNL A   1      44.103  29.032  35.492  1.00  0.00     0.023 A 
ATOM     85  C   UNL A   1      45.359  29.650  35.336  1.00  0.00     0.012 A 
ATOM     86  C   UNL A   1      43.970  27.945  36.378  1.00  0.00     0.148 A 
ATOM     87  C   UNL A   1      46.470  29.181  36.035  1.00  0.00     0.002 A 
ATOM     88  C   UNL A   1      45.073  27.511  37.104  1.00  0.00     0.091 A 
ATOM     89  F   UNL A   1      42.771  27.357  36.495  1.00  0.00    -0.205 F 
ATOM     90  C   UNL A   1      46.325  28.121  36.927  1.00  0.00     0.022 A 
BRANCH  88  91
ATOM     91  S   UNL A   1      44.949  26.213  38.340  1.00  0.00     0.127 S 
ATOM     92  O   UNL A   1      46.329  26.117  38.812  1.00  0.00    -0.237 OA
ATOM     93  O   UNL A   1      44.013  26.788  39.308  1.00  0.00    -0.237 OA
ATOM     94  O   UNL A   1      44.439  25.044  37.637  1.00  0.00    -0.744 OA
ENDBRANCH  88  91
ENDBRANCH  61  84
ENDBRANCH  35  36
ENDBRANCH  27  30
ENDBRANCH  25  26
ENDBRANCH   1  25
TORSDOF 16
ENDMDL
MODEL 2
REMARK VINA RESULT:     -12.3      3.531      8.767
REMARK SMILES Cc1ccc(Br)cc1S(=O)(=O)N[C@H]1C=C[C@H](C(=O)NCCCNC(=O)c2ccc(-c3c4nc(c(-c5cccc(S(=O)(=O)[O-])c5F)c5ccc([nH]5)c(-c5cccc(S(=O)(=O)[O-])c5F)c5nc(c(-c6cccc(S(=O)(=O)[O-])c6F)c6ccc3[nH]6)C=C5)C=C4)cc2)C1
REMARK SMILES IDX 21 1 20 2 19 3 17 4 18 5 16 7 13 8 14 9 89 10 15 11 12 12
REMARK SMILES IDX 9 14 10 15 11 16 8 17 1 18 2 19 3 20 4 21 7 22 5 23 6 24
REMARK SMILES IDX 22 25 23 26 24 27 25 29 26 30 27 31 88 32 28 33 87 34 29 35
REMARK SMILES IDX 30 36 31 37 81 38 32 39 86 40 80 41 82 42 33 43 85 44 79 45
REMARK SMILES IDX 78 46 34 48 66 49 46 50 65 51 47 52 50 53 64 54 83 55 48 56
REMARK SMILES IDX 49 57 63 59 84 60 51 61 35 62 36 63 44 64 37 65 39 66 45 67
REMARK SMILES IDX 38 68 40 69 41 70 42 71 43 72 67 73 68 74 76 75 69 76 71 77
REMARK SMILES IDX 77 78 70 79 72 80 73 81 74 82 75 83 52 84 53 85 61 86 54 87
REMARK SMILES IDX 56 88 62 89 55 90 57 91 58 92 59 93 60 94
REMARK H PARENT 19 6 12 13 23 28 82 47 50 58
REMARK Flexibility Score: inf
ROOT
ATOM      1  C   UNL A   1      33.170  28.307  25.309  1.00  0.00     0.042 C 
ENDROOT
BRANCH   1   2
ATOM      2  C   UNL A   1      31.718  28.560  25.694  1.00  0.00     0.117 C 
BRANCH   2   3
ATOM      3  N   UNL A   1      30.986  29.240  24.639  1.00  0.00    -0.356 N 
ATOM      4  C   UNL A   1      30.279  28.847  23.554  1.00  0.00     0.226 C 
ATOM      5  O   UNL A   1      29.902  29.761  22.807  1.00  0.00    -0.274 OA
ATOM      6  H   UNL A   1      31.008  30.220  24.738  1.00  0.00     0.163 HD
BRANCH   4   7
ATOM      7  C   UNL A   1      29.933  27.403  23.178  1.00  0.00     0.103 C 
ATOM      8  C   UNL A   1      30.661  25.560  24.599  1.00  0.00     0.093 C 
ATOM      9  C   UNL A   1      31.447  25.609  23.328  1.00  0.00    -0.011 C 
ATOM     10  C   UNL A   1      29.446  26.425  24.233  1.00  0.00     0.042 C 
ATOM     11  C   UNL A   1      31.081  26.652  22.571  1.00  0.00    -0.016 C 
BRANCH   8  12
ATOM     12  N   UNL A   1      30.230  24.208  24.906  1.00  0.00    -0.204 NA
ATOM     13  H   UNL A   1      29.215  24.230  25.004  1.00  0.00     0.142 HD
BRANCH  12  14
ATOM     14  S   UNL A   1      30.848  23.461  26.287  1.00  0.00     0.241 S 
ATOM     15  O   UNL A   1      29.875  22.461  26.685  1.00  0.00    -0.207 OA
ATOM     16  O   UNL A   1      31.275  24.503  27.181  1.00  0.00    -0.207 OA
BRANCH  14  17
ATOM     17  C   UNL A   1      32.313  22.601  25.739  1.00  0.00     0.086 A 
ATOM     18  C   UNL A   1      33.884  24.635  26.005  1.00  0.00     0.046 C 
ATOM     19  C   UNL A   1      33.566  23.225  25.593  1.00  0.00    -0.031 A 
ATOM     20  C   UNL A   1      34.625  22.471  25.049  1.00  0.00     0.006 A 
ATOM     21  C   UNL A   1      34.461  21.125  24.713  1.00  0.00     0.016 A 
ATOM     22  C   UNL A   1      32.158  21.238  25.421  1.00  0.00     0.037 A 
ATOM     23  C   UNL A   1      33.234  20.509  24.924  1.00  0.00     0.019 A 
ATOM     24  Br  UNL A   1      33.032  18.671  24.540  1.00  0.00    -0.051 Br
ENDBRANCH  14  17
ENDBRANCH  12  14
ENDBRANCH   8  12
ENDBRANCH   4   7
ENDBRANCH   2   3
ENDBRANCH   1   2
BRANCH   1  25
ATOM     25  C   UNL A   1      34.154  28.724  26.395  1.00  0.00     0.118 C 
BRANCH  25  26
ATOM     26  N   UNL A   1      34.002  30.127  26.769  1.00  0.00    -0.352 N 
ATOM     27  C   UNL A   1      34.728  30.886  27.653  1.00  0.00     0.251 C 
ATOM     28  H   UNL A   1      33.266  30.601  26.319  1.00  0.00     0.163 HD
ATOM     29  O   UNL A   1      34.309  31.989  27.990  1.00  0.00    -0.269 OA
BRANCH  27  30
ATOM     30  C   UNL A   1      36.003  30.375  28.199  1.00  0.00     0.039 A 
ATOM     31  C   UNL A   1      36.000  29.682  29.413  1.00  0.00     0.014 A 
ATOM     32  C   UNL A   1      37.205  30.599  27.525  1.00  0.00     0.014 A 
ATOM     33  C   UNL A   1      37.196  29.166  29.919  1.00  0.00     0.010 A 
ATOM     34  C   UNL A   1      38.376  30.006  27.980  1.00  0.00     0.010 A 
ATOM     35  C   UNL A   1      38.389  29.299  29.192  1.00  0.00    -0.014 A 
BRANCH  35  36
ATOM     36  C   UNL A   1      39.672  28.733  29.678  1.00  0.00     0.031 A 
ATOM     37  C   UNL A   1      40.401  29.400  30.815  1.00  0.00     0.074 A 
ATOM     38  C   UNL A   1      40.235  27.697  29.027  1.00  0.00     0.049 A 
ATOM     39  N   UNL A   1      41.581  29.133  31.309  1.00  0.00    -0.248 NA
ATOM     40  C   UNL A   1      39.733  30.547  31.455  1.00  0.00     0.031 C 
ATOM     41  C   UNL A   1      39.672  27.025  27.853  1.00  0.00     0.029 A 
ATOM     42  N   UNL A   1      41.424  27.046  29.241  1.00  0.00    -0.354 N 
ATOM     43  C   UNL A   1      41.821  30.109  32.268  1.00  0.00     0.074 A 
ATOM     44  C   UNL A   1      40.678  30.994  32.269  1.00  0.00     0.031 C 
ATOM     45  C   UNL A   1      40.510  26.054  27.456  1.00  0.00     0.029 A 
ATOM     46  C   UNL A   1      41.680  26.048  28.330  1.00  0.00     0.049 A 
ATOM     47  H   UNL A   1      42.037  27.272  29.978  1.00  0.00     0.167 HD
ATOM     48  C   UNL A   1      42.881  30.239  33.101  1.00  0.00     0.034 A 
ATOM     49  C   UNL A   1      42.737  25.221  28.214  1.00  0.00     0.034 A 
ATOM     50  C   UNL A   1      43.971  29.303  33.160  1.00  0.00     0.049 A 
ATOM     51  C   UNL A   1      43.853  25.322  29.218  1.00  0.00     0.074 A 
ATOM     52  C   UNL A   1      45.032  29.272  34.047  1.00  0.00     0.029 A 
ATOM     53  N   UNL A   1      44.131  28.226  32.303  1.00  0.00    -0.354 N 
ATOM     54  N   UNL A   1      43.983  26.150  30.226  1.00  0.00    -0.248 NA
ATOM     55  C   UNL A   1      44.949  24.349  29.094  1.00  0.00     0.031 C 
ATOM     56  C   UNL A   1      45.836  28.173  33.725  1.00  0.00     0.029 A 
ATOM     57  C   UNL A   1      45.270  27.519  32.641  1.00  0.00     0.049 A 
ATOM     58  H   UNL A   1      43.523  27.997  31.564  1.00  0.00     0.167 HD
ATOM     59  C   UNL A   1      45.154  25.780  30.875  1.00  0.00     0.074 A 
ATOM     60  C   UNL A   1      45.685  24.638  30.159  1.00  0.00     0.031 C 
ATOM     61  C   UNL A   1      45.747  26.346  31.955  1.00  0.00     0.034 A 
BRANCH  48  62
ATOM     62  C   UNL A   1      42.874  31.392  34.070  1.00  0.00     0.023 A 
ATOM     63  C   UNL A   1      43.532  32.590  33.725  1.00  0.00     0.012 A 
ATOM     64  C   UNL A   1      42.184  31.311  35.295  1.00  0.00     0.148 A 
ATOM     65  C   UNL A   1      43.534  33.678  34.596  1.00  0.00     0.002 A 
ATOM     66  C   UNL A   1      42.155  32.415  36.142  1.00  0.00     0.091 A 
ATOM     67  F   UNL A   1      41.584  30.156  35.620  1.00  0.00    -0.205 F 
ATOM     68  C   UNL A   1      42.839  33.593  35.800  1.00  0.00     0.022 A 
BRANCH  66  69
ATOM     69  S   UNL A   1      41.225  32.429  37.679  1.00  0.00     0.127 S 
ATOM     70  O   UNL A   1      41.050  33.862  37.906  1.00  0.00    -0.237 OA
ATOM     71  O   UNL A   1      40.002  31.716  37.308  1.00  0.00    -0.237 OA
ATOM     72  O   UNL A   1      42.056  31.733  38.652  1.00  0.00    -0.744 OA
ENDBRANCH  66  69
ENDBRANCH  48  62
BRANCH  49  73
ATOM     73  C   UNL A   1      42.738  24.162  27.166  1.00  0.00     0.023 A 
ATOM     74  C   UNL A   1      43.410  24.403  25.952  1.00  0.00     0.012 A 
ATOM     75  C   UNL A   1      42.124  22.912  27.373  1.00  0.00     0.148 A 
ATOM     76  C   UNL A   1      43.449  23.431  24.953  1.00  0.00     0.002 A 
ATOM     77  C   UNL A   1      42.208  21.929  26.393  1.00  0.00     0.091 A 
ATOM     78  F   UNL A   1      41.476  22.704  28.528  1.00  0.00    -0.205 F 
ATOM     79  C   UNL A   1      42.858  22.191  25.177  1.00  0.00     0.022 A 
BRANCH  77  80
ATOM     80  S   UNL A   1      41.585  20.264  26.653  1.00  0.00     0.127 S 
ATOM     81  O   UNL A   1      41.938  19.611  25.394  1.00  0.00    -0.237 OA
ATOM     82  O   UNL A   1      42.359  19.821  27.813  1.00  0.00    -0.237 OA
ATOM     83  O   UNL A   1      40.160  20.422  26.912  1.00  0.00    -0.744 OA
ENDBRANCH  77  80
ENDBRANCH  49  73
BRANCH  61  84
ATOM     84  C   UNL A   1      47.027  25.729  32.451  1.00  0.00     0.023 A 
ATOM     85  C   UNL A   1      48.258  26.181  31.939  1.00  0.00     0.012 A 
ATOM     86  C   UNL A   1      47.014  24.768  33.481  1.00  0.00     0.148 A 
ATOM     87  C   UNL A   1      49.459  25.667  32.428  1.00  0.00     0.002 A 
ATOM     88  C   UNL A   1      48.215  24.293  33.994  1.00  0.00     0.091 A 
ATOM     89  F   UNL A   1      45.830  24.336  33.939  1.00  0.00    -0.205 F 
ATOM     90  C   UNL A   1      49.437  24.735  33.463  1.00  0.00     0.022 A 
BRANCH  88  91
ATOM     91  S   UNL A   1      48.275  23.162  35.388  1.00  0.00     0.127 S 
ATOM     92  O   UNL A   1      47.544  23.907  36.410  1.00  0.00    -0.237 OA
ATOM     93  O   UNL A   1      47.573  21.986  34.870  1.00  0.00    -0.237 OA
ATOM     94  O   UNL A   1      49.690  22.943  35.657  1.00  0.00    -0.744 OA
ENDBRANCH  88  91
ENDBRANCH  61  84
ENDBRANCH  35  36
ENDBRANCH  27  30
ENDBRANCH  25  26
ENDBRANCH   1  25
TORSDOF 16
ENDMDL
MODEL 3
REMARK VINA RESULT:     -12.2      3.848      8.900
REMARK SMILES Cc1ccc(Br)cc1S(=O)(=O)N[C@H]1C=C[C@H](C(=O)NCCCNC(=O)c2ccc(-c3c4nc(c(-c5cccc(S(=O)(=O)[O-])c5F)c5ccc([nH]5)c(-c5cccc(S(=O)(=O)[O-])c5F)c5nc(c(-c6cccc(S(=O)(=O)[O-])c6F)c6ccc3[nH]6)C=C5)C=C4)cc2)C1
REMARK SMILES IDX 21 1 20 2 19 3 17 4 18 5 16 7 13 8 14 9 89 10 15 11 12 12
REMARK SMILES IDX 9 14 10 15 11 16 8 17 1 18 2 19 3 20 4 21 7 22 5 23 6 24
REMARK SMILES IDX 22 25 23 26 24 27 25 29 26 30 27 31 88 32 28 33 87 34 29 35
REMARK SMILES IDX 30 36 31 37 81 38 32 39 86 40 80 41 82 42 33 43 85 44 79 45
REMARK SMILES IDX 78 46 34 48 66 49 46 50 65 51 47 52 50 53 64 54 83 55 48 56
REMARK SMILES IDX 49 57 63 59 84 60 51 61 35 62 36 63 44 64 37 65 39 66 45 67
REMARK SMILES IDX 38 68 40 69 41 70 42 71 43 72 67 73 68 74 76 75 69 76 71 77
REMARK SMILES IDX 77 78 70 79 72 80 73 81 74 82 75 83 52 84 53 85 61 86 54 87
REMARK SMILES IDX 56 88 62 89 55 90 57 91 58 92 59 93 60 94
REMARK H PARENT 19 6 12 13 23 28 82 47 50 58
REMARK Flexibility Score: inf
ROOT
ATOM      1  C   UNL A   1      33.271  28.674  24.899  1.00  0.00     0.042 C 
ENDROOT
BRANCH   1   2
ATOM      2  C   UNL A   1      31.802  29.034  25.075  1.00  0.00     0.117 C 
BRANCH   2   3
ATOM      3  N   UNL A   1      31.203  29.501  23.835  1.00  0.00    -0.356 N 
ATOM      4  C   UNL A   1      30.572  28.912  22.793  1.00  0.00     0.226 C 
ATOM      5  O   UNL A   1      30.313  29.659  21.839  1.00  0.00    -0.274 OA
ATOM      6  H   UNL A   1      31.272  30.477  23.730  1.00  0.00     0.163 HD
BRANCH   4   7
ATOM      7  C   UNL A   1      30.179  27.435  22.694  1.00  0.00     0.103 C 
ATOM      8  C   UNL A   1      30.754  25.892  24.494  1.00  0.00     0.093 C 
ATOM      9  C   UNL A   1      31.602  25.656  23.285  1.00  0.00    -0.011 C 
ATOM     10  C   UNL A   1      29.599  26.707  23.894  1.00  0.00     0.042 C 
ATOM     11  C   UNL A   1      31.320  26.537  22.315  1.00  0.00    -0.016 C 
BRANCH   8  12
ATOM     12  N   UNL A   1      30.249  24.646  25.040  1.00  0.00    -0.204 NA
ATOM     13  H   UNL A   1      29.269  24.797  25.280  1.00  0.00     0.142 HD
BRANCH  12  14
ATOM     14  S   UNL A   1      31.001  24.003  26.407  1.00  0.00     0.241 S 
ATOM     15  O   UNL A   1      30.050  23.088  27.009  1.00  0.00    -0.207 OA
ATOM     16  O   UNL A   1      31.566  25.103  27.141  1.00  0.00    -0.207 OA
BRANCH  14  17
ATOM     17  C   UNL A   1      32.362  23.032  25.779  1.00  0.00     0.086 A 
ATOM     18  C   UNL A   1      34.076  24.964  25.862  1.00  0.00     0.046 C 
ATOM     19  C   UNL A   1      33.638  23.567  25.521  1.00  0.00    -0.031 A 
ATOM     20  C   UNL A   1      34.601  22.729  24.924  1.00  0.00     0.006 A 
ATOM     21  C   UNL A   1      34.326  21.389  24.645  1.00  0.00     0.016 A 
ATOM     22  C   UNL A   1      32.095  21.674  25.519  1.00  0.00     0.037 A 
ATOM     23  C   UNL A   1      33.081  20.862  24.967  1.00  0.00     0.019 A 
ATOM     24  Br  UNL A   1      32.732  19.031  24.659  1.00  0.00    -0.051 Br
ENDBRANCH  14  17
ENDBRANCH  12  14
ENDBRANCH   8  12
ENDBRANCH   4   7
ENDBRANCH   2   3
ENDBRANCH   1   2
BRANCH   1  25
ATOM     25  C   UNL A   1      34.108  28.975  26.135  1.00  0.00     0.118 C 
BRANCH  25  26
ATOM     26  N   UNL A   1      33.861  30.315  26.658  1.00  0.00    -0.352 N 
ATOM     27  C   UNL A   1      34.501  31.000  27.661  1.00  0.00     0.251 C 
ATOM     28  H   UNL A   1      33.123  30.801  26.226  1.00  0.00     0.163 HD
ATOM     29  O   UNL A   1      34.006  32.035  28.098  1.00  0.00    -0.269 OA
BRANCH  27  30
ATOM     30  C   UNL A   1      35.775  30.493  28.213  1.00  0.00     0.039 A 
ATOM     31  C   UNL A   1      35.751  29.657  29.334  1.00  0.00     0.014 A 
ATOM     32  C   UNL A   1      36.994  30.860  27.640  1.00  0.00     0.014 A 
ATOM     33  C   UNL A   1      36.948  29.146  29.841  1.00  0.00     0.010 A 
ATOM     34  C   UNL A   1      38.173  30.277  28.087  1.00  0.00     0.010 A 
ATOM     35  C   UNL A   1      38.166  29.428  29.204  1.00  0.00    -0.014 A 
BRANCH  35  36
ATOM     36  C   UNL A   1      39.454  28.873  29.691  1.00  0.00     0.031 A 
ATOM     37  C   UNL A   1      40.183  29.555  30.820  1.00  0.00     0.074 A 
ATOM     38  C   UNL A   1      40.021  27.835  29.048  1.00  0.00     0.049 A 
ATOM     39  N   UNL A   1      41.366  29.299  31.312  1.00  0.00    -0.248 NA
ATOM     40  C   UNL A   1      39.511  30.704  31.451  1.00  0.00     0.031 C 
ATOM     41  C   UNL A   1      39.458  27.150  27.882  1.00  0.00     0.029 A 
ATOM     42  N   UNL A   1      41.214  27.192  29.264  1.00  0.00    -0.354 N 
ATOM     43  C   UNL A   1      41.604  30.285  32.262  1.00  0.00     0.074 A 
ATOM     44  C   UNL A   1      40.456  31.163  32.258  1.00  0.00     0.031 C 
ATOM     45  C   UNL A   1      40.300  26.179  27.491  1.00  0.00     0.029 A 
ATOM     46  C   UNL A   1      41.473  26.188  28.361  1.00  0.00     0.049 A 
ATOM     47  H   UNL A   1      41.828  27.428  29.997  1.00  0.00     0.167 HD
ATOM     48  C   UNL A   1      42.666  30.429  33.090  1.00  0.00     0.034 A 
ATOM     49  C   UNL A   1      42.534  25.366  28.249  1.00  0.00     0.034 A 
ATOM     50  C   UNL A   1      43.761  29.500  33.154  1.00  0.00     0.049 A 
ATOM     51  C   UNL A   1      43.652  25.482  29.248  1.00  0.00     0.074 A 
ATOM     52  C   UNL A   1      44.825  29.482  34.038  1.00  0.00     0.029 A 
ATOM     53  N   UNL A   1      43.924  28.415  32.306  1.00  0.00    -0.354 N 
ATOM     54  N   UNL A   1      43.782  26.320  30.249  1.00  0.00    -0.248 NA
ATOM     55  C   UNL A   1      44.754  24.514  29.130  1.00  0.00     0.031 C 
ATOM     56  C   UNL A   1      45.634  28.384  33.723  1.00  0.00     0.029 A 
ATOM     57  C   UNL A   1      45.069  27.718  32.647  1.00  0.00     0.049 A 
ATOM     58  H   UNL A   1      43.315  28.176  31.571  1.00  0.00     0.167 HD
ATOM     59  C   UNL A   1      44.956  25.963  30.897  1.00  0.00     0.074 A 
ATOM     60  C   UNL A   1      45.492  24.817  30.190  1.00  0.00     0.031 C 
ATOM     61  C   UNL A   1      45.550  26.541  31.970  1.00  0.00     0.034 A 
BRANCH  48  62
ATOM     62  C   UNL A   1      42.655  31.590  34.048  1.00  0.00     0.023 A 
ATOM     63  C   UNL A   1      43.162  32.837  33.630  1.00  0.00     0.012 A 
ATOM     64  C   UNL A   1      42.107  31.466  35.340  1.00  0.00     0.148 A 
ATOM     65  C   UNL A   1      43.156  33.933  34.491  1.00  0.00     0.002 A 
ATOM     66  C   UNL A   1      42.067  32.575  36.180  1.00  0.00     0.091 A 
ATOM     67  F   UNL A   1      41.652  30.267  35.732  1.00  0.00    -0.205 F 
ATOM     68  C   UNL A   1      42.601  33.805  35.761  1.00  0.00     0.022 A 
BRANCH  66  69
ATOM     69  S   UNL A   1      41.304  32.528  37.806  1.00  0.00     0.127 S 
ATOM     70  O   UNL A   1      39.957  32.057  37.488  1.00  0.00    -0.237 OA
ATOM     71  O   UNL A   1      42.139  31.555  38.512  1.00  0.00    -0.237 OA
ATOM     72  O   UNL A   1      41.391  33.886  38.324  1.00  0.00    -0.744 OA
ENDBRANCH  66  69
ENDBRANCH  48  62
BRANCH  49  73
ATOM     73  C   UNL A   1      42.538  24.297  27.211  1.00  0.00     0.023 A 
ATOM     74  C   UNL A   1      43.226  24.521  26.002  1.00  0.00     0.012 A 
ATOM     75  C   UNL A   1      41.910  23.054  27.423  1.00  0.00     0.148 A 
ATOM     76  C   UNL A   1      43.267  23.540  25.012  1.00  0.00     0.002 A 
ATOM     77  C   UNL A   1      41.997  22.061  26.452  1.00  0.00     0.091 A 
ATOM     78  F   UNL A   1      41.247  22.863  28.572  1.00  0.00    -0.205 F 
ATOM     79  C   UNL A   1      42.663  22.307  25.241  1.00  0.00     0.022 A 
BRANCH  77  80
ATOM     80  S   UNL A   1      41.356  20.405  26.720  1.00  0.00     0.127 S 
ATOM     81  O   UNL A   1      41.793  19.715  25.508  1.00  0.00    -0.237 OA
ATOM     82  O   UNL A   1      42.050  19.998  27.943  1.00  0.00    -0.237 OA
ATOM     83  O   UNL A   1      39.917  20.568  26.877  1.00  0.00    -0.744 OA
ENDBRANCH  77  80
ENDBRANCH  49  73
BRANCH  61  84
ATOM     84  C   UNL A   1      46.834  25.936  32.468  1.00  0.00     0.023 A 
ATOM     85  C   UNL A   1      46.804  25.046  33.559  1.00  0.00     0.012 A 
ATOM     86  C   UNL A   1      48.053  26.179  31.804  1.00  0.00     0.148 A 
ATOM     87  C   UNL A   1      47.972  24.425  33.998  1.00  0.00     0.002 A 
ATOM     88  C   UNL A   1      49.205  25.523  32.220  1.00  0.00     0.091 A 
ATOM     89  F   UNL A   1      48.064  27.047  30.781  1.00  0.00    -0.205 F 
ATOM     90  C   UNL A   1      49.169  24.654  33.322  1.00  0.00     0.022 A 
BRANCH  88  91
ATOM     91  S   UNL A   1      50.766  25.691  31.346  1.00  0.00     0.127 S 
ATOM     92  O   UNL A   1      50.331  25.672  29.951  1.00  0.00    -0.237 OA
ATOM     93  O   UNL A   1      51.252  26.990  31.815  1.00  0.00    -0.237 OA
ATOM     94  O   UNL A   1      51.579  24.559  31.769  1.00  0.00    -0.744 OA
ENDBRANCH  88  91
ENDBRANCH  61  84
ENDBRANCH  35  36
ENDBRANCH  27  30
ENDBRANCH  25  26
ENDBRANCH   1  25
TORSDOF 16
ENDMDL
