MODEL 1
REMARK VINA RESULT:     -13.6      0.000      0.000
REMARK SMILES O=C(NCCCNC(=O)C1CC[NH+]([C@H]2CC(=O)N(c3ccc4c(c3)OCCO4)C2=O)CC1)c1ccc(-c2c3nc(c(-c4cccc(S(=O)(=O)[O-])c4F)c4ccc([nH]4)c(-c4cccc(S(=O)(=O)[O-])c4F)c4nc(c(-c5cccc(S(=O)(=O)[O-])c5F)c5ccc2[nH]5)C=C4)C=C3)cc1
REMARK SMILES IDX 4 1 3 2 1 3 2 4 33 6 34 7 95 8 35 9 94 10 36 11 37 12 38 13
REMARK SMILES IDX 88 14 39 15 93 16 87 17 89 18 40 19 92 20 86 21 85 22 41 24
REMARK SMILES IDX 73 25 53 26 72 27 54 28 57 29 71 30 90 31 55 32 56 33 70 35
REMARK SMILES IDX 91 36 58 37 42 38 43 39 51 40 44 41 46 42 52 43 45 44 47 45
REMARK SMILES IDX 48 46 49 47 50 48 74 49 75 50 83 51 76 52 78 53 84 54 77 55
REMARK SMILES IDX 79 56 80 57 81 58 82 59 59 60 60 61 68 62 61 63 63 64 69 65
REMARK SMILES IDX 62 66 64 67 65 68 66 69 67 70 5 71 6 72 7 73 8 74 9 76 10 77
REMARK SMILES IDX 11 78 32 79 12 80 31 81 13 82 14 84 15 85 29 86 16 87 18 88
REMARK SMILES IDX 30 89 17 90 19 91 20 92 24 93 21 94 23 95 22 96 25 97 28 98
REMARK SMILES IDX 26 99 27 100
REMARK H PARENT 3 5 89 23 57 34 7 75 13 83
REMARK Flexibility Score: inf
ROOT
ATOM      1  C   UNL A   1      32.728  32.328  27.323  1.00  0.00     0.118 C 
ENDROOT
BRANCH   1   2
ATOM      2  N   UNL A   1      32.600  33.749  27.607  1.00  0.00    -0.352 N 
ATOM      3  O   UNL A   1      32.679  35.588  28.884  1.00  0.00    -0.269 OA
ATOM      4  C   UNL A   1      33.179  34.504  28.596  1.00  0.00     0.251 C 
ATOM      5  H   UNL A   1      32.006  34.244  26.997  1.00  0.00     0.163 HD
BRANCH   4   6
ATOM      6  C   UNL A   1      34.386  34.021  29.302  1.00  0.00     0.039 A 
ATOM      7  C   UNL A   1      34.280  33.127  30.371  1.00  0.00     0.014 A 
ATOM      8  C   UNL A   1      35.648  34.404  28.840  1.00  0.00     0.014 A 
ATOM      9  C   UNL A   1      35.415  32.724  31.062  1.00  0.00     0.010 A 
ATOM     10  C   UNL A   1      36.794  33.910  29.466  1.00  0.00     0.010 A 
ATOM     11  C   UNL A   1      36.685  33.077  30.591  1.00  0.00    -0.014 A 
BRANCH  11  12
ATOM     12  C   UNL A   1      37.890  32.478  31.212  1.00  0.00     0.031 A 
ATOM     13  C   UNL A   1      38.592  31.317  30.573  1.00  0.00     0.074 A 
ATOM     14  C   UNL A   1      38.308  32.959  32.400  1.00  0.00     0.049 A 
ATOM     15  N   UNL A   1      39.596  30.614  31.025  1.00  0.00    -0.248 NA
ATOM     16  C   UNL A   1      38.092  30.879  29.261  1.00  0.00     0.031 C 
ATOM     17  C   UNL A   1      37.674  34.061  33.129  1.00  0.00     0.029 A 
ATOM     18  N   UNL A   1      39.336  32.567  33.217  1.00  0.00    -0.354 N 
ATOM     19  C   UNL A   1      39.816  29.617  30.084  1.00  0.00     0.074 A 
ATOM     20  C   UNL A   1      38.838  29.807  29.034  1.00  0.00     0.031 C 
ATOM     21  C   UNL A   1      38.318  34.250  34.287  1.00  0.00     0.029 A 
ATOM     22  C   UNL A   1      39.362  33.241  34.416  1.00  0.00     0.049 A 
ATOM     23  H   UNL A   1      39.991  31.873  32.972  1.00  0.00     0.167 HD
ATOM     24  C   UNL A   1      40.751  28.636  30.097  1.00  0.00     0.034 A 
ATOM     25  C   UNL A   1      40.104  33.040  35.521  1.00  0.00     0.034 A 
ATOM     26  C   UNL A   1      41.723  28.473  31.146  1.00  0.00     0.049 A 
ATOM     27  C   UNL A   1      41.131  31.951  35.514  1.00  0.00     0.074 A 
ATOM     28  C   UNL A   1      42.763  27.563  31.218  1.00  0.00     0.029 A 
ATOM     29  N   UNL A   1      41.761  29.218  32.315  1.00  0.00    -0.354 N 
ATOM     30  N   UNL A   1      41.411  31.093  34.563  1.00  0.00    -0.248 NA
ATOM     31  C   UNL A   1      41.965  31.812  36.715  1.00  0.00     0.031 C 
ATOM     32  C   UNL A   1      43.398  27.726  32.453  1.00  0.00     0.029 A 
ATOM     33  C   UNL A   1      42.789  28.773  33.129  1.00  0.00     0.049 A 
ATOM     34  H   UNL A   1      41.147  29.954  32.535  1.00  0.00     0.167 HD
ATOM     35  C   UNL A   1      42.474  30.335  35.033  1.00  0.00     0.074 A 
ATOM     36  C   UNL A   1      42.793  30.840  36.354  1.00  0.00     0.031 C 
ATOM     37  C   UNL A   1      43.123  29.313  34.423  1.00  0.00     0.034 A 
BRANCH  24  38
ATOM     38  C   UNL A   1      40.759  27.663  28.946  1.00  0.00     0.023 A 
ATOM     39  C   UNL A   1      39.825  26.607  28.905  1.00  0.00     0.012 A 
ATOM     40  C   UNL A   1      41.676  27.812  27.886  1.00  0.00     0.148 A 
ATOM     41  C   UNL A   1      39.841  25.684  27.859  1.00  0.00     0.002 A 
ATOM     42  C   UNL A   1      41.653  26.918  26.824  1.00  0.00     0.091 A 
ATOM     43  F   UNL A   1      42.570  28.810  27.948  1.00  0.00    -0.205 F 
ATOM     44  C   UNL A   1      40.748  25.844  26.815  1.00  0.00     0.022 A 
BRANCH  42  45
ATOM     45  S   UNL A   1      42.729  27.092  25.395  1.00  0.00     0.127 S 
ATOM     46  O   UNL A   1      44.042  27.206  26.028  1.00  0.00    -0.237 OA
ATOM     47  O   UNL A   1      42.503  25.832  24.684  1.00  0.00    -0.237 OA
ATOM     48  O   UNL A   1      42.266  28.276  24.687  1.00  0.00    -0.744 OA
ENDBRANCH  42  45
ENDBRANCH  24  38
BRANCH  25  49
ATOM     49  C   UNL A   1      39.880  33.910  36.708  1.00  0.00     0.023 A 
ATOM     50  C   UNL A   1      40.199  35.278  36.643  1.00  0.00     0.012 A 
ATOM     51  C   UNL A   1      39.259  33.399  37.867  1.00  0.00     0.148 A 
ATOM     52  C   UNL A   1      39.916  36.122  37.717  1.00  0.00     0.002 A 
ATOM     53  C   UNL A   1      38.927  34.256  38.908  1.00  0.00     0.091 A 
ATOM     54  F   UNL A   1      38.965  32.092  37.904  1.00  0.00    -0.205 F 
ATOM     55  C   UNL A   1      39.269  35.615  38.842  1.00  0.00     0.022 A 
BRANCH  53  56
ATOM     56  S   UNL A   1      37.966  33.724  40.329  1.00  0.00     0.127 S 
ATOM     57  O   UNL A   1      36.797  33.125  39.691  1.00  0.00    -0.237 OA
ATOM     58  O   UNL A   1      38.878  32.773  40.965  1.00  0.00    -0.237 OA
ATOM     59  O   UNL A   1      37.709  34.928  41.109  1.00  0.00    -0.744 OA
ENDBRANCH  53  56
ENDBRANCH  25  49
BRANCH  37  60
ATOM     60  C   UNL A   1      44.288  28.691  35.146  1.00  0.00     0.023 A 
ATOM     61  C   UNL A   1      45.590  29.194  34.958  1.00  0.00     0.012 A 
ATOM     62  C   UNL A   1      44.063  27.680  36.102  1.00  0.00     0.148 A 
ATOM     63  C   UNL A   1      46.655  28.687  35.702  1.00  0.00     0.002 A 
ATOM     64  C   UNL A   1      45.119  27.219  36.876  1.00  0.00     0.091 A 
ATOM     65  F   UNL A   1      42.818  27.205  36.247  1.00  0.00    -0.205 F 
ATOM     66  C   UNL A   1      46.417  27.713  36.671  1.00  0.00     0.022 A 
BRANCH  64  67
ATOM     67  S   UNL A   1      44.891  26.045  38.216  1.00  0.00     0.127 S 
ATOM     68  O   UNL A   1      46.273  25.697  38.545  1.00  0.00    -0.237 OA
ATOM     69  O   UNL A   1      44.211  26.858  39.223  1.00  0.00    -0.237 OA
ATOM     70  O   UNL A   1      44.092  24.956  37.671  1.00  0.00    -0.744 OA
ENDBRANCH  64  67
ENDBRANCH  37  60
ENDBRANCH  11  12
ENDBRANCH   4   6
ENDBRANCH   1   2
BRANCH   1  71
ATOM     71  C   UNL A   1      31.550  31.819  26.510  1.00  0.00     0.042 C 
BRANCH  71  72
ATOM     72  C   UNL A   1      31.792  30.438  25.910  1.00  0.00     0.117 C 
BRANCH  72  73
ATOM     73  N   UNL A   1      31.784  29.408  26.930  1.00  0.00    -0.356 N 
ATOM     74  C   UNL A   1      31.614  28.070  26.938  1.00  0.00     0.223 C 
ATOM     75  H   UNL A   1      31.940  29.771  27.832  1.00  0.00     0.163 HD
ATOM     76  O   UNL A   1      31.597  27.560  28.068  1.00  0.00    -0.275 OA
BRANCH  74  77
ATOM     77  C   UNL A   1      31.490  27.145  25.721  1.00  0.00     0.089 C 
ATOM     78  C   UNL A   1      30.641  25.884  25.719  1.00  0.00     0.075 C 
ATOM     79  C   UNL A   1      32.889  26.794  25.191  1.00  0.00     0.075 C 
ATOM     80  C   UNL A   1      31.298  24.670  26.383  1.00  0.00     0.263 C 
ATOM     81  C   UNL A   1      33.523  25.680  26.020  1.00  0.00     0.263 C 
ATOM     82  N   UNL A   1      32.717  24.467  26.100  1.00  0.00    -0.324 N 
ATOM     83  H   UNL A   1      33.135  24.103  26.956  1.00  0.00     0.348 HD
BRANCH  82  84
ATOM     84  C   UNL A   1      32.992  23.336  25.200  1.00  0.00     0.284 C 
ATOM     85  C   UNL A   1      33.513  23.708  23.827  1.00  0.00     0.176 C 
ATOM     86  C   UNL A   1      34.013  22.340  25.729  1.00  0.00     0.292 C 
ATOM     87  C   UNL A   1      34.915  23.203  23.811  1.00  0.00     0.240 C 
ATOM     88  N   UNL A   1      35.107  22.378  24.892  1.00  0.00    -0.245 N 
ATOM     89  O   UNL A   1      33.881  21.691  26.760  1.00  0.00    -0.267 OA
ATOM     90  O   UNL A   1      35.684  23.458  22.894  1.00  0.00    -0.274 OA
BRANCH  88  91
ATOM     91  C   UNL A   1      36.298  21.651  25.103  1.00  0.00     0.056 A 
ATOM     92  C   UNL A   1      36.380  20.291  24.772  1.00  0.00     0.031 A 
ATOM     93  C   UNL A   1      37.429  22.294  25.622  1.00  0.00     0.077 A 
ATOM     94  C   UNL A   1      37.587  19.600  24.915  1.00  0.00     0.052 A 
ATOM     95  C   UNL A   1      38.616  21.593  25.810  1.00  0.00     0.163 A 
ATOM     96  C   UNL A   1      38.698  20.247  25.450  1.00  0.00     0.161 A 
ATOM     97  O   UNL A   1      39.652  22.293  26.372  1.00  0.00    -0.486 OA
ATOM     98  O   UNL A   1      39.840  19.502  25.594  1.00  0.00    -0.486 OA
ATOM     99  C   UNL A   1      40.894  21.600  26.229  1.00  0.00     0.271 C 
ATOM    100  C   UNL A   1      40.737  20.117  26.523  1.00  0.00     0.271 C 
ENDBRANCH  88  91
ENDBRANCH  82  84
ENDBRANCH  74  77
ENDBRANCH  72  73
ENDBRANCH  71  72
ENDBRANCH   1  71
TORSDOF 15
ENDMDL
MODEL 2
REMARK VINA RESULT:     -13.6      1.571      2.350
REMARK SMILES O=C(NCCCNC(=O)C1CC[NH+]([C@H]2CC(=O)N(c3ccc4c(c3)OCCO4)C2=O)CC1)c1ccc(-c2c3nc(c(-c4cccc(S(=O)(=O)[O-])c4F)c4ccc([nH]4)c(-c4cccc(S(=O)(=O)[O-])c4F)c4nc(c(-c5cccc(S(=O)(=O)[O-])c5F)c5ccc2[nH]5)C=C4)C=C3)cc1
REMARK SMILES IDX 4 1 3 2 1 3 2 4 33 6 34 7 95 8 35 9 94 10 36 11 37 12 38 13
REMARK SMILES IDX 88 14 39 15 93 16 87 17 89 18 40 19 92 20 86 21 85 22 41 24
REMARK SMILES IDX 73 25 53 26 72 27 54 28 57 29 71 30 90 31 55 32 56 33 70 35
REMARK SMILES IDX 91 36 58 37 42 38 43 39 51 40 44 41 46 42 52 43 45 44 47 45
REMARK SMILES IDX 48 46 49 47 50 48 74 49 75 50 83 51 76 52 78 53 84 54 77 55
REMARK SMILES IDX 79 56 80 57 81 58 82 59 59 60 60 61 68 62 61 63 63 64 69 65
REMARK SMILES IDX 62 66 64 67 65 68 66 69 67 70 5 71 6 72 7 73 8 74 9 76 10 77
REMARK SMILES IDX 11 78 32 79 12 80 31 81 13 82 14 84 15 85 29 86 16 87 18 88
REMARK SMILES IDX 30 89 17 90 19 91 20 92 24 93 21 94 23 95 22 96 25 97 28 98
REMARK SMILES IDX 26 99 27 100
REMARK H PARENT 3 5 89 23 57 34 7 75 13 83
REMARK Flexibility Score: inf
ROOT
ATOM      1  C   UNL A   1      32.796  32.570  27.314  1.00  0.00     0.118 C 
ENDROOT
BRANCH   1   2
ATOM      2  N   UNL A   1      32.633  33.967  27.687  1.00  0.00    -0.352 N 
ATOM      3  O   UNL A   1      32.649  35.720  29.082  1.00  0.00    -0.269 OA
ATOM      4  C   UNL A   1      33.176  34.667  28.736  1.00  0.00     0.251 C 
ATOM      5  H   UNL A   1      32.043  34.491  27.097  1.00  0.00     0.163 HD
BRANCH   4   6
ATOM      6  C   UNL A   1      34.376  34.160  29.437  1.00  0.00     0.039 A 
ATOM      7  C   UNL A   1      34.257  33.274  30.511  1.00  0.00     0.014 A 
ATOM      8  C   UNL A   1      35.644  34.514  28.965  1.00  0.00     0.014 A 
ATOM      9  C   UNL A   1      35.388  32.850  31.196  1.00  0.00     0.010 A 
ATOM     10  C   UNL A   1      36.782  33.997  29.586  1.00  0.00     0.010 A 
ATOM     11  C   UNL A   1      36.663  33.172  30.716  1.00  0.00    -0.014 A 
BRANCH  11  12
ATOM     12  C   UNL A   1      37.858  32.550  31.333  1.00  0.00     0.031 A 
ATOM     13  C   UNL A   1      38.554  31.397  30.674  1.00  0.00     0.074 A 
ATOM     14  C   UNL A   1      38.271  33.002  32.533  1.00  0.00     0.049 A 
ATOM     15  N   UNL A   1      39.549  30.676  31.118  1.00  0.00    -0.248 NA
ATOM     16  C   UNL A   1      38.060  30.991  29.349  1.00  0.00     0.031 C 
ATOM     17  C   UNL A   1      37.641  34.093  33.282  1.00  0.00     0.029 A 
ATOM     18  N   UNL A   1      39.290  32.584  33.349  1.00  0.00    -0.354 N 
ATOM     19  C   UNL A   1      39.767  29.697  30.157  1.00  0.00     0.074 A 
ATOM     20  C   UNL A   1      38.799  29.918  29.104  1.00  0.00     0.031 C 
ATOM     21  C   UNL A   1      38.279  34.253  34.448  1.00  0.00     0.029 A 
ATOM     22  C   UNL A   1      39.314  33.232  34.562  1.00  0.00     0.049 A 
ATOM     23  H   UNL A   1      39.941  31.890  33.094  1.00  0.00     0.167 HD
ATOM     24  C   UNL A   1      40.694  28.709  30.156  1.00  0.00     0.034 A 
ATOM     25  C   UNL A   1      40.045  33.002  35.668  1.00  0.00     0.034 A 
ATOM     26  C   UNL A   1      41.658  28.514  31.207  1.00  0.00     0.049 A 
ATOM     27  C   UNL A   1      41.064  31.903  35.645  1.00  0.00     0.074 A 
ATOM     28  C   UNL A   1      42.689  27.594  31.267  1.00  0.00     0.029 A 
ATOM     29  N   UNL A   1      41.694  29.234  32.393  1.00  0.00    -0.354 N 
ATOM     30  N   UNL A   1      41.343  31.064  34.677  1.00  0.00    -0.248 NA
ATOM     31  C   UNL A   1      41.888  31.733  36.848  1.00  0.00     0.031 C 
ATOM     32  C   UNL A   1      43.317  27.725  32.510  1.00  0.00     0.029 A 
ATOM     33  C   UNL A   1      42.712  28.763  33.204  1.00  0.00     0.049 A 
ATOM     34  H   UNL A   1      41.083  29.971  32.624  1.00  0.00     0.167 HD
ATOM     35  C   UNL A   1      42.396  30.287  35.138  1.00  0.00     0.074 A 
ATOM     36  C   UNL A   1      42.710  30.761  36.472  1.00  0.00     0.031 C 
ATOM     37  C   UNL A   1      43.041  29.273  34.512  1.00  0.00     0.034 A 
BRANCH  24  38
ATOM     38  C   UNL A   1      40.702  27.760  28.984  1.00  0.00     0.023 A 
ATOM     39  C   UNL A   1      39.755  26.717  28.911  1.00  0.00     0.012 A 
ATOM     40  C   UNL A   1      41.633  27.919  27.938  1.00  0.00     0.148 A 
ATOM     41  C   UNL A   1      39.770  25.817  27.845  1.00  0.00     0.002 A 
ATOM     42  C   UNL A   1      41.610  27.048  26.856  1.00  0.00     0.091 A 
ATOM     43  F   UNL A   1      42.539  28.904  28.030  1.00  0.00    -0.205 F 
ATOM     44  C   UNL A   1      40.691  25.987  26.815  1.00  0.00     0.022 A 
BRANCH  42  45
ATOM     45  S   UNL A   1      42.703  27.238  25.443  1.00  0.00     0.127 S 
ATOM     46  O   UNL A   1      44.002  27.396  26.096  1.00  0.00    -0.237 OA
ATOM     47  O   UNL A   1      42.525  25.965  24.742  1.00  0.00    -0.237 OA
ATOM     48  O   UNL A   1      42.219  28.402  24.715  1.00  0.00    -0.744 OA
ENDBRANCH  42  45
ENDBRANCH  24  38
BRANCH  25  49
ATOM     49  C   UNL A   1      39.821  33.848  36.872  1.00  0.00     0.023 A 
ATOM     50  C   UNL A   1      40.158  35.213  36.840  1.00  0.00     0.012 A 
ATOM     51  C   UNL A   1      39.181  33.320  38.013  1.00  0.00     0.148 A 
ATOM     52  C   UNL A   1      39.874  36.036  37.929  1.00  0.00     0.002 A 
ATOM     53  C   UNL A   1      38.850  34.158  39.069  1.00  0.00     0.091 A 
ATOM     54  F   UNL A   1      38.870  32.016  38.018  1.00  0.00    -0.205 F 
ATOM     55  C   UNL A   1      39.210  35.513  39.036  1.00  0.00     0.022 A 
BRANCH  53  56
ATOM     56  S   UNL A   1      37.867  33.607  40.468  1.00  0.00     0.127 S 
ATOM     57  O   UNL A   1      37.704  34.845  41.224  1.00  0.00    -0.237 OA
ATOM     58  O   UNL A   1      36.655  33.122  39.808  1.00  0.00    -0.237 OA
ATOM     59  O   UNL A   1      38.654  32.570  41.123  1.00  0.00    -0.744 OA
ENDBRANCH  53  56
ENDBRANCH  25  49
BRANCH  37  60
ATOM     60  C   UNL A   1      44.195  28.626  35.229  1.00  0.00     0.023 A 
ATOM     61  C   UNL A   1      45.502  29.123  35.064  1.00  0.00     0.012 A 
ATOM     62  C   UNL A   1      43.956  27.594  36.158  1.00  0.00     0.148 A 
ATOM     63  C   UNL A   1      46.558  28.592  35.804  1.00  0.00     0.002 A 
ATOM     64  C   UNL A   1      45.002  27.107  36.930  1.00  0.00     0.091 A 
ATOM     65  F   UNL A   1      42.706  27.124  36.282  1.00  0.00    -0.205 F 
ATOM     66  C   UNL A   1      46.305  27.597  36.748  1.00  0.00     0.022 A 
BRANCH  64  67
ATOM     67  S   UNL A   1      44.755  25.903  38.240  1.00  0.00     0.127 S 
ATOM     68  O   UNL A   1      43.821  26.607  39.119  1.00  0.00    -0.237 OA
ATOM     69  O   UNL A   1      44.175  24.774  37.513  1.00  0.00    -0.237 OA
ATOM     70  O   UNL A   1      46.070  25.649  38.812  1.00  0.00    -0.744 OA
ENDBRANCH  64  67
ENDBRANCH  37  60
ENDBRANCH  11  12
ENDBRANCH   4   6
ENDBRANCH   1   2
BRANCH   1  71
ATOM     71  C   UNL A   1      31.505  31.993  26.759  1.00  0.00     0.042 C 
BRANCH  71  72
ATOM     72  C   UNL A   1      31.695  30.629  26.104  1.00  0.00     0.117 C 
BRANCH  72  73
ATOM     73  N   UNL A   1      32.895  29.973  26.584  1.00  0.00    -0.356 N 
ATOM     74  C   UNL A   1      33.645  28.930  26.174  1.00  0.00     0.223 C 
ATOM     75  H   UNL A   1      33.246  30.388  27.405  1.00  0.00     0.163 HD
ATOM     76  O   UNL A   1      34.574  28.632  26.939  1.00  0.00    -0.275 OA
BRANCH  74  77
ATOM     77  C   UNL A   1      33.491  28.134  24.872  1.00  0.00     0.089 C 
ATOM     78  C   UNL A   1      32.228  28.161  24.025  1.00  0.00     0.075 C 
ATOM     79  C   UNL A   1      33.890  26.669  25.110  1.00  0.00     0.075 C 
ATOM     80  C   UNL A   1      31.100  27.257  24.533  1.00  0.00     0.263 C 
ATOM     81  C   UNL A   1      32.751  25.892  25.763  1.00  0.00     0.263 C 
ATOM     82  N   UNL A   1      31.497  25.939  25.019  1.00  0.00    -0.324 N 
ATOM     83  H   UNL A   1      30.885  25.722  25.805  1.00  0.00     0.348 HD
BRANCH  82  84
ATOM     84  C   UNL A   1      31.130  24.833  24.119  1.00  0.00     0.284 C 
ATOM     85  C   UNL A   1      31.767  24.875  22.744  1.00  0.00     0.176 C 
ATOM     86  C   UNL A   1      31.470  23.447  24.646  1.00  0.00     0.292 C 
ATOM     87  C   UNL A   1      32.689  23.704  22.726  1.00  0.00     0.240 C 
ATOM     88  N   UNL A   1      32.417  22.901  23.807  1.00  0.00    -0.245 N 
ATOM     89  O   UNL A   1      31.017  22.966  25.677  1.00  0.00    -0.267 OA
ATOM     90  O   UNL A   1      33.476  23.514  21.808  1.00  0.00    -0.274 OA
BRANCH  88  91
ATOM     91  C   UNL A   1      33.043  21.654  24.016  1.00  0.00     0.056 A 
ATOM     92  C   UNL A   1      34.308  21.574  24.616  1.00  0.00     0.031 A 
ATOM     93  C   UNL A   1      32.389  20.472  23.649  1.00  0.00     0.077 A 
ATOM     94  C   UNL A   1      34.885  20.330  24.885  1.00  0.00     0.052 A 
ATOM     95  C   UNL A   1      32.986  19.234  23.874  1.00  0.00     0.163 A 
ATOM     96  C   UNL A   1      34.232  19.163  24.498  1.00  0.00     0.161 A 
ATOM     97  O   UNL A   1      32.293  18.137  23.434  1.00  0.00    -0.486 OA
ATOM     98  O   UNL A   1      34.868  17.978  24.764  1.00  0.00    -0.486 OA
ATOM     99  C   UNL A   1      32.818  16.927  23.986  1.00  0.00     0.271 C 
ATOM    100  C   UNL A   1      34.337  16.921  23.959  1.00  0.00     0.271 C 
ENDBRANCH  88  91
ENDBRANCH  82  84
ENDBRANCH  74  77
ENDBRANCH  72  73
ENDBRANCH  71  72
ENDBRANCH   1  71
TORSDOF 15
ENDMDL
MODEL 3
REMARK VINA RESULT:     -13.5      5.968     11.632
REMARK SMILES O=C(NCCCNC(=O)C1CC[NH+]([C@H]2CC(=O)N(c3ccc4c(c3)OCCO4)C2=O)CC1)c1ccc(-c2c3nc(c(-c4cccc(S(=O)(=O)[O-])c4F)c4ccc([nH]4)c(-c4cccc(S(=O)(=O)[O-])c4F)c4nc(c(-c5cccc(S(=O)(=O)[O-])c5F)c5ccc2[nH]5)C=C4)C=C3)cc1
REMARK SMILES IDX 4 1 3 2 1 3 2 4 33 6 34 7 95 8 35 9 94 10 36 11 37 12 38 13
REMARK SMILES IDX 88 14 39 15 93 16 87 17 89 18 40 19 92 20 86 21 85 22 41 24
REMARK SMILES IDX 73 25 53 26 72 27 54 28 57 29 71 30 90 31 55 32 56 33 70 35
REMARK SMILES IDX 91 36 58 37 42 38 43 39 51 40 44 41 46 42 52 43 45 44 47 45
REMARK SMILES IDX 48 46 49 47 50 48 74 49 75 50 83 51 76 52 78 53 84 54 77 55
REMARK SMILES IDX 79 56 80 57 81 58 82 59 59 60 60 61 68 62 61 63 63 64 69 65
REMARK SMILES IDX 62 66 64 67 65 68 66 69 67 70 5 71 6 72 7 73 8 74 9 76 10 77
REMARK SMILES IDX 11 78 32 79 12 80 31 81 13 82 14 84 15 85 29 86 16 87 18 88
REMARK SMILES IDX 30 89 17 90 19 91 20 92 24 93 21 94 23 95 22 96 25 97 28 98
REMARK SMILES IDX 26 99 27 100
REMARK H PARENT 3 5 89 23 57 34 7 75 13 83
REMARK Flexibility Score: inf
ROOT
ATOM      1  C   UNL A   1      39.069  19.967  26.123  1.00  0.00     0.118 C 
ENDROOT
BRANCH   1   2
ATOM      2  N   UNL A   1      40.332  19.245  26.104  1.00  0.00    -0.352 N 
ATOM      3  O   UNL A   1      42.521  18.976  25.708  1.00  0.00    -0.269 OA
ATOM      4  C   UNL A   1      41.618  19.724  26.074  1.00  0.00     0.251 C 
ATOM      5  H   UNL A   1      40.252  18.264  26.115  1.00  0.00     0.163 HD
BRANCH   4   6
ATOM      6  C   UNL A   1      41.912  21.117  26.476  1.00  0.00     0.039 A 
ATOM      7  C   UNL A   1      42.242  21.426  27.798  1.00  0.00     0.014 A 
ATOM      8  C   UNL A   1      41.935  22.119  25.502  1.00  0.00     0.014 A 
ATOM      9  C   UNL A   1      42.461  22.744  28.175  1.00  0.00     0.010 A 
ATOM     10  C   UNL A   1      42.264  23.428  25.862  1.00  0.00     0.010 A 
ATOM     11  C   UNL A   1      42.516  23.752  27.205  1.00  0.00    -0.014 A 
BRANCH  11  12
ATOM     12  C   UNL A   1      42.949  25.117  27.588  1.00  0.00     0.031 A 
ATOM     13  C   UNL A   1      41.993  26.079  28.226  1.00  0.00     0.074 A 
ATOM     14  C   UNL A   1      44.208  25.498  27.295  1.00  0.00     0.049 A 
ATOM     15  N   UNL A   1      42.176  27.335  28.537  1.00  0.00    -0.248 NA
ATOM     16  C   UNL A   1      40.650  25.570  28.545  1.00  0.00     0.031 C 
ATOM     17  C   UNL A   1      45.210  24.653  26.638  1.00  0.00     0.029 A 
ATOM     18  N   UNL A   1      44.851  26.695  27.476  1.00  0.00    -0.354 N 
ATOM     19  C   UNL A   1      40.961  27.784  29.036  1.00  0.00     0.074 A 
ATOM     20  C   UNL A   1      40.046  26.664  28.986  1.00  0.00     0.031 C 
ATOM     21  C   UNL A   1      46.334  25.357  26.462  1.00  0.00     0.029 A 
ATOM     22  C   UNL A   1      46.111  26.721  26.927  1.00  0.00     0.049 A 
ATOM     23  H   UNL A   1      44.451  27.459  27.951  1.00  0.00     0.167 HD
ATOM     24  C   UNL A   1      40.643  29.019  29.495  1.00  0.00     0.034 A 
ATOM     25  C   UNL A   1      46.977  27.739  26.762  1.00  0.00     0.034 A 
ATOM     26  C   UNL A   1      41.572  30.117  29.548  1.00  0.00     0.049 A 
ATOM     27  C   UNL A   1      46.605  29.096  27.277  1.00  0.00     0.074 A 
ATOM     28  C   UNL A   1      41.375  31.384  30.068  1.00  0.00     0.029 A 
ATOM     29  N   UNL A   1      42.864  30.087  29.044  1.00  0.00    -0.354 N 
ATOM     30  N   UNL A   1      45.493  29.474  27.861  1.00  0.00    -0.248 NA
ATOM     31  C   UNL A   1      47.607  30.160  27.139  1.00  0.00     0.031 C 
ATOM     32  C   UNL A   1      42.531  32.135  29.831  1.00  0.00     0.029 A 
ATOM     33  C   UNL A   1      43.469  31.320  29.214  1.00  0.00     0.049 A 
ATOM     34  H   UNL A   1      43.288  29.304  28.624  1.00  0.00     0.167 HD
ATOM     35  C   UNL A   1      45.673  30.810  28.192  1.00  0.00     0.074 A 
ATOM     36  C   UNL A   1      47.005  31.173  27.748  1.00  0.00     0.031 C 
ATOM     37  C   UNL A   1      44.811  31.656  28.806  1.00  0.00     0.034 A 
BRANCH  24  38
ATOM     38  C   UNL A   1      39.229  29.245  29.968  1.00  0.00     0.023 A 
ATOM     39  C   UNL A   1      38.861  28.906  31.287  1.00  0.00     0.012 A 
ATOM     40  C   UNL A   1      38.269  29.820  29.112  1.00  0.00     0.148 A 
ATOM     41  C   UNL A   1      37.549  29.086  31.727  1.00  0.00     0.002 A 
ATOM     42  C   UNL A   1      36.977  30.041  29.573  1.00  0.00     0.091 A 
ATOM     43  F   UNL A   1      38.628  30.120  27.855  1.00  0.00    -0.205 F 
ATOM     44  C   UNL A   1      36.611  29.660  30.874  1.00  0.00     0.022 A 
BRANCH  42  45
ATOM     45  S   UNL A   1      35.722  30.850  28.574  1.00  0.00     0.127 S 
ATOM     46  O   UNL A   1      35.108  29.710  27.894  1.00  0.00    -0.237 OA
ATOM     47  O   UNL A   1      34.877  31.479  29.590  1.00  0.00    -0.237 OA
ATOM     48  O   UNL A   1      36.435  31.786  27.717  1.00  0.00    -0.744 OA
ENDBRANCH  42  45
ENDBRANCH  24  38
BRANCH  25  49
ATOM     49  C   UNL A   1      48.274  27.480  26.079  1.00  0.00     0.023 A 
ATOM     50  C   UNL A   1      49.366  26.988  26.816  1.00  0.00     0.012 A 
ATOM     51  C   UNL A   1      48.393  27.628  24.682  1.00  0.00     0.148 A 
ATOM     52  C   UNL A   1      50.561  26.660  26.176  1.00  0.00     0.002 A 
ATOM     53  C   UNL A   1      49.565  27.244  24.044  1.00  0.00     0.091 A 
ATOM     54  F   UNL A   1      47.338  28.098  24.002  1.00  0.00    -0.205 F 
ATOM     55  C   UNL A   1      50.656  26.775  24.790  1.00  0.00     0.022 A 
BRANCH  53  56
ATOM     56  S   UNL A   1      49.728  27.218  22.255  1.00  0.00     0.127 S 
ATOM     57  O   UNL A   1      51.107  26.770  22.088  1.00  0.00    -0.237 OA
ATOM     58  O   UNL A   1      48.710  26.238  21.878  1.00  0.00    -0.237 OA
ATOM     59  O   UNL A   1      49.450  28.578  21.810  1.00  0.00    -0.744 OA
ENDBRANCH  53  56
ENDBRANCH  25  49
BRANCH  37  60
ATOM     60  C   UNL A   1      45.284  33.055  29.092  1.00  0.00     0.023 A 
ATOM     61  C   UNL A   1      45.992  33.337  30.276  1.00  0.00     0.012 A 
ATOM     62  C   UNL A   1      45.122  34.065  28.121  1.00  0.00     0.148 A 
ATOM     63  C   UNL A   1      46.520  34.609  30.496  1.00  0.00     0.002 A 
ATOM     64  C   UNL A   1      45.696  35.312  28.324  1.00  0.00     0.091 A 
ATOM     65  F   UNL A   1      44.427  33.777  27.012  1.00  0.00    -0.205 F 
ATOM     66  C   UNL A   1      46.387  35.590  29.515  1.00  0.00     0.022 A 
BRANCH  64  67
ATOM     67  S   UNL A   1      45.667  36.602  27.073  1.00  0.00     0.127 S 
ATOM     68  O   UNL A   1      44.234  36.865  26.951  1.00  0.00    -0.237 OA
ATOM     69  O   UNL A   1      46.431  37.670  27.718  1.00  0.00    -0.237 OA
ATOM     70  O   UNL A   1      46.296  36.033  25.889  1.00  0.00    -0.744 OA
ENDBRANCH  64  67
ENDBRANCH  37  60
ENDBRANCH  11  12
ENDBRANCH   4   6
ENDBRANCH   1   2
BRANCH   1  71
ATOM     71  C   UNL A   1      38.224  19.632  24.905  1.00  0.00     0.042 C 
BRANCH  71  72
ATOM     72  C   UNL A   1      37.137  20.666  24.632  1.00  0.00     0.117 C 
BRANCH  72  73
ATOM     73  N   UNL A   1      37.524  21.980  25.104  1.00  0.00    -0.356 N 
ATOM     74  C   UNL A   1      36.876  23.032  25.643  1.00  0.00     0.223 C 
ATOM     75  H   UNL A   1      38.491  22.143  25.010  1.00  0.00     0.163 HD
ATOM     76  O   UNL A   1      37.586  24.031  25.837  1.00  0.00    -0.275 OA
BRANCH  74  77
ATOM     77  C   UNL A   1      35.403  23.095  26.067  1.00  0.00     0.089 C 
ATOM     78  C   UNL A   1      34.400  21.996  25.754  1.00  0.00     0.075 C 
ATOM     79  C   UNL A   1      34.799  24.443  25.646  1.00  0.00     0.075 C 
ATOM     80  C   UNL A   1      33.834  22.035  24.331  1.00  0.00     0.263 C 
ATOM     81  C   UNL A   1      34.411  24.431  24.170  1.00  0.00     0.263 C 
ATOM     82  N   UNL A   1      33.497  23.355  23.806  1.00  0.00    -0.324 N 
ATOM     83  H   UNL A   1      33.724  23.339  22.811  1.00  0.00     0.348 HD
BRANCH  82  84
ATOM     84  C   UNL A   1      32.051  23.612  23.716  1.00  0.00     0.284 C 
ATOM     85  C   UNL A   1      31.293  23.531  25.026  1.00  0.00     0.176 C 
ATOM     86  C   UNL A   1      31.683  24.978  23.157  1.00  0.00     0.292 C 
ATOM     87  C   UNL A   1      30.853  24.931  25.289  1.00  0.00     0.240 C 
ATOM     88  N   UNL A   1      31.048  25.683  24.156  1.00  0.00    -0.245 N 
ATOM     89  O   UNL A   1      31.982  25.373  22.036  1.00  0.00    -0.267 OA
ATOM     90  O   UNL A   1      30.330  25.257  26.345  1.00  0.00    -0.274 OA
BRANCH  88  91
ATOM     91  C   UNL A   1      30.629  27.026  24.043  1.00  0.00     0.056 A 
ATOM     92  C   UNL A   1      31.401  28.068  24.574  1.00  0.00     0.031 A 
ATOM     93  C   UNL A   1      29.442  27.334  23.367  1.00  0.00     0.077 A 
ATOM     94  C   UNL A   1      31.015  29.399  24.390  1.00  0.00     0.052 A 
ATOM     95  C   UNL A   1      29.033  28.658  23.226  1.00  0.00     0.163 A 
ATOM     96  C   UNL A   1      29.823  29.691  23.733  1.00  0.00     0.161 A 
ATOM     97  O   UNL A   1      27.832  28.858  22.597  1.00  0.00    -0.486 OA
ATOM     98  O   UNL A   1      29.487  31.015  23.615  1.00  0.00    -0.486 OA
ATOM     99  C   UNL A   1      27.658  30.226  22.220  1.00  0.00     0.271 C 
ATOM    100  C   UNL A   1      28.092  31.165  23.333  1.00  0.00     0.271 C 
ENDBRANCH  88  91
ENDBRANCH  82  84
ENDBRANCH  74  77
ENDBRANCH  72  73
ENDBRANCH  71  72
ENDBRANCH   1  71
TORSDOF 15
ENDMDL
