MODEL 1
REMARK VINA RESULT:     -12.5      0.000      0.000
REMARK SMILES C[C@H](NC(=O)c1cc(Br)nn1-c1ncccc1Cl)C(=O)NCCCNC(=O)c1ccc(-c2c3nc(c(-c4cccc(S(=O)(=O)[O-])c4F)c4ccc([nH]4)c(-c4cccc(S(=O)(=O)[O-])c4F)c4nc(c(-c5cccc(S(=O)(=O)[O-])c5F)c5ccc2[nH]5)C=C4)C=C3)cc1
REMARK SMILES IDX 23 1 22 2 21 3 19 4 20 5 2 7 1 8 3 9 4 10 5 12 6 13 7 14
REMARK SMILES IDX 11 15 8 16 10 17 9 18 12 19 13 20 17 21 14 22 16 23 18 24
REMARK SMILES IDX 15 25 24 26 25 27 26 28 27 30 28 31 29 32 90 33 30 34 89 35
REMARK SMILES IDX 31 36 32 37 33 38 83 39 34 40 88 41 82 42 84 43 35 44 87 45
REMARK SMILES IDX 81 46 80 47 36 49 68 50 48 51 67 52 49 53 52 54 66 55 85 56
REMARK SMILES IDX 50 57 51 58 65 60 86 61 53 62 37 63 38 64 46 65 39 66 41 67
REMARK SMILES IDX 47 68 40 69 42 70 43 71 44 72 45 73 69 74 70 75 78 76 71 77
REMARK SMILES IDX 73 78 79 79 72 80 74 81 75 82 76 83 77 84 54 85 55 86 63 87
REMARK SMILES IDX 56 88 58 89 64 90 57 91 59 92 60 93 61 94 62 95
REMARK H PARENT 21 6 3 11 25 29 84 48 52 59
REMARK Flexibility Score: inf
ROOT
ATOM      1  C   UNL A   1      38.122  19.667  25.015  1.00  0.00     0.042 C 
ENDROOT
BRANCH   1   2
ATOM      2  C   UNL A   1      37.320  20.794  24.372  1.00  0.00     0.117 C 
BRANCH   2   3
ATOM      3  N   UNL A   1      37.780  22.133  24.721  1.00  0.00    -0.354 N 
ATOM      4  C   UNL A   1      37.083  23.185  25.253  1.00  0.00     0.242 C 
ATOM      5  O   UNL A   1      37.715  24.054  25.855  1.00  0.00    -0.273 OA
ATOM      6  H   UNL A   1      38.733  22.307  24.548  1.00  0.00     0.163 HD
BRANCH   4   7
ATOM      7  C   UNL A   1      35.546  23.181  25.272  1.00  0.00     0.168 C 
ATOM      8  C   UNL A   1      35.078  24.610  24.982  1.00  0.00     0.041 C 
BRANCH   7   9
ATOM      9  N   UNL A   1      35.073  22.597  26.530  1.00  0.00    -0.339 N 
ATOM     10  C   UNL A   1      34.181  21.595  26.792  1.00  0.00     0.270 C 
ATOM     11  H   UNL A   1      35.471  23.001  27.335  1.00  0.00     0.164 HD
ATOM     12  O   UNL A   1      33.899  21.362  27.958  1.00  0.00    -0.267 OA
BRANCH  10  13
ATOM     13  C   UNL A   1      33.574  20.903  25.689  1.00  0.00     0.135 A 
ATOM     14  C   UNL A   1      33.846  19.646  25.180  1.00  0.00     0.072 A 
ATOM     15  N   UNL A   1      32.459  21.358  24.998  1.00  0.00    -0.207 N 
ATOM     16  C   UNL A   1      32.924  19.468  24.148  1.00  0.00     0.129 A 
ATOM     17  N   UNL A   1      32.058  20.469  24.043  1.00  0.00    -0.159 NA
ATOM     18  Br  UNL A   1      32.921  17.965  23.024  1.00  0.00    -0.027 Br
BRANCH  15  19
ATOM     19  C   UNL A   1      31.706  22.553  25.210  1.00  0.00     0.173 A 
ATOM     20  N   UNL A   1      30.949  22.593  26.347  1.00  0.00    -0.236 NA
ATOM     21  C   UNL A   1      31.769  23.622  24.312  1.00  0.00     0.085 A 
ATOM     22  C   UNL A   1      30.330  23.754  26.642  1.00  0.00     0.113 A 
ATOM     23  C   UNL A   1      31.099  24.801  24.646  1.00  0.00     0.026 A 
ATOM     24  Cl  UNL A   1      32.460  23.542  22.735  1.00  0.00    -0.080 Cl
ATOM     25  C   UNL A   1      30.384  24.878  25.838  1.00  0.00     0.022 A 
ENDBRANCH  15  19
ENDBRANCH  10  13
ENDBRANCH   7   9
ENDBRANCH   4   7
ENDBRANCH   2   3
ENDBRANCH   1   2
BRANCH   1  26
ATOM     26  C   UNL A   1      39.297  20.174  25.829  1.00  0.00     0.118 C 
BRANCH  26  27
ATOM     27  N   UNL A   1      40.367  19.177  25.998  1.00  0.00    -0.352 N 
ATOM     28  C   UNL A   1      41.723  19.396  26.197  1.00  0.00     0.251 C 
ATOM     29  H   UNL A   1      40.085  18.235  25.964  1.00  0.00     0.163 HD
ATOM     30  O   UNL A   1      42.543  18.508  26.005  1.00  0.00    -0.269 OA
BRANCH  28  31
ATOM     31  C   UNL A   1      42.150  20.727  26.662  1.00  0.00     0.039 A 
ATOM     32  C   UNL A   1      42.763  21.672  25.833  1.00  0.00     0.014 A 
ATOM     33  C   UNL A   1      41.842  21.033  27.979  1.00  0.00     0.014 A 
ATOM     34  C   UNL A   1      42.989  22.954  26.336  1.00  0.00     0.010 A 
ATOM     35  C   UNL A   1      41.798  22.337  28.360  1.00  0.00     0.010 A 
ATOM     36  C   UNL A   1      42.488  23.272  27.603  1.00  0.00    -0.014 A 
BRANCH  36  37
ATOM     37  C   UNL A   1      42.591  24.590  28.210  1.00  0.00     0.031 A 
ATOM     38  C   UNL A   1      41.409  25.456  27.987  1.00  0.00     0.074 A 
ATOM     39  C   UNL A   1      43.516  24.817  29.173  1.00  0.00     0.049 A 
ATOM     40  N   UNL A   1      41.346  26.546  27.295  1.00  0.00    -0.248 NA
ATOM     41  C   UNL A   1      40.097  24.968  28.445  1.00  0.00     0.031 C 
ATOM     42  C   UNL A   1      44.493  23.857  29.720  1.00  0.00     0.029 A 
ATOM     43  N   UNL A   1      43.653  25.880  30.010  1.00  0.00    -0.354 N 
ATOM     44  C   UNL A   1      40.045  27.012  27.477  1.00  0.00     0.074 A 
ATOM     45  C   UNL A   1      39.277  25.885  27.930  1.00  0.00     0.031 C 
ATOM     46  C   UNL A   1      44.910  24.275  30.933  1.00  0.00     0.029 A 
ATOM     47  C   UNL A   1      44.378  25.601  31.169  1.00  0.00     0.049 A 
ATOM     48  H   UNL A   1      43.274  26.767  29.816  1.00  0.00     0.167 HD
ATOM     49  C   UNL A   1      39.782  28.346  27.565  1.00  0.00     0.034 A 
ATOM     50  C   UNL A   1      44.491  26.384  32.269  1.00  0.00     0.034 A 
ATOM     51  C   UNL A   1      40.929  29.126  27.168  1.00  0.00     0.049 A 
ATOM     52  C   UNL A   1      44.098  27.752  31.864  1.00  0.00     0.074 A 
ATOM     53  C   UNL A   1      41.704  29.228  26.031  1.00  0.00     0.029 A 
ATOM     54  N   UNL A   1      41.669  29.670  28.190  1.00  0.00    -0.354 N 
ATOM     55  N   UNL A   1      44.774  28.470  31.012  1.00  0.00    -0.248 NA
ATOM     56  C   UNL A   1      42.716  28.156  32.066  1.00  0.00     0.031 C 
ATOM     57  C   UNL A   1      43.035  29.419  26.510  1.00  0.00     0.029 A 
ATOM     58  C   UNL A   1      42.995  29.499  27.903  1.00  0.00     0.049 A 
ATOM     59  H   UNL A   1      41.306  30.109  28.993  1.00  0.00     0.167 HD
ATOM     60  C   UNL A   1      43.800  29.081  30.234  1.00  0.00     0.074 A 
ATOM     61  C   UNL A   1      42.569  28.967  31.014  1.00  0.00     0.031 C 
ATOM     62  C   UNL A   1      44.024  29.337  28.911  1.00  0.00     0.034 A 
BRANCH  49  63
ATOM     63  C   UNL A   1      38.670  28.974  28.386  1.00  0.00     0.023 A 
ATOM     64  C   UNL A   1      37.789  29.843  27.702  1.00  0.00     0.012 A 
ATOM     65  C   UNL A   1      38.602  28.987  29.798  1.00  0.00     0.148 A 
ATOM     66  C   UNL A   1      36.935  30.717  28.384  1.00  0.00     0.002 A 
ATOM     67  C   UNL A   1      37.692  29.796  30.471  1.00  0.00     0.091 A 
ATOM     68  F   UNL A   1      39.505  28.326  30.526  1.00  0.00    -0.205 F 
ATOM     69  C   UNL A   1      36.881  30.689  29.770  1.00  0.00     0.022 A 
BRANCH  67  70
ATOM     70  S   UNL A   1      37.548  29.760  32.263  1.00  0.00     0.127 S 
ATOM     71  O   UNL A   1      37.361  28.333  32.511  1.00  0.00    -0.237 OA
ATOM     72  O   UNL A   1      38.844  30.298  32.678  1.00  0.00    -0.237 OA
ATOM     73  O   UNL A   1      36.417  30.621  32.581  1.00  0.00    -0.744 OA
ENDBRANCH  67  70
ENDBRANCH  49  63
BRANCH  50  74
ATOM     74  C   UNL A   1      44.697  26.014  33.687  1.00  0.00     0.023 A 
ATOM     75  C   UNL A   1      46.003  25.862  34.191  1.00  0.00     0.012 A 
ATOM     76  C   UNL A   1      43.629  26.080  34.609  1.00  0.00     0.148 A 
ATOM     77  C   UNL A   1      46.242  25.807  35.571  1.00  0.00     0.002 A 
ATOM     78  C   UNL A   1      43.870  26.022  35.979  1.00  0.00     0.091 A 
ATOM     79  F   UNL A   1      42.390  26.288  34.141  1.00  0.00    -0.205 F 
ATOM     80  C   UNL A   1      45.177  25.897  36.464  1.00  0.00     0.022 A 
BRANCH  78  81
ATOM     81  S   UNL A   1      42.554  26.169  37.195  1.00  0.00     0.127 S 
ATOM     82  O   UNL A   1      41.956  27.455  36.837  1.00  0.00    -0.237 OA
ATOM     83  O   UNL A   1      41.729  25.003  36.890  1.00  0.00    -0.237 OA
ATOM     84  O   UNL A   1      43.213  26.149  38.495  1.00  0.00    -0.744 OA
ENDBRANCH  78  81
ENDBRANCH  50  74
BRANCH  62  85
ATOM     85  C   UNL A   1      45.438  29.201  28.401  1.00  0.00     0.023 A 
ATOM     86  C   UNL A   1      45.979  27.970  27.972  1.00  0.00     0.012 A 
ATOM     87  C   UNL A   1      46.180  30.374  28.191  1.00  0.00     0.148 A 
ATOM     88  C   UNL A   1      47.239  27.908  27.370  1.00  0.00     0.002 A 
ATOM     89  C   UNL A   1      47.411  30.316  27.550  1.00  0.00     0.091 A 
ATOM     90  F   UNL A   1      45.653  31.539  28.600  1.00  0.00    -0.205 F 
ATOM     91  C   UNL A   1      47.950  29.084  27.146  1.00  0.00     0.022 A 
BRANCH  89  92
ATOM     92  S   UNL A   1      48.309  31.807  27.118  1.00  0.00     0.127 S 
ATOM     93  O   UNL A   1      47.395  32.451  26.176  1.00  0.00    -0.237 OA
ATOM     94  O   UNL A   1      48.435  32.485  28.409  1.00  0.00    -0.237 OA
ATOM     95  O   UNL A   1      49.578  31.361  26.556  1.00  0.00    -0.744 OA
ENDBRANCH  89  92
ENDBRANCH  62  85
ENDBRANCH  36  37
ENDBRANCH  28  31
ENDBRANCH  26  27
ENDBRANCH   1  26
TORSDOF 16
ENDMDL
MODEL 2
REMARK VINA RESULT:     -12.4      4.924      9.722
REMARK SMILES C[C@H](NC(=O)c1cc(Br)nn1-c1ncccc1Cl)C(=O)NCCCNC(=O)c1ccc(-c2c3nc(c(-c4cccc(S(=O)(=O)[O-])c4F)c4ccc([nH]4)c(-c4cccc(S(=O)(=O)[O-])c4F)c4nc(c(-c5cccc(S(=O)(=O)[O-])c5F)c5ccc2[nH]5)C=C4)C=C3)cc1
REMARK SMILES IDX 23 1 22 2 21 3 19 4 20 5 2 7 1 8 3 9 4 10 5 12 6 13 7 14
REMARK SMILES IDX 11 15 8 16 10 17 9 18 12 19 13 20 17 21 14 22 16 23 18 24
REMARK SMILES IDX 15 25 24 26 25 27 26 28 27 30 28 31 29 32 90 33 30 34 89 35
REMARK SMILES IDX 31 36 32 37 33 38 83 39 34 40 88 41 82 42 84 43 35 44 87 45
REMARK SMILES IDX 81 46 80 47 36 49 68 50 48 51 67 52 49 53 52 54 66 55 85 56
REMARK SMILES IDX 50 57 51 58 65 60 86 61 53 62 37 63 38 64 46 65 39 66 41 67
REMARK SMILES IDX 47 68 40 69 42 70 43 71 44 72 45 73 69 74 70 75 78 76 71 77
REMARK SMILES IDX 73 78 79 79 72 80 74 81 75 82 76 83 77 84 54 85 55 86 63 87
REMARK SMILES IDX 56 88 58 89 64 90 57 91 59 92 60 93 61 94 62 95
REMARK H PARENT 21 6 3 11 25 29 84 48 52 59
REMARK Flexibility Score: inf
ROOT
ATOM      1  C   UNL A   1      31.381  32.030  26.454  1.00  0.00     0.042 C 
ENDROOT
BRANCH   1   2
ATOM      2  C   UNL A   1      31.470  30.512  26.330  1.00  0.00     0.117 C 
BRANCH   2   3
ATOM      3  N   UNL A   1      32.519  29.904  27.138  1.00  0.00    -0.354 N 
ATOM      4  C   UNL A   1      33.322  28.829  26.863  1.00  0.00     0.242 C 
ATOM      5  O   UNL A   1      34.395  28.739  27.460  1.00  0.00    -0.273 OA
ATOM      6  H   UNL A   1      32.673  30.329  28.013  1.00  0.00     0.163 HD
BRANCH   4   7
ATOM      7  C   UNL A   1      32.988  27.874  25.707  1.00  0.00     0.168 C 
ATOM      8  C   UNL A   1      33.218  26.445  26.207  1.00  0.00     0.041 C 
BRANCH   7   9
ATOM      9  N   UNL A   1      33.747  28.264  24.515  1.00  0.00    -0.339 N 
ATOM     10  C   UNL A   1      33.356  28.544  23.235  1.00  0.00     0.270 C 
ATOM     11  H   UNL A   1      34.718  28.337  24.664  1.00  0.00     0.164 HD
ATOM     12  O   UNL A   1      34.222  28.761  22.401  1.00  0.00    -0.267 OA
BRANCH  10  13
ATOM     13  C   UNL A   1      31.956  28.513  22.917  1.00  0.00     0.135 A 
ATOM     14  C   UNL A   1      31.070  29.560  22.738  1.00  0.00     0.072 A 
ATOM     15  N   UNL A   1      31.253  27.361  22.588  1.00  0.00    -0.207 N 
ATOM     16  C   UNL A   1      29.860  28.954  22.398  1.00  0.00     0.129 A 
ATOM     17  N   UNL A   1      29.954  27.636  22.267  1.00  0.00    -0.159 NA
ATOM     18  Br  UNL A   1      28.265  29.913  22.155  1.00  0.00    -0.027 Br
BRANCH  15  19
ATOM     19  C   UNL A   1      31.733  26.020  22.500  1.00  0.00     0.173 A 
ATOM     20  N   UNL A   1      32.545  25.739  21.437  1.00  0.00    -0.236 NA
ATOM     21  C   UNL A   1      31.405  25.065  23.466  1.00  0.00     0.085 A 
ATOM     22  C   UNL A   1      33.118  24.520  21.396  1.00  0.00     0.113 A 
ATOM     23  C   UNL A   1      32.007  23.807  23.378  1.00  0.00     0.026 A 
ATOM     24  Cl  UNL A   1      30.176  25.255  24.659  1.00  0.00    -0.080 Cl
ATOM     25  C   UNL A   1      32.893  23.535  22.340  1.00  0.00     0.022 A 
ENDBRANCH  15  19
ENDBRANCH  10  13
ENDBRANCH   7   9
ENDBRANCH   4   7
ENDBRANCH   2   3
ENDBRANCH   1   2
BRANCH   1  26
ATOM     26  C   UNL A   1      32.513  32.619  27.275  1.00  0.00     0.118 C 
BRANCH  26  27
ATOM     27  N   UNL A   1      32.317  34.039  27.611  1.00  0.00    -0.352 N 
ATOM     28  C   UNL A   1      32.971  34.792  28.575  1.00  0.00     0.251 C 
ATOM     29  H   UNL A   1      31.635  34.514  27.083  1.00  0.00     0.163 HD
ATOM     30  O   UNL A   1      32.506  35.853  28.972  1.00  0.00    -0.269 OA
BRANCH  28  31
ATOM     31  C   UNL A   1      34.249  34.286  29.102  1.00  0.00     0.039 A 
ATOM     32  C   UNL A   1      34.385  33.699  30.365  1.00  0.00     0.014 A 
ATOM     33  C   UNL A   1      35.329  34.357  28.235  1.00  0.00     0.014 A 
ATOM     34  C   UNL A   1      35.608  33.119  30.703  1.00  0.00     0.010 A 
ATOM     35  C   UNL A   1      36.402  33.551  28.449  1.00  0.00     0.010 A 
ATOM     36  C   UNL A   1      36.605  33.045  29.725  1.00  0.00    -0.014 A 
BRANCH  36  37
ATOM     37  C   UNL A   1      37.894  32.401  29.926  1.00  0.00     0.031 A 
ATOM     38  C   UNL A   1      37.952  30.997  29.453  1.00  0.00     0.074 A 
ATOM     39  C   UNL A   1      38.991  33.154  30.175  1.00  0.00     0.049 A 
ATOM     40  N   UNL A   1      38.090  29.927  30.165  1.00  0.00    -0.248 NA
ATOM     41  C   UNL A   1      37.652  30.731  28.036  1.00  0.00     0.031 C 
ATOM     42  C   UNL A   1      39.063  34.624  30.281  1.00  0.00     0.029 A 
ATOM     43  N   UNL A   1      40.303  32.798  30.187  1.00  0.00    -0.354 N 
ATOM     44  C   UNL A   1      38.174  28.888  29.240  1.00  0.00     0.074 A 
ATOM     45  C   UNL A   1      37.618  29.398  28.017  1.00  0.00     0.031 C 
ATOM     46  C   UNL A   1      40.332  35.033  30.074  1.00  0.00     0.029 A 
ATOM     47  C   UNL A   1      41.183  33.864  30.000  1.00  0.00     0.049 A 
ATOM     48  H   UNL A   1      40.605  31.869  30.314  1.00  0.00     0.167 HD
ATOM     49  C   UNL A   1      38.990  27.818  29.455  1.00  0.00     0.034 A 
ATOM     50  C   UNL A   1      42.514  33.790  29.751  1.00  0.00     0.034 A 
ATOM     51  C   UNL A   1      39.472  27.803  30.815  1.00  0.00     0.049 A 
ATOM     52  C   UNL A   1      42.950  32.434  30.151  1.00  0.00     0.074 A 
ATOM     53  C   UNL A   1      38.890  27.766  32.065  1.00  0.00     0.029 A 
ATOM     54  N   UNL A   1      40.760  28.243  31.002  1.00  0.00    -0.354 N 
ATOM     55  N   UNL A   1      42.933  32.009  31.384  1.00  0.00    -0.248 NA
ATOM     56  C   UNL A   1      42.989  31.398  29.132  1.00  0.00     0.031 C 
ATOM     57  C   UNL A   1      39.710  28.605  32.877  1.00  0.00     0.029 A 
ATOM     58  C   UNL A   1      40.787  29.050  32.106  1.00  0.00     0.049 A 
ATOM     59  H   UNL A   1      41.534  28.017  30.435  1.00  0.00     0.167 HD
ATOM     60  C   UNL A   1      42.475  30.702  31.286  1.00  0.00     0.074 A 
ATOM     61  C   UNL A   1      42.666  30.341  29.883  1.00  0.00     0.031 C 
ATOM     62  C   UNL A   1      41.706  30.157  32.275  1.00  0.00     0.034 A 
BRANCH  49  63
ATOM     63  C   UNL A   1      39.699  27.018  28.377  1.00  0.00     0.023 A 
ATOM     64  C   UNL A   1      39.517  25.616  28.406  1.00  0.00     0.012 A 
ATOM     65  C   UNL A   1      40.721  27.507  27.533  1.00  0.00     0.148 A 
ATOM     66  C   UNL A   1      40.346  24.749  27.685  1.00  0.00     0.002 A 
ATOM     67  C   UNL A   1      41.488  26.647  26.753  1.00  0.00     0.091 A 
ATOM     68  F   UNL A   1      41.071  28.795  27.569  1.00  0.00    -0.205 F 
ATOM     69  C   UNL A   1      41.328  25.265  26.851  1.00  0.00     0.022 A 
BRANCH  67  70
ATOM     70  S   UNL A   1      42.739  27.269  25.620  1.00  0.00     0.127 S 
ATOM     71  O   UNL A   1      43.739  27.790  26.548  1.00  0.00    -0.237 OA
ATOM     72  O   UNL A   1      43.126  26.053  24.905  1.00  0.00    -0.237 OA
ATOM     73  O   UNL A   1      42.057  28.255  24.791  1.00  0.00    -0.744 OA
ENDBRANCH  67  70
ENDBRANCH  49  63
BRANCH  50  74
ATOM     74  C   UNL A   1      43.396  34.708  28.997  1.00  0.00     0.023 A 
ATOM     75  C   UNL A   1      43.567  34.536  27.609  1.00  0.00     0.012 A 
ATOM     76  C   UNL A   1      43.849  35.910  29.581  1.00  0.00     0.148 A 
ATOM     77  C   UNL A   1      44.144  35.542  26.823  1.00  0.00     0.002 A 
ATOM     78  C   UNL A   1      44.425  36.907  28.798  1.00  0.00     0.091 A 
ATOM     79  F   UNL A   1      43.634  36.108  30.889  1.00  0.00    -0.205 F 
ATOM     80  C   UNL A   1      44.563  36.730  27.416  1.00  0.00     0.022 A 
BRANCH  78  81
ATOM     81  S   UNL A   1      44.957  38.482  29.481  1.00  0.00     0.127 S 
ATOM     82  O   UNL A   1      45.531  39.141  28.308  1.00  0.00    -0.237 OA
ATOM     83  O   UNL A   1      43.694  39.051  29.946  1.00  0.00    -0.237 OA
ATOM     84  O   UNL A   1      45.920  38.156  30.525  1.00  0.00    -0.744 OA
ENDBRANCH  78  81
ENDBRANCH  50  74
BRANCH  62  85
ATOM     85  C   UNL A   1      41.610  30.907  33.582  1.00  0.00     0.023 A 
ATOM     86  C   UNL A   1      42.627  30.866  34.559  1.00  0.00     0.012 A 
ATOM     87  C   UNL A   1      40.545  31.805  33.752  1.00  0.00     0.148 A 
ATOM     88  C   UNL A   1      42.571  31.686  35.690  1.00  0.00     0.002 A 
ATOM     89  C   UNL A   1      40.515  32.652  34.852  1.00  0.00     0.091 A 
ATOM     90  F   UNL A   1      39.587  31.835  32.813  1.00  0.00    -0.205 F 
ATOM     91  C   UNL A   1      41.521  32.590  35.830  1.00  0.00     0.022 A 
BRANCH  89  92
ATOM     92  S   UNL A   1      39.262  33.923  35.017  1.00  0.00     0.127 S 
ATOM     93  O   UNL A   1      39.656  34.580  36.261  1.00  0.00    -0.237 OA
ATOM     94  O   UNL A   1      39.466  34.726  33.810  1.00  0.00    -0.237 OA
ATOM     95  O   UNL A   1      37.984  33.222  35.053  1.00  0.00    -0.744 OA
ENDBRANCH  89  92
ENDBRANCH  62  85
ENDBRANCH  36  37
ENDBRANCH  28  31
ENDBRANCH  26  27
ENDBRANCH   1  26
TORSDOF 16
ENDMDL
MODEL 3
REMARK VINA RESULT:     -12.4      2.696      3.155
REMARK SMILES C[C@H](NC(=O)c1cc(Br)nn1-c1ncccc1Cl)C(=O)NCCCNC(=O)c1ccc(-c2c3nc(c(-c4cccc(S(=O)(=O)[O-])c4F)c4ccc([nH]4)c(-c4cccc(S(=O)(=O)[O-])c4F)c4nc(c(-c5cccc(S(=O)(=O)[O-])c5F)c5ccc2[nH]5)C=C4)C=C3)cc1
REMARK SMILES IDX 23 1 22 2 21 3 19 4 20 5 2 7 1 8 3 9 4 10 5 12 6 13 7 14
REMARK SMILES IDX 11 15 8 16 10 17 9 18 12 19 13 20 17 21 14 22 16 23 18 24
REMARK SMILES IDX 15 25 24 26 25 27 26 28 27 30 28 31 29 32 90 33 30 34 89 35
REMARK SMILES IDX 31 36 32 37 33 38 83 39 34 40 88 41 82 42 84 43 35 44 87 45
REMARK SMILES IDX 81 46 80 47 36 49 68 50 48 51 67 52 49 53 52 54 66 55 85 56
REMARK SMILES IDX 50 57 51 58 65 60 86 61 53 62 37 63 38 64 46 65 39 66 41 67
REMARK SMILES IDX 47 68 40 69 42 70 43 71 44 72 45 73 69 74 70 75 78 76 71 77
REMARK SMILES IDX 73 78 79 79 72 80 74 81 75 82 76 83 77 84 54 85 55 86 63 87
REMARK SMILES IDX 56 88 58 89 64 90 57 91 59 92 60 93 61 94 62 95
REMARK H PARENT 21 6 3 11 25 29 84 48 52 59
REMARK Flexibility Score: inf
ROOT
ATOM      1  C   UNL A   1      37.607  19.735  25.018  1.00  0.00     0.042 C 
ENDROOT
BRANCH   1   2
ATOM      2  C   UNL A   1      36.502  20.783  25.116  1.00  0.00     0.117 C 
BRANCH   2   3
ATOM      3  N   UNL A   1      36.333  21.589  23.913  1.00  0.00    -0.354 N 
ATOM      4  C   UNL A   1      36.205  22.947  23.782  1.00  0.00     0.242 C 
ATOM      5  O   UNL A   1      36.494  23.455  22.698  1.00  0.00    -0.273 OA
ATOM      6  H   UNL A   1      36.306  21.083  23.070  1.00  0.00     0.163 HD
BRANCH   4   7
ATOM      7  C   UNL A   1      35.901  23.829  25.003  1.00  0.00     0.168 C 
ATOM      8  C   UNL A   1      37.117  23.768  25.931  1.00  0.00     0.041 C 
BRANCH   7   9
ATOM      9  N   UNL A   1      34.624  23.422  25.596  1.00  0.00    -0.339 N 
ATOM     10  C   UNL A   1      33.330  23.724  25.273  1.00  0.00     0.270 C 
ATOM     11  H   UNL A   1      34.715  22.821  26.370  1.00  0.00     0.164 HD
ATOM     12  O   UNL A   1      32.441  23.311  26.002  1.00  0.00    -0.267 OA
BRANCH  10  13
ATOM     13  C   UNL A   1      33.079  24.558  24.131  1.00  0.00     0.135 A 
ATOM     14  C   UNL A   1      32.891  24.204  22.806  1.00  0.00     0.072 A 
ATOM     15  N   UNL A   1      32.838  25.924  24.196  1.00  0.00    -0.207 N 
ATOM     16  C   UNL A   1      32.636  25.407  22.146  1.00  0.00     0.129 A 
ATOM     17  N   UNL A   1      32.564  26.449  22.965  1.00  0.00    -0.159 NA
ATOM     18  Br  UNL A   1      32.423  25.529  20.285  1.00  0.00    -0.027 Br
BRANCH  15  19
ATOM     19  C   UNL A   1      32.792  26.766  25.347  1.00  0.00     0.173 A 
ATOM     20  N   UNL A   1      33.963  27.384  25.688  1.00  0.00    -0.236 NA
ATOM     21  C   UNL A   1      31.606  26.959  26.062  1.00  0.00     0.085 A 
ATOM     22  C   UNL A   1      33.923  28.284  26.690  1.00  0.00     0.113 A 
ATOM     23  C   UNL A   1      31.611  27.888  27.105  1.00  0.00     0.026 A 
ATOM     24  Cl  UNL A   1      30.180  26.009  25.875  1.00  0.00    -0.080 Cl
ATOM     25  C   UNL A   1      32.781  28.577  27.413  1.00  0.00     0.022 A 
ENDBRANCH  15  19
ENDBRANCH  10  13
ENDBRANCH   7   9
ENDBRANCH   4   7
ENDBRANCH   2   3
ENDBRANCH   1   2
BRANCH   1  26
ATOM     26  C   UNL A   1      38.921  20.211  25.607  1.00  0.00     0.118 C 
BRANCH  26  27
ATOM     27  N   UNL A   1      39.919  19.139  25.757  1.00  0.00    -0.352 N 
ATOM     28  C   UNL A   1      41.282  19.259  25.988  1.00  0.00     0.251 C 
ATOM     29  H   UNL A   1      39.575  18.220  25.682  1.00  0.00     0.163 HD
ATOM     30  O   UNL A   1      42.044  18.325  25.777  1.00  0.00    -0.269 OA
BRANCH  28  31
ATOM     31  C   UNL A   1      41.786  20.541  26.510  1.00  0.00     0.039 A 
ATOM     32  C   UNL A   1      42.480  21.471  25.729  1.00  0.00     0.014 A 
ATOM     33  C   UNL A   1      41.472  20.819  27.832  1.00  0.00     0.014 A 
ATOM     34  C   UNL A   1      42.780  22.716  26.284  1.00  0.00     0.010 A 
ATOM     35  C   UNL A   1      41.506  22.108  28.260  1.00  0.00     0.010 A 
ATOM     36  C   UNL A   1      42.274  23.022  27.552  1.00  0.00    -0.014 A 
BRANCH  36  37
ATOM     37  C   UNL A   1      42.452  24.307  28.210  1.00  0.00     0.031 A 
ATOM     38  C   UNL A   1      41.324  25.250  28.015  1.00  0.00     0.074 A 
ATOM     39  C   UNL A   1      43.383  24.442  29.184  1.00  0.00     0.049 A 
ATOM     40  N   UNL A   1      41.331  26.367  27.366  1.00  0.00    -0.248 NA
ATOM     41  C   UNL A   1      39.983  24.824  28.450  1.00  0.00     0.031 C 
ATOM     42  C   UNL A   1      44.298  23.404  29.697  1.00  0.00     0.029 A 
ATOM     43  N   UNL A   1      43.578  25.461  30.062  1.00  0.00    -0.354 N 
ATOM     44  C   UNL A   1      40.059  26.903  27.561  1.00  0.00     0.074 A 
ATOM     45  C   UNL A   1      39.223  25.807  27.967  1.00  0.00     0.031 C 
ATOM     46  C   UNL A   1      44.732  23.750  30.927  1.00  0.00     0.029 A 
ATOM     47  C   UNL A   1      44.278  25.095  31.211  1.00  0.00     0.049 A 
ATOM     48  H   UNL A   1      43.253  26.376  29.900  1.00  0.00     0.167 HD
ATOM     49  C   UNL A   1      39.875  28.246  27.699  1.00  0.00     0.034 A 
ATOM     50  C   UNL A   1      44.431  25.828  32.341  1.00  0.00     0.034 A 
ATOM     51  C   UNL A   1      41.069  28.970  27.336  1.00  0.00     0.049 A 
ATOM     52  C   UNL A   1      44.122  27.231  31.988  1.00  0.00     0.074 A 
ATOM     53  C   UNL A   1      41.855  29.069  26.207  1.00  0.00     0.029 A 
ATOM     54  N   UNL A   1      41.834  29.430  28.381  1.00  0.00    -0.354 N 
ATOM     55  N   UNL A   1      44.845  27.939  31.166  1.00  0.00    -0.248 NA
ATOM     56  C   UNL A   1      42.766  27.709  32.200  1.00  0.00     0.031 C 
ATOM     57  C   UNL A   1      43.192  29.162  26.697  1.00  0.00     0.029 A 
ATOM     58  C   UNL A   1      43.149  29.191  28.093  1.00  0.00     0.049 A 
ATOM     59  H   UNL A   1      41.493  29.859  29.199  1.00  0.00     0.167 HD
ATOM     60  C   UNL A   1      43.914  28.637  30.409  1.00  0.00     0.074 A 
ATOM     61  C   UNL A   1      42.674  28.567  31.180  1.00  0.00     0.031 C 
ATOM     62  C   UNL A   1      44.161  28.930  29.098  1.00  0.00     0.034 A 
BRANCH  49  63
ATOM     63  C   UNL A   1      38.798  28.908  28.540  1.00  0.00     0.023 A 
ATOM     64  C   UNL A   1      37.960  29.837  27.881  1.00  0.00     0.012 A 
ATOM     65  C   UNL A   1      38.734  28.887  29.951  1.00  0.00     0.148 A 
ATOM     66  C   UNL A   1      37.153  30.734  28.588  1.00  0.00     0.002 A 
ATOM     67  C   UNL A   1      37.866  29.724  30.648  1.00  0.00     0.091 A 
ATOM     68  F   UNL A   1      39.604  28.164  30.659  1.00  0.00    -0.205 F 
ATOM     69  C   UNL A   1      37.100  30.673  29.973  1.00  0.00     0.022 A 
BRANCH  67  70
ATOM     70  S   UNL A   1      37.725  29.648  32.439  1.00  0.00     0.127 S 
ATOM     71  O   UNL A   1      39.022  30.174  32.856  1.00  0.00    -0.237 OA
ATOM     72  O   UNL A   1      36.586  30.533  32.687  1.00  0.00    -0.237 OA
ATOM     73  O   UNL A   1      37.468  28.248  32.751  1.00  0.00    -0.744 OA
ENDBRANCH  67  70
ENDBRANCH  49  63
BRANCH  50  74
ATOM     74  C   UNL A   1      44.606  25.393  33.745  1.00  0.00     0.023 A 
ATOM     75  C   UNL A   1      43.481  25.246  34.581  1.00  0.00     0.012 A 
ATOM     76  C   UNL A   1      45.837  24.858  34.183  1.00  0.00     0.148 A 
ATOM     77  C   UNL A   1      43.573  24.563  35.800  1.00  0.00     0.002 A 
ATOM     78  C   UNL A   1      45.926  24.182  35.397  1.00  0.00     0.091 A 
ATOM     79  F   UNL A   1      46.897  24.937  33.366  1.00  0.00    -0.205 F 
ATOM     80  C   UNL A   1      44.792  24.023  36.203  1.00  0.00     0.022 A 
BRANCH  78  81
ATOM     81  S   UNL A   1      47.452  23.425  35.969  1.00  0.00     0.127 S 
ATOM     82  O   UNL A   1      46.996  22.674  37.139  1.00  0.00    -0.237 OA
ATOM     83  O   UNL A   1      47.829  22.602  34.822  1.00  0.00    -0.237 OA
ATOM     84  O   UNL A   1      48.353  24.530  36.271  1.00  0.00    -0.744 OA
ENDBRANCH  78  81
ENDBRANCH  50  74
BRANCH  62  85
ATOM     85  C   UNL A   1      45.567  28.729  28.587  1.00  0.00     0.023 A 
ATOM     86  C   UNL A   1      46.609  29.645  28.845  1.00  0.00     0.012 A 
ATOM     87  C   UNL A   1      45.880  27.505  27.977  1.00  0.00     0.148 A 
ATOM     88  C   UNL A   1      47.928  29.356  28.484  1.00  0.00     0.002 A 
ATOM     89  C   UNL A   1      47.198  27.199  27.661  1.00  0.00     0.091 A 
ATOM     90  F   UNL A   1      44.880  26.642  27.740  1.00  0.00    -0.205 F 
ATOM     91  C   UNL A   1      48.225  28.125  27.903  1.00  0.00     0.022 A 
BRANCH  89  92
ATOM     92  S   UNL A   1      47.656  25.583  27.034  1.00  0.00     0.127 S 
ATOM     93  O   UNL A   1      47.083  25.604  25.690  1.00  0.00    -0.237 OA
ATOM     94  O   UNL A   1      49.118  25.630  27.077  1.00  0.00    -0.237 OA
ATOM     95  O   UNL A   1      47.067  24.616  27.954  1.00  0.00    -0.744 OA
ENDBRANCH  89  92
ENDBRANCH  62  85
ENDBRANCH  36  37
ENDBRANCH  28  31
ENDBRANCH  26  27
ENDBRANCH   1  26
TORSDOF 16
ENDMDL
