MODEL 1
REMARK VINA RESULT:     -11.6      0.000      0.000
REMARK SMILES CC[C@@]1(CO)CCCN(c2nc(-c3ccc(C)s3)ccc2C(=O)NCCCNC(=O)c2ccc(-c3c4nc(c(-c5cccc(S(=O)(=O)[O-])c5F)c5ccc([nH]5)c(-c5cccc(S(=O)(=O)[O-])c5F)c5nc(c(-c6cccc(S(=O)(=O)[O-])c6F)c6ccc3[nH]6)C=C5)C=C4)cc2)C1
REMARK SMILES IDX 26 1 25 2 24 3 22 4 23 5 21 7 10 8 11 9 12 10 20 11 19 12
REMARK SMILES IDX 9 13 3 14 6 15 94 16 7 17 8 18 2 19 1 20 4 21 5 22 13 24
REMARK SMILES IDX 14 25 18 26 15 27 16 28 17 29 27 30 28 31 29 32 30 34 31 35
REMARK SMILES IDX 32 36 93 37 33 38 92 39 34 40 35 41 36 42 86 43 37 44 91 45
REMARK SMILES IDX 85 46 87 47 38 48 90 49 84 50 83 51 39 53 71 54 51 55 70 56
REMARK SMILES IDX 52 57 55 58 69 59 88 60 53 61 54 62 68 64 89 65 56 66 40 67
REMARK SMILES IDX 41 68 49 69 42 70 44 71 50 72 43 73 45 74 46 75 47 76 48 77
REMARK SMILES IDX 72 78 73 79 81 80 74 81 76 82 82 83 75 84 77 85 78 86 79 87
REMARK SMILES IDX 80 88 57 89 58 90 66 91 59 92 61 93 67 94 60 95 62 96 63 97
REMARK SMILES IDX 64 98 65 99
REMARK H PARENT 24 6 5 23 28 33 87 52 55 63
REMARK Flexibility Score: inf
ROOT
ATOM      1  C   UNL A   1      36.110  23.722  25.964  1.00  0.00     0.042 C 
ENDROOT
BRANCH   1   2
ATOM      2  C   UNL A   1      35.136  24.693  25.297  1.00  0.00     0.118 C 
BRANCH   2   3
ATOM      3  N   UNL A   1      34.797  24.261  23.954  1.00  0.00    -0.352 N 
ATOM      4  C   UNL A   1      33.884  24.633  22.997  1.00  0.00     0.255 C 
ATOM      5  O   UNL A   1      34.032  24.022  21.940  1.00  0.00    -0.269 OA
ATOM      6  H   UNL A   1      35.361  23.513  23.655  1.00  0.00     0.163 HD
BRANCH   4   7
ATOM      7  C   UNL A   1      32.858  25.721  23.163  1.00  0.00     0.082 A 
ATOM      8  C   UNL A   1      31.502  25.429  23.439  1.00  0.00     0.142 A 
ATOM      9  N   UNL A   1      30.523  26.372  23.292  1.00  0.00    -0.229 NA
ATOM     10  C   UNL A   1      30.877  27.640  22.991  1.00  0.00     0.083 A 
ATOM     11  C   UNL A   1      33.184  27.069  22.975  1.00  0.00     0.020 A 
ATOM     12  C   UNL A   1      32.193  28.037  22.867  1.00  0.00     0.031 A 
BRANCH   8  13
ATOM     13  N   UNL A   1      31.029  24.255  23.978  1.00  0.00    -0.355 N 
ATOM     14  C   UNL A   1      30.947  23.138  26.204  1.00  0.00     0.011 C 
ATOM     15  C   UNL A   1      31.042  21.796  25.424  1.00  0.00     0.013 C 
ATOM     16  C   UNL A   1      30.393  24.258  25.286  1.00  0.00     0.127 C 
ATOM     17  C   UNL A   1      31.707  21.910  24.053  1.00  0.00     0.022 C 
ATOM     18  C   UNL A   1      31.054  23.008  23.222  1.00  0.00     0.118 C 
BRANCH  14  19
ATOM     19  C   UNL A   1      30.031  22.952  27.457  1.00  0.00     0.008 C 
ATOM     20  C   UNL A   1      28.715  22.206  27.257  1.00  0.00     0.004 C 
ENDBRANCH  14  19
BRANCH  14  21
ATOM     21  C   UNL A   1      32.340  23.544  26.770  1.00  0.00     0.164 C 
BRANCH  21  22
ATOM     22  O   UNL A   1      32.676  22.961  28.015  1.00  0.00    -0.396 OA
ATOM     23  H   UNL A   1      33.640  22.887  28.088  1.00  0.00     0.210 HD
ENDBRANCH  21  22
ENDBRANCH  14  21
ENDBRANCH   8  13
BRANCH  10  24
ATOM     24  C   UNL A   1      29.792  28.597  22.799  1.00  0.00     0.053 A 
ATOM     25  C   UNL A   1      28.455  28.462  23.127  1.00  0.00     0.022 A 
ATOM     26  S   UNL A   1      30.088  30.081  22.002  1.00  0.00    -0.139 S 
ATOM     27  C   UNL A   1      27.671  29.565  22.683  1.00  0.00     0.016 A 
ATOM     28  C   UNL A   1      28.431  30.510  22.027  1.00  0.00     0.002 A 
ATOM     29  C   UNL A   1      27.985  31.770  21.370  1.00  0.00     0.056 C 
ENDBRANCH  10  24
ENDBRANCH   4   7
ENDBRANCH   2   3
ENDBRANCH   1   2
BRANCH   1  30
ATOM     30  C   UNL A   1      37.318  23.378  25.090  1.00  0.00     0.118 C 
BRANCH  30  31
ATOM     31  N   UNL A   1      38.238  22.465  25.760  1.00  0.00    -0.352 N 
ATOM     32  C   UNL A   1      39.371  22.727  26.488  1.00  0.00     0.251 C 
ATOM     33  H   UNL A   1      38.010  21.511  25.675  1.00  0.00     0.163 HD
ATOM     34  O   UNL A   1      40.148  21.811  26.744  1.00  0.00    -0.269 OA
BRANCH  32  35
ATOM     35  C   UNL A   1      39.660  24.097  26.961  1.00  0.00     0.039 A 
ATOM     36  C   UNL A   1      39.306  24.451  28.267  1.00  0.00     0.014 A 
ATOM     37  C   UNL A   1      40.239  25.042  26.111  1.00  0.00     0.014 A 
ATOM     38  C   UNL A   1      39.595  25.733  28.739  1.00  0.00     0.010 A 
ATOM     39  C   UNL A   1      40.587  26.297  26.604  1.00  0.00     0.010 A 
ATOM     40  C   UNL A   1      40.271  26.655  27.923  1.00  0.00    -0.014 A 
BRANCH  40  41
ATOM     41  C   UNL A   1      40.703  27.976  28.444  1.00  0.00     0.031 A 
ATOM     42  C   UNL A   1      42.160  28.277  28.662  1.00  0.00     0.074 A 
ATOM     43  C   UNL A   1      39.766  28.866  28.826  1.00  0.00     0.049 A 
ATOM     44  N   UNL A   1      42.711  29.343  29.181  1.00  0.00    -0.248 NA
ATOM     45  C   UNL A   1      43.120  27.232  28.272  1.00  0.00     0.031 C 
ATOM     46  C   UNL A   1      38.320  28.650  28.750  1.00  0.00     0.029 A 
ATOM     47  N   UNL A   1      39.888  30.110  29.392  1.00  0.00    -0.354 N 
ATOM     48  C   UNL A   1      44.077  29.089  29.209  1.00  0.00     0.074 A 
ATOM     49  C   UNL A   1      44.267  27.752  28.686  1.00  0.00     0.031 C 
ATOM     50  C   UNL A   1      37.690  29.717  29.261  1.00  0.00     0.029 A 
ATOM     51  C   UNL A   1      38.683  30.679  29.729  1.00  0.00     0.049 A 
ATOM     52  H   UNL A   1      40.754  30.552  29.542  1.00  0.00     0.167 HD
ATOM     53  C   UNL A   1      45.085  29.904  29.603  1.00  0.00     0.034 A 
ATOM     54  C   UNL A   1      38.404  31.836  30.360  1.00  0.00     0.034 A 
ATOM     55  C   UNL A   1      44.892  31.242  30.096  1.00  0.00     0.049 A 
ATOM     56  C   UNL A   1      39.536  32.739  30.761  1.00  0.00     0.074 A 
ATOM     57  C   UNL A   1      45.848  32.184  30.431  1.00  0.00     0.029 A 
ATOM     58  N   UNL A   1      43.657  31.825  30.340  1.00  0.00    -0.354 N 
ATOM     59  N   UNL A   1      40.826  32.557  30.615  1.00  0.00    -0.248 NA
ATOM     60  C   UNL A   1      39.176  34.022  31.381  1.00  0.00     0.031 C 
ATOM     61  C   UNL A   1      45.191  33.327  30.900  1.00  0.00     0.029 A 
ATOM     62  C   UNL A   1      43.825  33.107  30.837  1.00  0.00     0.049 A 
ATOM     63  H   UNL A   1      42.787  31.391  30.182  1.00  0.00     0.167 HD
ATOM     64  C   UNL A   1      41.433  33.706  31.109  1.00  0.00     0.074 A 
ATOM     65  C   UNL A   1      40.366  34.591  31.528  1.00  0.00     0.031 C 
ATOM     66  C   UNL A   1      42.754  33.991  31.221  1.00  0.00     0.034 A 
BRANCH  53  67
ATOM     67  C   UNL A   1      46.493  29.386  29.464  1.00  0.00     0.023 A 
ATOM     68  C   UNL A   1      47.094  28.714  30.551  1.00  0.00     0.012 A 
ATOM     69  C   UNL A   1      47.212  29.525  28.260  1.00  0.00     0.148 A 
ATOM     70  C   UNL A   1      48.398  28.230  30.457  1.00  0.00     0.002 A 
ATOM     71  C   UNL A   1      48.496  29.001  28.160  1.00  0.00     0.091 A 
ATOM     72  F   UNL A   1      46.637  30.185  27.244  1.00  0.00    -0.205 F 
ATOM     73  C   UNL A   1      49.095  28.365  29.260  1.00  0.00     0.022 A 
BRANCH  71  74
ATOM     74  S   UNL A   1      49.446  29.058  26.636  1.00  0.00     0.127 S 
ATOM     75  O   UNL A   1      49.723  30.488  26.515  1.00  0.00    -0.237 OA
ATOM     76  O   UNL A   1      50.613  28.238  26.966  1.00  0.00    -0.237 OA
ATOM     77  O   UNL A   1      48.583  28.494  25.608  1.00  0.00    -0.744 OA
ENDBRANCH  71  74
ENDBRANCH  53  67
BRANCH  54  78
ATOM     78  C   UNL A   1      36.983  32.215  30.598  1.00  0.00     0.023 A 
ATOM     79  C   UNL A   1      36.427  32.043  31.880  1.00  0.00     0.012 A 
ATOM     80  C   UNL A   1      36.208  32.810  29.585  1.00  0.00     0.148 A 
ATOM     81  C   UNL A   1      35.115  32.442  32.143  1.00  0.00     0.002 A 
ATOM     82  C   UNL A   1      34.924  33.259  29.869  1.00  0.00     0.091 A 
ATOM     83  F   UNL A   1      36.755  32.955  28.370  1.00  0.00    -0.205 F 
ATOM     84  C   UNL A   1      34.369  33.060  31.143  1.00  0.00     0.022 A 
BRANCH  82  85
ATOM     85  S   UNL A   1      33.947  34.199  28.690  1.00  0.00     0.127 S 
ATOM     86  O   UNL A   1      32.790  34.579  29.494  1.00  0.00    -0.237 OA
ATOM     87  O   UNL A   1      34.855  35.297  28.356  1.00  0.00    -0.237 OA
ATOM     88  O   UNL A   1      33.679  33.287  27.585  1.00  0.00    -0.744 OA
ENDBRANCH  82  85
ENDBRANCH  54  78
BRANCH  66  89
ATOM     89  C   UNL A   1      43.127  35.321  31.825  1.00  0.00     0.023 A 
ATOM     90  C   UNL A   1      43.162  35.461  33.227  1.00  0.00     0.012 A 
ATOM     91  C   UNL A   1      43.510  36.405  31.011  1.00  0.00     0.148 A 
ATOM     92  C   UNL A   1      43.545  36.668  33.810  1.00  0.00     0.002 A 
ATOM     93  C   UNL A   1      43.935  37.591  31.600  1.00  0.00     0.091 A 
ATOM     94  F   UNL A   1      43.452  36.257  29.680  1.00  0.00    -0.205 F 
ATOM     95  C   UNL A   1      43.942  37.728  32.998  1.00  0.00     0.022 A 
BRANCH  93  96
ATOM     96  S   UNL A   1      44.550  38.979  30.640  1.00  0.00     0.127 S 
ATOM     97  O   UNL A   1      43.360  39.366  29.882  1.00  0.00    -0.237 OA
ATOM     98  O   UNL A   1      44.944  39.927  31.682  1.00  0.00    -0.237 OA
ATOM     99  O   UNL A   1      45.654  38.460  29.844  1.00  0.00    -0.744 OA
ENDBRANCH  93  96
ENDBRANCH  66  89
ENDBRANCH  40  41
ENDBRANCH  32  35
ENDBRANCH  30  31
ENDBRANCH   1  30
TORSDOF 18
ENDMDL
MODEL 2
REMARK VINA RESULT:     -11.4      4.270      9.579
REMARK SMILES CC[C@@]1(CO)CCCN(c2nc(-c3ccc(C)s3)ccc2C(=O)NCCCNC(=O)c2ccc(-c3c4nc(c(-c5cccc(S(=O)(=O)[O-])c5F)c5ccc([nH]5)c(-c5cccc(S(=O)(=O)[O-])c5F)c5nc(c(-c6cccc(S(=O)(=O)[O-])c6F)c6ccc3[nH]6)C=C5)C=C4)cc2)C1
REMARK SMILES IDX 26 1 25 2 24 3 22 4 23 5 21 7 10 8 11 9 12 10 20 11 19 12
REMARK SMILES IDX 9 13 3 14 6 15 94 16 7 17 8 18 2 19 1 20 4 21 5 22 13 24
REMARK SMILES IDX 14 25 18 26 15 27 16 28 17 29 27 30 28 31 29 32 30 34 31 35
REMARK SMILES IDX 32 36 93 37 33 38 92 39 34 40 35 41 36 42 86 43 37 44 91 45
REMARK SMILES IDX 85 46 87 47 38 48 90 49 84 50 83 51 39 53 71 54 51 55 70 56
REMARK SMILES IDX 52 57 55 58 69 59 88 60 53 61 54 62 68 64 89 65 56 66 40 67
REMARK SMILES IDX 41 68 49 69 42 70 44 71 50 72 43 73 45 74 46 75 47 76 48 77
REMARK SMILES IDX 72 78 73 79 81 80 74 81 76 82 82 83 75 84 77 85 78 86 79 87
REMARK SMILES IDX 80 88 57 89 58 90 66 91 59 92 61 93 67 94 60 95 62 96 63 97
REMARK SMILES IDX 64 98 65 99
REMARK H PARENT 24 6 5 23 28 33 87 52 55 63
REMARK Flexibility Score: inf
ROOT
ATOM      1  C   UNL A   1      32.524  28.309  26.903  1.00  0.00     0.042 C 
ENDROOT
BRANCH   1   2
ATOM      2  C   UNL A   1      32.505  26.822  26.549  1.00  0.00     0.118 C 
BRANCH   2   3
ATOM      3  N   UNL A   1      31.175  26.262  26.698  1.00  0.00    -0.352 N 
ATOM      4  C   UNL A   1      30.579  25.049  26.450  1.00  0.00     0.255 C 
ATOM      5  O   UNL A   1      29.412  25.008  26.835  1.00  0.00    -0.269 OA
ATOM      6  H   UNL A   1      30.539  26.916  27.069  1.00  0.00     0.163 HD
BRANCH   4   7
ATOM      7  C   UNL A   1      31.275  23.856  25.852  1.00  0.00     0.082 A 
ATOM      8  C   UNL A   1      31.247  23.599  24.461  1.00  0.00     0.142 A 
ATOM      9  N   UNL A   1      31.606  22.382  23.952  1.00  0.00    -0.229 NA
ATOM     10  C   UNL A   1      32.109  21.446  24.786  1.00  0.00     0.083 A 
ATOM     11  C   UNL A   1      31.913  22.904  26.654  1.00  0.00     0.020 A 
ATOM     12  C   UNL A   1      32.318  21.681  26.131  1.00  0.00     0.031 A 
BRANCH   8  13
ATOM     13  N   UNL A   1      30.985  24.526  23.480  1.00  0.00    -0.355 N 
ATOM     14  C   UNL A   1      32.243  26.195  22.124  1.00  0.00     0.011 C 
ATOM     15  C   UNL A   1      30.942  27.047  22.145  1.00  0.00     0.013 C 
ATOM     16  C   UNL A   1      31.914  24.701  22.376  1.00  0.00     0.127 C 
ATOM     17  C   UNL A   1      30.026  26.768  23.336  1.00  0.00     0.022 C 
ATOM     18  C   UNL A   1      29.735  25.278  23.460  1.00  0.00     0.118 C 
BRANCH  14  19
ATOM     19  C   UNL A   1      32.963  26.374  20.747  1.00  0.00     0.008 C 
ATOM     20  C   UNL A   1      32.423  25.574  19.566  1.00  0.00     0.004 C 
ENDBRANCH  14  19
BRANCH  14  21
ATOM     21  C   UNL A   1      33.256  26.712  23.188  1.00  0.00     0.164 C 
BRANCH  21  22
ATOM     22  O   UNL A   1      34.061  27.800  22.773  1.00  0.00    -0.396 OA
ATOM     23  H   UNL A   1      33.860  28.016  21.849  1.00  0.00     0.210 HD
ENDBRANCH  21  22
ENDBRANCH  14  21
ENDBRANCH   8  13
BRANCH  10  24
ATOM     24  C   UNL A   1      32.432  20.149  24.201  1.00  0.00     0.053 A 
ATOM     25  C   UNL A   1      32.247  19.721  22.899  1.00  0.00     0.022 A 
ATOM     26  S   UNL A   1      33.055  18.896  25.184  1.00  0.00    -0.139 S 
ATOM     27  C   UNL A   1      32.580  18.347  22.725  1.00  0.00     0.016 A 
ATOM     28  C   UNL A   1      33.008  17.765  23.900  1.00  0.00     0.002 A 
ATOM     29  C   UNL A   1      33.392  16.348  24.149  1.00  0.00     0.056 C 
ENDBRANCH  10  24
ENDBRANCH   4   7
ENDBRANCH   2   3
ENDBRANCH   1   2
BRANCH   1  30
ATOM     30  C   UNL A   1      33.722  29.058  26.315  1.00  0.00     0.118 C 
BRANCH  30  31
ATOM     31  N   UNL A   1      33.767  30.449  26.749  1.00  0.00    -0.352 N 
ATOM     32  C   UNL A   1      34.588  31.065  27.660  1.00  0.00     0.251 C 
ATOM     33  H   UNL A   1      33.104  31.038  26.323  1.00  0.00     0.163 HD
ATOM     34  O   UNL A   1      34.294  32.182  28.078  1.00  0.00    -0.269 OA
BRANCH  32  35
ATOM     35  C   UNL A   1      35.816  30.396  28.139  1.00  0.00     0.039 A 
ATOM     36  C   UNL A   1      36.929  30.339  27.294  1.00  0.00     0.014 A 
ATOM     37  C   UNL A   1      35.859  29.791  29.397  1.00  0.00     0.014 A 
ATOM     38  C   UNL A   1      38.106  29.734  27.740  1.00  0.00     0.010 A 
ATOM     39  C   UNL A   1      37.052  29.247  29.865  1.00  0.00     0.010 A 
ATOM     40  C   UNL A   1      38.188  29.215  29.042  1.00  0.00    -0.014 A 
BRANCH  40  41
ATOM     41  C   UNL A   1      39.465  28.684  29.583  1.00  0.00     0.031 A 
ATOM     42  C   UNL A   1      40.178  29.390  30.702  1.00  0.00     0.074 A 
ATOM     43  C   UNL A   1      40.037  27.622  28.983  1.00  0.00     0.049 A 
ATOM     44  N   UNL A   1      41.336  29.114  31.243  1.00  0.00    -0.248 NA
ATOM     45  C   UNL A   1      39.517  30.576  31.269  1.00  0.00     0.031 C 
ATOM     46  C   UNL A   1      39.485  26.910  27.828  1.00  0.00     0.029 A 
ATOM     47  N   UNL A   1      41.224  26.982  29.232  1.00  0.00    -0.354 N 
ATOM     48  C   UNL A   1      41.559  30.105  32.191  1.00  0.00     0.074 A 
ATOM     49  C   UNL A   1      40.430  31.010  32.126  1.00  0.00     0.031 C 
ATOM     50  C   UNL A   1      40.337  25.942  27.461  1.00  0.00     0.029 A 
ATOM     51  C   UNL A   1      41.508  25.981  28.332  1.00  0.00     0.049 A 
ATOM     52  H   UNL A   1      41.816  27.215  29.983  1.00  0.00     0.167 HD
ATOM     53  C   UNL A   1      42.592  30.235  33.058  1.00  0.00     0.034 A 
ATOM     54  C   UNL A   1      42.594  25.195  28.207  1.00  0.00     0.034 A 
ATOM     55  C   UNL A   1      43.697  29.317  33.137  1.00  0.00     0.049 A 
ATOM     56  C   UNL A   1      43.714  25.335  29.198  1.00  0.00     0.074 A 
ATOM     57  C   UNL A   1      44.743  29.303  34.041  1.00  0.00     0.029 A 
ATOM     58  N   UNL A   1      43.909  28.256  32.267  1.00  0.00    -0.354 N 
ATOM     59  N   UNL A   1      43.824  26.169  30.204  1.00  0.00    -0.248 NA
ATOM     60  C   UNL A   1      44.844  24.405  29.062  1.00  0.00     0.031 C 
ATOM     61  C   UNL A   1      45.600  28.249  33.704  1.00  0.00     0.029 A 
ATOM     62  C   UNL A   1      45.076  27.592  32.602  1.00  0.00     0.049 A 
ATOM     63  H   UNL A   1      43.314  28.013  31.521  1.00  0.00     0.167 HD
ATOM     64  C   UNL A   1      45.024  25.856  30.831  1.00  0.00     0.074 A 
ATOM     65  C   UNL A   1      45.589  24.734  30.109  1.00  0.00     0.031 C 
ATOM     66  C   UNL A   1      45.613  26.456  31.895  1.00  0.00     0.034 A 
BRANCH  53  67
ATOM     67  C   UNL A   1      42.542  31.386  34.031  1.00  0.00     0.023 A 
ATOM     68  C   UNL A   1      43.355  32.517  33.804  1.00  0.00     0.012 A 
ATOM     69  C   UNL A   1      41.677  31.372  35.142  1.00  0.00     0.148 A 
ATOM     70  C   UNL A   1      43.340  33.595  34.688  1.00  0.00     0.002 A 
ATOM     71  C   UNL A   1      41.635  32.470  35.995  1.00  0.00     0.091 A 
ATOM     72  F   UNL A   1      40.927  30.281  35.356  1.00  0.00    -0.205 F 
ATOM     73  C   UNL A   1      42.474  33.575  35.778  1.00  0.00     0.022 A 
BRANCH  71  74
ATOM     74  S   UNL A   1      40.499  32.571  37.383  1.00  0.00     0.127 S 
ATOM     75  O   UNL A   1      39.512  31.551  37.032  1.00  0.00    -0.237 OA
ATOM     76  O   UNL A   1      41.358  32.223  38.515  1.00  0.00    -0.237 OA
ATOM     77  O   UNL A   1      40.008  33.943  37.396  1.00  0.00    -0.744 OA
ENDBRANCH  71  74
ENDBRANCH  53  67
BRANCH  54  78
ATOM     78  C   UNL A   1      42.636  24.174  27.122  1.00  0.00     0.023 A 
ATOM     79  C   UNL A   1      43.360  24.444  25.946  1.00  0.00     0.012 A 
ATOM     80  C   UNL A   1      42.026  22.915  27.284  1.00  0.00     0.148 A 
ATOM     81  C   UNL A   1      43.461  23.482  24.939  1.00  0.00     0.002 A 
ATOM     82  C   UNL A   1      42.181  21.942  26.304  1.00  0.00     0.091 A 
ATOM     83  F   UNL A   1      41.334  22.684  28.408  1.00  0.00    -0.205 F 
ATOM     84  C   UNL A   1      42.883  22.228  25.123  1.00  0.00     0.022 A 
BRANCH  82  85
ATOM     85  S   UNL A   1      41.600  20.255  26.521  1.00  0.00     0.127 S 
ATOM     86  O   UNL A   1      42.190  19.898  27.808  1.00  0.00    -0.237 OA
ATOM     87  O   UNL A   1      40.149  20.436  26.534  1.00  0.00    -0.237 OA
ATOM     88  O   UNL A   1      42.101  19.515  25.369  1.00  0.00    -0.744 OA
ENDBRANCH  82  85
ENDBRANCH  54  78
BRANCH  66  89
ATOM     89  C   UNL A   1      46.943  25.913  32.350  1.00  0.00     0.023 A 
ATOM     90  C   UNL A   1      46.996  25.043  33.458  1.00  0.00     0.012 A 
ATOM     91  C   UNL A   1      48.126  26.205  31.642  1.00  0.00     0.148 A 
ATOM     92  C   UNL A   1      48.208  24.495  33.872  1.00  0.00     0.002 A 
ATOM     93  C   UNL A   1      49.323  25.617  32.032  1.00  0.00     0.091 A 
ATOM     94  F   UNL A   1      48.057  27.049  30.602  1.00  0.00    -0.205 F 
ATOM     95  C   UNL A   1      49.369  24.772  33.153  1.00  0.00     0.022 A 
BRANCH  93  96
ATOM     96  S   UNL A   1      50.852  25.843  31.116  1.00  0.00     0.127 S 
ATOM     97  O   UNL A   1      51.073  27.282  31.255  1.00  0.00    -0.237 OA
ATOM     98  O   UNL A   1      51.790  25.007  31.866  1.00  0.00    -0.237 OA
ATOM     99  O   UNL A   1      50.581  25.382  29.761  1.00  0.00    -0.744 OA
ENDBRANCH  93  96
ENDBRANCH  66  89
ENDBRANCH  40  41
ENDBRANCH  32  35
ENDBRANCH  30  31
ENDBRANCH   1  30
TORSDOF 18
ENDMDL
MODEL 3
REMARK VINA RESULT:     -11.2      1.910      7.500
REMARK SMILES CC[C@@]1(CO)CCCN(c2nc(-c3ccc(C)s3)ccc2C(=O)NCCCNC(=O)c2ccc(-c3c4nc(c(-c5cccc(S(=O)(=O)[O-])c5F)c5ccc([nH]5)c(-c5cccc(S(=O)(=O)[O-])c5F)c5nc(c(-c6cccc(S(=O)(=O)[O-])c6F)c6ccc3[nH]6)C=C5)C=C4)cc2)C1
REMARK SMILES IDX 26 1 25 2 24 3 22 4 23 5 21 7 10 8 11 9 12 10 20 11 19 12
REMARK SMILES IDX 9 13 3 14 6 15 94 16 7 17 8 18 2 19 1 20 4 21 5 22 13 24
REMARK SMILES IDX 14 25 18 26 15 27 16 28 17 29 27 30 28 31 29 32 30 34 31 35
REMARK SMILES IDX 32 36 93 37 33 38 92 39 34 40 35 41 36 42 86 43 37 44 91 45
REMARK SMILES IDX 85 46 87 47 38 48 90 49 84 50 83 51 39 53 71 54 51 55 70 56
REMARK SMILES IDX 52 57 55 58 69 59 88 60 53 61 54 62 68 64 89 65 56 66 40 67
REMARK SMILES IDX 41 68 49 69 42 70 44 71 50 72 43 73 45 74 46 75 47 76 48 77
REMARK SMILES IDX 72 78 73 79 81 80 74 81 76 82 82 83 75 84 77 85 78 86 79 87
REMARK SMILES IDX 80 88 57 89 58 90 66 91 59 92 61 93 67 94 60 95 62 96 63 97
REMARK SMILES IDX 64 98 65 99
REMARK H PARENT 24 6 5 23 28 33 87 52 55 63
REMARK Flexibility Score: inf
ROOT
ATOM      1  C   UNL A   1      35.398  22.759  24.758  1.00  0.00     0.042 C 
ENDROOT
BRANCH   1   2
ATOM      2  C   UNL A   1      35.004  24.080  24.098  1.00  0.00     0.118 C 
BRANCH   2   3
ATOM      3  N   UNL A   1      34.451  23.863  22.774  1.00  0.00    -0.352 N 
ATOM      4  C   UNL A   1      33.426  24.397  22.032  1.00  0.00     0.255 C 
ATOM      5  O   UNL A   1      33.389  23.950  20.887  1.00  0.00    -0.269 OA
ATOM      6  H   UNL A   1      34.930  23.155  22.286  1.00  0.00     0.163 HD
BRANCH   4   7
ATOM      7  C   UNL A   1      32.487  25.473  22.509  1.00  0.00     0.082 A 
ATOM      8  C   UNL A   1      31.282  25.163  23.182  1.00  0.00     0.142 A 
ATOM      9  N   UNL A   1      30.295  26.094  23.346  1.00  0.00    -0.229 NA
ATOM     10  C   UNL A   1      30.527  27.367  22.959  1.00  0.00     0.083 A 
ATOM     11  C   UNL A   1      32.726  26.824  22.238  1.00  0.00     0.020 A 
ATOM     12  C   UNL A   1      31.738  27.781  22.443  1.00  0.00     0.031 A 
BRANCH   8  13
ATOM     13  N   UNL A   1      31.008  23.982  23.832  1.00  0.00    -0.355 N 
ATOM     14  C   UNL A   1      31.147  23.063  26.144  1.00  0.00     0.011 C 
ATOM     15  C   UNL A   1      31.433  21.689  25.476  1.00  0.00     0.013 C 
ATOM     16  C   UNL A   1      30.407  24.001  25.156  1.00  0.00     0.127 C 
ATOM     17  C   UNL A   1      32.044  21.784  24.078  1.00  0.00     0.022 C 
ATOM     18  C   UNL A   1      31.212  22.692  23.182  1.00  0.00     0.118 C 
BRANCH  14  19
ATOM     19  C   UNL A   1      30.296  22.849  27.438  1.00  0.00     0.008 C 
ATOM     20  C   UNL A   1      28.869  22.341  27.261  1.00  0.00     0.004 C 
ENDBRANCH  14  19
BRANCH  14  21
ATOM     21  C   UNL A   1      32.471  23.725  26.628  1.00  0.00     0.164 C 
BRANCH  21  22
ATOM     22  O   UNL A   1      33.250  22.938  27.508  1.00  0.00    -0.396 OA
ATOM     23  H   UNL A   1      33.841  23.512  28.019  1.00  0.00     0.210 HD
ENDBRANCH  21  22
ENDBRANCH  14  21
ENDBRANCH   8  13
BRANCH  10  24
ATOM     24  C   UNL A   1      29.424  28.311  23.113  1.00  0.00     0.053 A 
ATOM     25  C   UNL A   1      28.064  28.062  23.080  1.00  0.00     0.022 A 
ATOM     26  S   UNL A   1      29.744  29.983  23.282  1.00  0.00    -0.139 S 
ATOM     27  C   UNL A   1      27.289  29.254  23.153  1.00  0.00     0.016 A 
ATOM     28  C   UNL A   1      28.080  30.381  23.238  1.00  0.00     0.002 A 
ATOM     29  C   UNL A   1      27.661  31.810  23.276  1.00  0.00     0.056 C 
ENDBRANCH  10  24
ENDBRANCH   4   7
ENDBRANCH   2   3
ENDBRANCH   1   2
BRANCH   1  30
ATOM     30  C   UNL A   1      36.453  22.918  25.854  1.00  0.00     0.118 C 
BRANCH  30  31
ATOM     31  N   UNL A   1      37.309  21.743  25.968  1.00  0.00    -0.352 N 
ATOM     32  C   UNL A   1      38.667  21.650  26.145  1.00  0.00     0.251 C 
ATOM     33  H   UNL A   1      36.839  20.880  25.908  1.00  0.00     0.163 HD
ATOM     34  O   UNL A   1      39.227  20.575  25.952  1.00  0.00    -0.269 OA
BRANCH  32  35
ATOM     35  C   UNL A   1      39.452  22.830  26.563  1.00  0.00     0.039 A 
ATOM     36  C   UNL A   1      39.309  24.025  25.852  1.00  0.00     0.014 A 
ATOM     37  C   UNL A   1      40.357  22.749  27.625  1.00  0.00     0.014 A 
ATOM     38  C   UNL A   1      40.024  25.157  26.250  1.00  0.00     0.010 A 
ATOM     39  C   UNL A   1      41.018  23.894  28.061  1.00  0.00     0.010 A 
ATOM     40  C   UNL A   1      40.857  25.110  27.380  1.00  0.00    -0.014 A 
BRANCH  40  41
ATOM     41  C   UNL A   1      41.525  26.330  27.898  1.00  0.00     0.031 A 
ATOM     42  C   UNL A   1      40.744  27.380  28.638  1.00  0.00     0.074 A 
ATOM     43  C   UNL A   1      42.823  26.540  27.600  1.00  0.00     0.049 A 
ATOM     44  N   UNL A   1      41.145  28.539  29.090  1.00  0.00    -0.248 NA
ATOM     45  C   UNL A   1      39.318  27.102  28.876  1.00  0.00     0.031 C 
ATOM     46  C   UNL A   1      43.661  25.638  26.809  1.00  0.00     0.029 A 
ATOM     47  N   UNL A   1      43.650  27.596  27.890  1.00  0.00    -0.354 N 
ATOM     48  C   UNL A   1      40.021  29.143  29.639  1.00  0.00     0.074 A 
ATOM     49  C   UNL A   1      38.912  28.236  29.431  1.00  0.00     0.031 C 
ATOM     50  C   UNL A   1      44.878  26.182  26.665  1.00  0.00     0.029 A 
ATOM     51  C   UNL A   1      44.899  27.483  27.326  1.00  0.00     0.049 A 
ATOM     52  H   UNL A   1      43.377  28.359  28.448  1.00  0.00     0.167 HD
ATOM     53  C   UNL A   1      39.925  30.330  30.285  1.00  0.00     0.034 A 
ATOM     54  C   UNL A   1      45.941  28.338  27.323  1.00  0.00     0.034 A 
ATOM     55  C   UNL A   1      41.036  31.215  30.512  1.00  0.00     0.049 A 
ATOM     56  C   UNL A   1      45.823  29.635  28.071  1.00  0.00     0.074 A 
ATOM     57  C   UNL A   1      41.066  32.393  31.237  1.00  0.00     0.029 A 
ATOM     58  N   UNL A   1      42.314  31.028  30.005  1.00  0.00    -0.354 N 
ATOM     59  N   UNL A   1      44.799  30.110  28.738  1.00  0.00    -0.248 NA
ATOM     60  C   UNL A   1      47.011  30.499  28.098  1.00  0.00     0.031 C 
ATOM     61  C   UNL A   1      42.355  32.930  31.148  1.00  0.00     0.029 A 
ATOM     62  C   UNL A   1      43.136  32.076  30.386  1.00  0.00     0.049 A 
ATOM     63  H   UNL A   1      42.595  30.261  29.455  1.00  0.00     0.167 HD
ATOM     64  C   UNL A   1      45.222  31.319  29.278  1.00  0.00     0.074 A 
ATOM     65  C   UNL A   1      46.607  31.487  28.885  1.00  0.00     0.031 C 
ATOM     66  C   UNL A   1      44.521  32.216  30.015  1.00  0.00     0.034 A 
BRANCH  53  67
ATOM     67  C   UNL A   1      38.576  30.712  30.840  1.00  0.00     0.023 A 
ATOM     68  C   UNL A   1      38.247  30.353  32.164  1.00  0.00     0.012 A 
ATOM     69  C   UNL A   1      37.650  31.451  30.077  1.00  0.00     0.148 A 
ATOM     70  C   UNL A   1      37.005  30.684  32.705  1.00  0.00     0.002 A 
ATOM     71  C   UNL A   1      36.431  31.816  30.639  1.00  0.00     0.091 A 
ATOM     72  F   UNL A   1      37.968  31.766  28.813  1.00  0.00    -0.205 F 
ATOM     73  C   UNL A   1      36.102  31.422  31.946  1.00  0.00     0.022 A 
BRANCH  71  74
ATOM     74  S   UNL A   1      35.232  32.831  29.768  1.00  0.00     0.127 S 
ATOM     75  O   UNL A   1      34.212  33.030  30.796  1.00  0.00    -0.237 OA
ATOM     76  O   UNL A   1      36.011  34.026  29.445  1.00  0.00    -0.237 OA
ATOM     77  O   UNL A   1      34.816  32.050  28.611  1.00  0.00    -0.744 OA
ENDBRANCH  71  74
ENDBRANCH  53  67
BRANCH  54  78
ATOM     78  C   UNL A   1      47.198  27.954  26.622  1.00  0.00     0.023 A 
ATOM     79  C   UNL A   1      48.263  27.405  27.362  1.00  0.00     0.012 A 
ATOM     80  C   UNL A   1      47.314  28.061  25.223  1.00  0.00     0.148 A 
ATOM     81  C   UNL A   1      49.430  26.986  26.721  1.00  0.00     0.002 A 
ATOM     82  C   UNL A   1      48.455  27.588  24.585  1.00  0.00     0.091 A 
ATOM     83  F   UNL A   1      46.292  28.596  24.540  1.00  0.00    -0.205 F 
ATOM     84  C   UNL A   1      49.521  27.065  25.333  1.00  0.00     0.022 A 
BRANCH  82  85
ATOM     85  S   UNL A   1      48.597  27.511  22.795  1.00  0.00     0.127 S 
ATOM     86  O   UNL A   1      48.553  26.073  22.552  1.00  0.00    -0.237 OA
ATOM     87  O   UNL A   1      47.408  28.248  22.368  1.00  0.00    -0.237 OA
ATOM     88  O   UNL A   1      49.857  28.170  22.472  1.00  0.00    -0.744 OA
ENDBRANCH  82  85
ENDBRANCH  54  78
BRANCH  66  89
ATOM     89  C   UNL A   1      45.238  33.468  30.449  1.00  0.00     0.023 A 
ATOM     90  C   UNL A   1      45.963  33.470  31.659  1.00  0.00     0.012 A 
ATOM     91  C   UNL A   1      45.256  34.615  29.632  1.00  0.00     0.148 A 
ATOM     92  C   UNL A   1      46.669  34.602  32.062  1.00  0.00     0.002 A 
ATOM     93  C   UNL A   1      46.001  35.724  30.017  1.00  0.00     0.091 A 
ATOM     94  F   UNL A   1      44.546  34.600  28.494  1.00  0.00    -0.205 F 
ATOM     95  C   UNL A   1      46.698  35.724  31.236  1.00  0.00     0.022 A 
BRANCH  93  96
ATOM     96  S   UNL A   1      46.171  37.180  28.979  1.00  0.00     0.127 S 
ATOM     97  O   UNL A   1      46.626  38.182  29.943  1.00  0.00    -0.237 OA
ATOM     98  O   UNL A   1      47.186  36.757  28.014  1.00  0.00    -0.237 OA
ATOM     99  O   UNL A   1      44.854  37.421  28.405  1.00  0.00    -0.744 OA
ENDBRANCH  93  96
ENDBRANCH  66  89
ENDBRANCH  40  41
ENDBRANCH  32  35
ENDBRANCH  30  31
ENDBRANCH   1  30
TORSDOF 18
ENDMDL
