MODEL 1
REMARK VINA RESULT:     -13.4      0.000      0.000
REMARK SMILES Cc1cc(OCC(=O)N[C@@H](Cc2ccc(Cl)cc2)C(=O)NCCCNC(=O)c2ccc(-c3c4nc(c(-c5cccc(S(=O)(=O)[O-])c5F)c5ccc([nH]5)c(-c5cccc(S(=O)(=O)[O-])c5F)c5nc(c(-c6cccc(S(=O)(=O)[O-])c6F)c6ccc3[nH]6)C=C5)C=C4)cc2)c2c(C)c(C)c(=O)oc2c1
REMARK SMILES IDX 22 1 21 2 19 3 20 4 10 6 9 7 7 8 8 9 6 11 5 12 4 13 1 14
REMARK SMILES IDX 2 15 3 16 100 17 99 18 91 19 98 20 92 21 96 22 93 23 94 24
REMARK SMILES IDX 97 25 95 26 11 27 12 28 13 29 18 30 14 31 17 32 15 33 16 34
REMARK SMILES IDX 23 35 24 36 25 37 26 38 27 40 28 41 29 42 90 43 30 44 89 45
REMARK SMILES IDX 31 46 32 47 33 48 83 49 34 50 88 51 82 52 84 53 35 54 87 55
REMARK SMILES IDX 81 56 80 57 36 59 68 60 48 61 67 62 49 63 52 64 66 65 85 66
REMARK SMILES IDX 50 67 51 68 65 70 86 71 53 72 37 73 38 74 46 75 39 76 41 77
REMARK SMILES IDX 47 78 40 79 42 80 43 81 44 82 45 83 69 84 70 85 78 86 71 87
REMARK SMILES IDX 73 88 79 89 72 90 74 91 75 92 76 93 77 94 54 95 55 96 63 97
REMARK SMILES IDX 56 98 58 99 64 100 57 101 59 102 60 103 61 104 62 105
REMARK H PARENT 21 5 9 10 25 39 84 58 52 69
REMARK Flexibility Score: inf
ROOT
ATOM      1  C   UNL A   1      35.256  22.936  24.675  1.00  0.00     0.117 C 
ENDROOT
BRANCH   1   2
ATOM      2  N   UNL A   1      34.376  23.643  25.588  1.00  0.00    -0.354 N 
ATOM      3  C   UNL A   1      33.026  23.548  25.735  1.00  0.00     0.242 C 
ATOM      4  O   UNL A   1      32.560  23.861  26.838  1.00  0.00    -0.273 OA
ATOM      5  H   UNL A   1      34.821  24.284  26.188  1.00  0.00     0.163 HD
BRANCH   3   6
ATOM      6  C   UNL A   1      32.091  22.993  24.638  1.00  0.00     0.175 C 
BRANCH   6   7
ATOM      7  N   UNL A   1      32.661  23.111  23.299  1.00  0.00    -0.341 N 
ATOM      8  C   UNL A   1      32.713  24.227  22.518  1.00  0.00     0.258 C 
ATOM      9  O   UNL A   1      33.526  24.262  21.593  1.00  0.00    -0.271 OA
ATOM     10  H   UNL A   1      33.052  22.292  22.918  1.00  0.00     0.164 HD
BRANCH   8  11
ATOM     11  C   UNL A   1      31.739  25.389  22.773  1.00  0.00     0.329 C 
BRANCH  11  12
ATOM     12  O   UNL A   1      32.201  26.709  22.489  1.00  0.00    -0.483 OA
BRANCH  12  13
ATOM     13  C   UNL A   1      31.461  27.773  22.937  1.00  0.00     0.131 A 
ATOM     14  C   UNL A   1      28.206  29.552  22.003  1.00  0.00     0.044 C 
ATOM     15  C   UNL A   1      29.493  29.221  22.696  1.00  0.00    -0.044 A 
ATOM     16  C   UNL A   1      30.305  28.184  22.237  1.00  0.00     0.050 A 
ATOM     17  C   UNL A   1      29.873  29.885  23.852  1.00  0.00     0.051 A 
ATOM     18  C   UNL A   1      31.053  29.519  24.510  1.00  0.00     0.142 A 
ATOM     19  C   UNL A   1      31.882  28.463  24.101  1.00  0.00     0.063 A 
ATOM     20  O   UNL A   1      31.342  30.318  25.629  1.00  0.00    -0.422 OA
ATOM     21  C   UNL A   1      33.086  28.190  24.944  1.00  0.00    -0.026 A 
ATOM     22  C   UNL A   1      32.500  30.159  26.352  1.00  0.00     0.339 A 
ATOM     23  C   UNL A   1      34.016  27.032  24.676  1.00  0.00     0.046 C 
ATOM     24  C   UNL A   1      33.364  29.009  25.988  1.00  0.00     0.038 A 
ATOM     25  O   UNL A   1      32.787  30.922  27.269  1.00  0.00    -0.246 OA
ATOM     26  C   UNL A   1      34.558  28.887  26.904  1.00  0.00     0.052 C 
ENDBRANCH  12  13
ENDBRANCH  11  12
ENDBRANCH   8  11
ENDBRANCH   6   7
BRANCH   6  27
ATOM     27  C   UNL A   1      31.486  21.614  24.972  1.00  0.00     0.070 C 
BRANCH  27  28
ATOM     28  C   UNL A   1      32.238  20.393  24.498  1.00  0.00    -0.045 A 
ATOM     29  C   UNL A   1      31.995  19.850  23.228  1.00  0.00     0.005 A 
ATOM     30  C   UNL A   1      33.172  19.764  25.336  1.00  0.00     0.005 A 
ATOM     31  C   UNL A   1      32.607  18.655  22.837  1.00  0.00     0.021 A 
ATOM     32  C   UNL A   1      33.803  18.584  24.935  1.00  0.00     0.021 A 
ATOM     33  C   UNL A   1      33.502  18.023  23.696  1.00  0.00     0.041 A 
ATOM     34  Cl  UNL A   1      34.228  16.535  23.232  1.00  0.00    -0.084 Cl
ENDBRANCH  27  28
ENDBRANCH   6  27
ENDBRANCH   3   6
ENDBRANCH   1   2
BRANCH   1  35
ATOM     35  C   UNL A   1      36.176  21.937  25.347  1.00  0.00     0.042 C 
BRANCH  35  36
ATOM     36  C   UNL A   1      37.497  21.796  24.604  1.00  0.00     0.118 C 
BRANCH  36  37
ATOM     37  N   UNL A   1      38.335  20.707  25.118  1.00  0.00    -0.352 N 
ATOM     38  C   UNL A   1      39.415  20.716  25.976  1.00  0.00     0.251 C 
ATOM     39  H   UNL A   1      38.082  19.812  24.795  1.00  0.00     0.163 HD
ATOM     40  O   UNL A   1      40.091  19.700  26.111  1.00  0.00    -0.269 OA
BRANCH  38  41
ATOM     41  C   UNL A   1      39.769  21.958  26.691  1.00  0.00     0.039 A 
ATOM     42  C   UNL A   1      39.193  23.159  26.296  1.00  0.00     0.014 A 
ATOM     43  C   UNL A   1      40.727  21.943  27.707  1.00  0.00     0.014 A 
ATOM     44  C   UNL A   1      39.780  24.350  26.687  1.00  0.00     0.010 A 
ATOM     45  C   UNL A   1      41.213  23.153  28.216  1.00  0.00     0.010 A 
ATOM     46  C   UNL A   1      40.807  24.369  27.645  1.00  0.00    -0.014 A 
BRANCH  46  47
ATOM     47  C   UNL A   1      41.453  25.669  27.977  1.00  0.00     0.031 A 
ATOM     48  C   UNL A   1      42.833  26.003  27.466  1.00  0.00     0.074 A 
ATOM     49  C   UNL A   1      40.746  26.602  28.646  1.00  0.00     0.049 A 
ATOM     50  N   UNL A   1      43.532  27.095  27.650  1.00  0.00    -0.248 NA
ATOM     51  C   UNL A   1      43.522  24.990  26.650  1.00  0.00     0.031 C 
ATOM     52  C   UNL A   1      39.396  26.410  29.183  1.00  0.00     0.029 A 
ATOM     53  N   UNL A   1      41.034  27.909  28.944  1.00  0.00    -0.354 N 
ATOM     54  C   UNL A   1      44.755  26.878  27.027  1.00  0.00     0.074 A 
ATOM     55  C   UNL A   1      44.708  25.551  26.455  1.00  0.00     0.031 C 
ATOM     56  C   UNL A   1      38.937  27.577  29.652  1.00  0.00     0.029 A 
ATOM     57  C   UNL A   1      39.991  28.578  29.541  1.00  0.00     0.049 A 
ATOM     58  H   UNL A   1      41.903  28.329  28.750  1.00  0.00     0.167 HD
ATOM     59  C   UNL A   1      45.815  27.713  26.923  1.00  0.00     0.034 A 
ATOM     60  C   UNL A   1      39.890  29.851  29.968  1.00  0.00     0.034 A 
ATOM     61  C   UNL A   1      45.836  29.060  27.427  1.00  0.00     0.049 A 
ATOM     62  C   UNL A   1      41.069  30.761  29.830  1.00  0.00     0.074 A 
ATOM     63  C   UNL A   1      46.867  29.982  27.372  1.00  0.00     0.029 A 
ATOM     64  N   UNL A   1      44.771  29.686  28.053  1.00  0.00    -0.354 N 
ATOM     65  N   UNL A   1      42.222  30.525  29.255  1.00  0.00    -0.248 NA
ATOM     66  C   UNL A   1      40.943  32.106  30.408  1.00  0.00     0.031 C 
ATOM     67  C   UNL A   1      46.420  31.170  27.959  1.00  0.00     0.029 A 
ATOM     68  C   UNL A   1      45.113  30.987  28.378  1.00  0.00     0.049 A 
ATOM     69  H   UNL A   1      43.899  29.268  28.239  1.00  0.00     0.167 HD
ATOM     70  C   UNL A   1      42.967  31.686  29.409  1.00  0.00     0.074 A 
ATOM     71  C   UNL A   1      42.120  32.638  30.101  1.00  0.00     0.031 C 
ATOM     72  C   UNL A   1      44.246  31.929  29.038  1.00  0.00     0.034 A 
BRANCH  59  73
ATOM     73  C   UNL A   1      47.033  27.217  26.190  1.00  0.00     0.023 A 
ATOM     74  C   UNL A   1      47.152  27.459  24.808  1.00  0.00     0.012 A 
ATOM     75  C   UNL A   1      48.087  26.582  26.877  1.00  0.00     0.148 A 
ATOM     76  C   UNL A   1      48.296  27.064  24.115  1.00  0.00     0.002 A 
ATOM     77  C   UNL A   1      49.236  26.217  26.185  1.00  0.00     0.091 A 
ATOM     78  F   UNL A   1      47.942  26.346  28.189  1.00  0.00    -0.205 F 
ATOM     79  C   UNL A   1      49.340  26.453  24.805  1.00  0.00     0.022 A 
BRANCH  77  80
ATOM     80  S   UNL A   1      50.660  25.471  26.988  1.00  0.00     0.127 S 
ATOM     81  O   UNL A   1      51.553  25.245  25.853  1.00  0.00    -0.237 OA
ATOM     82  O   UNL A   1      51.091  26.532  27.900  1.00  0.00    -0.237 OA
ATOM     83  O   UNL A   1      50.168  24.267  27.643  1.00  0.00    -0.744 OA
ENDBRANCH  77  80
ENDBRANCH  59  73
BRANCH  60  84
ATOM     84  C   UNL A   1      38.597  30.316  30.540  1.00  0.00     0.023 A 
ATOM     85  C   UNL A   1      38.339  30.122  31.909  1.00  0.00     0.012 A 
ATOM     86  C   UNL A   1      37.690  31.064  29.763  1.00  0.00     0.148 A 
ATOM     87  C   UNL A   1      37.202  30.676  32.499  1.00  0.00     0.002 A 
ATOM     88  C   UNL A   1      36.590  31.656  30.367  1.00  0.00     0.091 A 
ATOM     89  F   UNL A   1      37.960  31.227  28.459  1.00  0.00    -0.205 F 
ATOM     90  C   UNL A   1      36.338  31.456  31.734  1.00  0.00     0.022 A 
BRANCH  88  91
ATOM     91  S   UNL A   1      35.506  32.795  29.498  1.00  0.00     0.127 S 
ATOM     92  O   UNL A   1      34.290  32.724  30.303  1.00  0.00    -0.237 OA
ATOM     93  O   UNL A   1      36.249  34.052  29.609  1.00  0.00    -0.237 OA
ATOM     94  O   UNL A   1      35.390  32.278  28.142  1.00  0.00    -0.744 OA
ENDBRANCH  88  91
ENDBRANCH  60  84
BRANCH  72  95
ATOM     95  C   UNL A   1      44.824  33.272  29.384  1.00  0.00     0.023 A 
ATOM     96  C   UNL A   1      45.527  33.420  30.595  1.00  0.00     0.012 A 
ATOM     97  C   UNL A   1      44.747  34.350  28.483  1.00  0.00     0.148 A 
ATOM     98  C   UNL A   1      46.138  34.632  30.911  1.00  0.00     0.002 A 
ATOM     99  C   UNL A   1      45.383  35.545  28.792  1.00  0.00     0.091 A 
ATOM    100  F   UNL A   1      44.056  34.183  27.346  1.00  0.00    -0.205 F 
ATOM    101  C   UNL A   1      46.074  35.690  30.006  1.00  0.00     0.022 A 
BRANCH  99 102
ATOM    102  S   UNL A   1      45.411  36.942  27.662  1.00  0.00     0.127 S 
ATOM    103  O   UNL A   1      46.148  37.937  28.438  1.00  0.00    -0.237 OA
ATOM    104  O   UNL A   1      46.141  36.399  26.516  1.00  0.00    -0.237 OA
ATOM    105  O   UNL A   1      44.016  37.266  27.392  1.00  0.00    -0.744 OA
ENDBRANCH  99 102
ENDBRANCH  72  95
ENDBRANCH  46  47
ENDBRANCH  38  41
ENDBRANCH  36  37
ENDBRANCH  35  36
ENDBRANCH   1  35
TORSDOF 19
ENDMDL
MODEL 2
REMARK VINA RESULT:     -13.0      1.817      2.293
REMARK SMILES Cc1cc(OCC(=O)N[C@@H](Cc2ccc(Cl)cc2)C(=O)NCCCNC(=O)c2ccc(-c3c4nc(c(-c5cccc(S(=O)(=O)[O-])c5F)c5ccc([nH]5)c(-c5cccc(S(=O)(=O)[O-])c5F)c5nc(c(-c6cccc(S(=O)(=O)[O-])c6F)c6ccc3[nH]6)C=C5)C=C4)cc2)c2c(C)c(C)c(=O)oc2c1
REMARK SMILES IDX 22 1 21 2 19 3 20 4 10 6 9 7 7 8 8 9 6 11 5 12 4 13 1 14
REMARK SMILES IDX 2 15 3 16 100 17 99 18 91 19 98 20 92 21 96 22 93 23 94 24
REMARK SMILES IDX 97 25 95 26 11 27 12 28 13 29 18 30 14 31 17 32 15 33 16 34
REMARK SMILES IDX 23 35 24 36 25 37 26 38 27 40 28 41 29 42 90 43 30 44 89 45
REMARK SMILES IDX 31 46 32 47 33 48 83 49 34 50 88 51 82 52 84 53 35 54 87 55
REMARK SMILES IDX 81 56 80 57 36 59 68 60 48 61 67 62 49 63 52 64 66 65 85 66
REMARK SMILES IDX 50 67 51 68 65 70 86 71 53 72 37 73 38 74 46 75 39 76 41 77
REMARK SMILES IDX 47 78 40 79 42 80 43 81 44 82 45 83 69 84 70 85 78 86 71 87
REMARK SMILES IDX 73 88 79 89 72 90 74 91 75 92 76 93 77 94 54 95 55 96 63 97
REMARK SMILES IDX 56 98 58 99 64 100 57 101 59 102 60 103 61 104 62 105
REMARK H PARENT 21 5 9 10 25 39 84 58 52 69
REMARK Flexibility Score: inf
ROOT
ATOM      1  C   UNL A   1      35.342  21.833  23.953  1.00  0.00     0.117 C 
ENDROOT
BRANCH   1   2
ATOM      2  N   UNL A   1      34.864  23.079  24.525  1.00  0.00    -0.354 N 
ATOM      3  C   UNL A   1      33.932  23.283  25.497  1.00  0.00     0.242 C 
ATOM      4  O   UNL A   1      34.020  24.333  26.144  1.00  0.00    -0.273 OA
ATOM      5  H   UNL A   1      35.275  23.894  24.158  1.00  0.00     0.163 HD
BRANCH   3   6
ATOM      6  C   UNL A   1      32.857  22.240  25.871  1.00  0.00     0.175 C 
BRANCH   6   7
ATOM      7  N   UNL A   1      31.831  22.781  26.758  1.00  0.00    -0.341 N 
ATOM      8  C   UNL A   1      30.600  23.252  26.408  1.00  0.00     0.258 C 
ATOM      9  O   UNL A   1      29.730  23.333  27.276  1.00  0.00    -0.271 OA
ATOM     10  H   UNL A   1      32.052  22.808  27.716  1.00  0.00     0.164 HD
BRANCH   8  11
ATOM     11  C   UNL A   1      30.336  23.712  24.964  1.00  0.00     0.329 C 
BRANCH  11  12
ATOM     12  O   UNL A   1      30.275  25.117  24.722  1.00  0.00    -0.483 OA
BRANCH  12  13
ATOM     13  C   UNL A   1      31.277  25.701  23.991  1.00  0.00     0.131 A 
ATOM     14  C   UNL A   1      32.643  25.537  20.422  1.00  0.00     0.044 C 
ATOM     15  C   UNL A   1      32.491  25.906  21.867  1.00  0.00    -0.044 A 
ATOM     16  C   UNL A   1      31.522  25.292  22.662  1.00  0.00     0.050 A 
ATOM     17  C   UNL A   1      33.255  26.915  22.431  1.00  0.00     0.051 A 
ATOM     18  C   UNL A   1      33.055  27.276  23.768  1.00  0.00     0.142 A 
ATOM     19  C   UNL A   1      32.072  26.707  24.594  1.00  0.00     0.063 A 
ATOM     20  O   UNL A   1      33.940  28.269  24.220  1.00  0.00    -0.422 OA
ATOM     21  C   UNL A   1      31.976  27.241  25.987  1.00  0.00    -0.026 A 
ATOM     22  C   UNL A   1      33.946  28.692  25.528  1.00  0.00     0.339 A 
ATOM     23  C   UNL A   1      30.911  26.787  26.956  1.00  0.00     0.046 C 
ATOM     24  C   UNL A   1      32.877  28.161  26.409  1.00  0.00     0.038 A 
ATOM     25  O   UNL A   1      34.786  29.490  25.934  1.00  0.00    -0.246 OA
ATOM     26  C   UNL A   1      32.935  28.763  27.792  1.00  0.00     0.052 C 
ENDBRANCH  12  13
ENDBRANCH  11  12
ENDBRANCH   8  11
ENDBRANCH   6   7
BRANCH   6  27
ATOM     27  C   UNL A   1      32.323  21.434  24.669  1.00  0.00     0.070 C 
BRANCH  27  28
ATOM     28  C   UNL A   1      32.573  19.944  24.665  1.00  0.00    -0.045 A 
ATOM     29  C   UNL A   1      32.538  19.216  23.467  1.00  0.00     0.005 A 
ATOM     30  C   UNL A   1      32.815  19.261  25.867  1.00  0.00     0.005 A 
ATOM     31  C   UNL A   1      32.655  17.822  23.480  1.00  0.00     0.021 A 
ATOM     32  C   UNL A   1      32.957  17.871  25.876  1.00  0.00     0.021 A 
ATOM     33  C   UNL A   1      32.856  17.156  24.685  1.00  0.00     0.041 A 
ATOM     34  Cl  UNL A   1      32.965  15.440  24.707  1.00  0.00    -0.084 Cl
ENDBRANCH  27  28
ENDBRANCH   6  27
ENDBRANCH   3   6
ENDBRANCH   1   2
BRANCH   1  35
ATOM     35  C   UNL A   1      36.200  21.007  24.890  1.00  0.00     0.042 C 
BRANCH  35  36
ATOM     36  C   UNL A   1      37.598  21.592  25.040  1.00  0.00     0.118 C 
BRANCH  36  37
ATOM     37  N   UNL A   1      38.602  20.594  25.424  1.00  0.00    -0.352 N 
ATOM     38  C   UNL A   1      39.767  20.710  26.154  1.00  0.00     0.251 C 
ATOM     39  H   UNL A   1      38.412  19.683  25.104  1.00  0.00     0.163 HD
ATOM     40  O   UNL A   1      40.560  19.773  26.182  1.00  0.00    -0.269 OA
BRANCH  38  41
ATOM     41  C   UNL A   1      40.064  21.971  26.861  1.00  0.00     0.039 A 
ATOM     42  C   UNL A   1      39.449  23.146  26.447  1.00  0.00     0.014 A 
ATOM     43  C   UNL A   1      41.008  22.002  27.891  1.00  0.00     0.014 A 
ATOM     44  C   UNL A   1      39.985  24.361  26.833  1.00  0.00     0.010 A 
ATOM     45  C   UNL A   1      41.440  23.235  28.394  1.00  0.00     0.010 A 
ATOM     46  C   UNL A   1      40.997  24.429  27.805  1.00  0.00    -0.014 A 
BRANCH  46  47
ATOM     47  C   UNL A   1      41.588  25.756  28.132  1.00  0.00     0.031 A 
ATOM     48  C   UNL A   1      42.946  26.150  27.606  1.00  0.00     0.074 A 
ATOM     49  C   UNL A   1      40.848  26.656  28.810  1.00  0.00     0.049 A 
ATOM     50  N   UNL A   1      43.599  27.272  27.784  1.00  0.00    -0.248 NA
ATOM     51  C   UNL A   1      43.670  25.170  26.780  1.00  0.00     0.031 C 
ATOM     52  C   UNL A   1      39.515  26.403  29.362  1.00  0.00     0.029 A 
ATOM     53  N   UNL A   1      41.082  27.973  29.108  1.00  0.00    -0.354 N 
ATOM     54  C   UNL A   1      44.823  27.110  27.148  1.00  0.00     0.074 A 
ATOM     55  C   UNL A   1      44.828  25.783  26.573  1.00  0.00     0.031 C 
ATOM     56  C   UNL A   1      39.010  27.548  29.839  1.00  0.00     0.029 A 
ATOM     57  C   UNL A   1      40.018  28.594  29.718  1.00  0.00     0.049 A 
ATOM     58  H   UNL A   1      41.930  28.431  28.905  1.00  0.00     0.167 HD
ATOM     59  C   UNL A   1      45.844  27.991  27.033  1.00  0.00     0.034 A 
ATOM     60  C   UNL A   1      39.865  29.861  30.149  1.00  0.00     0.034 A 
ATOM     61  C   UNL A   1      45.812  29.337  27.539  1.00  0.00     0.049 A 
ATOM     62  C   UNL A   1      41.001  30.823  29.999  1.00  0.00     0.074 A 
ATOM     63  C   UNL A   1      46.800  30.304  27.474  1.00  0.00     0.029 A 
ATOM     64  N   UNL A   1      44.727  29.915  28.178  1.00  0.00    -0.354 N 
ATOM     65  N   UNL A   1      42.157  30.639  29.410  1.00  0.00    -0.248 NA
ATOM     66  C   UNL A   1      40.823  32.160  30.581  1.00  0.00     0.031 C 
ATOM     67  C   UNL A   1      46.308  31.470  28.069  1.00  0.00     0.029 A 
ATOM     68  C   UNL A   1      45.014  31.229  28.502  1.00  0.00     0.049 A 
ATOM     69  H   UNL A   1      43.876  29.458  28.374  1.00  0.00     0.167 HD
ATOM     70  C   UNL A   1      42.852  31.832  29.558  1.00  0.00     0.074 A 
ATOM     71  C   UNL A   1      41.972  32.744  30.262  1.00  0.00     0.031 C 
ATOM     72  C   UNL A   1      44.115  32.131  29.174  1.00  0.00     0.034 A 
BRANCH  59  73
ATOM     73  C   UNL A   1      47.074  27.550  26.286  1.00  0.00     0.023 A 
ATOM     74  C   UNL A   1      48.051  26.788  26.955  1.00  0.00     0.012 A 
ATOM     75  C   UNL A   1      47.227  27.822  24.911  1.00  0.00     0.148 A 
ATOM     76  C   UNL A   1      49.171  26.315  26.272  1.00  0.00     0.002 A 
ATOM     77  C   UNL A   1      48.332  27.322  24.231  1.00  0.00     0.091 A 
ATOM     78  F   UNL A   1      46.293  28.564  24.300  1.00  0.00    -0.205 F 
ATOM     79  C   UNL A   1      49.306  26.573  24.911  1.00  0.00     0.022 A 
BRANCH  77  80
ATOM     80  S   UNL A   1      48.575  27.554  22.466  1.00  0.00     0.127 S 
ATOM     81  O   UNL A   1      49.839  28.288  22.437  1.00  0.00    -0.237 OA
ATOM     82  O   UNL A   1      48.661  26.174  21.983  1.00  0.00    -0.237 OA
ATOM     83  O   UNL A   1      47.413  28.293  21.993  1.00  0.00    -0.744 OA
ENDBRANCH  77  80
ENDBRANCH  59  73
BRANCH  60  84
ATOM     84  C   UNL A   1      38.559  30.268  30.735  1.00  0.00     0.023 A 
ATOM     85  C   UNL A   1      38.351  30.125  32.119  1.00  0.00     0.012 A 
ATOM     86  C   UNL A   1      37.585  30.916  29.951  1.00  0.00     0.148 A 
ATOM     87  C   UNL A   1      37.196  30.631  32.715  1.00  0.00     0.002 A 
ATOM     88  C   UNL A   1      36.463  31.464  30.560  1.00  0.00     0.091 A 
ATOM     89  F   UNL A   1      37.808  31.034  28.634  1.00  0.00    -0.205 F 
ATOM     90  C   UNL A   1      36.261  31.314  31.940  1.00  0.00     0.022 A 
BRANCH  88  91
ATOM     91  S   UNL A   1      35.284  32.486  29.670  1.00  0.00     0.127 S 
ATOM     92  O   UNL A   1      36.132  33.578  29.197  1.00  0.00    -0.237 OA
ATOM     93  O   UNL A   1      34.823  31.567  28.628  1.00  0.00    -0.237 OA
ATOM     94  O   UNL A   1      34.267  32.860  30.642  1.00  0.00    -0.744 OA
ENDBRANCH  88  91
ENDBRANCH  60  84
BRANCH  72  95
ATOM     95  C   UNL A   1      44.637  33.497  29.516  1.00  0.00     0.023 A 
ATOM     96  C   UNL A   1      45.338  33.677  30.724  1.00  0.00     0.012 A 
ATOM     97  C   UNL A   1      44.511  34.570  28.614  1.00  0.00     0.148 A 
ATOM     98  C   UNL A   1      45.898  34.914  31.037  1.00  0.00     0.002 A 
ATOM     99  C   UNL A   1      45.097  35.791  28.919  1.00  0.00     0.091 A 
ATOM    100  F   UNL A   1      43.823  34.373  27.480  1.00  0.00    -0.205 F 
ATOM    101  C   UNL A   1      45.786  35.966  30.130  1.00  0.00     0.022 A 
BRANCH  99 102
ATOM    102  S   UNL A   1      45.062  37.186  27.787  1.00  0.00     0.127 S 
ATOM    103  O   UNL A   1      43.626  37.411  27.637  1.00  0.00    -0.237 OA
ATOM    104  O   UNL A   1      45.766  38.219  28.547  1.00  0.00    -0.237 OA
ATOM    105  O   UNL A   1      45.754  36.743  26.584  1.00  0.00    -0.744 OA
ENDBRANCH  99 102
ENDBRANCH  72  95
ENDBRANCH  46  47
ENDBRANCH  38  41
ENDBRANCH  36  37
ENDBRANCH  35  36
ENDBRANCH   1  35
TORSDOF 19
ENDMDL
MODEL 3
REMARK VINA RESULT:     -12.9      1.750      7.453
REMARK SMILES Cc1cc(OCC(=O)N[C@@H](Cc2ccc(Cl)cc2)C(=O)NCCCNC(=O)c2ccc(-c3c4nc(c(-c5cccc(S(=O)(=O)[O-])c5F)c5ccc([nH]5)c(-c5cccc(S(=O)(=O)[O-])c5F)c5nc(c(-c6cccc(S(=O)(=O)[O-])c6F)c6ccc3[nH]6)C=C5)C=C4)cc2)c2c(C)c(C)c(=O)oc2c1
REMARK SMILES IDX 22 1 21 2 19 3 20 4 10 6 9 7 7 8 8 9 6 11 5 12 4 13 1 14
REMARK SMILES IDX 2 15 3 16 100 17 99 18 91 19 98 20 92 21 96 22 93 23 94 24
REMARK SMILES IDX 97 25 95 26 11 27 12 28 13 29 18 30 14 31 17 32 15 33 16 34
REMARK SMILES IDX 23 35 24 36 25 37 26 38 27 40 28 41 29 42 90 43 30 44 89 45
REMARK SMILES IDX 31 46 32 47 33 48 83 49 34 50 88 51 82 52 84 53 35 54 87 55
REMARK SMILES IDX 81 56 80 57 36 59 68 60 48 61 67 62 49 63 52 64 66 65 85 66
REMARK SMILES IDX 50 67 51 68 65 70 86 71 53 72 37 73 38 74 46 75 39 76 41 77
REMARK SMILES IDX 47 78 40 79 42 80 43 81 44 82 45 83 69 84 70 85 78 86 71 87
REMARK SMILES IDX 73 88 79 89 72 90 74 91 75 92 76 93 77 94 54 95 55 96 63 97
REMARK SMILES IDX 56 98 58 99 64 100 57 101 59 102 60 103 61 104 62 105
REMARK H PARENT 21 5 9 10 25 39 84 58 52 69
REMARK Flexibility Score: inf
ROOT
ATOM      1  C   UNL A   1      35.593  22.185  23.873  1.00  0.00     0.117 C 
ENDROOT
BRANCH   1   2
ATOM      2  N   UNL A   1      35.058  23.423  24.411  1.00  0.00    -0.354 N 
ATOM      3  C   UNL A   1      34.078  23.611  25.338  1.00  0.00     0.242 C 
ATOM      4  O   UNL A   1      34.109  24.669  25.978  1.00  0.00    -0.273 OA
ATOM      5  H   UNL A   1      35.463  24.246  24.054  1.00  0.00     0.163 HD
BRANCH   3   6
ATOM      6  C   UNL A   1      33.015  22.542  25.674  1.00  0.00     0.175 C 
BRANCH   6   7
ATOM      7  N   UNL A   1      32.004  23.028  26.609  1.00  0.00    -0.341 N 
ATOM      8  C   UNL A   1      30.709  23.354  26.332  1.00  0.00     0.258 C 
ATOM      9  O   UNL A   1      29.900  23.396  27.259  1.00  0.00    -0.271 OA
ATOM     10  H   UNL A   1      32.289  23.131  27.545  1.00  0.00     0.164 HD
BRANCH   8  11
ATOM     11  C   UNL A   1      30.297  23.703  24.892  1.00  0.00     0.329 C 
BRANCH  11  12
ATOM     12  O   UNL A   1      30.231  25.085  24.543  1.00  0.00    -0.483 OA
BRANCH  12  13
ATOM     13  C   UNL A   1      31.282  25.639  23.857  1.00  0.00     0.131 A 
ATOM     14  C   UNL A   1      32.880  25.328  20.396  1.00  0.00     0.044 C 
ATOM     15  C   UNL A   1      32.633  25.756  21.811  1.00  0.00    -0.044 A 
ATOM     16  C   UNL A   1      31.613  25.175  22.565  1.00  0.00     0.050 A 
ATOM     17  C   UNL A   1      33.361  26.788  22.382  1.00  0.00     0.051 A 
ATOM     18  C   UNL A   1      33.074  27.204  23.688  1.00  0.00     0.142 A 
ATOM     19  C   UNL A   1      32.037  26.669  24.469  1.00  0.00     0.063 A 
ATOM     20  O   UNL A   1      33.930  28.214  24.156  1.00  0.00    -0.422 OA
ATOM     21  C   UNL A   1      31.850  27.259  25.830  1.00  0.00    -0.026 A 
ATOM     22  C   UNL A   1      33.851  28.691  25.443  1.00  0.00     0.339 A 
ATOM     23  C   UNL A   1      30.723  26.846  26.744  1.00  0.00     0.046 C 
ATOM     24  C   UNL A   1      32.724  28.197  26.272  1.00  0.00     0.038 A 
ATOM     25  O   UNL A   1      34.664  29.505  25.870  1.00  0.00    -0.246 OA
ATOM     26  C   UNL A   1      32.692  28.855  27.630  1.00  0.00     0.052 C 
ENDBRANCH  12  13
ENDBRANCH  11  12
ENDBRANCH   8  11
ENDBRANCH   6   7
BRANCH   6  27
ATOM     27  C   UNL A   1      32.460  21.803  24.439  1.00  0.00     0.070 C 
BRANCH  27  28
ATOM     28  C   UNL A   1      32.574  20.296  24.422  1.00  0.00    -0.045 A 
ATOM     29  C   UNL A   1      32.898  19.590  25.589  1.00  0.00     0.005 A 
ATOM     30  C   UNL A   1      32.383  19.583  23.228  1.00  0.00     0.005 A 
ATOM     31  C   UNL A   1      33.116  18.209  25.546  1.00  0.00     0.021 A 
ATOM     32  C   UNL A   1      32.576  18.200  23.192  1.00  0.00     0.021 A 
ATOM     33  C   UNL A   1      32.961  17.521  24.345  1.00  0.00     0.041 A 
ATOM     34  Cl  UNL A   1      33.262  15.830  24.283  1.00  0.00    -0.084 Cl
ENDBRANCH  27  28
ENDBRANCH   6  27
ENDBRANCH   3   6
ENDBRANCH   1   2
BRANCH   1  35
ATOM     35  C   UNL A   1      36.382  21.363  24.871  1.00  0.00     0.042 C 
BRANCH  35  36
ATOM     36  C   UNL A   1      37.751  21.968  25.146  1.00  0.00     0.118 C 
BRANCH  36  37
ATOM     37  N   UNL A   1      38.714  20.997  25.679  1.00  0.00    -0.352 N 
ATOM     38  C   UNL A   1      39.840  21.165  26.457  1.00  0.00     0.251 C 
ATOM     39  H   UNL A   1      38.523  20.062  25.438  1.00  0.00     0.163 HD
ATOM     40  O   UNL A   1      40.612  20.224  26.618  1.00  0.00    -0.269 OA
BRANCH  38  41
ATOM     41  C   UNL A   1      40.125  22.485  27.054  1.00  0.00     0.039 A 
ATOM     42  C   UNL A   1      39.411  23.596  26.624  1.00  0.00     0.014 A 
ATOM     43  C   UNL A   1      41.150  22.633  27.993  1.00  0.00     0.014 A 
ATOM     44  C   UNL A   1      39.909  24.861  26.884  1.00  0.00     0.010 A 
ATOM     45  C   UNL A   1      41.552  23.917  28.378  1.00  0.00     0.010 A 
ATOM     46  C   UNL A   1      40.994  25.045  27.757  1.00  0.00    -0.014 A 
BRANCH  46  47
ATOM     47  C   UNL A   1      41.536  26.419  27.947  1.00  0.00     0.031 A 
ATOM     48  C   UNL A   1      40.749  27.467  28.694  1.00  0.00     0.074 A 
ATOM     49  C   UNL A   1      42.794  26.690  27.544  1.00  0.00     0.049 A 
ATOM     50  N   UNL A   1      41.081  28.705  28.960  1.00  0.00    -0.248 NA
ATOM     51  C   UNL A   1      39.422  27.087  29.207  1.00  0.00     0.031 C 
ATOM     52  C   UNL A   1      43.665  25.760  26.822  1.00  0.00     0.029 A 
ATOM     53  N   UNL A   1      43.578  27.800  27.726  1.00  0.00    -0.354 N 
ATOM     54  C   UNL A   1      39.989  29.264  29.614  1.00  0.00     0.074 A 
ATOM     55  C   UNL A   1      38.981  28.233  29.710  1.00  0.00     0.031 C 
ATOM     56  C   UNL A   1      44.888  26.295  26.712  1.00  0.00     0.029 A 
ATOM     57  C   UNL A   1      44.864  27.644  27.266  1.00  0.00     0.049 A 
ATOM     58  H   UNL A   1      43.253  28.629  28.146  1.00  0.00     0.167 HD
ATOM     59  C   UNL A   1      39.845  30.516  30.108  1.00  0.00     0.034 A 
ATOM     60  C   UNL A   1      45.912  28.490  27.271  1.00  0.00     0.034 A 
ATOM     61  C   UNL A   1      40.874  31.520  30.080  1.00  0.00     0.049 A 
ATOM     62  C   UNL A   1      45.734  29.864  27.835  1.00  0.00     0.074 A 
ATOM     63  C   UNL A   1      40.820  32.820  30.552  1.00  0.00     0.029 A 
ATOM     64  N   UNL A   1      42.150  31.330  29.575  1.00  0.00    -0.354 N 
ATOM     65  N   UNL A   1      44.684  30.375  28.430  1.00  0.00    -0.248 NA
ATOM     66  C   UNL A   1      46.874  30.784  27.719  1.00  0.00     0.031 C 
ATOM     67  C   UNL A   1      42.068  33.413  30.340  1.00  0.00     0.029 A 
ATOM     68  C   UNL A   1      42.898  32.483  29.736  1.00  0.00     0.049 A 
ATOM     69  H   UNL A   1      42.477  30.498  29.163  1.00  0.00     0.167 HD
ATOM     70  C   UNL A   1      45.030  31.681  28.752  1.00  0.00     0.074 A 
ATOM     71  C   UNL A   1      46.400  31.870  28.318  1.00  0.00     0.031 C 
ATOM     72  C   UNL A   1      44.270  32.642  29.327  1.00  0.00     0.034 A 
BRANCH  59  73
ATOM     73  C   UNL A   1      38.540  30.864  30.772  1.00  0.00     0.023 A 
ATOM     74  C   UNL A   1      38.371  30.594  32.144  1.00  0.00     0.012 A 
ATOM     75  C   UNL A   1      37.516  31.524  30.063  1.00  0.00     0.148 A 
ATOM     76  C   UNL A   1      37.196  30.960  32.799  1.00  0.00     0.002 A 
ATOM     77  C   UNL A   1      36.359  31.912  30.730  1.00  0.00     0.091 A 
ATOM     78  F   UNL A   1      37.692  31.754  28.754  1.00  0.00    -0.205 F 
ATOM     79  C   UNL A   1      36.196  31.627  32.095  1.00  0.00     0.022 A 
BRANCH  77  80
ATOM     80  S   UNL A   1      35.033  32.822  29.929  1.00  0.00     0.127 S 
ATOM     81  O   UNL A   1      34.121  33.058  31.047  1.00  0.00    -0.237 OA
ATOM     82  O   UNL A   1      35.727  34.016  29.445  1.00  0.00    -0.237 OA
ATOM     83  O   UNL A   1      34.521  31.949  28.882  1.00  0.00    -0.744 OA
ENDBRANCH  77  80
ENDBRANCH  59  73
BRANCH  60  84
ATOM     84  C   UNL A   1      47.219  28.019  26.739  1.00  0.00     0.023 A 
ATOM     85  C   UNL A   1      48.165  27.469  27.623  1.00  0.00     0.012 A 
ATOM     86  C   UNL A   1      47.469  27.993  25.353  1.00  0.00     0.148 A 
ATOM     87  C   UNL A   1      49.336  26.889  27.134  1.00  0.00     0.002 A 
ATOM     88  C   UNL A   1      48.611  27.367  24.870  1.00  0.00     0.091 A 
ATOM     89  F   UNL A   1      46.552  28.529  24.535  1.00  0.00    -0.205 F 
ATOM     90  C   UNL A   1      49.551  26.823  25.759  1.00  0.00     0.022 A 
BRANCH  88  91
ATOM     91  S   UNL A   1      48.899  27.103  23.117  1.00  0.00     0.127 S 
ATOM     92  O   UNL A   1      50.358  27.110  23.050  1.00  0.00    -0.237 OA
ATOM     93  O   UNL A   1      48.277  25.794  22.909  1.00  0.00    -0.237 OA
ATOM     94  O   UNL A   1      48.236  28.204  22.434  1.00  0.00    -0.744 OA
ENDBRANCH  88  91
ENDBRANCH  60  84
BRANCH  72  95
ATOM     95  C   UNL A   1      44.890  33.998  29.509  1.00  0.00     0.023 A 
ATOM     96  C   UNL A   1      45.540  34.294  30.724  1.00  0.00     0.012 A 
ATOM     97  C   UNL A   1      44.907  34.936  28.461  1.00  0.00     0.148 A 
ATOM     98  C   UNL A   1      46.189  35.515  30.897  1.00  0.00     0.002 A 
ATOM     99  C   UNL A   1      45.581  36.139  28.630  1.00  0.00     0.091 A 
ATOM    100  F   UNL A   1      44.265  34.633  27.323  1.00  0.00    -0.205 F 
ATOM    101  C   UNL A   1      46.218  36.431  29.848  1.00  0.00     0.022 A 
BRANCH  99 102
ATOM    102  S   UNL A   1      45.727  37.355  27.316  1.00  0.00     0.127 S 
ATOM    103  O   UNL A   1      44.376  37.909  27.271  1.00  0.00    -0.237 OA
ATOM    104  O   UNL A   1      46.743  38.264  27.847  1.00  0.00    -0.237 OA
ATOM    105  O   UNL A   1      46.139  36.615  26.130  1.00  0.00    -0.744 OA
ENDBRANCH  99 102
ENDBRANCH  72  95
ENDBRANCH  46  47
ENDBRANCH  38  41
ENDBRANCH  36  37
ENDBRANCH  35  36
ENDBRANCH   1  35
TORSDOF 19
ENDMDL
