MODEL 1
REMARK VINA RESULT:     -11.9      0.000      0.000
REMARK SMILES COc1ccc2c(c1)C=C(C(=O)NCCCNC(=O)c1ccc(-c3c4nc(c(-c5cccc(S(=O)(=O)[O-])c5F)c5ccc([nH]5)c(-c5cccc(S(=O)(=O)[O-])c5F)c5nc(c(-c6cccc(S(=O)(=O)[O-])c6F)c6ccc3[nH]6)C=C5)C=C4)cc1)[C@H](C(F)(F)F)O2
REMARK SMILES IDX 16 1 15 2 14 3 13 4 11 5 12 6 10 8 3 9 4 10 8 11 5 12 7 13
REMARK SMILES IDX 6 14 9 15 88 16 83 17 2 18 1 19 84 20 85 21 86 22 87 23
REMARK SMILES IDX 17 24 18 25 19 27 20 28 21 29 82 30 22 31 81 32 23 33 24 34
REMARK SMILES IDX 25 35 75 36 26 37 80 38 74 39 76 40 27 41 79 42 73 43 72 44
REMARK SMILES IDX 28 46 60 47 40 48 59 49 41 50 44 51 58 52 77 53 42 54 43 55
REMARK SMILES IDX 57 57 78 58 45 59 29 60 30 61 38 62 31 63 33 64 39 65 32 66
REMARK SMILES IDX 34 67 35 68 36 69 37 70 61 71 62 72 70 73 63 74 65 75 71 76
REMARK SMILES IDX 64 77 66 78 67 79 68 80 69 81 46 82 47 83 55 84 48 85 50 86
REMARK SMILES IDX 56 87 49 88 51 89 52 90 53 91 54 92
REMARK H PARENT 13 7 17 26 76 45 44 56
REMARK Flexibility Score: inf
ROOT
ATOM      1  C   UNL A   1      33.902  28.980  26.311  1.00  0.00     0.118 C 
ENDROOT
BRANCH   1   2
ATOM      2  C   UNL A   1      32.890  28.217  27.161  1.00  0.00     0.042 C 
BRANCH   2   3
ATOM      3  C   UNL A   1      31.665  27.751  26.369  1.00  0.00     0.118 C 
BRANCH   3   4
ATOM      4  N   UNL A   1      31.175  26.478  26.879  1.00  0.00    -0.352 N 
ATOM      5  C   UNL A   1      31.445  25.184  26.563  1.00  0.00     0.251 C 
ATOM      6  O   UNL A   1      30.775  24.310  27.108  1.00  0.00    -0.270 OA
ATOM      7  H   UNL A   1      30.513  26.574  27.601  1.00  0.00     0.163 HD
BRANCH   5   8
ATOM      8  C   UNL A   1      32.561  24.783  25.666  1.00  0.00     0.067 C 
ATOM      9  C   UNL A   1      36.939  22.941  24.815  1.00  0.00     0.119 A 
ATOM     10  C   UNL A   1      36.653  22.861  23.453  1.00  0.00     0.050 A 
ATOM     11  C   UNL A   1      36.003  23.486  25.692  1.00  0.00     0.058 A 
ATOM     12  C   UNL A   1      35.425  23.329  22.974  1.00  0.00     0.051 A 
ATOM     13  C   UNL A   1      34.777  23.959  25.211  1.00  0.00     0.021 A 
ATOM     14  C   UNL A   1      34.487  23.870  23.854  1.00  0.00     0.128 A 
ATOM     15  C   UNL A   1      33.768  24.439  26.135  1.00  0.00     0.025 C 
ATOM     16  O   UNL A   1      33.282  24.219  23.324  1.00  0.00    -0.475 OA
ATOM     17  C   UNL A   1      32.322  24.931  24.165  1.00  0.00     0.314 C 
BRANCH   9  18
ATOM     18  O   UNL A   1      38.060  22.409  25.389  1.00  0.00    -0.497 OA
ATOM     19  C   UNL A   1      38.558  23.169  26.485  1.00  0.00     0.278 C 
ENDBRANCH   9  18
BRANCH  17  20
ATOM     20  C   UNL A   1      30.911  24.562  23.649  1.00  0.00     0.429 C 
ATOM     21  F   UNL A   1      29.966  25.463  23.996  1.00  0.00    -0.167 F 
ATOM     22  F   UNL A   1      30.886  24.527  22.287  1.00  0.00    -0.167 F 
ATOM     23  F   UNL A   1      30.509  23.341  24.070  1.00  0.00    -0.167 F 
ENDBRANCH  17  20
ENDBRANCH   5   8
ENDBRANCH   3   4
ENDBRANCH   2   3
ENDBRANCH   1   2
BRANCH   1  24
ATOM     24  N   UNL A   1      33.950  30.392  26.666  1.00  0.00    -0.352 N 
ATOM     25  C   UNL A   1      34.766  31.044  27.555  1.00  0.00     0.251 C 
ATOM     26  H   UNL A   1      33.299  30.963  26.197  1.00  0.00     0.163 HD
ATOM     27  O   UNL A   1      34.493  32.193  27.893  1.00  0.00    -0.269 OA
BRANCH  25  28
ATOM     28  C   UNL A   1      35.964  30.373  28.105  1.00  0.00     0.039 A 
ATOM     29  C   UNL A   1      37.149  30.386  27.364  1.00  0.00     0.014 A 
ATOM     30  C   UNL A   1      35.909  29.694  29.324  1.00  0.00     0.014 A 
ATOM     31  C   UNL A   1      38.292  29.758  27.868  1.00  0.00     0.010 A 
ATOM     32  C   UNL A   1      37.064  29.132  29.858  1.00  0.00     0.010 A 
ATOM     33  C   UNL A   1      38.265  29.147  29.131  1.00  0.00    -0.014 A 
BRANCH  33  34
ATOM     34  C   UNL A   1      39.472  28.513  29.717  1.00  0.00     0.031 A 
ATOM     35  C   UNL A   1      40.101  29.091  30.956  1.00  0.00     0.074 A 
ATOM     36  C   UNL A   1      40.063  27.486  29.075  1.00  0.00     0.049 A 
ATOM     37  N   UNL A   1      41.212  28.750  31.554  1.00  0.00    -0.248 NA
ATOM     38  C   UNL A   1      39.404  30.224  31.587  1.00  0.00     0.031 C 
ATOM     39  C   UNL A   1      39.589  26.885  27.827  1.00  0.00     0.029 A 
ATOM     40  N   UNL A   1      41.213  26.793  29.362  1.00  0.00    -0.354 N 
ATOM     41  C   UNL A   1      41.373  29.651  32.599  1.00  0.00     0.074 A 
ATOM     42  C   UNL A   1      40.259  30.573  32.537  1.00  0.00     0.031 C 
ATOM     43  C   UNL A   1      40.443  25.920  27.452  1.00  0.00     0.029 A 
ATOM     44  C   UNL A   1      41.542  25.855  28.411  1.00  0.00     0.049 A 
ATOM     45  H   UNL A   1      41.750  26.951  30.171  1.00  0.00     0.167 HD
ATOM     46  C   UNL A   1      42.347  29.695  33.540  1.00  0.00     0.034 A 
ATOM     47  C   UNL A   1      42.615  25.047  28.311  1.00  0.00     0.034 A 
ATOM     48  C   UNL A   1      43.426  28.749  33.623  1.00  0.00     0.049 A 
ATOM     49  C   UNL A   1      43.660  25.084  29.393  1.00  0.00     0.074 A 
ATOM     50  C   UNL A   1      44.407  28.645  34.592  1.00  0.00     0.029 A 
ATOM     51  N   UNL A   1      43.672  27.748  32.695  1.00  0.00    -0.354 N 
ATOM     52  N   UNL A   1      43.714  25.842  30.461  1.00  0.00    -0.248 NA
ATOM     53  C   UNL A   1      44.773  24.131  29.277  1.00  0.00     0.031 C 
ATOM     54  C   UNL A   1      45.263  27.598  34.235  1.00  0.00     0.029 A 
ATOM     55  C   UNL A   1      44.795  27.028  33.061  1.00  0.00     0.049 A 
ATOM     56  H   UNL A   1      43.127  27.575  31.893  1.00  0.00     0.167 HD
ATOM     57  C   UNL A   1      44.841  25.433  31.164  1.00  0.00     0.074 A 
ATOM     58  C   UNL A   1      45.434  24.350  30.406  1.00  0.00     0.031 C 
ATOM     59  C   UNL A   1      45.343  25.917  32.326  1.00  0.00     0.034 A 
BRANCH  46  60
ATOM     60  C   UNL A   1      42.264  30.781  34.583  1.00  0.00     0.023 A 
ATOM     61  C   UNL A   1      41.611  30.525  35.807  1.00  0.00     0.012 A 
ATOM     62  C   UNL A   1      42.869  32.035  34.373  1.00  0.00     0.148 A 
ATOM     63  C   UNL A   1      41.523  31.515  36.786  1.00  0.00     0.002 A 
ATOM     64  C   UNL A   1      42.819  33.001  35.373  1.00  0.00     0.091 A 
ATOM     65  F   UNL A   1      43.467  32.269  33.196  1.00  0.00    -0.205 F 
ATOM     66  C   UNL A   1      42.134  32.747  36.573  1.00  0.00     0.022 A 
BRANCH  64  67
ATOM     67  S   UNL A   1      43.646  34.588  35.228  1.00  0.00     0.127 S 
ATOM     68  O   UNL A   1      43.334  35.202  36.518  1.00  0.00    -0.237 OA
ATOM     69  O   UNL A   1      45.045  34.193  35.065  1.00  0.00    -0.237 OA
ATOM     70  O   UNL A   1      43.061  35.240  34.065  1.00  0.00    -0.744 OA
ENDBRANCH  64  67
ENDBRANCH  46  60
BRANCH  47  71
ATOM     71  C   UNL A   1      42.716  24.091  27.172  1.00  0.00     0.023 A 
ATOM     72  C   UNL A   1      43.426  24.468  26.016  1.00  0.00     0.012 A 
ATOM     73  C   UNL A   1      42.161  22.798  27.248  1.00  0.00     0.148 A 
ATOM     74  C   UNL A   1      43.559  23.584  24.945  1.00  0.00     0.002 A 
ATOM     75  C   UNL A   1      42.345  21.904  26.201  1.00  0.00     0.091 A 
ATOM     76  F   UNL A   1      41.484  22.463  28.356  1.00  0.00    -0.205 F 
ATOM     77  C   UNL A   1      43.029  22.300  25.041  1.00  0.00     0.022 A 
BRANCH  75  78
ATOM     78  S   UNL A   1      41.818  20.189  26.290  1.00  0.00     0.127 S 
ATOM     79  O   UNL A   1      42.559  19.590  25.183  1.00  0.00    -0.237 OA
ATOM     80  O   UNL A   1      42.279  19.801  27.624  1.00  0.00    -0.237 OA
ATOM     81  O   UNL A   1      40.369  20.213  26.139  1.00  0.00    -0.744 OA
ENDBRANCH  75  78
ENDBRANCH  47  71
BRANCH  59  82
ATOM     82  C   UNL A   1      46.574  25.257  32.889  1.00  0.00     0.023 A 
ATOM     83  C   UNL A   1      47.851  25.762  32.576  1.00  0.00     0.012 A 
ATOM     84  C   UNL A   1      46.457  24.194  33.808  1.00  0.00     0.148 A 
ATOM     85  C   UNL A   1      48.993  25.203  33.149  1.00  0.00     0.002 A 
ATOM     86  C   UNL A   1      47.595  23.676  34.412  1.00  0.00     0.091 A 
ATOM     87  F   UNL A   1      45.233  23.716  34.078  1.00  0.00    -0.205 F 
ATOM     88  C   UNL A   1      48.864  24.171  34.077  1.00  0.00     0.022 A 
BRANCH  86  89
ATOM     89  S   UNL A   1      47.518  22.417  35.691  1.00  0.00     0.127 S 
ATOM     90  O   UNL A   1      46.972  21.277  34.955  1.00  0.00    -0.237 OA
ATOM     91  O   UNL A   1      48.923  22.279  36.074  1.00  0.00    -0.237 OA
ATOM     92  O   UNL A   1      46.657  22.954  36.736  1.00  0.00    -0.744 OA
ENDBRANCH  86  89
ENDBRANCH  59  82
ENDBRANCH  33  34
ENDBRANCH  25  28
ENDBRANCH   1  24
TORSDOF 15
ENDMDL
MODEL 2
REMARK VINA RESULT:     -11.9      2.290      3.893
REMARK SMILES COc1ccc2c(c1)C=C(C(=O)NCCCNC(=O)c1ccc(-c3c4nc(c(-c5cccc(S(=O)(=O)[O-])c5F)c5ccc([nH]5)c(-c5cccc(S(=O)(=O)[O-])c5F)c5nc(c(-c6cccc(S(=O)(=O)[O-])c6F)c6ccc3[nH]6)C=C5)C=C4)cc1)[C@H](C(F)(F)F)O2
REMARK SMILES IDX 16 1 15 2 14 3 13 4 11 5 12 6 10 8 3 9 4 10 8 11 5 12 7 13
REMARK SMILES IDX 6 14 9 15 88 16 83 17 2 18 1 19 84 20 85 21 86 22 87 23
REMARK SMILES IDX 17 24 18 25 19 27 20 28 21 29 82 30 22 31 81 32 23 33 24 34
REMARK SMILES IDX 25 35 75 36 26 37 80 38 74 39 76 40 27 41 79 42 73 43 72 44
REMARK SMILES IDX 28 46 60 47 40 48 59 49 41 50 44 51 58 52 77 53 42 54 43 55
REMARK SMILES IDX 57 57 78 58 45 59 29 60 30 61 38 62 31 63 33 64 39 65 32 66
REMARK SMILES IDX 34 67 35 68 36 69 37 70 61 71 62 72 70 73 63 74 65 75 71 76
REMARK SMILES IDX 64 77 66 78 67 79 68 80 69 81 46 82 47 83 55 84 48 85 50 86
REMARK SMILES IDX 56 87 49 88 51 89 52 90 53 91 54 92
REMARK H PARENT 13 7 17 26 76 45 44 56
REMARK Flexibility Score: inf
ROOT
ATOM      1  C   UNL A   1      34.192  29.190  26.163  1.00  0.00     0.118 C 
ENDROOT
BRANCH   1   2
ATOM      2  C   UNL A   1      33.371  28.074  26.803  1.00  0.00     0.042 C 
BRANCH   2   3
ATOM      3  C   UNL A   1      33.457  26.748  26.041  1.00  0.00     0.118 C 
BRANCH   3   4
ATOM      4  N   UNL A   1      33.859  26.972  24.659  1.00  0.00    -0.352 N 
ATOM      5  C   UNL A   1      33.167  27.259  23.525  1.00  0.00     0.251 C 
ATOM      6  O   UNL A   1      33.789  27.284  22.466  1.00  0.00    -0.270 OA
ATOM      7  H   UNL A   1      34.830  26.902  24.517  1.00  0.00     0.163 HD
BRANCH   5   8
ATOM      8  C   UNL A   1      31.727  27.629  23.524  1.00  0.00     0.067 C 
ATOM      9  C   UNL A   1      28.094  30.757  22.980  1.00  0.00     0.119 A 
ATOM     10  C   UNL A   1      27.177  29.708  22.972  1.00  0.00     0.050 A 
ATOM     11  C   UNL A   1      29.450  30.495  23.169  1.00  0.00     0.058 A 
ATOM     12  C   UNL A   1      27.623  28.395  23.154  1.00  0.00     0.051 A 
ATOM     13  C   UNL A   1      29.895  29.182  23.355  1.00  0.00     0.021 A 
ATOM     14  C   UNL A   1      28.981  28.133  23.337  1.00  0.00     0.128 A 
ATOM     15  C   UNL A   1      31.314  28.901  23.457  1.00  0.00     0.025 C 
ATOM     16  O   UNL A   1      29.346  26.824  23.416  1.00  0.00    -0.475 OA
ATOM     17  C   UNL A   1      30.729  26.497  23.762  1.00  0.00     0.314 C 
BRANCH   9  18
ATOM     18  O   UNL A   1      27.767  32.055  22.700  1.00  0.00    -0.497 OA
ATOM     19  C   UNL A   1      28.768  32.993  23.081  1.00  0.00     0.278 C 
ENDBRANCH   9  18
BRANCH  17  20
ATOM     20  C   UNL A   1      31.050  25.139  23.096  1.00  0.00     0.429 C 
ATOM     21  F   UNL A   1      31.984  24.427  23.765  1.00  0.00    -0.167 F 
ATOM     22  F   UNL A   1      29.947  24.339  23.068  1.00  0.00    -0.167 F 
ATOM     23  F   UNL A   1      31.457  25.274  21.813  1.00  0.00    -0.167 F 
ENDBRANCH  17  20
ENDBRANCH   5   8
ENDBRANCH   3   4
ENDBRANCH   2   3
ENDBRANCH   1   2
BRANCH   1  24
ATOM     24  N   UNL A   1      33.999  30.461  26.848  1.00  0.00    -0.352 N 
ATOM     25  C   UNL A   1      34.674  30.989  27.920  1.00  0.00     0.251 C 
ATOM     26  H   UNL A   1      33.278  31.025  26.488  1.00  0.00     0.163 HD
ATOM     27  O   UNL A   1      34.209  31.964  28.505  1.00  0.00    -0.269 OA
BRANCH  25  28
ATOM     28  C   UNL A   1      35.950  30.391  28.371  1.00  0.00     0.039 A 
ATOM     29  C   UNL A   1      37.107  30.614  27.619  1.00  0.00     0.014 A 
ATOM     30  C   UNL A   1      35.999  29.578  29.505  1.00  0.00     0.014 A 
ATOM     31  C   UNL A   1      38.322  30.059  28.030  1.00  0.00     0.010 A 
ATOM     32  C   UNL A   1      37.221  29.085  29.953  1.00  0.00     0.010 A 
ATOM     33  C   UNL A   1      38.393  29.310  29.215  1.00  0.00    -0.014 A 
BRANCH  33  34
ATOM     34  C   UNL A   1      39.675  28.747  29.706  1.00  0.00     0.031 A 
ATOM     35  C   UNL A   1      40.431  29.440  30.808  1.00  0.00     0.074 A 
ATOM     36  C   UNL A   1      40.211  27.675  29.090  1.00  0.00     0.049 A 
ATOM     37  N   UNL A   1      41.612  29.168  31.297  1.00  0.00    -0.248 NA
ATOM     38  C   UNL A   1      39.786  30.615  31.417  1.00  0.00     0.031 C 
ATOM     39  C   UNL A   1      39.609  26.960  27.963  1.00  0.00     0.029 A 
ATOM     40  N   UNL A   1      41.402  27.025  29.297  1.00  0.00    -0.354 N 
ATOM     41  C   UNL A   1      41.873  30.159  32.234  1.00  0.00     0.074 A 
ATOM     42  C   UNL A   1      40.738  31.057  32.226  1.00  0.00     0.031 C 
ATOM     43  C   UNL A   1      40.436  25.977  27.573  1.00  0.00     0.029 A 
ATOM     44  C   UNL A   1      41.640  26.012  28.397  1.00  0.00     0.049 A 
ATOM     45  H   UNL A   1      42.027  27.261  30.020  1.00  0.00     0.167 HD
ATOM     46  C   UNL A   1      42.948  30.299  33.046  1.00  0.00     0.034 A 
ATOM     47  C   UNL A   1      42.713  25.212  28.241  1.00  0.00     0.034 A 
ATOM     48  C   UNL A   1      44.051  29.378  33.081  1.00  0.00     0.049 A 
ATOM     49  C   UNL A   1      43.877  25.358  29.184  1.00  0.00     0.074 A 
ATOM     50  C   UNL A   1      45.141  29.373  33.932  1.00  0.00     0.029 A 
ATOM     51  N   UNL A   1      44.211  28.303  32.220  1.00  0.00    -0.354 N 
ATOM     52  N   UNL A   1      44.037  26.209  30.169  1.00  0.00    -0.248 NA
ATOM     53  C   UNL A   1      44.990  24.413  29.019  1.00  0.00     0.031 C 
ATOM     54  C   UNL A   1      45.974  28.311  33.568  1.00  0.00     0.029 A 
ATOM     55  C   UNL A   1      45.386  27.633  32.511  1.00  0.00     0.049 A 
ATOM     56  H   UNL A   1      43.580  28.052  31.507  1.00  0.00     0.167 HD
ATOM     57  C   UNL A   1      45.248  25.877  30.766  1.00  0.00     0.074 A 
ATOM     58  C   UNL A   1      45.774  24.740  30.039  1.00  0.00     0.031 C 
ATOM     59  C   UNL A   1      45.871  26.469  31.815  1.00  0.00     0.034 A 
BRANCH  46  60
ATOM     60  C   UNL A   1      42.962  31.471  33.994  1.00  0.00     0.023 A 
ATOM     61  C   UNL A   1      43.513  32.701  33.578  1.00  0.00     0.012 A 
ATOM     62  C   UNL A   1      42.391  31.371  35.278  1.00  0.00     0.148 A 
ATOM     63  C   UNL A   1      43.537  33.798  34.439  1.00  0.00     0.002 A 
ATOM     64  C   UNL A   1      42.375  32.483  36.113  1.00  0.00     0.091 A 
ATOM     65  F   UNL A   1      41.890  30.190  35.666  1.00  0.00    -0.205 F 
ATOM     66  C   UNL A   1      42.960  33.692  35.701  1.00  0.00     0.022 A 
BRANCH  64  67
ATOM     67  S   UNL A   1      41.582  32.471  37.724  1.00  0.00     0.127 S 
ATOM     68  O   UNL A   1      41.751  33.861  38.147  1.00  0.00    -0.237 OA
ATOM     69  O   UNL A   1      40.207  32.099  37.389  1.00  0.00    -0.237 OA
ATOM     70  O   UNL A   1      42.301  31.483  38.517  1.00  0.00    -0.744 OA
ENDBRANCH  64  67
ENDBRANCH  46  60
BRANCH  47  71
ATOM     71  C   UNL A   1      42.703  24.161  27.185  1.00  0.00     0.023 A 
ATOM     72  C   UNL A   1      43.350  24.408  25.958  1.00  0.00     0.012 A 
ATOM     73  C   UNL A   1      42.105  22.905  27.406  1.00  0.00     0.148 A 
ATOM     74  C   UNL A   1      43.379  23.433  24.961  1.00  0.00     0.002 A 
ATOM     75  C   UNL A   1      42.186  21.919  26.430  1.00  0.00     0.091 A 
ATOM     76  F   UNL A   1      41.489  22.693  28.577  1.00  0.00    -0.205 F 
ATOM     77  C   UNL A   1      42.808  22.186  25.200  1.00  0.00     0.022 A 
BRANCH  75  78
ATOM     78  S   UNL A   1      41.600  20.242  26.698  1.00  0.00     0.127 S 
ATOM     79  O   UNL A   1      40.168  20.453  26.895  1.00  0.00    -0.237 OA
ATOM     80  O   UNL A   1      41.961  19.592  25.438  1.00  0.00    -0.237 OA
ATOM     81  O   UNL A   1      42.330  19.749  27.859  1.00  0.00    -0.744 OA
ENDBRANCH  75  78
ENDBRANCH  47  71
BRANCH  59  82
ATOM     82  C   UNL A   1      47.174  25.877  32.282  1.00  0.00     0.023 A 
ATOM     83  C   UNL A   1      48.389  26.314  31.719  1.00  0.00     0.012 A 
ATOM     84  C   UNL A   1      47.198  24.958  33.351  1.00  0.00     0.148 A 
ATOM     85  C   UNL A   1      49.606  25.826  32.196  1.00  0.00     0.002 A 
ATOM     86  C   UNL A   1      48.415  24.514  33.852  1.00  0.00     0.091 A 
ATOM     87  F   UNL A   1      46.029  24.541  33.860  1.00  0.00    -0.205 F 
ATOM     88  C   UNL A   1      49.619  24.938  33.269  1.00  0.00     0.022 A 
BRANCH  86  89
ATOM     89  S   UNL A   1      48.532  23.451  35.295  1.00  0.00     0.127 S 
ATOM     90  O   UNL A   1      47.893  22.226  34.816  1.00  0.00    -0.237 OA
ATOM     91  O   UNL A   1      49.979  23.349  35.488  1.00  0.00    -0.237 OA
ATOM     92  O   UNL A   1      47.826  24.143  36.366  1.00  0.00    -0.744 OA
ENDBRANCH  86  89
ENDBRANCH  59  82
ENDBRANCH  33  34
ENDBRANCH  25  28
ENDBRANCH   1  24
TORSDOF 15
ENDMDL
MODEL 3
REMARK VINA RESULT:     -11.9      1.882      2.221
REMARK SMILES COc1ccc2c(c1)C=C(C(=O)NCCCNC(=O)c1ccc(-c3c4nc(c(-c5cccc(S(=O)(=O)[O-])c5F)c5ccc([nH]5)c(-c5cccc(S(=O)(=O)[O-])c5F)c5nc(c(-c6cccc(S(=O)(=O)[O-])c6F)c6ccc3[nH]6)C=C5)C=C4)cc1)[C@H](C(F)(F)F)O2
REMARK SMILES IDX 16 1 15 2 14 3 13 4 11 5 12 6 10 8 3 9 4 10 8 11 5 12 7 13
REMARK SMILES IDX 6 14 9 15 88 16 83 17 2 18 1 19 84 20 85 21 86 22 87 23
REMARK SMILES IDX 17 24 18 25 19 27 20 28 21 29 82 30 22 31 81 32 23 33 24 34
REMARK SMILES IDX 25 35 75 36 26 37 80 38 74 39 76 40 27 41 79 42 73 43 72 44
REMARK SMILES IDX 28 46 60 47 40 48 59 49 41 50 44 51 58 52 77 53 42 54 43 55
REMARK SMILES IDX 57 57 78 58 45 59 29 60 30 61 38 62 31 63 33 64 39 65 32 66
REMARK SMILES IDX 34 67 35 68 36 69 37 70 61 71 62 72 70 73 63 74 65 75 71 76
REMARK SMILES IDX 64 77 66 78 67 79 68 80 69 81 46 82 47 83 55 84 48 85 50 86
REMARK SMILES IDX 56 87 49 88 51 89 52 90 53 91 54 92
REMARK H PARENT 13 7 17 26 76 45 44 56
REMARK Flexibility Score: inf
ROOT
ATOM      1  C   UNL A   1      33.942  28.944  26.204  1.00  0.00     0.118 C 
ENDROOT
BRANCH   1   2
ATOM      2  C   UNL A   1      32.991  28.020  26.961  1.00  0.00     0.042 C 
BRANCH   2   3
ATOM      3  C   UNL A   1      31.630  27.862  26.278  1.00  0.00     0.118 C 
BRANCH   3   4
ATOM      4  N   UNL A   1      30.994  26.615  26.676  1.00  0.00    -0.352 N 
ATOM      5  C   UNL A   1      31.207  25.314  26.342  1.00  0.00     0.251 C 
ATOM      6  O   UNL A   1      30.417  24.476  26.771  1.00  0.00    -0.270 OA
ATOM      7  H   UNL A   1      30.260  26.737  27.320  1.00  0.00     0.163 HD
BRANCH   5   8
ATOM      8  C   UNL A   1      32.390  24.860  25.565  1.00  0.00     0.067 C 
ATOM      9  C   UNL A   1      36.475  22.347  25.035  1.00  0.00     0.119 A 
ATOM     10  C   UNL A   1      36.445  22.566  23.660  1.00  0.00     0.050 A 
ATOM     11  C   UNL A   1      35.495  22.908  25.852  1.00  0.00     0.058 A 
ATOM     12  C   UNL A   1      35.428  23.350  23.104  1.00  0.00     0.051 A 
ATOM     13  C   UNL A   1      34.481  23.696  25.296  1.00  0.00     0.021 A 
ATOM     14  C   UNL A   1      34.444  23.907  23.922  1.00  0.00     0.128 A 
ATOM     15  C   UNL A   1      33.409  24.201  26.133  1.00  0.00     0.025 C 
ATOM     16  O   UNL A   1      33.439  24.580  23.296  1.00  0.00    -0.475 OA
ATOM     17  C   UNL A   1      32.470  25.313  24.109  1.00  0.00     0.314 C 
BRANCH   9  18
ATOM     18  O   UNL A   1      37.360  21.507  25.653  1.00  0.00    -0.497 OA
ATOM     19  C   UNL A   1      37.621  20.312  24.923  1.00  0.00     0.278 C 
ENDBRANCH   9  18
BRANCH  17  20
ATOM     20  C   UNL A   1      31.142  25.334  23.316  1.00  0.00     0.429 C 
ATOM     21  F   UNL A   1      30.474  26.503  23.429  1.00  0.00    -0.167 F 
ATOM     22  F   UNL A   1      31.372  25.183  21.981  1.00  0.00    -0.167 F 
ATOM     23  F   UNL A   1      30.308  24.331  23.676  1.00  0.00    -0.167 F 
ENDBRANCH  17  20
ENDBRANCH   5   8
ENDBRANCH   3   4
ENDBRANCH   2   3
ENDBRANCH   1   2
BRANCH   1  24
ATOM     24  N   UNL A   1      33.854  30.317  26.682  1.00  0.00    -0.352 N 
ATOM     25  C   UNL A   1      34.601  30.961  27.637  1.00  0.00     0.251 C 
ATOM     26  H   UNL A   1      33.156  30.864  26.257  1.00  0.00     0.163 HD
ATOM     27  O   UNL A   1      34.220  32.044  28.071  1.00  0.00    -0.269 OA
BRANCH  25  28
ATOM     28  C   UNL A   1      35.853  30.357  28.142  1.00  0.00     0.039 A 
ATOM     29  C   UNL A   1      37.004  30.421  27.351  1.00  0.00     0.014 A 
ATOM     30  C   UNL A   1      35.885  29.692  29.370  1.00  0.00     0.014 A 
ATOM     31  C   UNL A   1      38.197  29.858  27.812  1.00  0.00     0.010 A 
ATOM     32  C   UNL A   1      37.088  29.196  29.859  1.00  0.00     0.010 A 
ATOM     33  C   UNL A   1      38.255  29.262  29.081  1.00  0.00    -0.014 A 
BRANCH  33  34
ATOM     34  C   UNL A   1      39.516  28.697  29.622  1.00  0.00     0.031 A 
ATOM     35  C   UNL A   1      40.239  29.400  30.740  1.00  0.00     0.074 A 
ATOM     36  C   UNL A   1      40.067  27.615  29.037  1.00  0.00     0.049 A 
ATOM     37  N   UNL A   1      41.401  29.127  31.271  1.00  0.00    -0.248 NA
ATOM     38  C   UNL A   1      39.581  30.585  31.313  1.00  0.00     0.031 C 
ATOM     39  C   UNL A   1      39.498  26.890  27.899  1.00  0.00     0.029 A 
ATOM     40  N   UNL A   1      41.246  26.961  29.292  1.00  0.00    -0.354 N 
ATOM     41  C   UNL A   1      41.637  30.128  32.205  1.00  0.00     0.074 A 
ATOM     42  C   UNL A   1      40.508  31.032  32.148  1.00  0.00     0.031 C 
ATOM     43  C   UNL A   1      40.331  25.897  27.549  1.00  0.00     0.029 A 
ATOM     44  C   UNL A   1      41.507  25.935  28.412  1.00  0.00     0.049 A 
ATOM     45  H   UNL A   1      41.847  27.202  30.032  1.00  0.00     0.167 HD
ATOM     46  C   UNL A   1      42.686  30.272  33.050  1.00  0.00     0.034 A 
ATOM     47  C   UNL A   1      42.580  25.128  28.302  1.00  0.00     0.034 A 
ATOM     48  C   UNL A   1      43.781  29.345  33.134  1.00  0.00     0.049 A 
ATOM     49  C   UNL A   1      43.712  25.279  29.282  1.00  0.00     0.074 A 
ATOM     50  C   UNL A   1      44.842  29.344  34.021  1.00  0.00     0.029 A 
ATOM     51  N   UNL A   1      43.963  28.258  32.291  1.00  0.00    -0.354 N 
ATOM     52  N   UNL A   1      43.845  26.140  30.261  1.00  0.00    -0.248 NA
ATOM     53  C   UNL A   1      44.825  24.326  29.166  1.00  0.00     0.031 C 
ATOM     54  C   UNL A   1      45.680  28.273  33.697  1.00  0.00     0.029 A 
ATOM     55  C   UNL A   1      45.124  27.585  32.630  1.00  0.00     0.049 A 
ATOM     56  H   UNL A   1      43.355  28.003  31.560  1.00  0.00     0.167 HD
ATOM     57  C   UNL A   1      45.033  25.809  30.902  1.00  0.00     0.074 A 
ATOM     58  C   UNL A   1      45.576  24.660  30.207  1.00  0.00     0.031 C 
ATOM     59  C   UNL A   1      45.624  26.410  31.964  1.00  0.00     0.034 A 
BRANCH  46  60
ATOM     60  C   UNL A   1      42.675  31.456  33.984  1.00  0.00     0.023 A 
ATOM     61  C   UNL A   1      43.264  32.671  33.579  1.00  0.00     0.012 A 
ATOM     62  C   UNL A   1      42.045  31.380  35.242  1.00  0.00     0.148 A 
ATOM     63  C   UNL A   1      43.265  33.779  34.427  1.00  0.00     0.002 A 
ATOM     64  C   UNL A   1      42.009  32.503  36.063  1.00  0.00     0.091 A 
ATOM     65  F   UNL A   1      41.509  30.211  35.621  1.00  0.00    -0.205 F 
ATOM     66  C   UNL A   1      42.630  33.697  35.663  1.00  0.00     0.022 A 
BRANCH  64  67
ATOM     67  S   UNL A   1      41.143  32.523  37.636  1.00  0.00     0.127 S 
ATOM     68  O   UNL A   1      41.967  31.619  38.438  1.00  0.00    -0.237 OA
ATOM     69  O   UNL A   1      41.233  33.931  38.020  1.00  0.00    -0.237 OA
ATOM     70  O   UNL A   1      39.792  32.056  37.355  1.00  0.00    -0.744 OA
ENDBRANCH  64  67
ENDBRANCH  46  60
BRANCH  47  71
ATOM     71  C   UNL A   1      42.598  24.064  27.258  1.00  0.00     0.023 A 
ATOM     72  C   UNL A   1      43.230  24.317  26.025  1.00  0.00     0.012 A 
ATOM     73  C   UNL A   1      42.044  22.791  27.499  1.00  0.00     0.148 A 
ATOM     74  C   UNL A   1      43.285  23.332  25.040  1.00  0.00     0.002 A 
ATOM     75  C   UNL A   1      42.152  21.797  26.535  1.00  0.00     0.091 A 
ATOM     76  F   UNL A   1      41.443  22.573  28.677  1.00  0.00    -0.205 F 
ATOM     77  C   UNL A   1      42.757  22.069  25.298  1.00  0.00     0.022 A 
BRANCH  75  78
ATOM     78  S   UNL A   1      41.625  20.105  26.827  1.00  0.00     0.127 S 
ATOM     79  O   UNL A   1      40.237  20.291  27.241  1.00  0.00    -0.237 OA
ATOM     80  O   UNL A   1      41.800  19.502  25.505  1.00  0.00    -0.237 OA
ATOM     81  O   UNL A   1      42.523  19.582  27.849  1.00  0.00    -0.744 OA
ENDBRANCH  75  78
ENDBRANCH  47  71
BRANCH  59  82
ATOM     82  C   UNL A   1      46.908  25.817  32.482  1.00  0.00     0.023 A 
ATOM     83  C   UNL A   1      46.887  24.951  33.592  1.00  0.00     0.012 A 
ATOM     84  C   UNL A   1      48.123  26.044  31.804  1.00  0.00     0.148 A 
ATOM     85  C   UNL A   1      48.059  24.339  34.035  1.00  0.00     0.002 A 
ATOM     86  C   UNL A   1      49.277  25.392  32.220  1.00  0.00     0.091 A 
ATOM     87  F   UNL A   1      48.124  26.886  30.760  1.00  0.00    -0.205 F 
ATOM     88  C   UNL A   1      49.250  24.549  33.341  1.00  0.00     0.022 A 
BRANCH  86  89
ATOM     89  S   UNL A   1      50.831  25.522  31.329  1.00  0.00     0.127 S 
ATOM     90  O   UNL A   1      50.445  25.079  29.990  1.00  0.00    -0.237 OA
ATOM     91  O   UNL A   1      51.132  26.949  31.437  1.00  0.00    -0.237 OA
ATOM     92  O   UNL A   1      51.770  24.651  32.026  1.00  0.00    -0.744 OA
ENDBRANCH  86  89
ENDBRANCH  59  82
ENDBRANCH  33  34
ENDBRANCH  25  28
ENDBRANCH   1  24
TORSDOF 15
ENDMDL
