MODEL 1
REMARK VINA RESULT:     -12.8      0.000      0.000
REMARK SMILES O=C(NCCCNC(=O)c1cc(-c2cccc(Cl)c2)ccc1Cl)c1ccc(-c2c3nc(c(-c4cccc(S(=O)(=O)[O-])c4F)c4ccc([nH]4)c(-c4cccc(S(=O)(=O)[O-])c4F)c4nc(c(-c5cccc(S(=O)(=O)[O-])c5F)c5ccc2[nH]5)C=C4)C=C3)cc1
REMARK SMILES IDX 4 1 3 2 1 3 2 4 24 6 25 7 86 8 26 9 85 10 27 11 28 12 29 13
REMARK SMILES IDX 79 14 30 15 84 16 78 17 80 18 31 19 83 20 77 21 76 22 32 24
REMARK SMILES IDX 64 25 44 26 63 27 45 28 48 29 62 30 81 31 46 32 47 33 61 35
REMARK SMILES IDX 82 36 49 37 33 38 34 39 42 40 35 41 37 42 43 43 36 44 38 45
REMARK SMILES IDX 39 46 40 47 41 48 65 49 66 50 74 51 67 52 69 53 75 54 68 55
REMARK SMILES IDX 70 56 71 57 72 58 73 59 50 60 51 61 59 62 52 63 54 64 60 65
REMARK SMILES IDX 53 66 55 67 56 68 57 69 58 70 5 71 6 72 7 73 8 74 9 76 10 77
REMARK SMILES IDX 11 78 22 79 12 80 21 81 23 82 20 83 13 84 14 85 19 86 15 87
REMARK SMILES IDX 17 88 16 89 18 90
REMARK H PARENT 3 5 80 23 48 34 7 75
REMARK Flexibility Score: inf
ROOT
ATOM      1  C   UNL A   1      32.478  29.240  26.458  1.00  0.00     0.118 C 
ENDROOT
BRANCH   1   2
ATOM      2  N   UNL A   1      32.362  30.691  26.540  1.00  0.00    -0.352 N 
ATOM      3  O   UNL A   1      32.759  32.786  27.245  1.00  0.00    -0.269 OA
ATOM      4  C   UNL A   1      33.150  31.623  27.174  1.00  0.00     0.251 C 
ATOM      5  H   UNL A   1      31.590  31.068  26.060  1.00  0.00     0.163 HD
BRANCH   4   6
ATOM      6  C   UNL A   1      34.437  31.234  27.798  1.00  0.00     0.039 A 
ATOM      7  C   UNL A   1      34.688  29.914  28.167  1.00  0.00     0.014 A 
ATOM      8  C   UNL A   1      35.421  32.207  28.000  1.00  0.00     0.014 A 
ATOM      9  C   UNL A   1      35.818  29.606  28.915  1.00  0.00     0.010 A 
ATOM     10  C   UNL A   1      36.614  31.870  28.650  1.00  0.00     0.010 A 
ATOM     11  C   UNL A   1      36.803  30.577  29.160  1.00  0.00    -0.014 A 
BRANCH  11  12
ATOM     12  C   UNL A   1      38.029  30.190  29.909  1.00  0.00     0.031 A 
ATOM     13  C   UNL A   1      38.260  30.640  31.327  1.00  0.00     0.074 A 
ATOM     14  C   UNL A   1      38.930  29.389  29.303  1.00  0.00     0.049 A 
ATOM     15  N   UNL A   1      39.236  30.320  32.139  1.00  0.00    -0.248 NA
ATOM     16  C   UNL A   1      37.284  31.575  31.909  1.00  0.00     0.031 C 
ATOM     17  C   UNL A   1      38.843  28.926  27.915  1.00  0.00     0.029 A 
ATOM     18  N   UNL A   1      40.079  28.807  29.773  1.00  0.00    -0.354 N 
ATOM     19  C   UNL A   1      39.021  31.046  33.305  1.00  0.00     0.074 A 
ATOM     20  C   UNL A   1      37.824  31.830  33.094  1.00  0.00     0.031 C 
ATOM     21  C   UNL A   1      39.859  28.091  27.664  1.00  0.00     0.029 A 
ATOM     22  C   UNL A   1      40.702  27.998  28.851  1.00  0.00     0.049 A 
ATOM     23  H   UNL A   1      40.425  28.954  30.683  1.00  0.00     0.167 HD
ATOM     24  C   UNL A   1      39.743  31.047  34.451  1.00  0.00     0.034 A 
ATOM     25  C   UNL A   1      41.824  27.261  28.946  1.00  0.00     0.034 A 
ATOM     26  C   UNL A   1      40.902  30.224  34.679  1.00  0.00     0.049 A 
ATOM     27  C   UNL A   1      42.575  27.244  30.246  1.00  0.00     0.074 A 
ATOM     28  C   UNL A   1      41.652  30.095  35.834  1.00  0.00     0.029 A 
ATOM     29  N   UNL A   1      41.480  29.391  33.733  1.00  0.00    -0.354 N 
ATOM     30  N   UNL A   1      42.275  27.832  31.377  1.00  0.00    -0.248 NA
ATOM     31  C   UNL A   1      43.807  26.445  30.287  1.00  0.00     0.031 C 
ATOM     32  C   UNL A   1      42.694  29.194  35.582  1.00  0.00     0.029 A 
ATOM     33  C   UNL A   1      42.584  28.753  34.274  1.00  0.00     0.049 A 
ATOM     34  H   UNL A   1      41.155  29.272  32.812  1.00  0.00     0.167 HD
ATOM     35  C   UNL A   1      43.266  27.456  32.274  1.00  0.00     0.074 A 
ATOM     36  C   UNL A   1      44.159  26.566  31.560  1.00  0.00     0.031 C 
ATOM     37  C   UNL A   1      43.434  27.830  33.567  1.00  0.00     0.034 A 
BRANCH  24  38
ATOM     38  C   UNL A   1      39.278  31.937  35.575  1.00  0.00     0.023 A 
ATOM     39  C   UNL A   1      38.401  31.424  36.552  1.00  0.00     0.012 A 
ATOM     40  C   UNL A   1      39.757  33.256  35.703  1.00  0.00     0.148 A 
ATOM     41  C   UNL A   1      37.986  32.217  37.622  1.00  0.00     0.002 A 
ATOM     42  C   UNL A   1      39.368  34.029  36.792  1.00  0.00     0.091 A 
ATOM     43  F   UNL A   1      40.570  33.738  34.752  1.00  0.00    -0.205 F 
ATOM     44  C   UNL A   1      38.477  33.514  37.748  1.00  0.00     0.022 A 
BRANCH  42  45
ATOM     45  S   UNL A   1      40.009  35.684  37.074  1.00  0.00     0.127 S 
ATOM     46  O   UNL A   1      39.319  36.062  38.307  1.00  0.00    -0.237 OA
ATOM     47  O   UNL A   1      41.444  35.442  37.232  1.00  0.00    -0.237 OA
ATOM     48  O   UNL A   1      39.654  36.452  35.890  1.00  0.00    -0.744 OA
ENDBRANCH  42  45
ENDBRANCH  24  38
BRANCH  25  49
ATOM     49  C   UNL A   1      42.256  26.423  27.791  1.00  0.00     0.023 A 
ATOM     50  C   UNL A   1      43.173  26.951  26.862  1.00  0.00     0.012 A 
ATOM     51  C   UNL A   1      41.812  25.096  27.641  1.00  0.00     0.148 A 
ATOM     52  C   UNL A   1      43.627  26.176  25.794  1.00  0.00     0.002 A 
ATOM     53  C   UNL A   1      42.314  24.311  26.608  1.00  0.00     0.091 A 
ATOM     54  F   UNL A   1      40.923  24.618  28.523  1.00  0.00    -0.205 F 
ATOM     55  C   UNL A   1      43.209  24.854  25.675  1.00  0.00     0.022 A 
BRANCH  53  56
ATOM     56  S   UNL A   1      41.940  22.559  26.477  1.00  0.00     0.127 S 
ATOM     57  O   UNL A   1      42.653  22.192  25.256  1.00  0.00    -0.237 OA
ATOM     58  O   UNL A   1      42.520  22.028  27.712  1.00  0.00    -0.237 OA
ATOM     59  O   UNL A   1      40.487  22.477  26.417  1.00  0.00    -0.744 OA
ENDBRANCH  53  56
ENDBRANCH  25  49
BRANCH  37  60
ATOM     60  C   UNL A   1      44.621  27.265  34.299  1.00  0.00     0.023 A 
ATOM     61  C   UNL A   1      45.835  27.981  34.315  1.00  0.00     0.012 A 
ATOM     62  C   UNL A   1      44.520  26.058  35.017  1.00  0.00     0.148 A 
ATOM     63  C   UNL A   1      46.940  27.487  35.006  1.00  0.00     0.002 A 
ATOM     64  C   UNL A   1      45.613  25.594  35.741  1.00  0.00     0.091 A 
ATOM     65  F   UNL A   1      43.365  25.378  34.971  1.00  0.00    -0.205 F 
ATOM     66  C   UNL A   1      46.826  26.301  35.727  1.00  0.00     0.022 A 
BRANCH  64  67
ATOM     67  S   UNL A   1      45.520  24.122  36.767  1.00  0.00     0.127 S 
ATOM     68  O   UNL A   1      46.918  23.934  37.148  1.00  0.00    -0.237 OA
ATOM     69  O   UNL A   1      44.644  24.552  37.857  1.00  0.00    -0.237 OA
ATOM     70  O   UNL A   1      44.951  23.084  35.917  1.00  0.00    -0.744 OA
ENDBRANCH  64  67
ENDBRANCH  37  60
ENDBRANCH  11  12
ENDBRANCH   4   6
ENDBRANCH   1   2
BRANCH   1  71
ATOM     71  C   UNL A   1      33.231  28.768  25.222  1.00  0.00     0.042 C 
BRANCH  71  72
ATOM     72  C   UNL A   1      33.448  27.265  25.160  1.00  0.00     0.118 C 
BRANCH  72  73
ATOM     73  N   UNL A   1      33.602  26.775  23.797  1.00  0.00    -0.352 N 
ATOM     74  C   UNL A   1      32.658  26.587  22.821  1.00  0.00     0.252 C 
ATOM     75  H   UNL A   1      34.523  26.545  23.538  1.00  0.00     0.163 HD
ATOM     76  O   UNL A   1      32.971  26.088  21.744  1.00  0.00    -0.269 OA
BRANCH  74  77
ATOM     77  C   UNL A   1      31.246  26.926  23.073  1.00  0.00     0.059 A 
ATOM     78  C   UNL A   1      30.827  28.218  22.708  1.00  0.00     0.024 A 
ATOM     79  C   UNL A   1      30.362  26.056  23.715  1.00  0.00     0.053 A 
ATOM     80  C   UNL A   1      29.508  28.635  22.935  1.00  0.00    -0.017 A 
ATOM     81  C   UNL A   1      29.029  26.433  23.876  1.00  0.00     0.022 A 
ATOM     82  Cl  UNL A   1      30.846  24.540  24.390  1.00  0.00    -0.083 Cl
ATOM     83  C   UNL A   1      28.607  27.705  23.481  1.00  0.00     0.010 A 
BRANCH  80  84
ATOM     84  C   UNL A   1      29.085  30.023  22.683  1.00  0.00    -0.017 A 
ATOM     85  C   UNL A   1      29.162  30.977  23.716  1.00  0.00     0.009 A 
ATOM     86  C   UNL A   1      28.617  30.445  21.429  1.00  0.00     0.029 A 
ATOM     87  C   UNL A   1      28.778  32.304  23.513  1.00  0.00     0.002 A 
ATOM     88  C   UNL A   1      28.234  31.774  21.229  1.00  0.00     0.041 A 
ATOM     89  C   UNL A   1      28.311  32.703  22.265  1.00  0.00     0.020 A 
ATOM     90  Cl  UNL A   1      27.658  32.276  19.686  1.00  0.00    -0.084 Cl
ENDBRANCH  80  84
ENDBRANCH  74  77
ENDBRANCH  72  73
ENDBRANCH  71  72
ENDBRANCH   1  71
TORSDOF 14
ENDMDL
MODEL 2
REMARK VINA RESULT:     -12.8      2.388      4.190
REMARK SMILES O=C(NCCCNC(=O)c1cc(-c2cccc(Cl)c2)ccc1Cl)c1ccc(-c2c3nc(c(-c4cccc(S(=O)(=O)[O-])c4F)c4ccc([nH]4)c(-c4cccc(S(=O)(=O)[O-])c4F)c4nc(c(-c5cccc(S(=O)(=O)[O-])c5F)c5ccc2[nH]5)C=C4)C=C3)cc1
REMARK SMILES IDX 4 1 3 2 1 3 2 4 24 6 25 7 86 8 26 9 85 10 27 11 28 12 29 13
REMARK SMILES IDX 79 14 30 15 84 16 78 17 80 18 31 19 83 20 77 21 76 22 32 24
REMARK SMILES IDX 64 25 44 26 63 27 45 28 48 29 62 30 81 31 46 32 47 33 61 35
REMARK SMILES IDX 82 36 49 37 33 38 34 39 42 40 35 41 37 42 43 43 36 44 38 45
REMARK SMILES IDX 39 46 40 47 41 48 65 49 66 50 74 51 67 52 69 53 75 54 68 55
REMARK SMILES IDX 70 56 71 57 72 58 73 59 50 60 51 61 59 62 52 63 54 64 60 65
REMARK SMILES IDX 53 66 55 67 56 68 57 69 58 70 5 71 6 72 7 73 8 74 9 76 10 77
REMARK SMILES IDX 11 78 22 79 12 80 21 81 23 82 20 83 13 84 14 85 19 86 15 87
REMARK SMILES IDX 17 88 16 89 18 90
REMARK H PARENT 3 5 80 23 48 34 7 75
REMARK Flexibility Score: inf
ROOT
ATOM      1  C   UNL A   1      32.891  29.783  25.752  1.00  0.00     0.118 C 
ENDROOT
BRANCH   1   2
ATOM      2  N   UNL A   1      32.608  31.120  26.260  1.00  0.00    -0.352 N 
ATOM      3  O   UNL A   1      32.736  32.925  27.590  1.00  0.00    -0.269 OA
ATOM      4  C   UNL A   1      33.260  31.884  27.199  1.00  0.00     0.251 C 
ATOM      5  H   UNL A   1      31.816  31.549  25.862  1.00  0.00     0.163 HD
BRANCH   4   6
ATOM      6  C   UNL A   1      34.558  31.448  27.766  1.00  0.00     0.039 A 
ATOM      7  C   UNL A   1      34.767  30.126  28.155  1.00  0.00     0.014 A 
ATOM      8  C   UNL A   1      35.595  32.378  27.893  1.00  0.00     0.014 A 
ATOM      9  C   UNL A   1      35.920  29.783  28.851  1.00  0.00     0.010 A 
ATOM     10  C   UNL A   1      36.804  32.000  28.490  1.00  0.00     0.010 A 
ATOM     11  C   UNL A   1      36.959  30.712  29.022  1.00  0.00    -0.014 A 
BRANCH  11  12
ATOM     12  C   UNL A   1      38.204  30.284  29.716  1.00  0.00     0.031 A 
ATOM     13  C   UNL A   1      38.499  30.704  31.131  1.00  0.00     0.074 A 
ATOM     14  C   UNL A   1      39.062  29.474  29.063  1.00  0.00     0.049 A 
ATOM     15  N   UNL A   1      39.497  30.349  31.900  1.00  0.00    -0.248 NA
ATOM     16  C   UNL A   1      37.568  31.650  31.766  1.00  0.00     0.031 C 
ATOM     17  C   UNL A   1      38.912  29.038  27.672  1.00  0.00     0.029 A 
ATOM     18  N   UNL A   1      40.215  28.858  29.479  1.00  0.00    -0.354 N 
ATOM     19  C   UNL A   1      39.344  31.059  33.085  1.00  0.00     0.074 A 
ATOM     20  C   UNL A   1      38.158  31.873  32.933  1.00  0.00     0.031 C 
ATOM     21  C   UNL A   1      39.899  28.184  27.368  1.00  0.00     0.029 A 
ATOM     22  C   UNL A   1      40.783  28.052  28.520  1.00  0.00     0.049 A 
ATOM     23  H   UNL A   1      40.598  28.982  30.377  1.00  0.00     0.167 HD
ATOM     24  C   UNL A   1      40.108  31.024  34.202  1.00  0.00     0.034 A 
ATOM     25  C   UNL A   1      41.891  27.288  28.560  1.00  0.00     0.034 A 
ATOM     26  C   UNL A   1      41.256  30.171  34.372  1.00  0.00     0.049 A 
ATOM     27  C   UNL A   1      42.690  27.232  29.830  1.00  0.00     0.074 A 
ATOM     28  C   UNL A   1      42.047  30.005  35.495  1.00  0.00     0.029 A 
ATOM     29  N   UNL A   1      41.779  29.342  33.391  1.00  0.00    -0.354 N 
ATOM     30  N   UNL A   1      42.447  27.807  30.981  1.00  0.00    -0.248 NA
ATOM     31  C   UNL A   1      43.904  26.405  29.810  1.00  0.00     0.031 C 
ATOM     32  C   UNL A   1      43.057  29.086  35.189  1.00  0.00     0.029 A 
ATOM     33  C   UNL A   1      42.887  28.670  33.879  1.00  0.00     0.049 A 
ATOM     34  H   UNL A   1      41.415  29.246  32.482  1.00  0.00     0.167 HD
ATOM     35  C   UNL A   1      43.463  27.393  31.833  1.00  0.00     0.074 A 
ATOM     36  C   UNL A   1      44.307  26.495  31.071  1.00  0.00     0.031 C 
ATOM     37  C   UNL A   1      43.688  27.741  33.125  1.00  0.00     0.034 A 
BRANCH  24  38
ATOM     38  C   UNL A   1      39.707  31.904  35.358  1.00  0.00     0.023 A 
ATOM     39  C   UNL A   1      40.139  33.245  35.395  1.00  0.00     0.012 A 
ATOM     40  C   UNL A   1      38.851  31.427  36.371  1.00  0.00     0.148 A 
ATOM     41  C   UNL A   1      39.750  34.090  36.435  1.00  0.00     0.002 A 
ATOM     42  C   UNL A   1      38.437  32.286  37.385  1.00  0.00     0.091 A 
ATOM     43  F   UNL A   1      38.468  30.143  36.335  1.00  0.00    -0.205 F 
ATOM     44  C   UNL A   1      38.891  33.614  37.423  1.00  0.00     0.022 A 
BRANCH  42  45
ATOM     45  S   UNL A   1      37.273  31.779  38.657  1.00  0.00     0.127 S 
ATOM     46  O   UNL A   1      38.066  31.961  39.872  1.00  0.00    -0.237 OA
ATOM     47  O   UNL A   1      36.186  32.745  38.491  1.00  0.00    -0.237 OA
ATOM     48  O   UNL A   1      36.911  30.406  38.338  1.00  0.00    -0.744 OA
ENDBRANCH  42  45
ENDBRANCH  24  38
BRANCH  25  49
ATOM     49  C   UNL A   1      42.259  26.461  27.376  1.00  0.00     0.023 A 
ATOM     50  C   UNL A   1      42.913  27.069  26.288  1.00  0.00     0.012 A 
ATOM     51  C   UNL A   1      42.020  25.074  27.346  1.00  0.00     0.148 A 
ATOM     52  C   UNL A   1      43.307  26.313  25.183  1.00  0.00     0.002 A 
ATOM     53  C   UNL A   1      42.468  24.317  26.269  1.00  0.00     0.091 A 
ATOM     54  F   UNL A   1      41.378  24.516  28.383  1.00  0.00    -0.205 F 
ATOM     55  C   UNL A   1      43.097  24.937  25.179  1.00  0.00     0.022 A 
BRANCH  53  56
ATOM     56  S   UNL A   1      42.369  22.523  26.259  1.00  0.00     0.127 S 
ATOM     57  O   UNL A   1      43.162  22.175  27.435  1.00  0.00    -0.237 OA
ATOM     58  O   UNL A   1      40.930  22.295  26.397  1.00  0.00    -0.237 OA
ATOM     59  O   UNL A   1      42.918  22.113  24.974  1.00  0.00    -0.744 OA
ENDBRANCH  53  56
ENDBRANCH  25  49
BRANCH  37  60
ATOM     60  C   UNL A   1      44.889  27.137  33.802  1.00  0.00     0.023 A 
ATOM     61  C   UNL A   1      46.129  27.803  33.744  1.00  0.00     0.012 A 
ATOM     62  C   UNL A   1      44.778  25.943  34.540  1.00  0.00     0.148 A 
ATOM     63  C   UNL A   1      47.249  27.273  34.383  1.00  0.00     0.002 A 
ATOM     64  C   UNL A   1      45.888  25.443  35.212  1.00  0.00     0.091 A 
ATOM     65  F   UNL A   1      43.596  25.310  34.564  1.00  0.00    -0.205 F 
ATOM     66  C   UNL A   1      47.126  26.100  35.125  1.00  0.00     0.022 A 
BRANCH  64  67
ATOM     67  S   UNL A   1      45.791  23.989  36.262  1.00  0.00     0.127 S 
ATOM     68  O   UNL A   1      47.159  23.892  36.767  1.00  0.00    -0.237 OA
ATOM     69  O   UNL A   1      44.799  24.385  37.261  1.00  0.00    -0.237 OA
ATOM     70  O   UNL A   1      45.361  22.902  35.391  1.00  0.00    -0.744 OA
ENDBRANCH  64  67
ENDBRANCH  37  60
ENDBRANCH  11  12
ENDBRANCH   4   6
ENDBRANCH   1   2
BRANCH   1  71
ATOM     71  C   UNL A   1      31.769  28.790  26.022  1.00  0.00     0.042 C 
BRANCH  71  72
ATOM     72  C   UNL A   1      32.163  27.635  26.929  1.00  0.00     0.118 C 
BRANCH  72  73
ATOM     73  N   UNL A   1      31.118  26.627  27.041  1.00  0.00    -0.352 N 
ATOM     74  C   UNL A   1      30.882  25.519  26.268  1.00  0.00     0.252 C 
ATOM     75  H   UNL A   1      30.487  26.760  27.784  1.00  0.00     0.163 HD
ATOM     76  O   UNL A   1      29.896  24.818  26.473  1.00  0.00    -0.269 OA
BRANCH  74  77
ATOM     77  C   UNL A   1      31.776  25.189  25.144  1.00  0.00     0.059 A 
ATOM     78  C   UNL A   1      32.956  24.490  25.453  1.00  0.00     0.024 A 
ATOM     79  C   UNL A   1      31.531  25.608  23.833  1.00  0.00     0.053 A 
ATOM     80  C   UNL A   1      33.877  24.157  24.449  1.00  0.00    -0.017 A 
ATOM     81  C   UNL A   1      32.401  25.217  22.817  1.00  0.00     0.022 A 
ATOM     82  Cl  UNL A   1      30.224  26.653  23.402  1.00  0.00    -0.083 Cl
ATOM     83  C   UNL A   1      33.556  24.492  23.122  1.00  0.00     0.010 A 
BRANCH  80  84
ATOM     84  C   UNL A   1      35.177  23.544  24.769  1.00  0.00    -0.017 A 
ATOM     85  C   UNL A   1      35.494  22.268  24.261  1.00  0.00     0.009 A 
ATOM     86  C   UNL A   1      36.136  24.196  25.559  1.00  0.00     0.029 A 
ATOM     87  C   UNL A   1      36.719  21.658  24.536  1.00  0.00     0.002 A 
ATOM     88  C   UNL A   1      37.362  23.582  25.833  1.00  0.00     0.041 A 
ATOM     89  C   UNL A   1      37.655  22.317  25.326  1.00  0.00     0.020 A 
ATOM     90  Cl  UNL A   1      38.526  24.393  26.806  1.00  0.00    -0.084 Cl
ENDBRANCH  80  84
ENDBRANCH  74  77
ENDBRANCH  72  73
ENDBRANCH  71  72
ENDBRANCH   1  71
TORSDOF 14
ENDMDL
MODEL 3
REMARK VINA RESULT:     -12.8      1.877      4.060
REMARK SMILES O=C(NCCCNC(=O)c1cc(-c2cccc(Cl)c2)ccc1Cl)c1ccc(-c2c3nc(c(-c4cccc(S(=O)(=O)[O-])c4F)c4ccc([nH]4)c(-c4cccc(S(=O)(=O)[O-])c4F)c4nc(c(-c5cccc(S(=O)(=O)[O-])c5F)c5ccc2[nH]5)C=C4)C=C3)cc1
REMARK SMILES IDX 4 1 3 2 1 3 2 4 24 6 25 7 86 8 26 9 85 10 27 11 28 12 29 13
REMARK SMILES IDX 79 14 30 15 84 16 78 17 80 18 31 19 83 20 77 21 76 22 32 24
REMARK SMILES IDX 64 25 44 26 63 27 45 28 48 29 62 30 81 31 46 32 47 33 61 35
REMARK SMILES IDX 82 36 49 37 33 38 34 39 42 40 35 41 37 42 43 43 36 44 38 45
REMARK SMILES IDX 39 46 40 47 41 48 65 49 66 50 74 51 67 52 69 53 75 54 68 55
REMARK SMILES IDX 70 56 71 57 72 58 73 59 50 60 51 61 59 62 52 63 54 64 60 65
REMARK SMILES IDX 53 66 55 67 56 68 57 69 58 70 5 71 6 72 7 73 8 74 9 76 10 77
REMARK SMILES IDX 11 78 22 79 12 80 21 81 23 82 20 83 13 84 14 85 19 86 15 87
REMARK SMILES IDX 17 88 16 89 18 90
REMARK H PARENT 3 5 80 23 48 34 7 75
REMARK Flexibility Score: inf
ROOT
ATOM      1  C   UNL A   1      33.073  29.313  25.199  1.00  0.00     0.118 C 
ENDROOT
BRANCH   1   2
ATOM      2  N   UNL A   1      32.595  30.546  25.815  1.00  0.00    -0.352 N 
ATOM      3  O   UNL A   1      32.410  32.196  27.327  1.00  0.00    -0.269 OA
ATOM      4  C   UNL A   1      33.082  31.271  26.877  1.00  0.00     0.251 C 
ATOM      5  H   UNL A   1      31.786  30.923  25.400  1.00  0.00     0.163 HD
BRANCH   4   6
ATOM      6  C   UNL A   1      34.381  30.926  27.500  1.00  0.00     0.039 A 
ATOM      7  C   UNL A   1      34.673  29.618  27.882  1.00  0.00     0.014 A 
ATOM      8  C   UNL A   1      35.337  31.930  27.689  1.00  0.00     0.014 A 
ATOM      9  C   UNL A   1      35.814  29.352  28.628  1.00  0.00     0.010 A 
ATOM     10  C   UNL A   1      36.542  31.635  28.339  1.00  0.00     0.010 A 
ATOM     11  C   UNL A   1      36.770  30.354  28.861  1.00  0.00    -0.014 A 
BRANCH  11  12
ATOM     12  C   UNL A   1      38.010  30.011  29.609  1.00  0.00     0.031 A 
ATOM     13  C   UNL A   1      38.219  30.459  31.031  1.00  0.00     0.074 A 
ATOM     14  C   UNL A   1      38.944  29.253  28.999  1.00  0.00     0.049 A 
ATOM     15  N   UNL A   1      39.206  30.173  31.843  1.00  0.00    -0.248 NA
ATOM     16  C   UNL A   1      37.205  31.348  31.619  1.00  0.00     0.031 C 
ATOM     17  C   UNL A   1      38.879  28.798  27.607  1.00  0.00     0.029 A 
ATOM     18  N   UNL A   1      40.115  28.715  29.468  1.00  0.00    -0.354 N 
ATOM     19  C   UNL A   1      38.959  30.880  33.014  1.00  0.00     0.074 A 
ATOM     20  C   UNL A   1      37.731  31.616  32.807  1.00  0.00     0.031 C 
ATOM     21  C   UNL A   1      39.929  28.007  27.352  1.00  0.00     0.029 A 
ATOM     22  C   UNL A   1      40.772  27.939  28.540  1.00  0.00     0.049 A 
ATOM     23  H   UNL A   1      40.453  28.868  30.379  1.00  0.00     0.167 HD
ATOM     24  C   UNL A   1      39.678  30.901  34.162  1.00  0.00     0.034 A 
ATOM     25  C   UNL A   1      41.923  27.247  28.632  1.00  0.00     0.034 A 
ATOM     26  C   UNL A   1      40.869  30.124  34.386  1.00  0.00     0.049 A 
ATOM     27  C   UNL A   1      42.672  27.251  29.933  1.00  0.00     0.074 A 
ATOM     28  C   UNL A   1      41.622  30.016  35.542  1.00  0.00     0.029 A 
ATOM     29  N   UNL A   1      41.483  29.323  33.435  1.00  0.00    -0.354 N 
ATOM     30  N   UNL A   1      42.345  27.817  31.069  1.00  0.00    -0.248 NA
ATOM     31  C   UNL A   1      43.935  26.502  29.971  1.00  0.00     0.031 C 
ATOM     32  C   UNL A   1      42.700  29.161  35.286  1.00  0.00     0.029 A 
ATOM     33  C   UNL A   1      42.611  28.726  33.974  1.00  0.00     0.049 A 
ATOM     34  H   UNL A   1      41.164  29.198  32.513  1.00  0.00     0.167 HD
ATOM     35  C   UNL A   1      43.350  27.474  31.965  1.00  0.00     0.074 A 
ATOM     36  C   UNL A   1      44.280  26.627  31.246  1.00  0.00     0.031 C 
ATOM     37  C   UNL A   1      43.499  27.845  33.261  1.00  0.00     0.034 A 
BRANCH  24  38
ATOM     38  C   UNL A   1      39.174  31.762  35.292  1.00  0.00     0.023 A 
ATOM     39  C   UNL A   1      38.230  31.239  36.199  1.00  0.00     0.012 A 
ATOM     40  C   UNL A   1      39.681  33.061  35.497  1.00  0.00     0.148 A 
ATOM     41  C   UNL A   1      37.778  32.003  37.274  1.00  0.00     0.002 A 
ATOM     42  C   UNL A   1      39.252  33.804  36.592  1.00  0.00     0.091 A 
ATOM     43  F   UNL A   1      40.559  33.553  34.612  1.00  0.00    -0.205 F 
ATOM     44  C   UNL A   1      38.296  33.280  37.477  1.00  0.00     0.022 A 
BRANCH  42  45
ATOM     45  S   UNL A   1      39.921  35.428  36.973  1.00  0.00     0.127 S 
ATOM     46  O   UNL A   1      41.352  35.143  37.068  1.00  0.00    -0.237 OA
ATOM     47  O   UNL A   1      39.534  36.210  35.797  1.00  0.00    -0.237 OA
ATOM     48  O   UNL A   1      39.275  35.842  38.209  1.00  0.00    -0.744 OA
ENDBRANCH  42  45
ENDBRANCH  24  38
BRANCH  25  49
ATOM     49  C   UNL A   1      42.392  26.438  27.472  1.00  0.00     0.023 A 
ATOM     50  C   UNL A   1      43.199  27.043  26.490  1.00  0.00     0.012 A 
ATOM     51  C   UNL A   1      42.093  25.066  27.366  1.00  0.00     0.148 A 
ATOM     52  C   UNL A   1      43.686  26.300  25.414  1.00  0.00     0.002 A 
ATOM     53  C   UNL A   1      42.630  24.319  26.323  1.00  0.00     0.091 A 
ATOM     54  F   UNL A   1      41.305  24.512  28.299  1.00  0.00    -0.205 F 
ATOM     55  C   UNL A   1      43.414  24.938  25.338  1.00  0.00     0.022 A 
BRANCH  53  56
ATOM     56  S   UNL A   1      42.449  22.534  26.239  1.00  0.00     0.127 S 
ATOM     57  O   UNL A   1      43.101  22.109  27.475  1.00  0.00    -0.237 OA
ATOM     58  O   UNL A   1      40.994  22.373  26.224  1.00  0.00    -0.237 OA
ATOM     59  O   UNL A   1      43.106  22.136  25.001  1.00  0.00    -0.744 OA
ENDBRANCH  53  56
ENDBRANCH  25  49
BRANCH  37  60
ATOM     60  C   UNL A   1      44.707  27.323  33.992  1.00  0.00     0.023 A 
ATOM     61  C   UNL A   1      45.899  28.074  33.993  1.00  0.00     0.012 A 
ATOM     62  C   UNL A   1      44.646  26.121  34.723  1.00  0.00     0.148 A 
ATOM     63  C   UNL A   1      47.022  27.621  34.682  1.00  0.00     0.002 A 
ATOM     64  C   UNL A   1      45.756  25.696  35.444  1.00  0.00     0.091 A 
ATOM     65  F   UNL A   1      43.512  25.406  34.691  1.00  0.00    -0.205 F 
ATOM     66  C   UNL A   1      46.948  26.439  35.416  1.00  0.00     0.022 A 
BRANCH  64  67
ATOM     67  S   UNL A   1      45.713  24.233  36.486  1.00  0.00     0.127 S 
ATOM     68  O   UNL A   1      45.500  23.173  35.504  1.00  0.00    -0.237 OA
ATOM     69  O   UNL A   1      47.043  24.241  37.097  1.00  0.00    -0.237 OA
ATOM     70  O   UNL A   1      44.622  24.452  37.427  1.00  0.00    -0.744 OA
ENDBRANCH  64  67
ENDBRANCH  37  60
ENDBRANCH  11  12
ENDBRANCH   4   6
ENDBRANCH   1   2
BRANCH   1  71
ATOM     71  C   UNL A   1      32.879  29.284  23.690  1.00  0.00     0.042 C 
BRANCH  71  72
ATOM     72  C   UNL A   1      33.990  28.575  22.932  1.00  0.00     0.118 C 
BRANCH  72  73
ATOM     73  N   UNL A   1      33.484  27.677  21.903  1.00  0.00    -0.352 N 
ATOM     74  C   UNL A   1      33.099  26.365  21.997  1.00  0.00     0.252 C 
ATOM     75  H   UNL A   1      33.407  28.072  21.005  1.00  0.00     0.163 HD
ATOM     76  O   UNL A   1      32.767  25.742  20.992  1.00  0.00    -0.269 OA
BRANCH  74  77
ATOM     77  C   UNL A   1      33.135  25.667  23.294  1.00  0.00     0.059 A 
ATOM     78  C   UNL A   1      34.265  24.874  23.560  1.00  0.00     0.024 A 
ATOM     79  C   UNL A   1      32.076  25.706  24.205  1.00  0.00     0.053 A 
ATOM     80  C   UNL A   1      34.372  24.153  24.758  1.00  0.00    -0.017 A 
ATOM     81  C   UNL A   1      32.204  25.055  25.431  1.00  0.00     0.022 A 
ATOM     82  Cl  UNL A   1      30.564  26.474  23.868  1.00  0.00    -0.083 Cl
ATOM     83  C   UNL A   1      33.345  24.296  25.706  1.00  0.00     0.010 A 
BRANCH  80  84
ATOM     84  C   UNL A   1      35.482  23.217  24.997  1.00  0.00    -0.017 A 
ATOM     85  C   UNL A   1      36.707  23.696  25.503  1.00  0.00     0.009 A 
ATOM     86  C   UNL A   1      35.364  21.840  24.753  1.00  0.00     0.029 A 
ATOM     87  C   UNL A   1      37.779  22.837  25.750  1.00  0.00     0.002 A 
ATOM     88  C   UNL A   1      36.439  20.983  25.002  1.00  0.00     0.041 A 
ATOM     89  C   UNL A   1      37.645  21.476  25.497  1.00  0.00     0.020 A 
ATOM     90  Cl  UNL A   1      36.279  19.297  24.693  1.00  0.00    -0.084 Cl
ENDBRANCH  80  84
ENDBRANCH  74  77
ENDBRANCH  72  73
ENDBRANCH  71  72
ENDBRANCH   1  71
TORSDOF 14
ENDMDL
