MODEL 1
REMARK VINA RESULT:     -14.5      0.000      0.000
REMARK SMILES COc1cc2ccccc2cc1C(=O)Nc1cc(C(=O)NCCCNC(=O)c2ccc(-c3c4nc(c(-c5cccc(S(=O)(=O)[O-])c5F)c5ccc([nH]5)c(-c5cccc(S(=O)(=O)[O-])c5F)c5nc(c(-c6cccc(S(=O)(=O)[O-])c6F)c6ccc3[nH]6)C=C5)C=C4)cc2)ccc1C
REMARK SMILES IDX 23 1 22 2 21 3 19 4 20 5 18 7 16 8 17 9 93 10 92 11 94 12
REMARK SMILES IDX 91 13 15 14 13 15 14 16 12 18 3 19 4 20 5 21 11 22 6 23
REMARK SMILES IDX 10 24 7 25 9 26 8 27 2 28 1 29 24 30 25 31 26 32 27 34 28 35
REMARK SMILES IDX 29 36 90 37 30 38 89 39 31 40 32 41 33 42 83 43 34 44 88 45
REMARK SMILES IDX 82 46 84 47 35 48 87 49 81 50 80 51 36 53 68 54 48 55 67 56
REMARK SMILES IDX 49 57 52 58 66 59 85 60 50 61 51 62 65 64 86 65 53 66 37 67
REMARK SMILES IDX 38 68 46 69 39 70 41 71 47 72 40 73 42 74 43 75 44 76 45 77
REMARK SMILES IDX 69 78 70 79 78 80 71 81 73 82 79 83 72 84 74 85 75 86 76 87
REMARK SMILES IDX 77 88 54 89 55 90 63 91 56 92 58 93 64 94 57 95 59 96 60 97
REMARK SMILES IDX 61 98 62 99
REMARK H PARENT 21 6 15 17 25 33 84 52 52 63
REMARK Flexibility Score: inf
ROOT
ATOM      1  C   UNL A   1      37.725  21.074  25.093  1.00  0.00     0.042 C 
ENDROOT
BRANCH   1   2
ATOM      2  C   UNL A   1      36.200  21.001  25.113  1.00  0.00     0.118 C 
BRANCH   2   3
ATOM      3  N   UNL A   1      35.637  21.357  26.406  1.00  0.00    -0.352 N 
ATOM      4  C   UNL A   1      34.494  22.020  26.787  1.00  0.00     0.251 C 
ATOM      5  O   UNL A   1      34.251  22.062  27.996  1.00  0.00    -0.269 OA
ATOM      6  H   UNL A   1      36.189  21.062  27.166  1.00  0.00     0.163 HD
BRANCH   4   7
ATOM      7  C   UNL A   1      33.521  22.674  25.852  1.00  0.00     0.041 A 
ATOM      8  C   UNL A   1      32.919  24.057  23.928  1.00  0.00     0.045 A 
ATOM      9  C   UNL A   1      33.851  23.591  24.859  1.00  0.00     0.040 A 
ATOM     10  C   UNL A   1      31.559  23.761  24.093  1.00  0.00    -0.027 A 
ATOM     11  C   UNL A   1      31.202  22.860  25.107  1.00  0.00     0.006 A 
ATOM     12  C   UNL A   1      30.493  24.214  23.137  1.00  0.00     0.046 C 
ATOM     13  C   UNL A   1      32.171  22.309  25.957  1.00  0.00     0.014 A 
BRANCH   8  14
ATOM     14  N   UNL A   1      33.358  24.773  22.801  1.00  0.00    -0.322 N 
ATOM     15  C   UNL A   1      33.229  26.108  22.465  1.00  0.00     0.259 C 
ATOM     16  O   UNL A   1      33.534  26.431  21.312  1.00  0.00    -0.269 OA
ATOM     17  H   UNL A   1      33.842  24.231  22.136  1.00  0.00     0.170 HD
BRANCH  15  18
ATOM     18  C   UNL A   1      32.834  27.201  23.415  1.00  0.00     0.082 A 
ATOM     19  C   UNL A   1      31.651  27.953  23.377  1.00  0.00     0.132 A 
ATOM     20  C   UNL A   1      31.452  29.018  24.267  1.00  0.00     0.056 A 
ATOM     21  C   UNL A   1      32.365  29.287  25.292  1.00  0.00    -0.015 A 
ATOM     22  C   UNL A   1      33.730  27.445  24.478  1.00  0.00     0.026 A 
ATOM     23  C   UNL A   1      32.166  30.353  26.184  1.00  0.00     0.009 A 
ATOM     24  C   UNL A   1      33.501  28.462  25.429  1.00  0.00    -0.017 A 
ATOM     25  C   UNL A   1      33.049  30.568  27.242  1.00  0.00     0.001 A 
ATOM     26  C   UNL A   1      34.376  28.689  26.505  1.00  0.00     0.009 A 
ATOM     27  C   UNL A   1      34.146  29.727  27.410  1.00  0.00     0.001 A 
BRANCH  19  28
ATOM     28  O   UNL A   1      30.661  27.814  22.444  1.00  0.00    -0.496 OA
ATOM     29  C   UNL A   1      29.461  28.468  22.831  1.00  0.00     0.278 C 
ENDBRANCH  19  28
ENDBRANCH  15  18
ENDBRANCH   8  14
ENDBRANCH   4   7
ENDBRANCH   2   3
ENDBRANCH   1   2
BRANCH   1  30
ATOM     30  C   UNL A   1      38.269  22.338  25.723  1.00  0.00     0.118 C 
BRANCH  30  31
ATOM     31  N   UNL A   1      39.679  22.242  26.089  1.00  0.00    -0.352 N 
ATOM     32  C   UNL A   1      40.556  23.265  26.408  1.00  0.00     0.251 C 
ATOM     33  H   UNL A   1      40.054  21.333  26.113  1.00  0.00     0.163 HD
ATOM     34  O   UNL A   1      41.750  23.026  26.557  1.00  0.00    -0.269 OA
BRANCH  32  35
ATOM     35  C   UNL A   1      39.988  24.602  26.701  1.00  0.00     0.039 A 
ATOM     36  C   UNL A   1      40.609  25.700  26.098  1.00  0.00     0.014 A 
ATOM     37  C   UNL A   1      39.170  24.767  27.813  1.00  0.00     0.014 A 
ATOM     38  C   UNL A   1      40.655  26.911  26.781  1.00  0.00     0.010 A 
ATOM     39  C   UNL A   1      39.319  25.919  28.549  1.00  0.00     0.010 A 
ATOM     40  C   UNL A   1      40.120  26.961  28.063  1.00  0.00    -0.014 A 
BRANCH  40  41
ATOM     41  C   UNL A   1      40.326  28.043  29.010  1.00  0.00     0.031 A 
ATOM     42  C   UNL A   1      39.455  29.226  28.929  1.00  0.00     0.074 A 
ATOM     43  C   UNL A   1      41.162  27.877  30.059  1.00  0.00     0.049 A 
ATOM     44  N   UNL A   1      39.636  30.298  29.615  1.00  0.00    -0.248 NA
ATOM     45  C   UNL A   1      38.323  29.305  28.015  1.00  0.00     0.031 C 
ATOM     46  C   UNL A   1      41.200  28.658  31.292  1.00  0.00     0.029 A 
ATOM     47  N   UNL A   1      42.323  27.102  30.117  1.00  0.00    -0.354 N 
ATOM     48  C   UNL A   1      38.517  31.082  29.463  1.00  0.00     0.074 A 
ATOM     49  C   UNL A   1      37.794  30.478  28.372  1.00  0.00     0.031 C 
ATOM     50  C   UNL A   1      42.430  28.570  31.818  1.00  0.00     0.029 A 
ATOM     51  C   UNL A   1      43.253  27.865  30.854  1.00  0.00     0.049 A 
ATOM     52  H   UNL A   1      42.465  26.210  29.724  1.00  0.00     0.167 HD
ATOM     53  C   UNL A   1      38.301  32.068  30.377  1.00  0.00     0.034 A 
ATOM     54  C   UNL A   1      44.425  28.323  30.323  1.00  0.00     0.034 A 
ATOM     55  C   UNL A   1      39.515  32.300  31.185  1.00  0.00     0.049 A 
ATOM     56  C   UNL A   1      44.531  29.846  30.314  1.00  0.00     0.074 A 
ATOM     57  C   UNL A   1      39.925  32.030  32.479  1.00  0.00     0.029 A 
ATOM     58  N   UNL A   1      40.653  32.702  30.510  1.00  0.00    -0.354 N 
ATOM     59  N   UNL A   1      43.674  30.660  30.874  1.00  0.00    -0.248 NA
ATOM     60  C   UNL A   1      45.573  30.574  29.586  1.00  0.00     0.031 C 
ATOM     61  C   UNL A   1      41.344  32.236  32.546  1.00  0.00     0.029 A 
ATOM     62  C   UNL A   1      41.782  32.659  31.303  1.00  0.00     0.049 A 
ATOM     63  H   UNL A   1      40.658  32.989  29.568  1.00  0.00     0.167 HD
ATOM     64  C   UNL A   1      43.918  31.945  30.454  1.00  0.00     0.074 A 
ATOM     65  C   UNL A   1      45.151  31.846  29.694  1.00  0.00     0.031 C 
ATOM     66  C   UNL A   1      43.060  32.989  30.680  1.00  0.00     0.034 A 
BRANCH  53  67
ATOM     67  C   UNL A   1      36.971  32.747  30.668  1.00  0.00     0.023 A 
ATOM     68  C   UNL A   1      36.444  32.593  31.970  1.00  0.00     0.012 A 
ATOM     69  C   UNL A   1      36.141  33.441  29.754  1.00  0.00     0.148 A 
ATOM     70  C   UNL A   1      35.168  33.046  32.328  1.00  0.00     0.002 A 
ATOM     71  C   UNL A   1      34.868  33.899  30.107  1.00  0.00     0.091 A 
ATOM     72  F   UNL A   1      36.544  33.662  28.508  1.00  0.00    -0.205 F 
ATOM     73  C   UNL A   1      34.375  33.693  31.394  1.00  0.00     0.022 A 
BRANCH  71  74
ATOM     74  S   UNL A   1      33.779  34.729  28.931  1.00  0.00     0.127 S 
ATOM     75  O   UNL A   1      33.597  33.698  27.908  1.00  0.00    -0.237 OA
ATOM     76  O   UNL A   1      32.591  34.996  29.740  1.00  0.00    -0.237 OA
ATOM     77  O   UNL A   1      34.484  35.920  28.471  1.00  0.00    -0.744 OA
ENDBRANCH  71  74
ENDBRANCH  53  67
BRANCH  54  78
ATOM     78  C   UNL A   1      45.000  27.383  29.312  1.00  0.00     0.023 A 
ATOM     79  C   UNL A   1      45.389  26.108  29.794  1.00  0.00     0.012 A 
ATOM     80  C   UNL A   1      44.801  27.546  27.931  1.00  0.00     0.148 A 
ATOM     81  C   UNL A   1      45.421  24.997  28.952  1.00  0.00     0.002 A 
ATOM     82  C   UNL A   1      44.868  26.436  27.089  1.00  0.00     0.091 A 
ATOM     83  F   UNL A   1      44.465  28.757  27.467  1.00  0.00    -0.205 F 
ATOM     84  C   UNL A   1      45.128  25.156  27.604  1.00  0.00     0.022 A 
BRANCH  82  85
ATOM     85  S   UNL A   1      44.505  26.562  25.333  1.00  0.00     0.127 S 
ATOM     86  O   UNL A   1      43.815  25.298  25.091  1.00  0.00    -0.237 OA
ATOM     87  O   UNL A   1      43.653  27.749  25.272  1.00  0.00    -0.237 OA
ATOM     88  O   UNL A   1      45.804  26.724  24.696  1.00  0.00    -0.744 OA
ENDBRANCH  82  85
ENDBRANCH  54  78
BRANCH  66  89
ATOM     89  C   UNL A   1      43.353  34.426  30.275  1.00  0.00     0.023 A 
ATOM     90  C   UNL A   1      43.542  35.419  31.256  1.00  0.00     0.012 A 
ATOM     91  C   UNL A   1      43.304  34.866  28.924  1.00  0.00     0.148 A 
ATOM     92  C   UNL A   1      43.729  36.765  30.917  1.00  0.00     0.002 A 
ATOM     93  C   UNL A   1      43.398  36.215  28.598  1.00  0.00     0.091 A 
ATOM     94  F   UNL A   1      43.210  33.972  27.936  1.00  0.00    -0.205 F 
ATOM     95  C   UNL A   1      43.639  37.166  29.590  1.00  0.00     0.022 A 
BRANCH  93  96
ATOM     96  S   UNL A   1      43.118  36.828  26.928  1.00  0.00     0.127 S 
ATOM     97  O   UNL A   1      42.124  37.877  27.161  1.00  0.00    -0.237 OA
ATOM     98  O   UNL A   1      44.446  37.317  26.563  1.00  0.00    -0.237 OA
ATOM     99  O   UNL A   1      42.631  35.695  26.155  1.00  0.00    -0.744 OA
ENDBRANCH  93  96
ENDBRANCH  66  89
ENDBRANCH  40  41
ENDBRANCH  32  35
ENDBRANCH  30  31
ENDBRANCH   1  30
TORSDOF 16
ENDMDL
MODEL 2
REMARK VINA RESULT:     -14.4      3.642      9.434
REMARK SMILES COc1cc2ccccc2cc1C(=O)Nc1cc(C(=O)NCCCNC(=O)c2ccc(-c3c4nc(c(-c5cccc(S(=O)(=O)[O-])c5F)c5ccc([nH]5)c(-c5cccc(S(=O)(=O)[O-])c5F)c5nc(c(-c6cccc(S(=O)(=O)[O-])c6F)c6ccc3[nH]6)C=C5)C=C4)cc2)ccc1C
REMARK SMILES IDX 23 1 22 2 21 3 19 4 20 5 18 7 16 8 17 9 93 10 92 11 94 12
REMARK SMILES IDX 91 13 15 14 13 15 14 16 12 18 3 19 4 20 5 21 11 22 6 23
REMARK SMILES IDX 10 24 7 25 9 26 8 27 2 28 1 29 24 30 25 31 26 32 27 34 28 35
REMARK SMILES IDX 29 36 90 37 30 38 89 39 31 40 32 41 33 42 83 43 34 44 88 45
REMARK SMILES IDX 82 46 84 47 35 48 87 49 81 50 80 51 36 53 68 54 48 55 67 56
REMARK SMILES IDX 49 57 52 58 66 59 85 60 50 61 51 62 65 64 86 65 53 66 37 67
REMARK SMILES IDX 38 68 46 69 39 70 41 71 47 72 40 73 42 74 43 75 44 76 45 77
REMARK SMILES IDX 69 78 70 79 78 80 71 81 73 82 79 83 72 84 74 85 75 86 76 87
REMARK SMILES IDX 77 88 54 89 55 90 63 91 56 92 58 93 64 94 57 95 59 96 60 97
REMARK SMILES IDX 61 98 62 99
REMARK H PARENT 21 6 15 17 25 33 84 52 52 63
REMARK Flexibility Score: inf
ROOT
ATOM      1  C   UNL A   1      32.093  30.843  26.710  1.00  0.00     0.042 C 
ENDROOT
BRANCH   1   2
ATOM      2  C   UNL A   1      31.764  30.029  25.461  1.00  0.00     0.118 C 
BRANCH   2   3
ATOM      3  N   UNL A   1      32.919  29.829  24.600  1.00  0.00    -0.352 N 
ATOM      4  C   UNL A   1      33.346  28.777  23.823  1.00  0.00     0.251 C 
ATOM      5  O   UNL A   1      34.335  28.974  23.113  1.00  0.00    -0.269 OA
ATOM      6  H   UNL A   1      33.519  30.608  24.565  1.00  0.00     0.163 HD
BRANCH   4   7
ATOM      7  C   UNL A   1      32.696  27.428  23.762  1.00  0.00     0.041 A 
ATOM      8  C   UNL A   1      31.794  25.380  24.749  1.00  0.00     0.045 A 
ATOM      9  C   UNL A   1      32.533  26.563  24.840  1.00  0.00     0.040 A 
ATOM     10  C   UNL A   1      31.354  24.926  23.498  1.00  0.00    -0.027 A 
ATOM     11  C   UNL A   1      31.534  25.772  22.393  1.00  0.00     0.006 A 
ATOM     12  C   UNL A   1      30.547  23.673  23.311  1.00  0.00     0.046 C 
ATOM     13  C   UNL A   1      32.175  27.011  22.529  1.00  0.00     0.014 A 
BRANCH   8  14
ATOM     14  N   UNL A   1      31.447  24.684  25.919  1.00  0.00    -0.322 N 
ATOM     15  C   UNL A   1      31.933  23.503  26.451  1.00  0.00     0.259 C 
ATOM     16  O   UNL A   1      31.304  23.009  27.394  1.00  0.00    -0.269 OA
ATOM     17  H   UNL A   1      30.737  25.109  26.452  1.00  0.00     0.170 HD
BRANCH  15  18
ATOM     18  C   UNL A   1      33.207  22.829  26.033  1.00  0.00     0.082 A 
ATOM     19  C   UNL A   1      33.322  21.591  25.383  1.00  0.00     0.132 A 
ATOM     20  C   UNL A   1      34.582  21.026  25.138  1.00  0.00     0.056 A 
ATOM     21  C   UNL A   1      35.758  21.727  25.423  1.00  0.00    -0.015 A 
ATOM     22  C   UNL A   1      34.394  23.552  26.275  1.00  0.00     0.026 A 
ATOM     23  C   UNL A   1      37.020  21.162  25.177  1.00  0.00     0.009 A 
ATOM     24  C   UNL A   1      35.665  23.028  25.959  1.00  0.00    -0.017 A 
ATOM     25  C   UNL A   1      38.183  21.898  25.403  1.00  0.00     0.001 A 
ATOM     26  C   UNL A   1      36.848  23.758  26.173  1.00  0.00     0.009 A 
ATOM     27  C   UNL A   1      38.096  23.200  25.887  1.00  0.00     0.001 A 
BRANCH  19  28
ATOM     28  O   UNL A   1      32.273  20.786  25.036  1.00  0.00    -0.496 OA
ATOM     29  C   UNL A   1      32.595  19.406  25.144  1.00  0.00     0.278 C 
ENDBRANCH  19  28
ENDBRANCH  15  18
ENDBRANCH   8  14
ENDBRANCH   4   7
ENDBRANCH   2   3
ENDBRANCH   1   2
BRANCH   1  30
ATOM     30  C   UNL A   1      33.392  30.428  27.366  1.00  0.00     0.118 C 
BRANCH  30  31
ATOM     31  N   UNL A   1      34.084  31.530  28.028  1.00  0.00    -0.352 N 
ATOM     32  C   UNL A   1      35.247  31.487  28.779  1.00  0.00     0.251 C 
ATOM     33  H   UNL A   1      33.673  32.417  27.926  1.00  0.00     0.163 HD
ATOM     34  O   UNL A   1      35.623  32.485  29.387  1.00  0.00    -0.269 OA
BRANCH  32  35
ATOM     35  C   UNL A   1      36.078  30.262  28.705  1.00  0.00     0.039 A 
ATOM     36  C   UNL A   1      36.440  29.668  29.918  1.00  0.00     0.014 A 
ATOM     37  C   UNL A   1      36.777  29.983  27.537  1.00  0.00     0.014 A 
ATOM     38  C   UNL A   1      37.675  29.037  30.021  1.00  0.00     0.010 A 
ATOM     39  C   UNL A   1      38.049  29.474  27.662  1.00  0.00     0.010 A 
ATOM     40  C   UNL A   1      38.520  29.068  28.917  1.00  0.00    -0.014 A 
BRANCH  40  41
ATOM     41  C   UNL A   1      39.928  28.710  28.936  1.00  0.00     0.031 A 
ATOM     42  C   UNL A   1      40.299  27.297  28.762  1.00  0.00     0.074 A 
ATOM     43  C   UNL A   1      40.874  29.676  28.914  1.00  0.00     0.049 A 
ATOM     44  N   UNL A   1      41.494  26.847  28.904  1.00  0.00    -0.248 NA
ATOM     45  C   UNL A   1      39.320  26.262  28.456  1.00  0.00     0.031 C 
ATOM     46  C   UNL A   1      42.277  29.530  28.538  1.00  0.00     0.029 A 
ATOM     47  N   UNL A   1      40.806  30.957  29.466  1.00  0.00    -0.354 N 
ATOM     48  C   UNL A   1      41.508  25.553  28.439  1.00  0.00     0.074 A 
ATOM     49  C   UNL A   1      40.118  25.205  28.289  1.00  0.00     0.031 C 
ATOM     50  C   UNL A   1      42.984  30.504  29.129  1.00  0.00     0.029 A 
ATOM     51  C   UNL A   1      42.078  31.198  30.026  1.00  0.00     0.049 A 
ATOM     52  H   UNL A   1      40.031  31.565  29.466  1.00  0.00     0.167 HD
ATOM     53  C   UNL A   1      42.714  25.001  28.127  1.00  0.00     0.034 A 
ATOM     54  C   UNL A   1      42.276  31.394  31.362  1.00  0.00     0.034 A 
ATOM     55  C   UNL A   1      43.815  25.824  28.666  1.00  0.00     0.049 A 
ATOM     56  C   UNL A   1      43.180  30.342  32.001  1.00  0.00     0.074 A 
ATOM     57  C   UNL A   1      44.765  26.690  28.151  1.00  0.00     0.029 A 
ATOM     58  N   UNL A   1      43.862  25.993  30.038  1.00  0.00    -0.354 N 
ATOM     59  N   UNL A   1      43.831  29.417  31.344  1.00  0.00    -0.248 NA
ATOM     60  C   UNL A   1      43.347  30.200  33.449  1.00  0.00     0.031 C 
ATOM     61  C   UNL A   1      45.345  27.413  29.247  1.00  0.00     0.029 A 
ATOM     62  C   UNL A   1      44.768  26.961  30.421  1.00  0.00     0.049 A 
ATOM     63  H   UNL A   1      43.310  25.480  30.671  1.00  0.00     0.167 HD
ATOM     64  C   UNL A   1      44.324  28.488  32.228  1.00  0.00     0.074 A 
ATOM     65  C   UNL A   1      44.043  29.053  33.536  1.00  0.00     0.031 C 
ATOM     66  C   UNL A   1      44.852  27.284  31.842  1.00  0.00     0.034 A 
BRANCH  53  67
ATOM     67  C   UNL A   1      42.944  23.802  27.220  1.00  0.00     0.023 A 
ATOM     68  C   UNL A   1      43.666  24.031  26.027  1.00  0.00     0.012 A 
ATOM     69  C   UNL A   1      42.433  22.490  27.380  1.00  0.00     0.148 A 
ATOM     70  C   UNL A   1      43.827  23.049  25.040  1.00  0.00     0.002 A 
ATOM     71  C   UNL A   1      42.595  21.506  26.401  1.00  0.00     0.091 A 
ATOM     72  F   UNL A   1      41.757  22.158  28.474  1.00  0.00    -0.205 F 
ATOM     73  C   UNL A   1      43.284  21.786  25.223  1.00  0.00     0.022 A 
BRANCH  71  74
ATOM     74  S   UNL A   1      41.894  19.851  26.570  1.00  0.00     0.127 S 
ATOM     75  O   UNL A   1      40.463  20.138  26.675  1.00  0.00    -0.237 OA
ATOM     76  O   UNL A   1      42.294  19.213  25.316  1.00  0.00    -0.237 OA
ATOM     77  O   UNL A   1      42.483  19.264  27.768  1.00  0.00    -0.744 OA
ENDBRANCH  71  74
ENDBRANCH  53  67
BRANCH  54  78
ATOM     78  C   UNL A   1      41.127  32.097  32.014  1.00  0.00     0.023 A 
ATOM     79  C   UNL A   1      40.894  33.431  31.598  1.00  0.00     0.012 A 
ATOM     80  C   UNL A   1      40.092  31.405  32.665  1.00  0.00     0.148 A 
ATOM     81  C   UNL A   1      39.624  34.002  31.683  1.00  0.00     0.002 A 
ATOM     82  C   UNL A   1      38.833  31.996  32.776  1.00  0.00     0.091 A 
ATOM     83  F   UNL A   1      40.318  30.155  33.088  1.00  0.00    -0.205 F 
ATOM     84  C   UNL A   1      38.585  33.271  32.243  1.00  0.00     0.022 A 
BRANCH  82  85
ATOM     85  S   UNL A   1      37.438  31.114  33.490  1.00  0.00     0.127 S 
ATOM     86  O   UNL A   1      36.339  31.591  32.656  1.00  0.00    -0.237 OA
ATOM     87  O   UNL A   1      37.810  29.715  33.279  1.00  0.00    -0.237 OA
ATOM     88  O   UNL A   1      37.417  31.524  34.887  1.00  0.00    -0.744 OA
ENDBRANCH  82  85
ENDBRANCH  54  78
BRANCH  66  89
ATOM     89  C   UNL A   1      45.459  26.279  32.810  1.00  0.00     0.023 A 
ATOM     90  C   UNL A   1      46.831  25.965  32.745  1.00  0.00     0.012 A 
ATOM     91  C   UNL A   1      44.671  25.508  33.706  1.00  0.00     0.148 A 
ATOM     92  C   UNL A   1      47.403  24.983  33.564  1.00  0.00     0.002 A 
ATOM     93  C   UNL A   1      45.225  24.471  34.450  1.00  0.00     0.091 A 
ATOM     94  F   UNL A   1      43.379  25.802  33.881  1.00  0.00    -0.205 F 
ATOM     95  C   UNL A   1      46.598  24.223  34.403  1.00  0.00     0.022 A 
BRANCH  93  96
ATOM     96  S   UNL A   1      44.222  23.334  35.423  1.00  0.00     0.127 S 
ATOM     97  O   UNL A   1      43.772  24.199  36.516  1.00  0.00    -0.237 OA
ATOM     98  O   UNL A   1      43.179  22.965  34.469  1.00  0.00    -0.237 OA
ATOM     99  O   UNL A   1      45.111  22.257  35.831  1.00  0.00    -0.744 OA
ENDBRANCH  93  96
ENDBRANCH  66  89
ENDBRANCH  40  41
ENDBRANCH  32  35
ENDBRANCH  30  31
ENDBRANCH   1  30
TORSDOF 16
ENDMDL
MODEL 3
REMARK VINA RESULT:     -14.1      4.016      9.860
REMARK SMILES COc1cc2ccccc2cc1C(=O)Nc1cc(C(=O)NCCCNC(=O)c2ccc(-c3c4nc(c(-c5cccc(S(=O)(=O)[O-])c5F)c5ccc([nH]5)c(-c5cccc(S(=O)(=O)[O-])c5F)c5nc(c(-c6cccc(S(=O)(=O)[O-])c6F)c6ccc3[nH]6)C=C5)C=C4)cc2)ccc1C
REMARK SMILES IDX 23 1 22 2 21 3 19 4 20 5 18 7 16 8 17 9 93 10 92 11 94 12
REMARK SMILES IDX 91 13 15 14 13 15 14 16 12 18 3 19 4 20 5 21 11 22 6 23
REMARK SMILES IDX 10 24 7 25 9 26 8 27 2 28 1 29 24 30 25 31 26 32 27 34 28 35
REMARK SMILES IDX 29 36 90 37 30 38 89 39 31 40 32 41 33 42 83 43 34 44 88 45
REMARK SMILES IDX 82 46 84 47 35 48 87 49 81 50 80 51 36 53 68 54 48 55 67 56
REMARK SMILES IDX 49 57 52 58 66 59 85 60 50 61 51 62 65 64 86 65 53 66 37 67
REMARK SMILES IDX 38 68 46 69 39 70 41 71 47 72 40 73 42 74 43 75 44 76 45 77
REMARK SMILES IDX 69 78 70 79 78 80 71 81 73 82 79 83 72 84 74 85 75 86 76 87
REMARK SMILES IDX 77 88 54 89 55 90 63 91 56 92 58 93 64 94 57 95 59 96 60 97
REMARK SMILES IDX 61 98 62 99
REMARK H PARENT 21 6 15 17 25 33 84 52 52 63
REMARK Flexibility Score: inf
ROOT
ATOM      1  C   UNL A   1      32.747  30.934  26.762  1.00  0.00     0.042 C 
ENDROOT
BRANCH   1   2
ATOM      2  C   UNL A   1      32.313  29.906  25.721  1.00  0.00     0.118 C 
BRANCH   2   3
ATOM      3  N   UNL A   1      33.292  29.734  24.659  1.00  0.00    -0.352 N 
ATOM      4  C   UNL A   1      33.554  28.715  23.773  1.00  0.00     0.251 C 
ATOM      5  O   UNL A   1      34.404  28.934  22.906  1.00  0.00    -0.269 OA
ATOM      6  H   UNL A   1      33.890  30.508  24.551  1.00  0.00     0.163 HD
BRANCH   4   7
ATOM      7  C   UNL A   1      32.879  27.376  23.771  1.00  0.00     0.041 A 
ATOM      8  C   UNL A   1      31.969  25.376  24.844  1.00  0.00     0.045 A 
ATOM      9  C   UNL A   1      32.731  26.547  24.879  1.00  0.00     0.040 A 
ATOM     10  C   UNL A   1      31.486  24.893  23.620  1.00  0.00    -0.027 A 
ATOM     11  C   UNL A   1      31.651  25.701  22.486  1.00  0.00     0.006 A 
ATOM     12  C   UNL A   1      30.653  23.650  23.494  1.00  0.00     0.046 C 
ATOM     13  C   UNL A   1      32.316  26.932  22.566  1.00  0.00     0.014 A 
BRANCH   8  14
ATOM     14  N   UNL A   1      31.643  24.722  26.045  1.00  0.00    -0.322 N 
ATOM     15  C   UNL A   1      32.061  23.509  26.561  1.00  0.00     0.259 C 
ATOM     16  O   UNL A   1      31.456  23.079  27.549  1.00  0.00    -0.269 OA
ATOM     17  H   UNL A   1      31.008  25.210  26.617  1.00  0.00     0.170 HD
BRANCH  15  18
ATOM     18  C   UNL A   1      33.242  22.725  26.070  1.00  0.00     0.082 A 
ATOM     19  C   UNL A   1      33.207  21.491  25.403  1.00  0.00     0.132 A 
ATOM     20  C   UNL A   1      34.395  20.815  25.088  1.00  0.00     0.056 A 
ATOM     21  C   UNL A   1      35.645  21.399  25.316  1.00  0.00    -0.015 A 
ATOM     22  C   UNL A   1      34.503  23.331  26.255  1.00  0.00     0.026 A 
ATOM     23  C   UNL A   1      36.834  20.723  25.000  1.00  0.00     0.009 A 
ATOM     24  C   UNL A   1      35.702  22.696  25.869  1.00  0.00    -0.017 A 
ATOM     25  C   UNL A   1      38.071  21.344  25.171  1.00  0.00     0.001 A 
ATOM     26  C   UNL A   1      36.957  23.309  26.026  1.00  0.00     0.009 A 
ATOM     27  C   UNL A   1      38.131  22.641  25.670  1.00  0.00     0.001 A 
BRANCH  19  28
ATOM     28  O   UNL A   1      32.071  20.791  25.105  1.00  0.00    -0.496 OA
ATOM     29  C   UNL A   1      32.354  19.539  24.497  1.00  0.00     0.278 C 
ENDBRANCH  19  28
ENDBRANCH  15  18
ENDBRANCH   8  14
ENDBRANCH   4   7
ENDBRANCH   2   3
ENDBRANCH   1   2
BRANCH   1  30
ATOM     30  C   UNL A   1      33.915  30.471  27.606  1.00  0.00     0.118 C 
BRANCH  30  31
ATOM     31  N   UNL A   1      34.913  31.512  27.835  1.00  0.00    -0.352 N 
ATOM     32  C   UNL A   1      36.221  31.369  28.266  1.00  0.00     0.251 C 
ATOM     33  H   UNL A   1      34.617  32.435  27.660  1.00  0.00     0.163 HD
ATOM     34  O   UNL A   1      36.888  32.361  28.544  1.00  0.00    -0.269 OA
BRANCH  32  35
ATOM     35  C   UNL A   1      36.818  30.014  28.238  1.00  0.00     0.039 A 
ATOM     36  C   UNL A   1      36.937  29.348  29.463  1.00  0.00     0.014 A 
ATOM     37  C   UNL A   1      37.573  29.623  27.138  1.00  0.00     0.014 A 
ATOM     38  C   UNL A   1      38.019  28.499  29.669  1.00  0.00     0.010 A 
ATOM     39  C   UNL A   1      38.711  28.887  27.374  1.00  0.00     0.010 A 
ATOM     40  C   UNL A   1      38.966  28.386  28.658  1.00  0.00    -0.014 A 
BRANCH  40  41
ATOM     41  C   UNL A   1      40.275  27.775  28.807  1.00  0.00     0.031 A 
ATOM     42  C   UNL A   1      40.398  26.320  28.626  1.00  0.00     0.074 A 
ATOM     43  C   UNL A   1      41.378  28.549  28.911  1.00  0.00     0.049 A 
ATOM     44  N   UNL A   1      41.470  25.655  28.873  1.00  0.00    -0.248 NA
ATOM     45  C   UNL A   1      39.285  25.487  28.190  1.00  0.00     0.031 C 
ATOM     46  C   UNL A   1      42.763  28.152  28.674  1.00  0.00     0.029 A 
ATOM     47  N   UNL A   1      41.487  29.814  29.494  1.00  0.00    -0.354 N 
ATOM     48  C   UNL A   1      41.297  24.387  28.371  1.00  0.00     0.074 A 
ATOM     49  C   UNL A   1      39.890  24.303  28.071  1.00  0.00     0.031 C 
ATOM     50  C   UNL A   1      43.569  28.971  29.365  1.00  0.00     0.029 A 
ATOM     51  C   UNL A   1      42.716  29.809  30.187  1.00  0.00     0.049 A 
ATOM     52  H   UNL A   1      40.841  30.555  29.436  1.00  0.00     0.167 HD
ATOM     53  C   UNL A   1      42.407  23.626  28.164  1.00  0.00     0.034 A 
ATOM     54  C   UNL A   1      42.805  29.948  31.542  1.00  0.00     0.034 A 
ATOM     55  C   UNL A   1      43.577  24.224  28.837  1.00  0.00     0.049 A 
ATOM     56  C   UNL A   1      43.430  28.739  32.234  1.00  0.00     0.074 A 
ATOM     57  C   UNL A   1      44.718  24.907  28.450  1.00  0.00     0.029 A 
ATOM     58  N   UNL A   1      43.510  24.364  30.212  1.00  0.00    -0.354 N 
ATOM     59  N   UNL A   1      43.967  27.718  31.618  1.00  0.00    -0.248 NA
ATOM     60  C   UNL A   1      43.415  28.549  33.687  1.00  0.00     0.031 C 
ATOM     61  C   UNL A   1      45.302  25.496  29.621  1.00  0.00     0.029 A 
ATOM     62  C   UNL A   1      44.532  25.144  30.716  1.00  0.00     0.049 A 
ATOM     63  H   UNL A   1      42.810  23.954  30.770  1.00  0.00     0.167 HD
ATOM     64  C   UNL A   1      44.186  26.702  32.517  1.00  0.00     0.074 A 
ATOM     65  C   UNL A   1      43.877  27.292  33.807  1.00  0.00     0.031 C 
ATOM     66  C   UNL A   1      44.524  25.427  32.147  1.00  0.00     0.034 A 
BRANCH  53  67
ATOM     67  C   UNL A   1      42.509  22.417  27.247  1.00  0.00     0.023 A 
ATOM     68  C   UNL A   1      41.504  21.431  27.373  1.00  0.00     0.012 A 
ATOM     69  C   UNL A   1      43.554  22.109  26.341  1.00  0.00     0.148 A 
ATOM     70  C   UNL A   1      41.555  20.208  26.692  1.00  0.00     0.002 A 
ATOM     71  C   UNL A   1      43.607  20.892  25.655  1.00  0.00     0.091 A 
ATOM     72  F   UNL A   1      44.540  22.973  26.128  1.00  0.00    -0.205 F 
ATOM     73  C   UNL A   1      42.612  19.934  25.837  1.00  0.00     0.022 A 
BRANCH  71  74
ATOM     74  S   UNL A   1      44.966  20.466  24.547  1.00  0.00     0.127 S 
ATOM     75  O   UNL A   1      44.614  19.103  24.147  1.00  0.00    -0.237 OA
ATOM     76  O   UNL A   1      44.829  21.464  23.486  1.00  0.00    -0.237 OA
ATOM     77  O   UNL A   1      46.194  20.569  25.326  1.00  0.00    -0.744 OA
ENDBRANCH  71  74
ENDBRANCH  53  67
BRANCH  54  78
ATOM     78  C   UNL A   1      41.741  30.841  32.097  1.00  0.00     0.023 A 
ATOM     79  C   UNL A   1      41.647  32.133  31.520  1.00  0.00     0.012 A 
ATOM     80  C   UNL A   1      40.643  30.348  32.821  1.00  0.00     0.148 A 
ATOM     81  C   UNL A   1      40.445  32.841  31.527  1.00  0.00     0.002 A 
ATOM     82  C   UNL A   1      39.455  31.077  32.852  1.00  0.00     0.091 A 
ATOM     83  F   UNL A   1      40.739  29.141  33.394  1.00  0.00    -0.205 F 
ATOM     84  C   UNL A   1      39.339  32.297  32.166  1.00  0.00     0.022 A 
BRANCH  82  85
ATOM     85  S   UNL A   1      37.980  30.441  33.661  1.00  0.00     0.127 S 
ATOM     86  O   UNL A   1      37.073  31.579  33.542  1.00  0.00    -0.237 OA
ATOM     87  O   UNL A   1      37.636  29.290  32.826  1.00  0.00    -0.237 OA
ATOM     88  O   UNL A   1      38.414  30.097  35.007  1.00  0.00    -0.744 OA
ENDBRANCH  82  85
ENDBRANCH  54  78
BRANCH  66  89
ATOM     89  C   UNL A   1      44.832  24.314  33.139  1.00  0.00     0.023 A 
ATOM     90  C   UNL A   1      43.799  23.492  33.632  1.00  0.00     0.012 A 
ATOM     91  C   UNL A   1      46.116  24.143  33.723  1.00  0.00     0.148 A 
ATOM     92  C   UNL A   1      44.035  22.516  34.608  1.00  0.00     0.002 A 
ATOM     93  C   UNL A   1      46.326  23.237  34.757  1.00  0.00     0.091 A 
ATOM     94  F   UNL A   1      47.160  24.829  33.250  1.00  0.00    -0.205 F 
ATOM     95  C   UNL A   1      45.294  22.400  35.184  1.00  0.00     0.022 A 
BRANCH  93  96
ATOM     96  S   UNL A   1      47.877  23.152  35.669  1.00  0.00     0.127 S 
ATOM     97  O   UNL A   1      48.825  22.807  34.607  1.00  0.00    -0.237 OA
ATOM     98  O   UNL A   1      48.001  24.517  36.176  1.00  0.00    -0.237 OA
ATOM     99  O   UNL A   1      47.699  22.120  36.679  1.00  0.00    -0.744 OA
ENDBRANCH  93  96
ENDBRANCH  66  89
ENDBRANCH  40  41
ENDBRANCH  32  35
ENDBRANCH  30  31
ENDBRANCH   1  30
TORSDOF 16
ENDMDL
