MODEL 1
REMARK VINA RESULT:     -11.4      0.000      0.000
REMARK SMILES COCc1cccc(O[C@@H](F)C(=O)NCCCNC(=O)c2ccc(-c3c4nc(c(-c5cccc(S(=O)(=O)[O-])c5F)c5ccc([nH]5)c(-c5cccc(S(=O)(=O)[O-])c5F)c5nc(c(-c6cccc(S(=O)(=O)[O-])c6F)c6ccc3[nH]6)C=C5)C=C4)cc2)c1
REMARK SMILES IDX 15 1 14 2 12 3 13 4 10 6 11 7 9 8 8 9 4 10 5 11 84 12 6 13
REMARK SMILES IDX 7 14 3 15 2 16 1 17 16 18 17 19 18 20 19 21 20 23 21 24
REMARK SMILES IDX 22 25 83 26 23 27 82 28 24 29 25 30 26 31 76 32 27 33 81 34
REMARK SMILES IDX 75 35 77 36 28 37 80 38 74 39 73 40 29 42 61 43 41 44 60 45
REMARK SMILES IDX 42 46 45 47 59 48 78 49 43 50 44 51 58 53 79 54 46 55 30 56
REMARK SMILES IDX 31 57 39 58 32 59 34 60 40 61 33 62 35 63 36 64 37 65 38 66
REMARK SMILES IDX 62 67 63 68 71 69 64 70 66 71 72 72 65 73 67 74 68 75 69 76
REMARK SMILES IDX 70 77 47 78 48 79 56 80 49 81 51 82 57 83 50 84 52 85 53 86
REMARK SMILES IDX 54 87 55 88
REMARK H PARENT 14 5 18 22 77 41 45 52
REMARK Flexibility Score: inf
ROOT
ATOM      1  C   UNL A   1      33.119  21.979  26.145  1.00  0.00     0.118 C 
ENDROOT
BRANCH   1   2
ATOM      2  N   UNL A   1      31.934  22.217  26.921  1.00  0.00    -0.350 N 
ATOM      3  C   UNL A   1      31.070  23.276  26.804  1.00  0.00     0.294 C 
ATOM      4  O   UNL A   1      30.066  23.227  27.533  1.00  0.00    -0.267 OA
ATOM      5  H   UNL A   1      31.719  21.548  27.611  1.00  0.00     0.163 HD
BRANCH   3   6
ATOM      6  C   UNL A   1      31.228  24.467  25.756  1.00  0.00     0.440 C 
ATOM      7  F   UNL A   1      30.534  24.183  24.608  1.00  0.00    -0.191 F 
BRANCH   6   8
ATOM      8  O   UNL A   1      32.395  25.215  25.430  1.00  0.00    -0.452 OA
BRANCH   8   9
ATOM      9  C   UNL A   1      32.374  26.577  25.528  1.00  0.00     0.124 A 
ATOM     10  C   UNL A   1      31.486  28.737  24.862  1.00  0.00    -0.019 A 
ATOM     11  C   UNL A   1      32.741  29.312  25.120  1.00  0.00     0.006 A 
ATOM     12  C   UNL A   1      31.292  27.380  25.164  1.00  0.00     0.052 A 
ATOM     13  C   UNL A   1      33.780  28.544  25.649  1.00  0.00     0.004 A 
ATOM     14  C   UNL A   1      33.599  27.174  25.848  1.00  0.00     0.046 A 
BRANCH  10  15
ATOM     15  C   UNL A   1      30.446  29.544  24.109  1.00  0.00     0.195 C 
BRANCH  15  16
ATOM     16  O   UNL A   1      30.068  28.995  22.842  1.00  0.00    -0.380 OA
ATOM     17  C   UNL A   1      29.898  29.965  21.814  1.00  0.00     0.195 C 
ENDBRANCH  15  16
ENDBRANCH  10  15
ENDBRANCH   8   9
ENDBRANCH   6   8
ENDBRANCH   3   6
ENDBRANCH   1   2
BRANCH   1  18
ATOM     18  C   UNL A   1      34.448  21.950  26.870  1.00  0.00     0.042 C 
BRANCH  18  19
ATOM     19  C   UNL A   1      35.618  22.469  26.059  1.00  0.00     0.118 C 
BRANCH  19  20
ATOM     20  N   UNL A   1      36.616  21.453  25.726  1.00  0.00    -0.352 N 
ATOM     21  C   UNL A   1      37.995  21.415  25.770  1.00  0.00     0.251 C 
ATOM     22  H   UNL A   1      36.219  20.615  25.397  1.00  0.00     0.163 HD
ATOM     23  O   UNL A   1      38.564  20.437  25.286  1.00  0.00    -0.269 OA
BRANCH  21  24
ATOM     24  C   UNL A   1      38.805  22.518  26.342  1.00  0.00     0.039 A 
ATOM     25  C   UNL A   1      39.925  22.228  27.135  1.00  0.00     0.014 A 
ATOM     26  C   UNL A   1      38.458  23.847  26.142  1.00  0.00     0.014 A 
ATOM     27  C   UNL A   1      40.723  23.266  27.639  1.00  0.00     0.010 A 
ATOM     28  C   UNL A   1      39.337  24.862  26.489  1.00  0.00     0.010 A 
ATOM     29  C   UNL A   1      40.463  24.595  27.276  1.00  0.00    -0.014 A 
BRANCH  29  30
ATOM     30  C   UNL A   1      41.284  25.753  27.727  1.00  0.00     0.031 A 
ATOM     31  C   UNL A   1      40.642  26.834  28.568  1.00  0.00     0.074 A 
ATOM     32  C   UNL A   1      42.539  25.917  27.264  1.00  0.00     0.049 A 
ATOM     33  N   UNL A   1      41.088  28.025  28.870  1.00  0.00    -0.248 NA
ATOM     34  C   UNL A   1      39.286  26.561  29.081  1.00  0.00     0.031 C 
ATOM     35  C   UNL A   1      43.249  24.991  26.379  1.00  0.00     0.029 A 
ATOM     36  N   UNL A   1      43.428  26.949  27.441  1.00  0.00    -0.354 N 
ATOM     37  C   UNL A   1      40.046  28.662  29.537  1.00  0.00     0.074 A 
ATOM     38  C   UNL A   1      38.927  27.747  29.546  1.00  0.00     0.031 C 
ATOM     39  C   UNL A   1      44.464  25.490  26.099  1.00  0.00     0.029 A 
ATOM     40  C   UNL A   1      44.604  26.791  26.743  1.00  0.00     0.049 A 
ATOM     41  H   UNL A   1      43.242  27.727  28.014  1.00  0.00     0.167 HD
ATOM     42  C   UNL A   1      40.028  29.881  30.126  1.00  0.00     0.034 A 
ATOM     43  C   UNL A   1      45.666  27.611  26.622  1.00  0.00     0.034 A 
ATOM     44  C   UNL A   1      41.172  30.747  30.191  1.00  0.00     0.049 A 
ATOM     45  C   UNL A   1      45.653  28.928  27.348  1.00  0.00     0.074 A 
ATOM     46  C   UNL A   1      41.304  31.953  30.855  1.00  0.00     0.029 A 
ATOM     47  N   UNL A   1      42.387  30.491  29.575  1.00  0.00    -0.354 N 
ATOM     48  N   UNL A   1      44.706  29.456  28.085  1.00  0.00    -0.248 NA
ATOM     49  C   UNL A   1      46.869  29.750  27.256  1.00  0.00     0.031 C 
ATOM     50  C   UNL A   1      42.595  32.437  30.623  1.00  0.00     0.029 A 
ATOM     51  C   UNL A   1      43.277  31.516  29.843  1.00  0.00     0.049 A 
ATOM     52  H   UNL A   1      42.588  29.698  29.028  1.00  0.00     0.167 HD
ATOM     53  C   UNL A   1      45.226  30.645  28.581  1.00  0.00     0.074 A 
ATOM     54  C   UNL A   1      46.579  30.752  28.072  1.00  0.00     0.031 C 
ATOM     55  C   UNL A   1      44.637  31.572  29.376  1.00  0.00     0.034 A 
BRANCH  42  56
ATOM     56  C   UNL A   1      38.753  30.320  30.803  1.00  0.00     0.023 A 
ATOM     57  C   UNL A   1      38.554  30.042  32.172  1.00  0.00     0.012 A 
ATOM     58  C   UNL A   1      37.772  31.048  30.100  1.00  0.00     0.148 A 
ATOM     59  C   UNL A   1      37.381  30.434  32.816  1.00  0.00     0.002 A 
ATOM     60  C   UNL A   1      36.629  31.483  30.764  1.00  0.00     0.091 A 
ATOM     61  F   UNL A   1      37.966  31.290  28.796  1.00  0.00    -0.205 F 
ATOM     62  C   UNL A   1      36.425  31.162  32.115  1.00  0.00     0.022 A 
BRANCH  60  63
ATOM     63  S   UNL A   1      35.377  32.502  29.979  1.00  0.00     0.127 S 
ATOM     64  O   UNL A   1      36.154  33.675  29.585  1.00  0.00    -0.237 OA
ATOM     65  O   UNL A   1      34.942  31.655  28.871  1.00  0.00    -0.237 OA
ATOM     66  O   UNL A   1      34.358  32.744  30.997  1.00  0.00    -0.744 OA
ENDBRANCH  60  63
ENDBRANCH  42  56
BRANCH  43  67
ATOM     67  C   UNL A   1      46.860  27.179  25.839  1.00  0.00     0.023 A 
ATOM     68  C   UNL A   1      47.773  26.276  26.420  1.00  0.00     0.012 A 
ATOM     69  C   UNL A   1      47.087  27.633  24.525  1.00  0.00     0.148 A 
ATOM     70  C   UNL A   1      48.909  25.863  25.723  1.00  0.00     0.002 A 
ATOM     71  C   UNL A   1      48.191  27.173  23.816  1.00  0.00     0.091 A 
ATOM     72  F   UNL A   1      46.211  28.495  23.991  1.00  0.00    -0.205 F 
ATOM     73  C   UNL A   1      49.114  26.303  24.419  1.00  0.00     0.022 A 
BRANCH  71  74
ATOM     74  S   UNL A   1      48.464  27.581  22.088  1.00  0.00     0.127 S 
ATOM     75  O   UNL A   1      49.615  28.477  22.171  1.00  0.00    -0.237 OA
ATOM     76  O   UNL A   1      48.746  26.267  21.509  1.00  0.00    -0.237 OA
ATOM     77  O   UNL A   1      47.223  28.186  21.625  1.00  0.00    -0.744 OA
ENDBRANCH  71  74
ENDBRANCH  43  67
BRANCH  55  78
ATOM     78  C   UNL A   1      45.464  32.755  29.802  1.00  0.00     0.023 A 
ATOM     79  C   UNL A   1      46.244  32.688  30.973  1.00  0.00     0.012 A 
ATOM     80  C   UNL A   1      45.528  33.905  28.991  1.00  0.00     0.148 A 
ATOM     81  C   UNL A   1      47.049  33.762  31.348  1.00  0.00     0.002 A 
ATOM     82  C   UNL A   1      46.373  34.950  29.342  1.00  0.00     0.091 A 
ATOM     83  F   UNL A   1      44.765  33.954  27.890  1.00  0.00    -0.205 F 
ATOM     84  C   UNL A   1      47.124  34.886  30.527  1.00  0.00     0.022 A 
BRANCH  82  85
ATOM     85  S   UNL A   1      46.613  36.387  28.293  1.00  0.00     0.127 S 
ATOM     86  O   UNL A   1      47.070  35.772  27.047  1.00  0.00    -0.237 OA
ATOM     87  O   UNL A   1      45.267  36.956  28.236  1.00  0.00    -0.237 OA
ATOM     88  O   UNL A   1      47.594  37.222  28.972  1.00  0.00    -0.744 OA
ENDBRANCH  82  85
ENDBRANCH  55  78
ENDBRANCH  29  30
ENDBRANCH  21  24
ENDBRANCH  19  20
ENDBRANCH  18  19
ENDBRANCH   1  18
TORSDOF 17
ENDMDL
MODEL 2
REMARK VINA RESULT:     -11.4      5.243      9.731
REMARK SMILES COCc1cccc(O[C@@H](F)C(=O)NCCCNC(=O)c2ccc(-c3c4nc(c(-c5cccc(S(=O)(=O)[O-])c5F)c5ccc([nH]5)c(-c5cccc(S(=O)(=O)[O-])c5F)c5nc(c(-c6cccc(S(=O)(=O)[O-])c6F)c6ccc3[nH]6)C=C5)C=C4)cc2)c1
REMARK SMILES IDX 15 1 14 2 12 3 13 4 10 6 11 7 9 8 8 9 4 10 5 11 84 12 6 13
REMARK SMILES IDX 7 14 3 15 2 16 1 17 16 18 17 19 18 20 19 21 20 23 21 24
REMARK SMILES IDX 22 25 83 26 23 27 82 28 24 29 25 30 26 31 76 32 27 33 81 34
REMARK SMILES IDX 75 35 77 36 28 37 80 38 74 39 73 40 29 42 61 43 41 44 60 45
REMARK SMILES IDX 42 46 45 47 59 48 78 49 43 50 44 51 58 53 79 54 46 55 30 56
REMARK SMILES IDX 31 57 39 58 32 59 34 60 40 61 33 62 35 63 36 64 37 65 38 66
REMARK SMILES IDX 62 67 63 68 71 69 64 70 66 71 72 72 65 73 67 74 68 75 69 76
REMARK SMILES IDX 70 77 47 78 48 79 56 80 49 81 51 82 57 83 50 84 52 85 53 86
REMARK SMILES IDX 54 87 55 88
REMARK H PARENT 14 5 18 22 77 41 45 52
REMARK Flexibility Score: inf
ROOT
ATOM      1  C   UNL A   1      33.632  26.459  24.770  1.00  0.00     0.118 C 
ENDROOT
BRANCH   1   2
ATOM      2  N   UNL A   1      33.729  26.493  23.338  1.00  0.00    -0.350 N 
ATOM      3  C   UNL A   1      33.616  25.432  22.477  1.00  0.00     0.294 C 
ATOM      4  O   UNL A   1      33.656  25.719  21.270  1.00  0.00    -0.267 OA
ATOM      5  H   UNL A   1      33.896  27.374  22.929  1.00  0.00     0.163 HD
BRANCH   3   6
ATOM      6  C   UNL A   1      33.346  23.925  22.922  1.00  0.00     0.440 C 
ATOM      7  F   UNL A   1      34.124  23.067  22.189  1.00  0.00    -0.191 F 
BRANCH   6   8
ATOM      8  O   UNL A   1      32.104  23.296  23.223  1.00  0.00    -0.452 OA
BRANCH   8   9
ATOM      9  C   UNL A   1      31.154  23.980  23.927  1.00  0.00     0.124 A 
ATOM     10  C   UNL A   1      29.729  25.923  24.231  1.00  0.00    -0.019 A 
ATOM     11  C   UNL A   1      29.802  25.737  25.621  1.00  0.00     0.006 A 
ATOM     12  C   UNL A   1      30.335  24.975  23.392  1.00  0.00     0.052 A 
ATOM     13  C   UNL A   1      30.480  24.640  26.157  1.00  0.00     0.004 A 
ATOM     14  C   UNL A   1      31.162  23.764  25.310  1.00  0.00     0.046 A 
BRANCH  10  15
ATOM     15  C   UNL A   1      29.159  27.220  23.689  1.00  0.00     0.195 C 
BRANCH  15  16
ATOM     16  O   UNL A   1      30.064  27.977  22.878  1.00  0.00    -0.380 OA
ATOM     17  C   UNL A   1      29.486  29.135  22.286  1.00  0.00     0.195 C 
ENDBRANCH  15  16
ENDBRANCH  10  15
ENDBRANCH   8   9
ENDBRANCH   6   8
ENDBRANCH   3   6
ENDBRANCH   1   2
BRANCH   1  18
ATOM     18  C   UNL A   1      32.945  27.616  25.463  1.00  0.00     0.042 C 
BRANCH  18  19
ATOM     19  C   UNL A   1      33.319  28.983  24.926  1.00  0.00     0.118 C 
BRANCH  19  20
ATOM     20  N   UNL A   1      32.712  30.100  25.651  1.00  0.00    -0.352 N 
ATOM     21  C   UNL A   1      33.087  30.842  26.752  1.00  0.00     0.251 C 
ATOM     22  H   UNL A   1      31.848  30.382  25.273  1.00  0.00     0.163 HD
ATOM     23  O   UNL A   1      32.278  31.649  27.210  1.00  0.00    -0.269 OA
BRANCH  21  24
ATOM     24  C   UNL A   1      34.403  30.677  27.416  1.00  0.00     0.039 A 
ATOM     25  C   UNL A   1      35.227  31.791  27.628  1.00  0.00     0.014 A 
ATOM     26  C   UNL A   1      34.863  29.426  27.803  1.00  0.00     0.014 A 
ATOM     27  C   UNL A   1      36.451  31.648  28.299  1.00  0.00     0.010 A 
ATOM     28  C   UNL A   1      35.982  29.310  28.614  1.00  0.00     0.010 A 
ATOM     29  C   UNL A   1      36.817  30.409  28.843  1.00  0.00    -0.014 A 
BRANCH  29  30
ATOM     30  C   UNL A   1      38.073  30.178  29.608  1.00  0.00     0.031 A 
ATOM     31  C   UNL A   1      39.116  29.235  29.050  1.00  0.00     0.074 A 
ATOM     32  C   UNL A   1      38.214  30.678  30.851  1.00  0.00     0.049 A 
ATOM     33  N   UNL A   1      40.159  28.709  29.638  1.00  0.00    -0.248 NA
ATOM     34  C   UNL A   1      38.921  28.769  27.664  1.00  0.00     0.031 C 
ATOM     35  C   UNL A   1      37.246  31.534  31.541  1.00  0.00     0.029 A 
ATOM     36  N   UNL A   1      39.213  30.501  31.776  1.00  0.00    -0.354 N 
ATOM     37  C   UNL A   1      40.692  27.803  28.726  1.00  0.00     0.074 A 
ATOM     38  C   UNL A   1      39.827  27.809  27.569  1.00  0.00     0.031 C 
ATOM     39  C   UNL A   1      37.702  31.815  32.772  1.00  0.00     0.029 A 
ATOM     40  C   UNL A   1      38.969  31.124  32.980  1.00  0.00     0.049 A 
ATOM     41  H   UNL A   1      40.028  29.980  31.596  1.00  0.00     0.167 HD
ATOM     42  C   UNL A   1      41.820  27.061  28.821  1.00  0.00     0.034 A 
ATOM     43  C   UNL A   1      39.677  31.121  34.126  1.00  0.00     0.034 A 
ATOM     44  C   UNL A   1      42.723  27.129  29.936  1.00  0.00     0.049 A 
ATOM     45  C   UNL A   1      40.967  30.349  34.181  1.00  0.00     0.074 A 
ATOM     46  C   UNL A   1      43.949  26.508  30.092  1.00  0.00     0.029 A 
ATOM     47  N   UNL A   1      42.498  27.871  31.085  1.00  0.00    -0.354 N 
ATOM     48  N   UNL A   1      41.522  29.602  33.258  1.00  0.00    -0.248 NA
ATOM     49  C   UNL A   1      41.748  30.447  35.422  1.00  0.00     0.031 C 
ATOM     50  C   UNL A   1      44.457  26.860  31.346  1.00  0.00     0.029 A 
ATOM     51  C   UNL A   1      43.563  27.727  31.955  1.00  0.00     0.049 A 
ATOM     52  H   UNL A   1      41.699  28.421  31.256  1.00  0.00     0.167 HD
ATOM     53  C   UNL A   1      42.735  29.179  33.787  1.00  0.00     0.074 A 
ATOM     54  C   UNL A   1      42.841  29.767  35.107  1.00  0.00     0.031 C 
ATOM     55  C   UNL A   1      43.674  28.369  33.239  1.00  0.00     0.034 A 
BRANCH  42  56
ATOM     56  C   UNL A   1      42.175  26.164  27.660  1.00  0.00     0.023 A 
ATOM     57  C   UNL A   1      42.940  26.672  26.589  1.00  0.00     0.012 A 
ATOM     58  C   UNL A   1      41.793  24.808  27.648  1.00  0.00     0.148 A 
ATOM     59  C   UNL A   1      43.275  25.863  25.505  1.00  0.00     0.002 A 
ATOM     60  C   UNL A   1      42.178  23.993  26.589  1.00  0.00     0.091 A 
ATOM     61  F   UNL A   1      41.052  24.342  28.664  1.00  0.00    -0.205 F 
ATOM     62  C   UNL A   1      42.903  24.522  25.510  1.00  0.00     0.022 A 
BRANCH  60  63
ATOM     63  S   UNL A   1      41.828  22.232  26.538  1.00  0.00     0.127 S 
ATOM     64  O   UNL A   1      40.376  22.225  26.372  1.00  0.00    -0.237 OA
ATOM     65  O   UNL A   1      42.580  21.804  25.361  1.00  0.00    -0.237 OA
ATOM     66  O   UNL A   1      42.313  21.688  27.802  1.00  0.00    -0.744 OA
ENDBRANCH  60  63
ENDBRANCH  42  56
BRANCH  43  67
ATOM     67  C   UNL A   1      39.220  31.933  35.291  1.00  0.00     0.023 A 
ATOM     68  C   UNL A   1      38.295  31.375  36.196  1.00  0.00     0.012 A 
ATOM     69  C   UNL A   1      39.705  33.234  35.522  1.00  0.00     0.148 A 
ATOM     70  C   UNL A   1      37.834  32.111  37.288  1.00  0.00     0.002 A 
ATOM     71  C   UNL A   1      39.285  33.941  36.643  1.00  0.00     0.091 A 
ATOM     72  F   UNL A   1      40.580  33.750  34.648  1.00  0.00    -0.205 F 
ATOM     73  C   UNL A   1      38.334  33.389  37.518  1.00  0.00     0.022 A 
BRANCH  71  74
ATOM     74  S   UNL A   1      39.973  35.538  37.090  1.00  0.00     0.127 S 
ATOM     75  O   UNL A   1      41.393  35.224  37.229  1.00  0.00    -0.237 OA
ATOM     76  O   UNL A   1      39.632  36.350  35.921  1.00  0.00    -0.237 OA
ATOM     77  O   UNL A   1      39.289  35.933  38.314  1.00  0.00    -0.744 OA
ENDBRANCH  71  74
ENDBRANCH  43  67
BRANCH  55  78
ATOM     78  C   UNL A   1      44.929  28.115  34.031  1.00  0.00     0.023 A 
ATOM     79  C   UNL A   1      46.028  28.988  33.913  1.00  0.00     0.012 A 
ATOM     80  C   UNL A   1      44.982  27.053  34.955  1.00  0.00     0.148 A 
ATOM     81  C   UNL A   1      47.175  28.786  34.679  1.00  0.00     0.002 A 
ATOM     82  C   UNL A   1      46.107  26.891  35.753  1.00  0.00     0.091 A 
ATOM     83  F   UNL A   1      43.930  26.225  35.039  1.00  0.00    -0.205 F 
ATOM     84  C   UNL A   1      47.209  27.747  35.607  1.00  0.00     0.022 A 
BRANCH  82  85
ATOM     85  S   UNL A   1      46.196  25.649  37.046  1.00  0.00     0.127 S 
ATOM     86  O   UNL A   1      47.624  25.658  37.368  1.00  0.00    -0.237 OA
ATOM     87  O   UNL A   1      45.333  26.217  38.081  1.00  0.00    -0.237 OA
ATOM     88  O   UNL A   1      45.699  24.415  36.455  1.00  0.00    -0.744 OA
ENDBRANCH  82  85
ENDBRANCH  55  78
ENDBRANCH  29  30
ENDBRANCH  21  24
ENDBRANCH  19  20
ENDBRANCH  18  19
ENDBRANCH   1  18
TORSDOF 17
ENDMDL
MODEL 3
REMARK VINA RESULT:     -11.4      4.098     10.284
REMARK SMILES COCc1cccc(O[C@@H](F)C(=O)NCCCNC(=O)c2ccc(-c3c4nc(c(-c5cccc(S(=O)(=O)[O-])c5F)c5ccc([nH]5)c(-c5cccc(S(=O)(=O)[O-])c5F)c5nc(c(-c6cccc(S(=O)(=O)[O-])c6F)c6ccc3[nH]6)C=C5)C=C4)cc2)c1
REMARK SMILES IDX 15 1 14 2 12 3 13 4 10 6 11 7 9 8 8 9 4 10 5 11 84 12 6 13
REMARK SMILES IDX 7 14 3 15 2 16 1 17 16 18 17 19 18 20 19 21 20 23 21 24
REMARK SMILES IDX 22 25 83 26 23 27 82 28 24 29 25 30 26 31 76 32 27 33 81 34
REMARK SMILES IDX 75 35 77 36 28 37 80 38 74 39 73 40 29 42 61 43 41 44 60 45
REMARK SMILES IDX 42 46 45 47 59 48 78 49 43 50 44 51 58 53 79 54 46 55 30 56
REMARK SMILES IDX 31 57 39 58 32 59 34 60 40 61 33 62 35 63 36 64 37 65 38 66
REMARK SMILES IDX 62 67 63 68 71 69 64 70 66 71 72 72 65 73 67 74 68 75 69 76
REMARK SMILES IDX 70 77 47 78 48 79 56 80 49 81 51 82 57 83 50 84 52 85 53 86
REMARK SMILES IDX 54 87 55 88
REMARK H PARENT 14 5 18 22 77 41 45 52
REMARK Flexibility Score: inf
ROOT
ATOM      1  C   UNL A   1      42.309  19.214  26.003  1.00  0.00     0.118 C 
ENDROOT
BRANCH   1   2
ATOM      2  N   UNL A   1      43.444  18.366  25.771  1.00  0.00    -0.350 N 
ATOM      3  C   UNL A   1      44.681  18.747  25.316  1.00  0.00     0.294 C 
ATOM      4  O   UNL A   1      45.532  17.845  25.270  1.00  0.00    -0.267 OA
ATOM      5  H   UNL A   1      43.322  17.406  25.959  1.00  0.00     0.163 HD
BRANCH   3   6
ATOM      6  C   UNL A   1      45.094  20.243  24.953  1.00  0.00     0.440 C 
ATOM      7  F   UNL A   1      45.461  20.922  26.086  1.00  0.00    -0.191 F 
BRANCH   6   8
ATOM      8  O   UNL A   1      44.464  21.144  24.047  1.00  0.00    -0.452 OA
BRANCH   8   9
ATOM      9  C   UNL A   1      44.634  22.490  24.205  1.00  0.00     0.124 A 
ATOM     10  C   UNL A   1      46.053  24.411  24.647  1.00  0.00    -0.019 A 
ATOM     11  C   UNL A   1      44.959  25.059  25.242  1.00  0.00     0.006 A 
ATOM     12  C   UNL A   1      45.848  23.159  24.046  1.00  0.00     0.052 A 
ATOM     13  C   UNL A   1      43.696  24.462  25.250  1.00  0.00     0.004 A 
ATOM     14  C   UNL A   1      43.535  23.174  24.737  1.00  0.00     0.046 A 
BRANCH  10  15
ATOM     15  C   UNL A   1      47.442  24.993  24.827  1.00  0.00     0.195 C 
BRANCH  15  16
ATOM     16  O   UNL A   1      47.869  25.856  23.768  1.00  0.00    -0.380 OA
ATOM     17  C   UNL A   1      47.715  27.242  24.048  1.00  0.00     0.195 C 
ENDBRANCH  15  16
ENDBRANCH  10  15
ENDBRANCH   8   9
ENDBRANCH   6   8
ENDBRANCH   3   6
ENDBRANCH   1   2
BRANCH   1  18
ATOM     18  C   UNL A   1      42.099  19.752  27.402  1.00  0.00     0.042 C 
BRANCH  18  19
ATOM     19  C   UNL A   1      41.615  21.187  27.459  1.00  0.00     0.118 C 
BRANCH  19  20
ATOM     20  N   UNL A   1      40.329  21.414  26.799  1.00  0.00    -0.352 N 
ATOM     21  C   UNL A   1      39.555  22.533  26.571  1.00  0.00     0.251 C 
ATOM     22  H   UNL A   1      39.927  20.589  26.443  1.00  0.00     0.163 HD
ATOM     23  O   UNL A   1      38.433  22.374  26.092  1.00  0.00    -0.269 OA
BRANCH  21  24
ATOM     24  C   UNL A   1      40.011  23.902  26.913  1.00  0.00     0.039 A 
ATOM     25  C   UNL A   1      40.224  24.846  25.897  1.00  0.00     0.014 A 
ATOM     26  C   UNL A   1      40.275  24.268  28.225  1.00  0.00     0.014 A 
ATOM     27  C   UNL A   1      40.609  26.156  26.218  1.00  0.00     0.010 A 
ATOM     28  C   UNL A   1      40.484  25.598  28.555  1.00  0.00     0.010 A 
ATOM     29  C   UNL A   1      40.694  26.558  27.559  1.00  0.00    -0.014 A 
BRANCH  29  30
ATOM     30  C   UNL A   1      41.050  27.938  27.989  1.00  0.00     0.031 A 
ATOM     31  C   UNL A   1      42.506  28.346  28.037  1.00  0.00     0.074 A 
ATOM     32  C   UNL A   1      40.104  28.764  28.478  1.00  0.00     0.049 A 
ATOM     33  N   UNL A   1      43.057  29.394  28.593  1.00  0.00    -0.248 NA
ATOM     34  C   UNL A   1      43.479  27.414  27.437  1.00  0.00     0.031 C 
ATOM     35  C   UNL A   1      38.673  28.463  28.565  1.00  0.00     0.029 A 
ATOM     36  N   UNL A   1      40.211  30.014  29.035  1.00  0.00    -0.354 N 
ATOM     37  C   UNL A   1      44.431  29.207  28.475  1.00  0.00     0.074 A 
ATOM     38  C   UNL A   1      44.631  27.921  27.847  1.00  0.00     0.031 C 
ATOM     39  C   UNL A   1      38.036  29.501  29.132  1.00  0.00     0.029 A 
ATOM     40  C   UNL A   1      39.015  30.520  29.491  1.00  0.00     0.049 A 
ATOM     41  H   UNL A   1      41.063  30.503  29.102  1.00  0.00     0.167 HD
ATOM     42  C   UNL A   1      45.438  30.044  28.820  1.00  0.00     0.034 A 
ATOM     43  C   UNL A   1      38.742  31.668  30.142  1.00  0.00     0.034 A 
ATOM     44  C   UNL A   1      45.228  31.357  29.361  1.00  0.00     0.049 A 
ATOM     45  C   UNL A   1      39.870  32.616  30.447  1.00  0.00     0.074 A 
ATOM     46  C   UNL A   1      46.166  32.333  29.644  1.00  0.00     0.029 A 
ATOM     47  N   UNL A   1      43.988  31.882  29.692  1.00  0.00    -0.354 N 
ATOM     48  N   UNL A   1      41.152  32.479  30.207  1.00  0.00    -0.248 NA
ATOM     49  C   UNL A   1      39.512  33.894  31.080  1.00  0.00     0.031 C 
ATOM     50  C   UNL A   1      45.494  33.443  30.166  1.00  0.00     0.029 A 
ATOM     51  C   UNL A   1      44.135  33.169  30.176  1.00  0.00     0.049 A 
ATOM     52  H   UNL A   1      43.130  31.409  29.597  1.00  0.00     0.167 HD
ATOM     53  C   UNL A   1      41.745  33.667  30.616  1.00  0.00     0.074 A 
ATOM     54  C   UNL A   1      40.680  34.519  31.105  1.00  0.00     0.031 C 
ATOM     55  C   UNL A   1      43.055  34.020  30.601  1.00  0.00     0.034 A 
BRANCH  42  56
ATOM     56  C   UNL A   1      46.853  29.589  28.560  1.00  0.00     0.023 A 
ATOM     57  C   UNL A   1      47.466  29.875  27.321  1.00  0.00     0.012 A 
ATOM     58  C   UNL A   1      47.595  28.922  29.555  1.00  0.00     0.148 A 
ATOM     59  C   UNL A   1      48.770  29.460  27.058  1.00  0.00     0.002 A 
ATOM     60  C   UNL A   1      48.915  28.560  29.305  1.00  0.00     0.091 A 
ATOM     61  F   UNL A   1      46.996  28.642  30.721  1.00  0.00    -0.205 F 
ATOM     62  C   UNL A   1      49.497  28.813  28.052  1.00  0.00     0.022 A 
BRANCH  60  63
ATOM     63  S   UNL A   1      49.968  27.801  30.545  1.00  0.00     0.127 S 
ATOM     64  O   UNL A   1      51.300  28.142  30.050  1.00  0.00    -0.237 OA
ATOM     65  O   UNL A   1      49.568  28.506  31.760  1.00  0.00    -0.237 OA
ATOM     66  O   UNL A   1      49.645  26.378  30.532  1.00  0.00    -0.744 OA
ENDBRANCH  60  63
ENDBRANCH  42  56
BRANCH  43  67
ATOM     67  C   UNL A   1      37.334  32.018  30.485  1.00  0.00     0.023 A 
ATOM     68  C   UNL A   1      36.850  31.734  31.779  1.00  0.00     0.012 A 
ATOM     69  C   UNL A   1      36.480  32.645  29.557  1.00  0.00     0.148 A 
ATOM     70  C   UNL A   1      35.533  32.034  32.129  1.00  0.00     0.002 A 
ATOM     71  C   UNL A   1      35.187  32.993  29.931  1.00  0.00     0.091 A 
ATOM     72  F   UNL A   1      36.955  32.903  28.331  1.00  0.00    -0.205 F 
ATOM     73  C   UNL A   1      34.704  32.670  31.210  1.00  0.00     0.022 A 
BRANCH  71  74
ATOM     74  S   UNL A   1      34.092  33.932  28.860  1.00  0.00     0.127 S 
ATOM     75  O   UNL A   1      33.629  32.904  27.930  1.00  0.00    -0.237 OA
ATOM     76  O   UNL A   1      33.083  34.409  29.806  1.00  0.00    -0.237 OA
ATOM     77  O   UNL A   1      34.916  34.984  28.281  1.00  0.00    -0.744 OA
ENDBRANCH  71  74
ENDBRANCH  43  67
BRANCH  55  78
ATOM     78  C   UNL A   1      43.410  35.407  31.066  1.00  0.00     0.023 A 
ATOM     79  C   UNL A   1      43.702  35.644  32.423  1.00  0.00     0.012 A 
ATOM     80  C   UNL A   1      43.534  36.457  30.136  1.00  0.00     0.148 A 
ATOM     81  C   UNL A   1      44.078  36.915  32.853  1.00  0.00     0.002 A 
ATOM     82  C   UNL A   1      43.962  37.708  30.562  1.00  0.00     0.091 A 
ATOM     83  F   UNL A   1      43.235  36.213  28.851  1.00  0.00    -0.205 F 
ATOM     84  C   UNL A   1      44.220  37.943  31.922  1.00  0.00     0.022 A 
BRANCH  82  85
ATOM     85  S   UNL A   1      44.275  39.058  29.421  1.00  0.00     0.127 S 
ATOM     86  O   UNL A   1      45.347  38.505  28.594  1.00  0.00    -0.237 OA
ATOM     87  O   UNL A   1      42.987  39.193  28.741  1.00  0.00    -0.237 OA
ATOM     88  O   UNL A   1      44.647  40.201  30.242  1.00  0.00    -0.744 OA
ENDBRANCH  82  85
ENDBRANCH  55  78
ENDBRANCH  29  30
ENDBRANCH  21  24
ENDBRANCH  19  20
ENDBRANCH  18  19
ENDBRANCH   1  18
TORSDOF 17
ENDMDL
