MODEL 1
REMARK VINA RESULT:     -13.4      0.000      0.000
REMARK SMILES O=C(NCCCNC(=O)[C@H](NC(=O)[C@H]1CC[C@@H](CNC(=O)[C@@H]2Cc3ccccc3C[NH2+]2)CC1)c1ccccc1)c1ccc(-c2c3nc(c(-c4cccc(S(=O)(=O)[O-])c4F)c4ccc([nH]4)c(-c4cccc(S(=O)(=O)[O-])c4F)c4nc(c(-c5cccc(S(=O)(=O)[O-])c5F)c5ccc2[nH]5)C=C4)C=C3)cc1
REMARK SMILES IDX 6 1 5 2 4 3 3 4 1 5 2 6 40 8 41 9 102 10 42 11 101 12 43 13
REMARK SMILES IDX 44 14 45 15 95 16 46 17 100 18 94 19 96 20 47 21 99 22 93 23
REMARK SMILES IDX 92 24 48 26 80 27 60 28 79 29 61 30 64 31 78 32 97 33 62 34
REMARK SMILES IDX 63 35 77 37 98 38 65 39 49 40 50 41 58 42 51 43 53 44 59 45
REMARK SMILES IDX 52 46 54 47 55 48 56 49 57 50 81 51 82 52 90 53 83 54 85 55
REMARK SMILES IDX 91 56 84 57 86 58 87 59 88 60 89 61 66 62 67 63 75 64 68 65
REMARK SMILES IDX 70 66 76 67 69 68 71 69 72 70 73 71 74 72 7 73 8 74 9 76
REMARK SMILES IDX 10 77 34 78 35 79 39 80 36 81 38 82 37 83 11 84 12 85 13 87
REMARK SMILES IDX 14 88 33 89 15 90 32 91 16 92 17 93 18 94 19 95 20 96 21 98
REMARK SMILES IDX 22 99 23 100 31 101 24 102 30 103 25 106 29 107 26 108
REMARK SMILES IDX 28 109 27 110
REMARK H PARENT 3 7 96 25 64 36 7 75 11 86 19 97 31 104 31 105
REMARK Flexibility Score: inf
ROOT
ATOM      1  C   UNL A   1      31.593  29.857  25.614  1.00  0.00     0.117 C 
ENDROOT
BRANCH   1   2
ATOM      2  C   UNL A   1      31.500  31.258  26.220  1.00  0.00     0.042 C 
BRANCH   2   3
ATOM      3  C   UNL A   1      32.610  31.617  27.204  1.00  0.00     0.118 C 
BRANCH   3   4
ATOM      4  N   UNL A   1      32.607  33.021  27.586  1.00  0.00    -0.352 N 
ATOM      5  O   UNL A   1      33.074  34.925  28.646  1.00  0.00    -0.269 OA
ATOM      6  C   UNL A   1      33.432  33.773  28.396  1.00  0.00     0.251 C 
ATOM      7  H   UNL A   1      31.870  33.537  27.187  1.00  0.00     0.163 HD
BRANCH   6   8
ATOM      8  C   UNL A   1      34.711  33.264  28.971  1.00  0.00     0.039 A 
ATOM      9  C   UNL A   1      35.954  33.652  28.490  1.00  0.00     0.014 A 
ATOM     10  C   UNL A   1      34.672  32.453  30.119  1.00  0.00     0.014 A 
ATOM     11  C   UNL A   1      37.119  33.119  29.049  1.00  0.00     0.010 A 
ATOM     12  C   UNL A   1      35.855  32.005  30.749  1.00  0.00     0.010 A 
ATOM     13  C   UNL A   1      37.107  32.310  30.214  1.00  0.00    -0.014 A 
BRANCH  13  14
ATOM     14  C   UNL A   1      38.430  31.963  30.859  1.00  0.00     0.031 A 
ATOM     15  C   UNL A   1      38.995  32.678  32.098  1.00  0.00     0.074 A 
ATOM     16  C   UNL A   1      39.046  30.863  30.367  1.00  0.00     0.049 A 
ATOM     17  N   UNL A   1      39.811  32.217  33.022  1.00  0.00    -0.248 NA
ATOM     18  C   UNL A   1      38.550  34.055  32.384  1.00  0.00     0.031 C 
ATOM     19  C   UNL A   1      38.678  30.179  29.112  1.00  0.00     0.029 A 
ATOM     20  N   UNL A   1      40.083  30.109  30.844  1.00  0.00    -0.354 N 
ATOM     21  C   UNL A   1      39.894  33.195  34.033  1.00  0.00     0.074 A 
ATOM     22  C   UNL A   1      39.107  34.313  33.568  1.00  0.00     0.031 C 
ATOM     23  C   UNL A   1      39.464  29.109  28.933  1.00  0.00     0.029 A 
ATOM     24  C   UNL A   1      40.423  29.056  30.022  1.00  0.00     0.049 A 
ATOM     25  H   UNL A   1      40.542  30.301  31.694  1.00  0.00     0.167 HD
ATOM     26  C   UNL A   1      40.515  33.111  35.249  1.00  0.00     0.034 A 
ATOM     27  C   UNL A   1      41.428  28.167  30.120  1.00  0.00     0.034 A 
ATOM     28  C   UNL A   1      41.348  31.972  35.583  1.00  0.00     0.049 A 
ATOM     29  C   UNL A   1      42.250  28.212  31.372  1.00  0.00     0.074 A 
ATOM     30  C   UNL A   1      41.995  31.685  36.770  1.00  0.00     0.029 A 
ATOM     31  N   UNL A   1      41.704  30.965  34.686  1.00  0.00    -0.354 N 
ATOM     32  N   UNL A   1      42.075  28.953  32.443  1.00  0.00    -0.248 NA
ATOM     33  C   UNL A   1      43.382  27.285  31.452  1.00  0.00     0.031 C 
ATOM     34  C   UNL A   1      42.812  30.564  36.560  1.00  0.00     0.029 A 
ATOM     35  C   UNL A   1      42.652  30.128  35.252  1.00  0.00     0.049 A 
ATOM     36  H   UNL A   1      41.334  30.864  33.779  1.00  0.00     0.167 HD
ATOM     37  C   UNL A   1      43.062  28.571  33.337  1.00  0.00     0.074 A 
ATOM     38  C   UNL A   1      43.803  27.500  32.690  1.00  0.00     0.031 C 
ATOM     39  C   UNL A   1      43.351  29.062  34.569  1.00  0.00     0.034 A 
BRANCH  26  40
ATOM     40  C   UNL A   1      40.339  34.198  36.338  1.00  0.00     0.023 A 
ATOM     41  C   UNL A   1      39.191  34.229  37.168  1.00  0.00     0.012 A 
ATOM     42  C   UNL A   1      41.376  35.078  36.701  1.00  0.00     0.148 A 
ATOM     43  C   UNL A   1      39.002  35.132  38.218  1.00  0.00     0.002 A 
ATOM     44  C   UNL A   1      41.221  35.938  37.803  1.00  0.00     0.091 A 
ATOM     45  F   UNL A   1      42.514  35.037  35.998  1.00  0.00    -0.205 F 
ATOM     46  C   UNL A   1      40.027  35.989  38.539  1.00  0.00     0.022 A 
BRANCH  44  47
ATOM     47  S   UNL A   1      42.528  36.990  38.443  1.00  0.00     0.127 S 
ATOM     48  O   UNL A   1      43.039  37.603  37.219  1.00  0.00    -0.237 OA
ATOM     49  O   UNL A   1      41.787  37.899  39.316  1.00  0.00    -0.237 OA
ATOM     50  O   UNL A   1      43.458  36.098  39.127  1.00  0.00    -0.744 OA
ENDBRANCH  44  47
ENDBRANCH  26  40
BRANCH  27  51
ATOM     51  C   UNL A   1      41.728  27.230  28.994  1.00  0.00     0.023 A 
ATOM     52  C   UNL A   1      41.224  25.916  28.982  1.00  0.00     0.012 A 
ATOM     53  C   UNL A   1      42.539  27.653  27.918  1.00  0.00     0.148 A 
ATOM     54  C   UNL A   1      41.550  25.037  27.944  1.00  0.00     0.002 A 
ATOM     55  C   UNL A   1      42.808  26.796  26.858  1.00  0.00     0.091 A 
ATOM     56  F   UNL A   1      43.038  28.898  27.949  1.00  0.00    -0.205 F 
ATOM     57  C   UNL A   1      42.331  25.478  26.878  1.00  0.00     0.022 A 
BRANCH  55  58
ATOM     58  S   UNL A   1      43.697  27.336  25.393  1.00  0.00     0.127 S 
ATOM     59  O   UNL A   1      44.292  26.088  24.927  1.00  0.00    -0.237 OA
ATOM     60  O   UNL A   1      42.614  27.854  24.554  1.00  0.00    -0.237 OA
ATOM     61  O   UNL A   1      44.630  28.355  25.856  1.00  0.00    -0.744 OA
ENDBRANCH  55  58
ENDBRANCH  27  51
BRANCH  39  62
ATOM     62  C   UNL A   1      44.529  28.426  35.262  1.00  0.00     0.023 A 
ATOM     63  C   UNL A   1      45.816  28.977  35.093  1.00  0.00     0.012 A 
ATOM     64  C   UNL A   1      44.366  27.279  36.060  1.00  0.00     0.148 A 
ATOM     65  C   UNL A   1      46.931  28.363  35.661  1.00  0.00     0.002 A 
ATOM     66  C   UNL A   1      45.472  26.710  36.676  1.00  0.00     0.091 A 
ATOM     67  F   UNL A   1      43.139  26.754  36.186  1.00  0.00    -0.205 F 
ATOM     68  C   UNL A   1      46.758  27.236  36.460  1.00  0.00     0.022 A 
BRANCH  66  69
ATOM     69  S   UNL A   1      45.333  25.323  37.806  1.00  0.00     0.127 S 
ATOM     70  O   UNL A   1      46.306  24.384  37.249  1.00  0.00    -0.237 OA
ATOM     71  O   UNL A   1      45.725  25.923  39.081  1.00  0.00    -0.237 OA
ATOM     72  O   UNL A   1      43.943  24.892  37.742  1.00  0.00    -0.744 OA
ENDBRANCH  66  69
ENDBRANCH  39  62
ENDBRANCH  13  14
ENDBRANCH   6   8
ENDBRANCH   3   4
ENDBRANCH   2   3
ENDBRANCH   1   2
BRANCH   1  73
ATOM     73  N   UNL A   1      32.657  29.712  24.618  1.00  0.00    -0.354 N 
ATOM     74  C   UNL A   1      32.685  28.909  23.492  1.00  0.00     0.247 C 
ATOM     75  H   UNL A   1      33.460  30.260  24.771  1.00  0.00     0.163 HD
ATOM     76  O   UNL A   1      33.640  28.996  22.719  1.00  0.00    -0.272 OA
BRANCH  74  77
ATOM     77  C   UNL A   1      31.513  27.921  23.257  1.00  0.00     0.202 C 
BRANCH  77  78
ATOM     78  C   UNL A   1      30.214  28.534  22.727  1.00  0.00    -0.016 A 
ATOM     79  C   UNL A   1      28.966  28.033  23.145  1.00  0.00     0.006 A 
ATOM     80  C   UNL A   1      30.196  29.721  21.985  1.00  0.00     0.006 A 
ATOM     81  C   UNL A   1      27.789  28.769  23.028  1.00  0.00     0.000 A 
ATOM     82  C   UNL A   1      29.004  30.434  21.803  1.00  0.00     0.000 A 
ATOM     83  C   UNL A   1      27.812  29.985  22.369  1.00  0.00     0.000 A 
ENDBRANCH  77  78
BRANCH  77  84
ATOM     84  N   UNL A   1      31.954  26.724  22.551  1.00  0.00    -0.340 N 
ATOM     85  C   UNL A   1      32.304  25.491  23.020  1.00  0.00     0.224 C 
ATOM     86  H   UNL A   1      32.007  26.823  21.573  1.00  0.00     0.164 HD
ATOM     87  O   UNL A   1      32.937  24.773  22.237  1.00  0.00    -0.275 OA
BRANCH  85  88
ATOM     88  C   UNL A   1      31.812  24.918  24.374  1.00  0.00     0.078 C 
ATOM     89  C   UNL A   1      31.269  23.480  24.183  1.00  0.00     0.014 C 
ATOM     90  C   UNL A   1      32.784  24.954  25.558  1.00  0.00     0.014 C 
ATOM     91  C   UNL A   1      30.804  22.833  25.497  1.00  0.00     0.006 C 
ATOM     92  C   UNL A   1      32.194  24.395  26.833  1.00  0.00     0.006 C 
ATOM     93  C   UNL A   1      31.845  22.943  26.620  1.00  0.00     0.008 C 
BRANCH  93  94
ATOM     94  C   UNL A   1      33.070  22.126  26.243  1.00  0.00     0.119 C 
BRANCH  94  95
ATOM     95  N   UNL A   1      32.793  20.998  25.377  1.00  0.00    -0.351 N 
ATOM     96  C   UNL A   1      33.771  20.208  24.834  1.00  0.00     0.278 C 
ATOM     97  H   UNL A   1      31.854  20.789  25.169  1.00  0.00     0.163 HD
ATOM     98  O   UNL A   1      33.459  19.189  24.215  1.00  0.00    -0.268 OA
BRANCH  96  99
ATOM     99  C   UNL A   1      35.197  20.672  25.082  1.00  0.00     0.277 C 
ATOM    100  C   UNL A   1      35.551  21.890  24.285  1.00  0.00     0.111 C 
ATOM    101  N   UNL A   1      36.166  19.548  24.946  1.00  0.00    -0.332 N 
ATOM    102  C   UNL A   1      36.786  22.380  24.977  1.00  0.00    -0.033 A 
ATOM    103  C   UNL A   1      37.571  20.040  24.850  1.00  0.00     0.298 C 
ATOM    104  H   UNL A   1      35.942  19.020  24.103  1.00  0.00     0.347 HD
ATOM    105  H   UNL A   1      36.091  18.962  25.777  1.00  0.00     0.347 HD
ATOM    106  C   UNL A   1      36.852  23.673  25.440  1.00  0.00     0.004 A 
ATOM    107  C   UNL A   1      37.777  21.458  25.311  1.00  0.00     0.010 A 
ATOM    108  C   UNL A   1      37.939  24.117  26.175  1.00  0.00     0.000 A 
ATOM    109  C   UNL A   1      38.886  21.895  26.040  1.00  0.00     0.010 A 
ATOM    110  C   UNL A   1      38.965  23.226  26.467  1.00  0.00     0.001 A 
ENDBRANCH  96  99
ENDBRANCH  94  95
ENDBRANCH  93  94
ENDBRANCH  85  88
ENDBRANCH  77  84
ENDBRANCH  74  77
ENDBRANCH   1  73
TORSDOF 19
ENDMDL
MODEL 2
REMARK VINA RESULT:     -13.4      3.192      4.192
REMARK SMILES O=C(NCCCNC(=O)[C@H](NC(=O)[C@H]1CC[C@@H](CNC(=O)[C@@H]2Cc3ccccc3C[NH2+]2)CC1)c1ccccc1)c1ccc(-c2c3nc(c(-c4cccc(S(=O)(=O)[O-])c4F)c4ccc([nH]4)c(-c4cccc(S(=O)(=O)[O-])c4F)c4nc(c(-c5cccc(S(=O)(=O)[O-])c5F)c5ccc2[nH]5)C=C4)C=C3)cc1
REMARK SMILES IDX 6 1 5 2 4 3 3 4 1 5 2 6 40 8 41 9 102 10 42 11 101 12 43 13
REMARK SMILES IDX 44 14 45 15 95 16 46 17 100 18 94 19 96 20 47 21 99 22 93 23
REMARK SMILES IDX 92 24 48 26 80 27 60 28 79 29 61 30 64 31 78 32 97 33 62 34
REMARK SMILES IDX 63 35 77 37 98 38 65 39 49 40 50 41 58 42 51 43 53 44 59 45
REMARK SMILES IDX 52 46 54 47 55 48 56 49 57 50 81 51 82 52 90 53 83 54 85 55
REMARK SMILES IDX 91 56 84 57 86 58 87 59 88 60 89 61 66 62 67 63 75 64 68 65
REMARK SMILES IDX 70 66 76 67 69 68 71 69 72 70 73 71 74 72 7 73 8 74 9 76
REMARK SMILES IDX 10 77 34 78 35 79 39 80 36 81 38 82 37 83 11 84 12 85 13 87
REMARK SMILES IDX 14 88 33 89 15 90 32 91 16 92 17 93 18 94 19 95 20 96 21 98
REMARK SMILES IDX 22 99 23 100 31 101 24 102 30 103 25 106 29 107 26 108
REMARK SMILES IDX 28 109 27 110
REMARK H PARENT 3 7 96 25 64 36 7 75 11 86 19 97 31 104 31 105
REMARK Flexibility Score: inf
ROOT
ATOM      1  C   UNL A   1      31.504  27.817  25.752  1.00  0.00     0.117 C 
ENDROOT
BRANCH   1   2
ATOM      2  C   UNL A   1      31.919  28.127  27.191  1.00  0.00     0.042 C 
BRANCH   2   3
ATOM      3  C   UNL A   1      33.367  28.576  27.368  1.00  0.00     0.118 C 
BRANCH   3   4
ATOM      4  N   UNL A   1      33.504  30.014  27.546  1.00  0.00    -0.352 N 
ATOM      5  O   UNL A   1      34.267  31.998  28.214  1.00  0.00    -0.269 OA
ATOM      6  C   UNL A   1      34.515  30.802  28.056  1.00  0.00     0.251 C 
ATOM      7  H   UNL A   1      32.720  30.526  27.243  1.00  0.00     0.163 HD
BRANCH   6   8
ATOM      8  C   UNL A   1      35.866  30.282  28.415  1.00  0.00     0.039 A 
ATOM      9  C   UNL A   1      36.976  30.458  27.601  1.00  0.00     0.014 A 
ATOM     10  C   UNL A   1      36.060  29.692  29.677  1.00  0.00     0.014 A 
ATOM     11  C   UNL A   1      38.212  29.922  27.976  1.00  0.00     0.010 A 
ATOM     12  C   UNL A   1      37.335  29.251  30.099  1.00  0.00     0.010 A 
ATOM     13  C   UNL A   1      38.436  29.336  29.248  1.00  0.00    -0.014 A 
BRANCH  13  14
ATOM     14  C   UNL A   1      39.856  28.982  29.633  1.00  0.00     0.031 A 
ATOM     15  C   UNL A   1      40.658  29.716  30.720  1.00  0.00     0.074 A 
ATOM     16  C   UNL A   1      40.351  27.861  29.060  1.00  0.00     0.049 A 
ATOM     17  N   UNL A   1      41.632  29.263  31.481  1.00  0.00    -0.248 NA
ATOM     18  C   UNL A   1      40.293  31.106  31.052  1.00  0.00     0.031 C 
ATOM     19  C   UNL A   1      39.740  27.154  27.917  1.00  0.00     0.029 A 
ATOM     20  N   UNL A   1      41.453  27.101  29.346  1.00  0.00    -0.354 N 
ATOM     21  C   UNL A   1      41.921  30.263  32.431  1.00  0.00     0.074 A 
ATOM     22  C   UNL A   1      41.072  31.382  32.099  1.00  0.00     0.031 C 
ATOM     23  C   UNL A   1      40.464  26.068  27.617  1.00  0.00     0.029 A 
ATOM     24  C   UNL A   1      41.615  26.024  28.501  1.00  0.00     0.049 A 
ATOM     25  H   UNL A   1      42.070  27.305  30.086  1.00  0.00     0.167 HD
ATOM     26  C   UNL A   1      42.765  30.196  33.506  1.00  0.00     0.034 A 
ATOM     27  C   UNL A   1      42.609  25.122  28.425  1.00  0.00     0.034 A 
ATOM     28  C   UNL A   1      43.634  29.052  33.701  1.00  0.00     0.049 A 
ATOM     29  C   UNL A   1      43.659  25.182  29.493  1.00  0.00     0.074 A 
ATOM     30  C   UNL A   1      44.495  28.781  34.748  1.00  0.00     0.029 A 
ATOM     31  N   UNL A   1      43.798  28.019  32.778  1.00  0.00    -0.354 N 
ATOM     32  N   UNL A   1      43.703  25.950  30.558  1.00  0.00    -0.248 NA
ATOM     33  C   UNL A   1      44.774  24.239  29.376  1.00  0.00     0.031 C 
ATOM     34  C   UNL A   1      45.243  27.643  34.412  1.00  0.00     0.029 A 
ATOM     35  C   UNL A   1      44.827  27.179  33.171  1.00  0.00     0.049 A 
ATOM     36  H   UNL A   1      43.257  27.903  31.963  1.00  0.00     0.167 HD
ATOM     37  C   UNL A   1      44.840  25.573  31.254  1.00  0.00     0.074 A 
ATOM     38  C   UNL A   1      45.430  24.475  30.503  1.00  0.00     0.031 C 
ATOM     39  C   UNL A   1      45.368  26.087  32.394  1.00  0.00     0.034 A 
BRANCH  26  40
ATOM     40  C   UNL A   1      42.816  31.311  34.580  1.00  0.00     0.023 A 
ATOM     41  C   UNL A   1      43.691  32.418  34.451  1.00  0.00     0.012 A 
ATOM     42  C   UNL A   1      41.874  31.398  35.622  1.00  0.00     0.148 A 
ATOM     43  C   UNL A   1      43.735  33.495  35.340  1.00  0.00     0.002 A 
ATOM     44  C   UNL A   1      41.865  32.516  36.476  1.00  0.00     0.091 A 
ATOM     45  F   UNL A   1      40.973  30.416  35.743  1.00  0.00    -0.205 F 
ATOM     46  C   UNL A   1      42.812  33.545  36.357  1.00  0.00     0.022 A 
BRANCH  44  47
ATOM     47  S   UNL A   1      40.620  32.801  37.738  1.00  0.00     0.127 S 
ATOM     48  O   UNL A   1      40.427  34.246  37.639  1.00  0.00    -0.237 OA
ATOM     49  O   UNL A   1      39.499  32.002  37.248  1.00  0.00    -0.237 OA
ATOM     50  O   UNL A   1      41.209  32.337  38.990  1.00  0.00    -0.744 OA
ENDBRANCH  44  47
ENDBRANCH  26  40
BRANCH  27  51
ATOM     51  C   UNL A   1      42.675  24.154  27.287  1.00  0.00     0.023 A 
ATOM     52  C   UNL A   1      43.343  24.476  26.091  1.00  0.00     0.012 A 
ATOM     53  C   UNL A   1      42.053  22.891  27.395  1.00  0.00     0.148 A 
ATOM     54  C   UNL A   1      43.359  23.577  25.019  1.00  0.00     0.002 A 
ATOM     55  C   UNL A   1      42.126  21.977  26.351  1.00  0.00     0.091 A 
ATOM     56  F   UNL A   1      41.395  22.601  28.528  1.00  0.00    -0.205 F 
ATOM     57  C   UNL A   1      42.761  22.326  25.152  1.00  0.00     0.022 A 
BRANCH  55  58
ATOM     58  S   UNL A   1      41.493  20.302  26.500  1.00  0.00     0.127 S 
ATOM     59  O   UNL A   1      40.054  20.514  26.379  1.00  0.00    -0.237 OA
ATOM     60  O   UNL A   1      42.117  19.638  25.354  1.00  0.00    -0.237 OA
ATOM     61  O   UNL A   1      41.960  19.822  27.793  1.00  0.00    -0.744 OA
ENDBRANCH  55  58
ENDBRANCH  27  51
BRANCH  39  62
ATOM     62  C   UNL A   1      46.651  25.448  32.862  1.00  0.00     0.023 A 
ATOM     63  C   UNL A   1      46.612  24.484  33.891  1.00  0.00     0.012 A 
ATOM     64  C   UNL A   1      47.888  25.811  32.300  1.00  0.00     0.148 A 
ATOM     65  C   UNL A   1      47.791  23.935  34.393  1.00  0.00     0.002 A 
ATOM     66  C   UNL A   1      49.053  25.213  32.760  1.00  0.00     0.091 A 
ATOM     67  F   UNL A   1      47.906  26.750  31.342  1.00  0.00    -0.205 F 
ATOM     68  C   UNL A   1      49.009  24.291  33.821  1.00  0.00     0.022 A 
BRANCH  66  69
ATOM     69  S   UNL A   1      50.654  25.529  32.015  1.00  0.00     0.127 S 
ATOM     70  O   UNL A   1      51.500  24.552  32.696  1.00  0.00    -0.237 OA
ATOM     71  O   UNL A   1      50.400  25.239  30.603  1.00  0.00    -0.237 OA
ATOM     72  O   UNL A   1      50.959  26.925  32.299  1.00  0.00    -0.744 OA
ENDBRANCH  66  69
ENDBRANCH  39  62
ENDBRANCH  13  14
ENDBRANCH   6   8
ENDBRANCH   3   4
ENDBRANCH   2   3
ENDBRANCH   1   2
BRANCH   1  73
ATOM     73  N   UNL A   1      32.384  28.409  24.742  1.00  0.00    -0.354 N 
ATOM     74  C   UNL A   1      32.087  28.769  23.440  1.00  0.00     0.247 C 
ATOM     75  H   UNL A   1      33.311  28.574  25.028  1.00  0.00     0.163 HD
ATOM     76  O   UNL A   1      32.945  29.345  22.768  1.00  0.00    -0.272 OA
BRANCH  74  77
ATOM     77  C   UNL A   1      30.685  28.420  22.875  1.00  0.00     0.202 C 
BRANCH  77  78
ATOM     78  C   UNL A   1      29.717  29.594  22.710  1.00  0.00    -0.016 A 
ATOM     79  C   UNL A   1      29.448  30.455  23.791  1.00  0.00     0.006 A 
ATOM     80  C   UNL A   1      29.224  29.986  21.460  1.00  0.00     0.006 A 
ATOM     81  C   UNL A   1      28.916  31.731  23.616  1.00  0.00     0.000 A 
ATOM     82  C   UNL A   1      28.624  31.240  21.287  1.00  0.00     0.000 A 
ATOM     83  C   UNL A   1      28.518  32.132  22.353  1.00  0.00     0.000 A 
ENDBRANCH  77  78
BRANCH  77  84
ATOM     84  N   UNL A   1      30.778  27.540  21.717  1.00  0.00    -0.340 N 
ATOM     85  C   UNL A   1      31.458  26.370  21.539  1.00  0.00     0.224 C 
ATOM     86  H   UNL A   1      30.263  27.839  20.933  1.00  0.00     0.164 HD
ATOM     87  O   UNL A   1      31.614  26.006  20.368  1.00  0.00    -0.275 OA
BRANCH  85  88
ATOM     88  C   UNL A   1      31.873  25.435  22.705  1.00  0.00     0.078 C 
ATOM     89  C   UNL A   1      30.691  24.514  23.100  1.00  0.00     0.014 C 
ATOM     90  C   UNL A   1      33.146  24.600  22.529  1.00  0.00     0.014 C 
ATOM     91  C   UNL A   1      31.048  23.527  24.224  1.00  0.00     0.006 C 
ATOM     92  C   UNL A   1      33.470  23.745  23.734  1.00  0.00     0.006 C 
ATOM     93  C   UNL A   1      32.350  22.759  23.955  1.00  0.00     0.008 C 
BRANCH  93  94
ATOM     94  C   UNL A   1      32.155  21.858  22.747  1.00  0.00     0.119 C 
BRANCH  94  95
ATOM     95  N   UNL A   1      31.937  20.462  23.071  1.00  0.00    -0.351 N 
ATOM     96  C   UNL A   1      32.506  19.844  24.152  1.00  0.00     0.278 C 
ATOM     97  H   UNL A   1      31.349  19.933  22.485  1.00  0.00     0.163 HD
ATOM     98  O   UNL A   1      32.174  18.693  24.442  1.00  0.00    -0.268 OA
BRANCH  96  99
ATOM     99  C   UNL A   1      33.509  20.680  24.929  1.00  0.00     0.277 C 
ATOM    100  C   UNL A   1      34.912  20.175  24.786  1.00  0.00     0.111 C 
ATOM    101  N   UNL A   1      33.073  20.882  26.339  1.00  0.00    -0.332 N 
ATOM    102  C   UNL A   1      35.725  21.340  25.262  1.00  0.00    -0.033 A 
ATOM    103  C   UNL A   1      34.183  21.399  27.192  1.00  0.00     0.298 C 
ATOM    104  H   UNL A   1      32.753  19.991  26.717  1.00  0.00     0.347 HD
ATOM    105  H   UNL A   1      32.322  21.572  26.343  1.00  0.00     0.347 HD
ATOM    106  C   UNL A   1      36.710  21.868  24.462  1.00  0.00     0.004 A 
ATOM    107  C   UNL A   1      35.340  21.991  26.433  1.00  0.00     0.010 A 
ATOM    108  C   UNL A   1      37.402  23.009  24.835  1.00  0.00     0.000 A 
ATOM    109  C   UNL A   1      36.037  23.134  26.829  1.00  0.00     0.010 A 
ATOM    110  C   UNL A   1      37.071  23.638  26.029  1.00  0.00     0.001 A 
ENDBRANCH  96  99
ENDBRANCH  94  95
ENDBRANCH  93  94
ENDBRANCH  85  88
ENDBRANCH  77  84
ENDBRANCH  74  77
ENDBRANCH   1  73
TORSDOF 19
ENDMDL
MODEL 3
REMARK VINA RESULT:     -13.0      2.163      7.674
REMARK SMILES O=C(NCCCNC(=O)[C@H](NC(=O)[C@H]1CC[C@@H](CNC(=O)[C@@H]2Cc3ccccc3C[NH2+]2)CC1)c1ccccc1)c1ccc(-c2c3nc(c(-c4cccc(S(=O)(=O)[O-])c4F)c4ccc([nH]4)c(-c4cccc(S(=O)(=O)[O-])c4F)c4nc(c(-c5cccc(S(=O)(=O)[O-])c5F)c5ccc2[nH]5)C=C4)C=C3)cc1
REMARK SMILES IDX 6 1 5 2 4 3 3 4 1 5 2 6 40 8 41 9 102 10 42 11 101 12 43 13
REMARK SMILES IDX 44 14 45 15 95 16 46 17 100 18 94 19 96 20 47 21 99 22 93 23
REMARK SMILES IDX 92 24 48 26 80 27 60 28 79 29 61 30 64 31 78 32 97 33 62 34
REMARK SMILES IDX 63 35 77 37 98 38 65 39 49 40 50 41 58 42 51 43 53 44 59 45
REMARK SMILES IDX 52 46 54 47 55 48 56 49 57 50 81 51 82 52 90 53 83 54 85 55
REMARK SMILES IDX 91 56 84 57 86 58 87 59 88 60 89 61 66 62 67 63 75 64 68 65
REMARK SMILES IDX 70 66 76 67 69 68 71 69 72 70 73 71 74 72 7 73 8 74 9 76
REMARK SMILES IDX 10 77 34 78 35 79 39 80 36 81 38 82 37 83 11 84 12 85 13 87
REMARK SMILES IDX 14 88 33 89 15 90 32 91 16 92 17 93 18 94 19 95 20 96 21 98
REMARK SMILES IDX 22 99 23 100 31 101 24 102 30 103 25 106 29 107 26 108
REMARK SMILES IDX 28 109 27 110
REMARK H PARENT 3 7 96 25 64 36 7 75 11 86 19 97 31 104 31 105
REMARK Flexibility Score: inf
ROOT
ATOM      1  C   UNL A   1      31.297  30.989  25.962  1.00  0.00     0.117 C 
ENDROOT
BRANCH   1   2
ATOM      2  C   UNL A   1      31.288  32.401  26.551  1.00  0.00     0.042 C 
BRANCH   2   3
ATOM      3  C   UNL A   1      32.615  32.868  27.140  1.00  0.00     0.118 C 
BRANCH   3   4
ATOM      4  N   UNL A   1      32.559  34.217  27.684  1.00  0.00    -0.352 N 
ATOM      5  O   UNL A   1      32.803  35.955  29.058  1.00  0.00    -0.269 OA
ATOM      6  C   UNL A   1      33.178  34.820  28.759  1.00  0.00     0.251 C 
ATOM      7  H   UNL A   1      31.959  34.819  27.187  1.00  0.00     0.163 HD
BRANCH   6   8
ATOM      8  C   UNL A   1      34.259  34.174  29.558  1.00  0.00     0.039 A 
ATOM      9  C   UNL A   1      34.017  33.533  30.765  1.00  0.00     0.014 A 
ATOM     10  C   UNL A   1      35.558  34.103  29.023  1.00  0.00     0.014 A 
ATOM     11  C   UNL A   1      35.076  32.971  31.485  1.00  0.00     0.010 A 
ATOM     12  C   UNL A   1      36.603  33.437  29.702  1.00  0.00     0.010 A 
ATOM     13  C   UNL A   1      36.390  32.875  30.961  1.00  0.00    -0.014 A 
BRANCH  13  14
ATOM     14  C   UNL A   1      37.409  32.062  31.728  1.00  0.00     0.031 A 
ATOM     15  C   UNL A   1      38.110  30.813  31.166  1.00  0.00     0.074 A 
ATOM     16  C   UNL A   1      37.796  32.584  32.914  1.00  0.00     0.049 A 
ATOM     17  N   UNL A   1      39.293  30.320  31.464  1.00  0.00    -0.248 NA
ATOM     18  C   UNL A   1      37.444  30.051  30.092  1.00  0.00     0.031 C 
ATOM     19  C   UNL A   1      37.112  33.689  33.615  1.00  0.00     0.029 A 
ATOM     20  N   UNL A   1      38.847  32.291  33.740  1.00  0.00    -0.354 N 
ATOM     21  C   UNL A   1      39.550  29.270  30.560  1.00  0.00     0.074 A 
ATOM     22  C   UNL A   1      38.360  29.144  29.752  1.00  0.00     0.031 C 
ATOM     23  C   UNL A   1      37.768  33.982  34.745  1.00  0.00     0.029 A 
ATOM     24  C   UNL A   1      38.883  33.062  34.882  1.00  0.00     0.049 A 
ATOM     25  H   UNL A   1      39.515  31.597  33.536  1.00  0.00     0.167 HD
ATOM     26  C   UNL A   1      40.702  28.550  30.398  1.00  0.00     0.034 A 
ATOM     27  C   UNL A   1      39.705  33.003  35.945  1.00  0.00     0.034 A 
ATOM     28  C   UNL A   1      41.811  28.702  31.319  1.00  0.00     0.049 A 
ATOM     29  C   UNL A   1      40.859  32.051  35.853  1.00  0.00     0.074 A 
ATOM     30  C   UNL A   1      43.062  28.116  31.279  1.00  0.00     0.029 A 
ATOM     31  N   UNL A   1      41.765  29.453  32.493  1.00  0.00    -0.354 N 
ATOM     32  N   UNL A   1      41.237  31.314  34.833  1.00  0.00    -0.248 NA
ATOM     33  C   UNL A   1      41.719  31.941  37.034  1.00  0.00     0.031 C 
ATOM     34  C   UNL A   1      43.730  28.435  32.471  1.00  0.00     0.029 A 
ATOM     35  C   UNL A   1      42.912  29.249  33.242  1.00  0.00     0.049 A 
ATOM     36  H   UNL A   1      41.021  30.045  32.752  1.00  0.00     0.167 HD
ATOM     37  C   UNL A   1      42.392  30.665  35.238  1.00  0.00     0.074 A 
ATOM     38  C   UNL A   1      42.670  31.134  36.586  1.00  0.00     0.031 C 
ATOM     39  C   UNL A   1      43.149  29.753  34.576  1.00  0.00     0.034 A 
BRANCH  26  40
ATOM     40  C   UNL A   1      40.896  27.567  29.217  1.00  0.00     0.023 A 
ATOM     41  C   UNL A   1      40.095  26.405  29.087  1.00  0.00     0.012 A 
ATOM     42  C   UNL A   1      41.719  27.865  28.115  1.00  0.00     0.148 A 
ATOM     43  C   UNL A   1      40.163  25.518  28.009  1.00  0.00     0.002 A 
ATOM     44  C   UNL A   1      41.738  27.014  26.995  1.00  0.00     0.091 A 
ATOM     45  F   UNL A   1      42.441  28.992  28.152  1.00  0.00    -0.205 F 
ATOM     46  C   UNL A   1      40.989  25.829  26.955  1.00  0.00     0.022 A 
BRANCH  44  47
ATOM     47  S   UNL A   1      42.633  27.373  25.480  1.00  0.00     0.127 S 
ATOM     48  O   UNL A   1      42.414  26.148  24.713  1.00  0.00    -0.237 OA
ATOM     49  O   UNL A   1      41.921  28.544  24.975  1.00  0.00    -0.237 OA
ATOM     50  O   UNL A   1      44.015  27.615  25.882  1.00  0.00    -0.744 OA
ENDBRANCH  44  47
ENDBRANCH  26  40
BRANCH  27  51
ATOM     51  C   UNL A   1      39.426  33.812  37.171  1.00  0.00     0.023 A 
ATOM     52  C   UNL A   1      39.871  35.142  37.286  1.00  0.00     0.012 A 
ATOM     53  C   UNL A   1      38.709  33.243  38.246  1.00  0.00     0.148 A 
ATOM     54  C   UNL A   1      39.640  35.871  38.457  1.00  0.00     0.002 A 
ATOM     55  C   UNL A   1      38.427  33.993  39.382  1.00  0.00     0.091 A 
ATOM     56  F   UNL A   1      38.310  31.966  38.140  1.00  0.00    -0.205 F 
ATOM     57  C   UNL A   1      38.910  35.303  39.499  1.00  0.00     0.022 A 
BRANCH  55  58
ATOM     58  S   UNL A   1      37.383  33.370  40.704  1.00  0.00     0.127 S 
ATOM     59  O   UNL A   1      36.254  32.820  39.961  1.00  0.00    -0.237 OA
ATOM     60  O   UNL A   1      38.252  32.374  41.334  1.00  0.00    -0.237 OA
ATOM     61  O   UNL A   1      37.091  34.523  41.547  1.00  0.00    -0.744 OA
ENDBRANCH  55  58
ENDBRANCH  27  51
BRANCH  39  62
ATOM     62  C   UNL A   1      44.337  29.221  35.337  1.00  0.00     0.023 A 
ATOM     63  C   UNL A   1      45.601  29.820  35.161  1.00  0.00     0.012 A 
ATOM     64  C   UNL A   1      44.206  28.123  36.207  1.00  0.00     0.148 A 
ATOM     65  C   UNL A   1      46.728  29.298  35.794  1.00  0.00     0.002 A 
ATOM     66  C   UNL A   1      45.320  27.649  36.885  1.00  0.00     0.091 A 
ATOM     67  F   UNL A   1      43.001  27.550  36.339  1.00  0.00    -0.205 F 
ATOM     68  C   UNL A   1      46.586  28.220  36.664  1.00  0.00     0.022 A 
BRANCH  66  69
ATOM     69  S   UNL A   1      45.216  26.335  38.103  1.00  0.00     0.127 S 
ATOM     70  O   UNL A   1      44.750  25.211  37.291  1.00  0.00    -0.237 OA
ATOM     71  O   UNL A   1      46.602  26.226  38.559  1.00  0.00    -0.237 OA
ATOM     72  O   UNL A   1      44.280  26.802  39.117  1.00  0.00    -0.744 OA
ENDBRANCH  66  69
ENDBRANCH  39  62
ENDBRANCH  13  14
ENDBRANCH   6   8
ENDBRANCH   3   4
ENDBRANCH   2   3
ENDBRANCH   1   2
BRANCH   1  73
ATOM     73  N   UNL A   1      30.576  30.873  24.693  1.00  0.00    -0.354 N 
ATOM     74  C   UNL A   1      30.577  29.825  23.790  1.00  0.00     0.247 C 
ATOM     75  H   UNL A   1      30.014  31.644  24.450  1.00  0.00     0.163 HD
ATOM     76  O   UNL A   1      29.826  29.875  22.814  1.00  0.00    -0.272 OA
BRANCH  74  77
ATOM     77  C   UNL A   1      31.538  28.633  24.039  1.00  0.00     0.202 C 
BRANCH  77  78
ATOM     78  C   UNL A   1      30.937  27.428  24.766  1.00  0.00    -0.016 A 
ATOM     79  C   UNL A   1      30.091  26.532  24.084  1.00  0.00     0.006 A 
ATOM     80  C   UNL A   1      31.351  27.046  26.048  1.00  0.00     0.006 A 
ATOM     81  C   UNL A   1      29.842  25.241  24.547  1.00  0.00     0.000 A 
ATOM     82  C   UNL A   1      31.046  25.774  26.550  1.00  0.00     0.000 A 
ATOM     83  C   UNL A   1      30.338  24.855  25.779  1.00  0.00     0.000 A 
ENDBRANCH  77  78
BRANCH  77  84
ATOM     84  N   UNL A   1      32.303  28.303  22.843  1.00  0.00    -0.340 N 
ATOM     85  C   UNL A   1      33.171  27.279  22.595  1.00  0.00     0.224 C 
ATOM     86  H   UNL A   1      32.172  28.922  22.088  1.00  0.00     0.164 HD
ATOM     87  O   UNL A   1      33.913  27.422  21.617  1.00  0.00    -0.275 OA
BRANCH  85  88
ATOM     88  C   UNL A   1      33.143  25.929  23.359  1.00  0.00     0.078 C 
ATOM     89  C   UNL A   1      33.139  24.747  22.358  1.00  0.00     0.014 C 
ATOM     90  C   UNL A   1      34.211  25.697  24.434  1.00  0.00     0.014 C 
ATOM     91  C   UNL A   1      33.157  23.374  23.049  1.00  0.00     0.006 C 
ATOM     92  C   UNL A   1      34.075  24.363  25.132  1.00  0.00     0.006 C 
ATOM     93  C   UNL A   1      34.251  23.257  24.120  1.00  0.00     0.008 C 
BRANCH  93  94
ATOM     94  C   UNL A   1      35.613  23.328  23.449  1.00  0.00     0.119 C 
BRANCH  94  95
ATOM     95  N   UNL A   1      36.730  23.398  24.371  1.00  0.00    -0.351 N 
ATOM     96  C   UNL A   1      37.257  22.302  24.998  1.00  0.00     0.278 C 
ATOM     97  H   UNL A   1      37.129  24.279  24.553  1.00  0.00     0.163 HD
ATOM     98  O   UNL A   1      38.287  22.416  25.665  1.00  0.00    -0.268 OA
BRANCH  96  99
ATOM     99  C   UNL A   1      36.504  21.000  24.780  1.00  0.00     0.277 C 
ATOM    100  C   UNL A   1      35.322  20.860  25.690  1.00  0.00     0.111 C 
ATOM    101  N   UNL A   1      37.426  19.830  24.791  1.00  0.00    -0.332 N 
ATOM    102  C   UNL A   1      34.538  19.765  25.034  1.00  0.00    -0.033 A 
ATOM    103  C   UNL A   1      36.682  18.542  24.918  1.00  0.00     0.298 C 
ATOM    104  H   UNL A   1      38.066  19.921  25.580  1.00  0.00     0.347 HD
ATOM    105  H   UNL A   1      37.934  19.817  23.907  1.00  0.00     0.347 HD
ATOM    106  C   UNL A   1      33.219  19.963  24.703  1.00  0.00     0.004 A 
ATOM    107  C   UNL A   1      35.214  18.627  24.598  1.00  0.00     0.010 A 
ATOM    108  C   UNL A   1      32.504  19.005  24.002  1.00  0.00     0.000 A 
ATOM    109  C   UNL A   1      34.503  17.646  23.902  1.00  0.00     0.010 A 
ATOM    110  C   UNL A   1      33.148  17.837  23.609  1.00  0.00     0.001 A 
ENDBRANCH  96  99
ENDBRANCH  94  95
ENDBRANCH  93  94
ENDBRANCH  85  88
ENDBRANCH  77  84
ENDBRANCH  74  77
ENDBRANCH   1  73
TORSDOF 19
ENDMDL
