MODEL 1
REMARK VINA RESULT:     -11.7      0.000      0.000
REMARK SMILES COCCOc1ccccc1/C=C/c1cc(C(=O)NCCCNC(=O)c2ccc(-c3c4nc(c(-c5cccc(S(=O)(=O)[O-])c5F)c5ccc([nH]5)c(-c5cccc(S(=O)(=O)[O-])c5F)c5nc(c(-c6cccc(S(=O)(=O)[O-])c6F)c6ccc3[nH]6)C=C5)C=C4)cc2)ncn1
REMARK SMILES IDX 17 1 18 2 19 3 16 5 14 6 15 7 91 8 90 9 89 10 13 11 12 12
REMARK SMILES IDX 11 13 6 14 7 15 8 16 10 17 9 18 5 19 4 20 3 21 2 22 1 23
REMARK SMILES IDX 20 24 21 25 22 26 23 27 24 28 25 30 26 31 27 32 88 33 28 34
REMARK SMILES IDX 87 35 29 36 30 37 31 38 81 39 32 40 86 41 80 42 82 43 33 44
REMARK SMILES IDX 85 45 79 46 78 47 34 49 66 50 46 51 65 52 47 53 50 54 64 55
REMARK SMILES IDX 83 56 48 57 49 58 63 60 84 61 51 62 35 63 36 64 44 65 37 66
REMARK SMILES IDX 39 67 45 68 38 69 40 70 41 71 42 72 43 73 67 74 68 75 76 76
REMARK SMILES IDX 69 77 71 78 77 79 70 80 72 81 73 82 74 83 75 84 52 85 53 86
REMARK SMILES IDX 61 87 54 88 56 89 62 90 55 91 57 92 58 93 59 94 60 95
REMARK H PARENT 19 4 23 29 82 48 50 59
REMARK Flexibility Score: inf
ROOT
ATOM      1  C   UNL A   1      33.548  28.989  27.041  1.00  0.00     0.270 C 
ATOM      2  O   UNL A   1      34.686  28.945  27.517  1.00  0.00    -0.268 OA
ATOM      3  N   UNL A   1      32.983  30.244  26.975  1.00  0.00    -0.351 N 
ATOM      4  H   UNL A   1      33.536  30.948  27.388  1.00  0.00     0.163 HD
ENDROOT
BRANCH   1   5
ATOM      5  C   UNL A   1      32.910  27.719  26.527  1.00  0.00     0.132 A 
ATOM      6  C   UNL A   1      32.859  25.531  25.685  1.00  0.00     0.067 A 
ATOM      7  C   UNL A   1      33.585  26.687  25.916  1.00  0.00     0.062 A 
ATOM      8  N   UNL A   1      31.538  25.428  25.905  1.00  0.00    -0.237 NA
ATOM      9  C   UNL A   1      30.951  26.533  26.378  1.00  0.00     0.223 A 
ATOM     10  N   UNL A   1      31.572  27.661  26.736  1.00  0.00    -0.231 NA
BRANCH   6  11
ATOM     11  C   UNL A   1      33.588  24.316  25.300  1.00  0.00     0.029 C 
ATOM     12  C   UNL A   1      34.484  23.750  26.134  1.00  0.00     0.014 C 
BRANCH  12  13
ATOM     13  C   UNL A   1      35.502  22.765  25.700  1.00  0.00     0.017 A 
ATOM     14  C   UNL A   1      35.257  21.427  25.307  1.00  0.00     0.126 A 
ATOM     15  C   UNL A   1      36.350  20.588  25.003  1.00  0.00     0.047 A 
ATOM     16  C   UNL A   1      37.666  21.028  25.095  1.00  0.00     0.004 A 
ATOM     17  C   UNL A   1      36.846  23.198  25.745  1.00  0.00     0.012 A 
ATOM     18  C   UNL A   1      37.914  22.339  25.466  1.00  0.00     0.001 A 
BRANCH  14  19
ATOM     19  O   UNL A   1      34.105  20.687  25.235  1.00  0.00    -0.491 OA
BRANCH  19  20
ATOM     20  C   UNL A   1      34.054  19.366  24.741  1.00  0.00     0.258 C 
BRANCH  20  21
ATOM     21  C   UNL A   1      32.650  18.837  24.438  1.00  0.00     0.201 C 
BRANCH  21  22
ATOM     22  O   UNL A   1      32.131  17.892  25.369  1.00  0.00    -0.381 OA
ATOM     23  C   UNL A   1      32.938  16.734  25.547  1.00  0.00     0.195 C 
ENDBRANCH  21  22
ENDBRANCH  20  21
ENDBRANCH  19  20
ENDBRANCH  14  19
ENDBRANCH  12  13
ENDBRANCH   6  11
ENDBRANCH   1   5
BRANCH   3  24
ATOM     24  C   UNL A   1      31.739  30.736  26.422  1.00  0.00     0.118 C 
BRANCH  24  25
ATOM     25  C   UNL A   1      31.576  32.236  26.637  1.00  0.00     0.042 C 
BRANCH  25  26
ATOM     26  C   UNL A   1      32.801  32.882  27.276  1.00  0.00     0.118 C 
BRANCH  26  27
ATOM     27  N   UNL A   1      32.550  34.261  27.692  1.00  0.00    -0.352 N 
ATOM     28  C   UNL A   1      33.097  35.006  28.707  1.00  0.00     0.251 C 
ATOM     29  H   UNL A   1      31.875  34.734  27.154  1.00  0.00     0.163 HD
ATOM     30  O   UNL A   1      32.581  36.088  28.998  1.00  0.00    -0.269 OA
BRANCH  28  31
ATOM     31  C   UNL A   1      34.277  34.526  29.459  1.00  0.00     0.039 A 
ATOM     32  C   UNL A   1      34.086  33.912  30.701  1.00  0.00     0.014 A 
ATOM     33  C   UNL A   1      35.571  34.702  28.965  1.00  0.00     0.014 A 
ATOM     34  C   UNL A   1      35.184  33.411  31.407  1.00  0.00     0.010 A 
ATOM     35  C   UNL A   1      36.650  34.120  29.622  1.00  0.00     0.010 A 
ATOM     36  C   UNL A   1      36.472  33.474  30.853  1.00  0.00    -0.014 A 
BRANCH  36  37
ATOM     37  C   UNL A   1      37.640  32.853  31.530  1.00  0.00     0.031 A 
ATOM     38  C   UNL A   1      38.332  31.663  30.922  1.00  0.00     0.074 A 
ATOM     39  C   UNL A   1      38.011  33.299  32.747  1.00  0.00     0.049 A 
ATOM     40  N   UNL A   1      39.318  30.949  31.401  1.00  0.00    -0.248 NA
ATOM     41  C   UNL A   1      37.832  31.192  29.619  1.00  0.00     0.031 C 
ATOM     42  C   UNL A   1      37.363  34.387  33.483  1.00  0.00     0.029 A 
ATOM     43  N   UNL A   1      39.002  32.871  33.595  1.00  0.00    -0.354 N 
ATOM     44  C   UNL A   1      39.527  29.926  30.485  1.00  0.00     0.074 A 
ATOM     45  C   UNL A   1      38.546  30.091  29.437  1.00  0.00     0.031 C 
ATOM     46  C   UNL A   1      37.972  34.542  34.668  1.00  0.00     0.029 A 
ATOM     47  C   UNL A   1      39.029  33.545  34.795  1.00  0.00     0.049 A 
ATOM     48  H   UNL A   1      39.634  32.153  33.366  1.00  0.00     0.167 HD
ATOM     49  C   UNL A   1      40.467  28.950  30.502  1.00  0.00     0.034 A 
ATOM     50  C   UNL A   1      39.806  33.369  35.883  1.00  0.00     0.034 A 
ATOM     51  C   UNL A   1      41.467  28.814  31.528  1.00  0.00     0.049 A 
ATOM     52  C   UNL A   1      40.871  32.308  35.856  1.00  0.00     0.074 A 
ATOM     53  C   UNL A   1      42.527  27.928  31.581  1.00  0.00     0.029 A 
ATOM     54  N   UNL A   1      41.520  29.573  32.686  1.00  0.00    -0.354 N 
ATOM     55  N   UNL A   1      41.165  31.460  34.901  1.00  0.00    -0.248 NA
ATOM     56  C   UNL A   1      41.735  32.203  37.041  1.00  0.00     0.031 C 
ATOM     57  C   UNL A   1      43.201  28.126  32.791  1.00  0.00     0.029 A 
ATOM     58  C   UNL A   1      42.583  29.163  33.472  1.00  0.00     0.049 A 
ATOM     59  H   UNL A   1      40.894  30.297  32.916  1.00  0.00     0.167 HD
ATOM     60  C   UNL A   1      42.267  30.742  35.355  1.00  0.00     0.074 A 
ATOM     61  C   UNL A   1      42.600  31.274  36.661  1.00  0.00     0.031 C 
ATOM     62  C   UNL A   1      42.933  29.728  34.751  1.00  0.00     0.034 A 
BRANCH  49  63
ATOM     63  C   UNL A   1      40.486  27.973  29.355  1.00  0.00     0.023 A 
ATOM     64  C   UNL A   1      39.561  26.907  29.327  1.00  0.00     0.012 A 
ATOM     65  C   UNL A   1      41.376  28.139  28.277  1.00  0.00     0.148 A 
ATOM     66  C   UNL A   1      39.549  26.003  28.266  1.00  0.00     0.002 A 
ATOM     67  C   UNL A   1      41.326  27.263  27.199  1.00  0.00     0.091 A 
ATOM     68  F   UNL A   1      42.262  29.144  28.328  1.00  0.00    -0.205 F 
ATOM     69  C   UNL A   1      40.422  26.187  27.198  1.00  0.00     0.022 A 
BRANCH  67  70
ATOM     70  S   UNL A   1      42.351  27.462  25.737  1.00  0.00     0.127 S 
ATOM     71  O   UNL A   1      41.846  26.394  24.877  1.00  0.00    -0.237 OA
ATOM     72  O   UNL A   1      42.001  28.814  25.300  1.00  0.00    -0.237 OA
ATOM     73  O   UNL A   1      43.727  27.306  26.186  1.00  0.00    -0.744 OA
ENDBRANCH  67  70
ENDBRANCH  49  63
BRANCH  50  74
ATOM     74  C   UNL A   1      39.633  34.257  37.067  1.00  0.00     0.023 A 
ATOM     75  C   UNL A   1      39.981  35.618  36.973  1.00  0.00     0.012 A 
ATOM     76  C   UNL A   1      39.093  33.768  38.273  1.00  0.00     0.148 A 
ATOM     77  C   UNL A   1      39.825  36.470  38.067  1.00  0.00     0.002 A 
ATOM     78  C   UNL A   1      38.885  34.635  39.339  1.00  0.00     0.091 A 
ATOM     79  F   UNL A   1      38.776  32.468  38.345  1.00  0.00    -0.205 F 
ATOM     80  C   UNL A   1      39.267  35.981  39.244  1.00  0.00     0.022 A 
BRANCH  78  81
ATOM     81  S   UNL A   1      38.044  34.126  40.844  1.00  0.00     0.127 S 
ATOM     82  O   UNL A   1      39.098  33.397  41.543  1.00  0.00    -0.237 OA
ATOM     83  O   UNL A   1      37.687  35.415  41.438  1.00  0.00    -0.237 OA
ATOM     84  O   UNL A   1      36.905  33.330  40.409  1.00  0.00    -0.744 OA
ENDBRANCH  78  81
ENDBRANCH  50  74
BRANCH  62  85
ATOM     85  C   UNL A   1      44.115  29.139  35.475  1.00  0.00     0.023 A 
ATOM     86  C   UNL A   1      45.413  29.623  35.215  1.00  0.00     0.012 A 
ATOM     87  C   UNL A   1      43.930  28.156  36.467  1.00  0.00     0.148 A 
ATOM     88  C   UNL A   1      46.511  29.112  35.905  1.00  0.00     0.002 A 
ATOM     89  C   UNL A   1      45.021  27.689  37.188  1.00  0.00     0.091 A 
ATOM     90  F   UNL A   1      42.690  27.696  36.687  1.00  0.00    -0.205 F 
ATOM     91  C   UNL A   1      46.315  28.155  36.899  1.00  0.00     0.022 A 
BRANCH  89  92
ATOM     92  S   UNL A   1      44.854  26.533  38.551  1.00  0.00     0.127 S 
ATOM     93  O   UNL A   1      45.785  25.475  38.161  1.00  0.00    -0.237 OA
ATOM     94  O   UNL A   1      45.287  27.336  39.695  1.00  0.00    -0.237 OA
ATOM     95  O   UNL A   1      43.449  26.147  38.581  1.00  0.00    -0.744 OA
ENDBRANCH  89  92
ENDBRANCH  62  85
ENDBRANCH  36  37
ENDBRANCH  28  31
ENDBRANCH  26  27
ENDBRANCH  25  26
ENDBRANCH  24  25
ENDBRANCH   3  24
TORSDOF 19
ENDMDL
MODEL 2
REMARK VINA RESULT:     -11.7      2.279      3.102
REMARK SMILES COCCOc1ccccc1/C=C/c1cc(C(=O)NCCCNC(=O)c2ccc(-c3c4nc(c(-c5cccc(S(=O)(=O)[O-])c5F)c5ccc([nH]5)c(-c5cccc(S(=O)(=O)[O-])c5F)c5nc(c(-c6cccc(S(=O)(=O)[O-])c6F)c6ccc3[nH]6)C=C5)C=C4)cc2)ncn1
REMARK SMILES IDX 17 1 18 2 19 3 16 5 14 6 15 7 91 8 90 9 89 10 13 11 12 12
REMARK SMILES IDX 11 13 6 14 7 15 8 16 10 17 9 18 5 19 4 20 3 21 2 22 1 23
REMARK SMILES IDX 20 24 21 25 22 26 23 27 24 28 25 30 26 31 27 32 88 33 28 34
REMARK SMILES IDX 87 35 29 36 30 37 31 38 81 39 32 40 86 41 80 42 82 43 33 44
REMARK SMILES IDX 85 45 79 46 78 47 34 49 66 50 46 51 65 52 47 53 50 54 64 55
REMARK SMILES IDX 83 56 48 57 49 58 63 60 84 61 51 62 35 63 36 64 44 65 37 66
REMARK SMILES IDX 39 67 45 68 38 69 40 70 41 71 42 72 43 73 67 74 68 75 76 76
REMARK SMILES IDX 69 77 71 78 77 79 70 80 72 81 73 82 74 83 75 84 52 85 53 86
REMARK SMILES IDX 61 87 54 88 56 89 62 90 55 91 57 92 58 93 59 94 60 95
REMARK H PARENT 19 4 23 29 82 48 50 59
REMARK Flexibility Score: inf
ROOT
ATOM      1  C   UNL A   1      30.648  29.049  22.820  1.00  0.00     0.270 C 
ATOM      2  O   UNL A   1      29.762  29.118  21.965  1.00  0.00    -0.268 OA
ATOM      3  N   UNL A   1      30.506  29.908  23.889  1.00  0.00    -0.351 N 
ATOM      4  H   UNL A   1      29.746  30.527  23.799  1.00  0.00     0.163 HD
ENDROOT
BRANCH   1   5
ATOM      5  C   UNL A   1      31.745  28.020  22.670  1.00  0.00     0.132 A 
ATOM      6  C   UNL A   1      32.662  25.869  22.500  1.00  0.00     0.067 A 
ATOM      7  C   UNL A   1      31.593  26.668  22.868  1.00  0.00     0.062 A 
ATOM      8  N   UNL A   1      33.847  26.356  22.095  1.00  0.00    -0.237 NA
ATOM      9  C   UNL A   1      33.933  27.690  22.062  1.00  0.00     0.223 A 
ATOM     10  N   UNL A   1      32.935  28.549  22.291  1.00  0.00    -0.231 NA
BRANCH   6  11
ATOM     11  C   UNL A   1      32.455  24.417  22.425  1.00  0.00     0.029 C 
ATOM     12  C   UNL A   1      32.039  23.720  23.502  1.00  0.00     0.014 C 
BRANCH  12  13
ATOM     13  C   UNL A   1      32.150  22.248  23.620  1.00  0.00     0.017 A 
ATOM     14  C   UNL A   1      32.525  21.527  24.781  1.00  0.00     0.126 A 
ATOM     15  C   UNL A   1      32.668  20.125  24.704  1.00  0.00     0.047 A 
ATOM     16  C   UNL A   1      32.471  19.428  23.518  1.00  0.00     0.004 A 
ATOM     17  C   UNL A   1      31.915  21.508  22.439  1.00  0.00     0.012 A 
ATOM     18  C   UNL A   1      32.090  20.122  22.382  1.00  0.00     0.001 A 
BRANCH  14  19
ATOM     19  O   UNL A   1      32.891  21.936  26.037  1.00  0.00    -0.491 OA
BRANCH  19  20
ATOM     20  C   UNL A   1      34.042  21.466  26.707  1.00  0.00     0.258 C 
BRANCH  20  21
ATOM     21  C   UNL A   1      35.375  21.868  26.071  1.00  0.00     0.201 C 
BRANCH  21  22
ATOM     22  O   UNL A   1      35.983  20.886  25.236  1.00  0.00    -0.381 OA
ATOM     23  C   UNL A   1      37.316  21.189  24.844  1.00  0.00     0.195 C 
ENDBRANCH  21  22
ENDBRANCH  20  21
ENDBRANCH  19  20
ENDBRANCH  14  19
ENDBRANCH  12  13
ENDBRANCH   6  11
ENDBRANCH   1   5
BRANCH   3  24
ATOM     24  C   UNL A   1      31.252  30.083  25.118  1.00  0.00     0.118 C 
BRANCH  24  25
ATOM     25  C   UNL A   1      31.047  31.470  25.713  1.00  0.00     0.042 C 
BRANCH  25  26
ATOM     26  C   UNL A   1      32.022  31.782  26.844  1.00  0.00     0.118 C 
BRANCH  26  27
ATOM     27  N   UNL A   1      32.115  33.215  27.119  1.00  0.00    -0.352 N 
ATOM     28  C   UNL A   1      32.991  33.923  27.904  1.00  0.00     0.251 C 
ATOM     29  H   UNL A   1      31.435  33.764  26.665  1.00  0.00     0.163 HD
ATOM     30  O   UNL A   1      32.750  35.108  28.146  1.00  0.00    -0.269 OA
BRANCH  28  31
ATOM     31  C   UNL A   1      34.200  33.286  28.469  1.00  0.00     0.039 A 
ATOM     32  C   UNL A   1      35.443  33.898  28.276  1.00  0.00     0.014 A 
ATOM     33  C   UNL A   1      34.124  32.077  29.163  1.00  0.00     0.014 A 
ATOM     34  C   UNL A   1      36.591  33.337  28.842  1.00  0.00     0.010 A 
ATOM     35  C   UNL A   1      35.250  31.571  29.804  1.00  0.00     0.010 A 
ATOM     36  C   UNL A   1      36.498  32.190  29.647  1.00  0.00    -0.014 A 
BRANCH  36  37
ATOM     37  C   UNL A   1      37.685  31.635  30.348  1.00  0.00     0.031 A 
ATOM     38  C   UNL A   1      38.537  30.583  29.689  1.00  0.00     0.074 A 
ATOM     39  C   UNL A   1      37.934  32.005  31.620  1.00  0.00     0.049 A 
ATOM     40  N   UNL A   1      39.565  29.935  30.172  1.00  0.00    -0.248 NA
ATOM     41  C   UNL A   1      38.169  30.183  28.321  1.00  0.00     0.031 C 
ATOM     42  C   UNL A   1      37.129  32.948  32.399  1.00  0.00     0.029 A 
ATOM     43  N   UNL A   1      38.914  31.607  32.494  1.00  0.00    -0.354 N 
ATOM     44  C   UNL A   1      39.938  29.026  29.190  1.00  0.00     0.074 A 
ATOM     45  C   UNL A   1      39.008  29.183  28.095  1.00  0.00     0.031 C 
ATOM     46  C   UNL A   1      37.647  33.057  33.631  1.00  0.00     0.029 A 
ATOM     47  C   UNL A   1      38.797  32.168  33.745  1.00  0.00     0.049 A 
ATOM     48  H   UNL A   1      39.633  30.981  32.249  1.00  0.00     0.167 HD
ATOM     49  C   UNL A   1      40.977  28.156  29.189  1.00  0.00     0.034 A 
ATOM     50  C   UNL A   1      39.523  31.975  34.865  1.00  0.00     0.034 A 
ATOM     51  C   UNL A   1      41.923  28.031  30.265  1.00  0.00     0.049 A 
ATOM     52  C   UNL A   1      40.698  31.038  34.821  1.00  0.00     0.074 A 
ATOM     53  C   UNL A   1      43.069  27.258  30.316  1.00  0.00     0.029 A 
ATOM     54  N   UNL A   1      41.826  28.684  31.485  1.00  0.00    -0.354 N 
ATOM     55  N   UNL A   1      41.138  30.314  33.821  1.00  0.00    -0.248 NA
ATOM     56  C   UNL A   1      41.497  30.915  36.049  1.00  0.00     0.031 C 
ATOM     57  C   UNL A   1      43.645  27.414  31.581  1.00  0.00     0.029 A 
ATOM     58  C   UNL A   1      42.879  28.316  32.303  1.00  0.00     0.049 A 
ATOM     59  H   UNL A   1      41.112  29.315  31.731  1.00  0.00     0.167 HD
ATOM     60  C   UNL A   1      42.283  29.676  34.286  1.00  0.00     0.074 A 
ATOM     61  C   UNL A   1      42.479  30.119  35.652  1.00  0.00     0.031 C 
ATOM     62  C   UNL A   1      43.090  28.795  33.646  1.00  0.00     0.034 A 
BRANCH  49  63
ATOM     63  C   UNL A   1      41.169  27.293  27.968  1.00  0.00     0.023 A 
ATOM     64  C   UNL A   1      41.786  27.831  26.819  1.00  0.00     0.012 A 
ATOM     65  C   UNL A   1      40.793  25.936  27.975  1.00  0.00     0.148 A 
ATOM     66  C   UNL A   1      41.989  27.045  25.686  1.00  0.00     0.002 A 
ATOM     67  C   UNL A   1      41.044  25.145  26.860  1.00  0.00     0.091 A 
ATOM     68  F   UNL A   1      40.190  25.445  29.068  1.00  0.00    -0.205 F 
ATOM     69  C   UNL A   1      41.630  25.701  25.710  1.00  0.00     0.022 A 
BRANCH  67  70
ATOM     70  S   UNL A   1      40.694  23.383  26.821  1.00  0.00     0.127 S 
ATOM     71  O   UNL A   1      39.248  23.375  26.602  1.00  0.00    -0.237 OA
ATOM     72  O   UNL A   1      41.487  22.938  25.675  1.00  0.00    -0.237 OA
ATOM     73  O   UNL A   1      41.134  22.857  28.106  1.00  0.00    -0.744 OA
ENDBRANCH  67  70
ENDBRANCH  49  63
BRANCH  50  74
ATOM     74  C   UNL A   1      39.186  32.730  36.105  1.00  0.00     0.023 A 
ATOM     75  C   UNL A   1      39.655  34.048  36.267  1.00  0.00     0.012 A 
ATOM     76  C   UNL A   1      38.374  32.161  37.106  1.00  0.00     0.148 A 
ATOM     77  C   UNL A   1      39.349  34.775  37.418  1.00  0.00     0.002 A 
ATOM     78  C   UNL A   1      38.024  32.912  38.222  1.00  0.00     0.091 A 
ATOM     79  F   UNL A   1      37.945  30.903  36.937  1.00  0.00    -0.205 F 
ATOM     80  C   UNL A   1      38.526  34.212  38.388  1.00  0.00     0.022 A 
BRANCH  78  81
ATOM     81  S   UNL A   1      36.857  32.321  39.454  1.00  0.00     0.127 S 
ATOM     82  O   UNL A   1      35.580  32.516  38.773  1.00  0.00    -0.237 OA
ATOM     83  O   UNL A   1      37.266  30.925  39.610  1.00  0.00    -0.237 OA
ATOM     84  O   UNL A   1      37.077  33.146  40.634  1.00  0.00    -0.744 OA
ENDBRANCH  78  81
ENDBRANCH  50  74
BRANCH  62  85
ATOM     85  C   UNL A   1      44.285  28.269  34.397  1.00  0.00     0.023 A 
ATOM     86  C   UNL A   1      45.521  28.941  34.314  1.00  0.00     0.012 A 
ATOM     87  C   UNL A   1      44.162  27.149  35.242  1.00  0.00     0.148 A 
ATOM     88  C   UNL A   1      46.625  28.485  35.033  1.00  0.00     0.002 A 
ATOM     89  C   UNL A   1      45.252  26.732  35.996  1.00  0.00     0.091 A 
ATOM     90  F   UNL A   1      42.983  26.513  35.293  1.00  0.00    -0.205 F 
ATOM     91  C   UNL A   1      46.488  27.390  35.882  1.00  0.00     0.022 A 
BRANCH  89  92
ATOM     92  S   UNL A   1      45.143  25.394  37.189  1.00  0.00     0.127 S 
ATOM     93  O   UNL A   1      44.802  24.258  36.334  1.00  0.00    -0.237 OA
ATOM     94  O   UNL A   1      46.498  25.358  37.739  1.00  0.00    -0.237 OA
ATOM     95  O   UNL A   1      44.114  25.788  38.142  1.00  0.00    -0.744 OA
ENDBRANCH  89  92
ENDBRANCH  62  85
ENDBRANCH  36  37
ENDBRANCH  28  31
ENDBRANCH  26  27
ENDBRANCH  25  26
ENDBRANCH  24  25
ENDBRANCH   3  24
TORSDOF 19
ENDMDL
MODEL 3
REMARK VINA RESULT:     -11.6      2.636      8.424
REMARK SMILES COCCOc1ccccc1/C=C/c1cc(C(=O)NCCCNC(=O)c2ccc(-c3c4nc(c(-c5cccc(S(=O)(=O)[O-])c5F)c5ccc([nH]5)c(-c5cccc(S(=O)(=O)[O-])c5F)c5nc(c(-c6cccc(S(=O)(=O)[O-])c6F)c6ccc3[nH]6)C=C5)C=C4)cc2)ncn1
REMARK SMILES IDX 17 1 18 2 19 3 16 5 14 6 15 7 91 8 90 9 89 10 13 11 12 12
REMARK SMILES IDX 11 13 6 14 7 15 8 16 10 17 9 18 5 19 4 20 3 21 2 22 1 23
REMARK SMILES IDX 20 24 21 25 22 26 23 27 24 28 25 30 26 31 27 32 88 33 28 34
REMARK SMILES IDX 87 35 29 36 30 37 31 38 81 39 32 40 86 41 80 42 82 43 33 44
REMARK SMILES IDX 85 45 79 46 78 47 34 49 66 50 46 51 65 52 47 53 50 54 64 55
REMARK SMILES IDX 83 56 48 57 49 58 63 60 84 61 51 62 35 63 36 64 44 65 37 66
REMARK SMILES IDX 39 67 45 68 38 69 40 70 41 71 42 72 43 73 67 74 68 75 76 76
REMARK SMILES IDX 69 77 71 78 77 79 70 80 72 81 73 82 74 83 75 84 52 85 53 86
REMARK SMILES IDX 61 87 54 88 56 89 62 90 55 91 57 92 58 93 59 94 60 95
REMARK H PARENT 19 4 23 29 82 48 50 59
REMARK Flexibility Score: inf
ROOT
ATOM      1  C   UNL A   1      30.259  26.538  23.896  1.00  0.00     0.270 C 
ATOM      2  O   UNL A   1      29.078  26.299  23.629  1.00  0.00    -0.268 OA
ATOM      3  N   UNL A   1      30.463  27.431  24.926  1.00  0.00    -0.351 N 
ATOM      4  H   UNL A   1      29.632  27.827  25.275  1.00  0.00     0.163 HD
ENDROOT
BRANCH   1   5
ATOM      5  C   UNL A   1      31.350  25.810  23.145  1.00  0.00     0.132 A 
ATOM      6  C   UNL A   1      32.715  23.993  22.570  1.00  0.00     0.067 A 
ATOM      7  C   UNL A   1      31.856  24.577  23.484  1.00  0.00     0.062 A 
ATOM      8  N   UNL A   1      33.162  24.618  21.468  1.00  0.00    -0.237 NA
ATOM      9  C   UNL A   1      32.712  25.866  21.298  1.00  0.00     0.223 A 
ATOM     10  N   UNL A   1      31.800  26.483  22.057  1.00  0.00    -0.231 NA
BRANCH   6  11
ATOM     11  C   UNL A   1      33.060  22.576  22.742  1.00  0.00     0.029 C 
ATOM     12  C   UNL A   1      32.110  21.662  23.030  1.00  0.00     0.014 C 
BRANCH  12  13
ATOM     13  C   UNL A   1      32.406  20.313  23.566  1.00  0.00     0.017 A 
ATOM     14  C   UNL A   1      32.821  20.009  24.887  1.00  0.00     0.126 A 
ATOM     15  C   UNL A   1      33.147  18.677  25.216  1.00  0.00     0.047 A 
ATOM     16  C   UNL A   1      33.092  17.651  24.280  1.00  0.00     0.004 A 
ATOM     17  C   UNL A   1      32.319  19.244  22.647  1.00  0.00     0.012 A 
ATOM     18  C   UNL A   1      32.673  17.936  22.991  1.00  0.00     0.001 A 
BRANCH  14  19
ATOM     19  O   UNL A   1      33.078  20.804  25.974  1.00  0.00    -0.491 OA
BRANCH  19  20
ATOM     20  C   UNL A   1      34.213  21.637  26.081  1.00  0.00     0.258 C 
BRANCH  20  21
ATOM     21  C   UNL A   1      35.528  21.011  25.609  1.00  0.00     0.201 C 
BRANCH  21  22
ATOM     22  O   UNL A   1      35.980  21.420  24.322  1.00  0.00    -0.381 OA
ATOM     23  C   UNL A   1      36.411  22.774  24.250  1.00  0.00     0.195 C 
ENDBRANCH  21  22
ENDBRANCH  20  21
ENDBRANCH  19  20
ENDBRANCH  14  19
ENDBRANCH  12  13
ENDBRANCH   6  11
ENDBRANCH   1   5
BRANCH   3  24
ATOM     24  C   UNL A   1      31.656  27.904  25.597  1.00  0.00     0.118 C 
BRANCH  24  25
ATOM     25  C   UNL A   1      31.794  29.419  25.506  1.00  0.00     0.042 C 
BRANCH  25  26
ATOM     26  C   UNL A   1      33.113  29.932  26.076  1.00  0.00     0.118 C 
BRANCH  26  27
ATOM     27  N   UNL A   1      33.010  31.304  26.567  1.00  0.00    -0.352 N 
ATOM     28  C   UNL A   1      33.745  31.977  27.512  1.00  0.00     0.251 C 
ATOM     29  H   UNL A   1      32.293  31.836  26.151  1.00  0.00     0.163 HD
ATOM     30  O   UNL A   1      33.345  33.074  27.909  1.00  0.00    -0.269 OA
BRANCH  28  31
ATOM     31  C   UNL A   1      34.991  31.403  28.065  1.00  0.00     0.039 A 
ATOM     32  C   UNL A   1      36.138  32.201  28.125  1.00  0.00     0.014 A 
ATOM     33  C   UNL A   1      35.046  30.077  28.497  1.00  0.00     0.014 A 
ATOM     34  C   UNL A   1      37.312  31.692  28.687  1.00  0.00     0.010 A 
ATOM     35  C   UNL A   1      36.185  29.603  29.141  1.00  0.00     0.010 A 
ATOM     36  C   UNL A   1      37.334  30.401  29.238  1.00  0.00    -0.014 A 
BRANCH  36  37
ATOM     37  C   UNL A   1      38.535  29.875  29.936  1.00  0.00     0.031 A 
ATOM     38  C   UNL A   1      38.900  30.375  31.309  1.00  0.00     0.074 A 
ATOM     39  C   UNL A   1      39.354  29.021  29.290  1.00  0.00     0.049 A 
ATOM     40  N   UNL A   1      39.945  30.086  32.040  1.00  0.00    -0.248 NA
ATOM     41  C   UNL A   1      37.991  31.354  31.928  1.00  0.00     0.031 C 
ATOM     42  C   UNL A   1      39.158  28.532  27.925  1.00  0.00     0.029 A 
ATOM     43  N   UNL A   1      40.535  28.441  29.683  1.00  0.00    -0.354 N 
ATOM     44  C   UNL A   1      39.841  30.873  33.181  1.00  0.00     0.074 A 
ATOM     45  C   UNL A   1      38.650  31.676  33.031  1.00  0.00     0.031 C 
ATOM     46  C   UNL A   1      40.178  27.726  27.594  1.00  0.00     0.029 A 
ATOM     47  C   UNL A   1      41.120  27.668  28.706  1.00  0.00     0.049 A 
ATOM     48  H   UNL A   1      40.925  28.565  30.578  1.00  0.00     0.167 HD
ATOM     49  C   UNL A   1      40.652  30.906  34.266  1.00  0.00     0.034 A 
ATOM     50  C   UNL A   1      42.292  27.002  28.699  1.00  0.00     0.034 A 
ATOM     51  C   UNL A   1      41.815  30.075  34.426  1.00  0.00     0.049 A 
ATOM     52  C   UNL A   1      43.150  27.019  29.934  1.00  0.00     0.074 A 
ATOM     53  C   UNL A   1      42.640  29.956  35.531  1.00  0.00     0.029 A 
ATOM     54  N   UNL A   1      42.329  29.234  33.451  1.00  0.00    -0.354 N 
ATOM     55  N   UNL A   1      42.944  27.637  31.071  1.00  0.00    -0.248 NA
ATOM     56  C   UNL A   1      44.383  26.221  29.898  1.00  0.00     0.031 C 
ATOM     57  C   UNL A   1      43.674  29.071  35.209  1.00  0.00     0.029 A 
ATOM     58  C   UNL A   1      43.471  28.609  33.919  1.00  0.00     0.049 A 
ATOM     59  H   UNL A   1      41.938  29.103  32.556  1.00  0.00     0.167 HD
ATOM     60  C   UNL A   1      44.003  27.277  31.898  1.00  0.00     0.074 A 
ATOM     61  C   UNL A   1      44.835  26.369  31.135  1.00  0.00     0.031 C 
ATOM     62  C   UNL A   1      44.268  27.673  33.167  1.00  0.00     0.034 A 
BRANCH  49  63
ATOM     63  C   UNL A   1      40.288  31.847  35.386  1.00  0.00     0.023 A 
ATOM     64  C   UNL A   1      40.970  33.075  35.519  1.00  0.00     0.012 A 
ATOM     65  C   UNL A   1      39.234  31.545  36.270  1.00  0.00     0.148 A 
ATOM     66  C   UNL A   1      40.635  33.967  36.537  1.00  0.00     0.002 A 
ATOM     67  C   UNL A   1      38.874  32.460  37.251  1.00  0.00     0.091 A 
ATOM     68  F   UNL A   1      38.610  30.365  36.142  1.00  0.00    -0.205 F 
ATOM     69  C   UNL A   1      39.581  33.666  37.394  1.00  0.00     0.022 A 
BRANCH  67  70
ATOM     70  S   UNL A   1      37.478  32.203  38.352  1.00  0.00     0.127 S 
ATOM     71  O   UNL A   1      37.984  32.765  39.604  1.00  0.00    -0.237 OA
ATOM     72  O   UNL A   1      36.429  32.995  37.708  1.00  0.00    -0.237 OA
ATOM     73  O   UNL A   1      37.234  30.768  38.365  1.00  0.00    -0.744 OA
ENDBRANCH  67  70
ENDBRANCH  49  63
BRANCH  50  74
ATOM     74  C   UNL A   1      42.691  26.219  27.495  1.00  0.00     0.023 A 
ATOM     75  C   UNL A   1      43.544  26.802  26.538  1.00  0.00     0.012 A 
ATOM     76  C   UNL A   1      42.260  24.891  27.313  1.00  0.00     0.148 A 
ATOM     77  C   UNL A   1      43.934  26.088  25.405  1.00  0.00     0.002 A 
ATOM     78  C   UNL A   1      42.701  24.165  26.213  1.00  0.00     0.091 A 
ATOM     79  F   UNL A   1      41.442  24.357  28.231  1.00  0.00    -0.205 F 
ATOM     80  C   UNL A   1      43.522  24.768  25.248  1.00  0.00     0.022 A 
BRANCH  78  81
ATOM     81  S   UNL A   1      42.336  22.418  26.001  1.00  0.00     0.127 S 
ATOM     82  O   UNL A   1      42.920  22.147  24.691  1.00  0.00    -0.237 OA
ATOM     83  O   UNL A   1      43.052  21.823  27.131  1.00  0.00    -0.237 OA
ATOM     84  O   UNL A   1      40.886  22.305  26.084  1.00  0.00    -0.744 OA
ENDBRANCH  78  81
ENDBRANCH  50  74
BRANCH  62  85
ATOM     85  C   UNL A   1      45.493  27.103  33.835  1.00  0.00     0.023 A 
ATOM     86  C   UNL A   1      46.721  27.790  33.757  1.00  0.00     0.012 A 
ATOM     87  C   UNL A   1      45.407  25.923  34.600  1.00  0.00     0.148 A 
ATOM     88  C   UNL A   1      47.852  27.292  34.401  1.00  0.00     0.002 A 
ATOM     89  C   UNL A   1      46.525  25.462  35.282  1.00  0.00     0.091 A 
ATOM     90  F   UNL A   1      44.234  25.276  34.646  1.00  0.00    -0.205 F 
ATOM     91  C   UNL A   1      47.753  26.137  35.173  1.00  0.00     0.022 A 
BRANCH  89  92
ATOM     92  S   UNL A   1      46.467  24.040  36.378  1.00  0.00     0.127 S 
ATOM     93  O   UNL A   1      45.193  24.247  37.067  1.00  0.00    -0.237 OA
ATOM     94  O   UNL A   1      46.475  22.921  35.435  1.00  0.00    -0.237 OA
ATOM     95  O   UNL A   1      47.653  24.131  37.219  1.00  0.00    -0.744 OA
ENDBRANCH  89  92
ENDBRANCH  62  85
ENDBRANCH  36  37
ENDBRANCH  28  31
ENDBRANCH  26  27
ENDBRANCH  25  26
ENDBRANCH  24  25
ENDBRANCH   3  24
TORSDOF 19
ENDMDL
