MODEL 1
REMARK VINA RESULT:     -11.5      0.000      0.000
REMARK SMILES CC[C@H](C)CN(CC)C(=O)Nc1ccc(C(=O)NCCCNC(=O)c2ccc(-c3c4nc(c(-c5cccc(S(=O)(=O)[O-])c5F)c5ccc([nH]5)c(-c5cccc(S(=O)(=O)[O-])c5F)c5nc(c(-c6cccc(S(=O)(=O)[O-])c6F)c6ccc3[nH]6)C=C5)C=C4)cc2)cc1Cl
REMARK SMILES IDX 19 1 18 2 16 3 17 4 15 6 12 7 13 8 89 9 14 10 88 11 90 12
REMARK SMILES IDX 11 13 9 14 10 15 6 17 5 18 3 19 4 20 2 21 1 22 7 23 8 24
REMARK SMILES IDX 20 25 21 26 22 27 23 28 24 30 25 31 26 32 87 33 27 34 86 35
REMARK SMILES IDX 28 36 29 37 30 38 80 39 31 40 85 41 79 42 81 43 32 44 84 45
REMARK SMILES IDX 78 46 77 47 33 49 65 50 45 51 64 52 46 53 49 54 63 55 82 56
REMARK SMILES IDX 47 57 48 58 62 60 83 61 50 62 34 63 35 64 43 65 36 66 38 67
REMARK SMILES IDX 44 68 37 69 39 70 40 71 41 72 42 73 66 74 67 75 75 76 68 77
REMARK SMILES IDX 70 78 76 79 69 80 71 81 72 82 73 83 74 84 51 85 52 86 60 87
REMARK SMILES IDX 53 88 55 89 61 90 54 91 56 92 57 93 58 94 59 95
REMARK H PARENT 18 5 11 16 22 29 81 48 49 59
REMARK Flexibility Score: inf
ROOT
ATOM      1  C   UNL A   1      34.343  21.553  26.888  1.00  0.00     0.118 C 
ENDROOT
BRANCH   1   2
ATOM      2  N   UNL A   1      32.899  21.607  26.724  1.00  0.00    -0.352 N 
ATOM      3  C   UNL A   1      32.105  22.487  26.025  1.00  0.00     0.251 C 
ATOM      4  O   UNL A   1      30.913  22.251  25.889  1.00  0.00    -0.269 OA
ATOM      5  H   UNL A   1      32.406  20.895  27.192  1.00  0.00     0.163 HD
BRANCH   3   6
ATOM      6  C   UNL A   1      32.694  23.669  25.355  1.00  0.00     0.041 A 
ATOM      7  C   UNL A   1      33.611  26.069  24.277  1.00  0.00     0.061 A 
ATOM      8  C   UNL A   1      33.942  25.727  25.593  1.00  0.00     0.028 A 
ATOM      9  C   UNL A   1      32.969  25.135  23.455  1.00  0.00     0.065 A 
ATOM     10  C   UNL A   1      33.460  24.540  26.139  1.00  0.00     0.016 A 
ATOM     11  C   UNL A   1      32.524  23.926  23.993  1.00  0.00     0.036 A 
ATOM     12  Cl  UNL A   1      32.777  25.391  21.758  1.00  0.00    -0.082 Cl
BRANCH   7  13
ATOM     13  N   UNL A   1      33.952  27.357  23.862  1.00  0.00    -0.306 N 
ATOM     14  C   UNL A   1      33.300  28.546  23.972  1.00  0.00     0.321 C 
ATOM     15  O   UNL A   1      33.610  29.402  23.136  1.00  0.00    -0.248 OA
ATOM     16  H   UNL A   1      34.822  27.417  23.407  1.00  0.00     0.171 HD
BRANCH  14  17
ATOM     17  N   UNL A   1      32.494  28.844  25.059  1.00  0.00    -0.325 N 
BRANCH  17  18
ATOM     18  C   UNL A   1      31.125  29.299  24.751  1.00  0.00     0.124 C 
BRANCH  18  19
ATOM     19  C   UNL A   1      30.436  28.422  23.670  1.00  0.00     0.005 C 
ATOM     20  C   UNL A   1      29.988  27.063  24.215  1.00  0.00     0.009 C 
BRANCH  19  21
ATOM     21  C   UNL A   1      29.272  29.169  22.987  1.00  0.00     0.002 C 
ATOM     22  C   UNL A   1      29.647  29.946  21.734  1.00  0.00     0.004 C 
ENDBRANCH  19  21
ENDBRANCH  18  19
ENDBRANCH  17  18
BRANCH  17  23
ATOM     23  C   UNL A   1      32.869  28.933  26.478  1.00  0.00     0.118 C 
ATOM     24  C   UNL A   1      31.812  28.359  27.413  1.00  0.00     0.027 C 
ENDBRANCH  17  23
ENDBRANCH  14  17
ENDBRANCH   7  13
ENDBRANCH   3   6
ENDBRANCH   1   2
BRANCH   1  25
ATOM     25  C   UNL A   1      35.042  21.022  25.640  1.00  0.00     0.042 C 
BRANCH  25  26
ATOM     26  C   UNL A   1      36.440  21.595  25.424  1.00  0.00     0.118 C 
BRANCH  26  27
ATOM     27  N   UNL A   1      37.484  20.590  25.559  1.00  0.00    -0.352 N 
ATOM     28  C   UNL A   1      38.818  20.744  25.851  1.00  0.00     0.251 C 
ATOM     29  H   UNL A   1      37.191  19.661  25.418  1.00  0.00     0.163 HD
ATOM     30  O   UNL A   1      39.568  19.776  25.747  1.00  0.00    -0.269 OA
BRANCH  28  31
ATOM     31  C   UNL A   1      39.358  22.059  26.267  1.00  0.00     0.039 A 
ATOM     32  C   UNL A   1      40.462  22.093  27.124  1.00  0.00     0.014 A 
ATOM     33  C   UNL A   1      38.768  23.254  25.846  1.00  0.00     0.014 A 
ATOM     34  C   UNL A   1      41.011  23.320  27.509  1.00  0.00     0.010 A 
ATOM     35  C   UNL A   1      39.359  24.474  26.172  1.00  0.00     0.010 A 
ATOM     36  C   UNL A   1      40.481  24.522  27.012  1.00  0.00    -0.014 A 
BRANCH  36  37
ATOM     37  C   UNL A   1      41.088  25.837  27.350  1.00  0.00     0.031 A 
ATOM     38  C   UNL A   1      42.504  26.148  26.941  1.00  0.00     0.074 A 
ATOM     39  C   UNL A   1      40.401  26.715  28.107  1.00  0.00     0.049 A 
ATOM     40  N   UNL A   1      43.229  27.202  27.213  1.00  0.00    -0.248 NA
ATOM     41  C   UNL A   1      43.206  25.128  26.143  1.00  0.00     0.031 C 
ATOM     42  C   UNL A   1      39.052  26.503  28.633  1.00  0.00     0.029 A 
ATOM     43  N   UNL A   1      40.756  27.949  28.593  1.00  0.00    -0.354 N 
ATOM     44  C   UNL A   1      44.480  26.957  26.660  1.00  0.00     0.074 A 
ATOM     45  C   UNL A   1      44.425  25.641  26.059  1.00  0.00     0.031 C 
ATOM     46  C   UNL A   1      38.694  27.567  29.370  1.00  0.00     0.029 A 
ATOM     47  C   UNL A   1      39.795  28.525  29.392  1.00  0.00     0.049 A 
ATOM     48  H   UNL A   1      41.617  28.381  28.390  1.00  0.00     0.167 HD
ATOM     49  C   UNL A   1      45.568  27.764  26.627  1.00  0.00     0.034 A 
ATOM     50  C   UNL A   1      39.801  29.689  30.071  1.00  0.00     0.034 A 
ATOM     51  C   UNL A   1      45.604  29.093  27.174  1.00  0.00     0.049 A 
ATOM     52  C   UNL A   1      41.002  30.589  29.974  1.00  0.00     0.074 A 
ATOM     53  C   UNL A   1      46.627  30.023  27.109  1.00  0.00     0.029 A 
ATOM     54  N   UNL A   1      44.573  29.683  27.888  1.00  0.00    -0.354 N 
ATOM     55  N   UNL A   1      42.118  30.406  29.310  1.00  0.00    -0.248 NA
ATOM     56  C   UNL A   1      40.933  31.873  30.688  1.00  0.00     0.031 C 
ATOM     57  C   UNL A   1      46.219  31.172  27.795  1.00  0.00     0.029 A 
ATOM     58  C   UNL A   1      44.936  30.962  28.273  1.00  0.00     0.049 A 
ATOM     59  H   UNL A   1      43.711  29.255  28.092  1.00  0.00     0.167 HD
ATOM     60  C   UNL A   1      42.866  31.563  29.496  1.00  0.00     0.074 A 
ATOM     61  C   UNL A   1      42.069  32.449  30.318  1.00  0.00     0.031 C 
ATOM     62  C   UNL A   1      44.109  31.858  29.041  1.00  0.00     0.034 A 
BRANCH  49  63
ATOM     63  C   UNL A   1      46.795  27.254  25.915  1.00  0.00     0.023 A 
ATOM     64  C   UNL A   1      47.650  26.347  26.574  1.00  0.00     0.012 A 
ATOM     65  C   UNL A   1      47.070  27.620  24.583  1.00  0.00     0.148 A 
ATOM     66  C   UNL A   1      48.778  25.838  25.932  1.00  0.00     0.002 A 
ATOM     67  C   UNL A   1      48.174  27.075  23.935  1.00  0.00     0.091 A 
ATOM     68  F   UNL A   1      46.259  28.499  23.979  1.00  0.00    -0.205 F 
ATOM     69  C   UNL A   1      49.034  26.194  24.611  1.00  0.00     0.022 A 
BRANCH  67  70
ATOM     70  S   UNL A   1      48.546  27.412  22.210  1.00  0.00     0.127 S 
ATOM     71  O   UNL A   1      49.783  28.185  22.321  1.00  0.00    -0.237 OA
ATOM     72  O   UNL A   1      48.717  26.066  21.662  1.00  0.00    -0.237 OA
ATOM     73  O   UNL A   1      47.398  28.138  21.688  1.00  0.00    -0.744 OA
ENDBRANCH  67  70
ENDBRANCH  49  63
BRANCH  50  74
ATOM     74  C   UNL A   1      38.595  30.103  30.843  1.00  0.00     0.023 A 
ATOM     75  C   UNL A   1      38.459  29.683  32.181  1.00  0.00     0.012 A 
ATOM     76  C   UNL A   1      37.606  30.930  30.280  1.00  0.00     0.148 A 
ATOM     77  C   UNL A   1      37.346  30.055  32.935  1.00  0.00     0.002 A 
ATOM     78  C   UNL A   1      36.526  31.342  31.053  1.00  0.00     0.091 A 
ATOM     79  F   UNL A   1      37.746  31.308  29.001  1.00  0.00    -0.205 F 
ATOM     80  C   UNL A   1      36.385  30.893  32.375  1.00  0.00     0.022 A 
BRANCH  78  81
ATOM     81  S   UNL A   1      35.314  32.525  30.454  1.00  0.00     0.127 S 
ATOM     82  O   UNL A   1      34.416  32.639  31.600  1.00  0.00    -0.237 OA
ATOM     83  O   UNL A   1      36.142  33.705  30.200  1.00  0.00    -0.237 OA
ATOM     84  O   UNL A   1      34.744  31.926  29.255  1.00  0.00    -0.744 OA
ENDBRANCH  78  81
ENDBRANCH  50  74
BRANCH  62  85
ATOM     85  C   UNL A   1      44.680  33.207  29.387  1.00  0.00     0.023 A 
ATOM     86  C   UNL A   1      45.414  33.369  30.579  1.00  0.00     0.012 A 
ATOM     87  C   UNL A   1      44.558  34.292  28.497  1.00  0.00     0.148 A 
ATOM     88  C   UNL A   1      45.995  34.597  30.892  1.00  0.00     0.002 A 
ATOM     89  C   UNL A   1      45.178  35.501  28.795  1.00  0.00     0.091 A 
ATOM     90  F   UNL A   1      43.838  34.125  27.378  1.00  0.00    -0.205 F 
ATOM     91  C   UNL A   1      45.888  35.658  29.995  1.00  0.00     0.022 A 
BRANCH  89  92
ATOM     92  S   UNL A   1      45.170  36.889  27.654  1.00  0.00     0.127 S 
ATOM     93  O   UNL A   1      43.738  37.134  27.491  1.00  0.00    -0.237 OA
ATOM     94  O   UNL A   1      45.882  37.920  28.410  1.00  0.00    -0.237 OA
ATOM     95  O   UNL A   1      45.868  36.429  26.460  1.00  0.00    -0.744 OA
ENDBRANCH  89  92
ENDBRANCH  62  85
ENDBRANCH  36  37
ENDBRANCH  28  31
ENDBRANCH  26  27
ENDBRANCH  25  26
ENDBRANCH   1  25
TORSDOF 19
ENDMDL
MODEL 2
REMARK VINA RESULT:     -11.5      1.831      7.849
REMARK SMILES CC[C@H](C)CN(CC)C(=O)Nc1ccc(C(=O)NCCCNC(=O)c2ccc(-c3c4nc(c(-c5cccc(S(=O)(=O)[O-])c5F)c5ccc([nH]5)c(-c5cccc(S(=O)(=O)[O-])c5F)c5nc(c(-c6cccc(S(=O)(=O)[O-])c6F)c6ccc3[nH]6)C=C5)C=C4)cc2)cc1Cl
REMARK SMILES IDX 19 1 18 2 16 3 17 4 15 6 12 7 13 8 89 9 14 10 88 11 90 12
REMARK SMILES IDX 11 13 9 14 10 15 6 17 5 18 3 19 4 20 2 21 1 22 7 23 8 24
REMARK SMILES IDX 20 25 21 26 22 27 23 28 24 30 25 31 26 32 87 33 27 34 86 35
REMARK SMILES IDX 28 36 29 37 30 38 80 39 31 40 85 41 79 42 81 43 32 44 84 45
REMARK SMILES IDX 78 46 77 47 33 49 65 50 45 51 64 52 46 53 49 54 63 55 82 56
REMARK SMILES IDX 47 57 48 58 62 60 83 61 50 62 34 63 35 64 43 65 36 66 38 67
REMARK SMILES IDX 44 68 37 69 39 70 40 71 41 72 42 73 66 74 67 75 75 76 68 77
REMARK SMILES IDX 70 78 76 79 69 80 71 81 72 82 73 83 74 84 51 85 52 86 60 87
REMARK SMILES IDX 53 88 55 89 61 90 54 91 56 92 57 93 58 94 59 95
REMARK H PARENT 18 5 11 16 22 29 81 48 49 59
REMARK Flexibility Score: inf
ROOT
ATOM      1  C   UNL A   1      37.284  20.979  24.600  1.00  0.00     0.118 C 
ENDROOT
BRANCH   1   2
ATOM      2  N   UNL A   1      37.846  22.202  25.153  1.00  0.00    -0.352 N 
ATOM      3  C   UNL A   1      37.233  23.315  25.681  1.00  0.00     0.251 C 
ATOM      4  O   UNL A   1      37.906  24.168  26.241  1.00  0.00    -0.269 OA
ATOM      5  H   UNL A   1      38.830  22.240  25.149  1.00  0.00     0.163 HD
BRANCH   3   6
ATOM      6  C   UNL A   1      35.759  23.447  25.661  1.00  0.00     0.041 A 
ATOM      7  C   UNL A   1      33.030  24.010  25.645  1.00  0.00     0.061 A 
ATOM      8  C   UNL A   1      33.813  24.344  24.536  1.00  0.00     0.028 A 
ATOM      9  C   UNL A   1      33.579  23.246  26.682  1.00  0.00     0.065 A 
ATOM     10  C   UNL A   1      35.183  24.087  24.556  1.00  0.00     0.016 A 
ATOM     11  C   UNL A   1      34.943  22.951  26.680  1.00  0.00     0.036 A 
ATOM     12  Cl  UNL A   1      32.602  22.575  27.938  1.00  0.00    -0.082 Cl
BRANCH   7  13
ATOM     13  N   UNL A   1      31.714  24.478  25.644  1.00  0.00    -0.306 N 
ATOM     14  C   UNL A   1      31.166  25.640  26.089  1.00  0.00     0.321 C 
ATOM     15  O   UNL A   1      29.964  25.588  26.373  1.00  0.00    -0.248 OA
ATOM     16  H   UNL A   1      31.065  23.853  25.249  1.00  0.00     0.171 HD
BRANCH  14  17
ATOM     17  N   UNL A   1      31.853  26.842  26.040  1.00  0.00    -0.325 N 
BRANCH  17  18
ATOM     18  C   UNL A   1      32.096  27.400  24.696  1.00  0.00     0.124 C 
BRANCH  18  19
ATOM     19  C   UNL A   1      30.787  27.858  23.998  1.00  0.00     0.005 C 
ATOM     20  C   UNL A   1      30.753  29.369  23.747  1.00  0.00     0.009 C 
BRANCH  19  21
ATOM     21  C   UNL A   1      30.525  27.064  22.702  1.00  0.00     0.002 C 
ATOM     22  C   UNL A   1      31.762  26.475  22.040  1.00  0.00     0.004 C 
ENDBRANCH  19  21
ENDBRANCH  18  19
ENDBRANCH  17  18
BRANCH  17  23
ATOM     23  C   UNL A   1      32.526  27.556  27.136  1.00  0.00     0.118 C 
ATOM     24  C   UNL A   1      31.884  28.901  27.455  1.00  0.00     0.027 C 
ENDBRANCH  17  23
ENDBRANCH  14  17
ENDBRANCH   7  13
ENDBRANCH   3   6
ENDBRANCH   1   2
BRANCH   1  25
ATOM     25  C   UNL A   1      38.201  19.778  24.815  1.00  0.00     0.042 C 
BRANCH  25  26
ATOM     26  C   UNL A   1      39.011  19.843  26.106  1.00  0.00     0.118 C 
BRANCH  26  27
ATOM     27  N   UNL A   1      40.230  19.050  26.042  1.00  0.00    -0.352 N 
ATOM     28  C   UNL A   1      41.543  19.453  26.090  1.00  0.00     0.251 C 
ATOM     29  H   UNL A   1      40.093  18.079  25.948  1.00  0.00     0.163 HD
ATOM     30  O   UNL A   1      42.429  18.636  25.845  1.00  0.00    -0.269 OA
BRANCH  28  31
ATOM     31  C   UNL A   1      41.896  20.855  26.413  1.00  0.00     0.039 A 
ATOM     32  C   UNL A   1      42.267  21.170  27.724  1.00  0.00     0.014 A 
ATOM     33  C   UNL A   1      41.835  21.862  25.447  1.00  0.00     0.014 A 
ATOM     34  C   UNL A   1      42.635  22.479  28.050  1.00  0.00     0.010 A 
ATOM     35  C   UNL A   1      42.269  23.150  25.756  1.00  0.00     0.010 A 
ATOM     36  C   UNL A   1      42.667  23.476  27.061  1.00  0.00    -0.014 A 
BRANCH  36  37
ATOM     37  C   UNL A   1      43.119  24.859  27.366  1.00  0.00     0.031 A 
ATOM     38  C   UNL A   1      42.182  25.837  28.024  1.00  0.00     0.074 A 
ATOM     39  C   UNL A   1      44.340  25.265  26.967  1.00  0.00     0.049 A 
ATOM     40  N   UNL A   1      42.368  27.104  28.294  1.00  0.00    -0.248 NA
ATOM     41  C   UNL A   1      40.851  25.333  28.403  1.00  0.00     0.031 C 
ATOM     42  C   UNL A   1      45.315  24.438  26.252  1.00  0.00     0.029 A 
ATOM     43  N   UNL A   1      44.959  26.486  27.077  1.00  0.00    -0.354 N 
ATOM     44  C   UNL A   1      41.170  27.558  28.833  1.00  0.00     0.074 A 
ATOM     45  C   UNL A   1      40.254  26.438  28.827  1.00  0.00     0.031 C 
ATOM     46  C   UNL A   1      46.406  25.175  25.985  1.00  0.00     0.029 A 
ATOM     47  C   UNL A   1      46.200  26.531  26.484  1.00  0.00     0.049 A 
ATOM     48  H   UNL A   1      44.553  27.257  27.536  1.00  0.00     0.167 HD
ATOM     49  C   UNL A   1      40.867  28.786  29.319  1.00  0.00     0.034 A 
ATOM     50  C   UNL A   1      47.072  27.551  26.352  1.00  0.00     0.034 A 
ATOM     51  C   UNL A   1      41.796  29.882  29.376  1.00  0.00     0.049 A 
ATOM     52  C   UNL A   1      46.732  28.890  26.945  1.00  0.00     0.074 A 
ATOM     53  C   UNL A   1      41.614  31.136  29.934  1.00  0.00     0.029 A 
ATOM     54  N   UNL A   1      43.081  29.859  28.858  1.00  0.00    -0.354 N 
ATOM     55  N   UNL A   1      45.653  29.253  27.596  1.00  0.00    -0.248 NA
ATOM     56  C   UNL A   1      47.743  29.950  26.821  1.00  0.00     0.031 C 
ATOM     57  C   UNL A   1      42.786  31.875  29.741  1.00  0.00     0.029 A 
ATOM     58  C   UNL A   1      43.703  31.076  29.079  1.00  0.00     0.049 A 
ATOM     59  H   UNL A   1      43.492  29.090  28.400  1.00  0.00     0.167 HD
ATOM     60  C   UNL A   1      45.869  30.569  27.989  1.00  0.00     0.074 A 
ATOM     61  C   UNL A   1      47.191  30.933  27.521  1.00  0.00     0.031 C 
ATOM     62  C   UNL A   1      45.042  31.406  28.661  1.00  0.00     0.034 A 
BRANCH  49  63
ATOM     63  C   UNL A   1      39.488  28.992  29.889  1.00  0.00     0.023 A 
ATOM     64  C   UNL A   1      39.218  28.582  31.211  1.00  0.00     0.012 A 
ATOM     65  C   UNL A   1      38.482  29.643  29.149  1.00  0.00     0.148 A 
ATOM     66  C   UNL A   1      37.958  28.782  31.774  1.00  0.00     0.002 A 
ATOM     67  C   UNL A   1      37.242  29.877  29.733  1.00  0.00     0.091 A 
ATOM     68  F   UNL A   1      38.750  30.009  27.887  1.00  0.00    -0.205 F 
ATOM     69  C   UNL A   1      36.975  29.438  31.040  1.00  0.00     0.022 A 
BRANCH  67  70
ATOM     70  S   UNL A   1      35.934  30.783  28.896  1.00  0.00     0.127 S 
ATOM     71  O   UNL A   1      35.180  31.322  30.027  1.00  0.00    -0.237 OA
ATOM     72  O   UNL A   1      36.686  31.780  28.135  1.00  0.00    -0.237 OA
ATOM     73  O   UNL A   1      35.229  29.804  28.082  1.00  0.00    -0.744 OA
ENDBRANCH  67  70
ENDBRANCH  49  63
BRANCH  50  74
ATOM     74  C   UNL A   1      48.387  27.320  25.688  1.00  0.00     0.023 A 
ATOM     75  C   UNL A   1      49.474  26.861  26.459  1.00  0.00     0.012 A 
ATOM     76  C   UNL A   1      48.561  27.517  24.306  1.00  0.00     0.148 A 
ATOM     77  C   UNL A   1      50.717  26.631  25.870  1.00  0.00     0.002 A 
ATOM     78  C   UNL A   1      49.788  27.235  23.716  1.00  0.00     0.091 A 
ATOM     79  F   UNL A   1      47.519  27.968  23.593  1.00  0.00    -0.205 F 
ATOM     80  C   UNL A   1      50.872  26.807  24.498  1.00  0.00     0.022 A 
BRANCH  78  81
ATOM     81  S   UNL A   1      50.035  27.307  21.938  1.00  0.00     0.127 S 
ATOM     82  O   UNL A   1      51.415  26.846  21.809  1.00  0.00    -0.237 OA
ATOM     83  O   UNL A   1      49.024  26.367  21.452  1.00  0.00    -0.237 OA
ATOM     84  O   UNL A   1      49.789  28.693  21.566  1.00  0.00    -0.744 OA
ENDBRANCH  78  81
ENDBRANCH  50  74
BRANCH  62  85
ATOM     85  C   UNL A   1      45.545  32.791  28.969  1.00  0.00     0.023 A 
ATOM     86  C   UNL A   1      46.213  33.037  30.184  1.00  0.00     0.012 A 
ATOM     87  C   UNL A   1      45.426  33.828  28.022  1.00  0.00     0.148 A 
ATOM     88  C   UNL A   1      46.732  34.301  30.464  1.00  0.00     0.002 A 
ATOM     89  C   UNL A   1      45.986  35.072  28.289  1.00  0.00     0.091 A 
ATOM     90  F   UNL A   1      44.769  33.580  26.880  1.00  0.00    -0.205 F 
ATOM     91  C   UNL A   1      46.630  35.314  29.513  1.00  0.00     0.022 A 
BRANCH  89  92
ATOM     92  S   UNL A   1      45.983  36.404  27.083  1.00  0.00     0.127 S 
ATOM     93  O   UNL A   1      44.628  36.935  27.229  1.00  0.00    -0.237 OA
ATOM     94  O   UNL A   1      47.039  37.284  27.585  1.00  0.00    -0.237 OA
ATOM     95  O   UNL A   1      46.278  35.781  25.800  1.00  0.00    -0.744 OA
ENDBRANCH  89  92
ENDBRANCH  62  85
ENDBRANCH  36  37
ENDBRANCH  28  31
ENDBRANCH  26  27
ENDBRANCH  25  26
ENDBRANCH   1  25
TORSDOF 19
ENDMDL
MODEL 3
REMARK VINA RESULT:     -11.2      5.344      8.574
REMARK SMILES CC[C@H](C)CN(CC)C(=O)Nc1ccc(C(=O)NCCCNC(=O)c2ccc(-c3c4nc(c(-c5cccc(S(=O)(=O)[O-])c5F)c5ccc([nH]5)c(-c5cccc(S(=O)(=O)[O-])c5F)c5nc(c(-c6cccc(S(=O)(=O)[O-])c6F)c6ccc3[nH]6)C=C5)C=C4)cc2)cc1Cl
REMARK SMILES IDX 19 1 18 2 16 3 17 4 15 6 12 7 13 8 89 9 14 10 88 11 90 12
REMARK SMILES IDX 11 13 9 14 10 15 6 17 5 18 3 19 4 20 2 21 1 22 7 23 8 24
REMARK SMILES IDX 20 25 21 26 22 27 23 28 24 30 25 31 26 32 87 33 27 34 86 35
REMARK SMILES IDX 28 36 29 37 30 38 80 39 31 40 85 41 79 42 81 43 32 44 84 45
REMARK SMILES IDX 78 46 77 47 33 49 65 50 45 51 64 52 46 53 49 54 63 55 82 56
REMARK SMILES IDX 47 57 48 58 62 60 83 61 50 62 34 63 35 64 43 65 36 66 38 67
REMARK SMILES IDX 44 68 37 69 39 70 40 71 41 72 42 73 66 74 67 75 75 76 68 77
REMARK SMILES IDX 70 78 76 79 69 80 71 81 72 82 73 83 74 84 51 85 52 86 60 87
REMARK SMILES IDX 53 88 55 89 61 90 54 91 56 92 57 93 58 94 59 95
REMARK H PARENT 18 5 11 16 22 29 81 48 49 59
REMARK Flexibility Score: inf
ROOT
ATOM      1  C   UNL A   1      31.764  30.530  26.850  1.00  0.00     0.118 C 
ENDROOT
BRANCH   1   2
ATOM      2  N   UNL A   1      33.023  30.221  27.510  1.00  0.00    -0.352 N 
ATOM      3  C   UNL A   1      34.016  29.327  27.182  1.00  0.00     0.251 C 
ATOM      4  O   UNL A   1      35.073  29.345  27.795  1.00  0.00    -0.269 OA
ATOM      5  H   UNL A   1      33.194  30.740  28.329  1.00  0.00     0.163 HD
BRANCH   3   6
ATOM      6  C   UNL A   1      33.855  28.406  26.034  1.00  0.00     0.041 A 
ATOM      7  C   UNL A   1      33.810  26.521  23.982  1.00  0.00     0.061 A 
ATOM      8  C   UNL A   1      33.494  26.132  25.288  1.00  0.00     0.028 A 
ATOM      9  C   UNL A   1      33.980  27.878  23.680  1.00  0.00     0.065 A 
ATOM     10  C   UNL A   1      33.543  27.070  26.318  1.00  0.00     0.016 A 
ATOM     11  C   UNL A   1      33.985  28.823  24.708  1.00  0.00     0.036 A 
ATOM     12  Cl  UNL A   1      34.101  28.444  22.053  1.00  0.00    -0.082 Cl
BRANCH   7  13
ATOM     13  N   UNL A   1      33.941  25.499  23.041  1.00  0.00    -0.306 N 
ATOM     14  C   UNL A   1      33.134  24.451  22.724  1.00  0.00     0.321 C 
ATOM     15  O   UNL A   1      33.698  23.484  22.199  1.00  0.00    -0.248 OA
ATOM     16  H   UNL A   1      34.768  25.545  22.509  1.00  0.00     0.171 HD
BRANCH  14  17
ATOM     17  N   UNL A   1      31.754  24.538  22.799  1.00  0.00    -0.325 N 
BRANCH  17  18
ATOM     18  C   UNL A   1      31.143  25.747  22.215  1.00  0.00     0.124 C 
BRANCH  18  19
ATOM     19  C   UNL A   1      30.552  26.696  23.294  1.00  0.00     0.005 C 
ATOM     20  C   UNL A   1      30.588  28.166  22.866  1.00  0.00     0.009 C 
BRANCH  19  21
ATOM     21  C   UNL A   1      29.133  26.264  23.717  1.00  0.00     0.002 C 
ATOM     22  C   UNL A   1      28.070  27.347  23.620  1.00  0.00     0.004 C 
ENDBRANCH  19  21
ENDBRANCH  18  19
ENDBRANCH  17  18
BRANCH  17  23
ATOM     23  C   UNL A   1      30.822  23.671  23.536  1.00  0.00     0.118 C 
ATOM     24  C   UNL A   1      31.351  23.246  24.899  1.00  0.00     0.027 C 
ENDBRANCH  17  23
ENDBRANCH  14  17
ENDBRANCH   7  13
ENDBRANCH   3   6
ENDBRANCH   1   2
BRANCH   1  25
ATOM     25  C   UNL A   1      31.446  32.021  26.890  1.00  0.00     0.042 C 
BRANCH  25  26
ATOM     26  C   UNL A   1      32.676  32.919  26.791  1.00  0.00     0.118 C 
BRANCH  26  27
ATOM     27  N   UNL A   1      32.509  34.176  27.504  1.00  0.00    -0.352 N 
ATOM     28  C   UNL A   1      33.160  34.645  28.621  1.00  0.00     0.251 C 
ATOM     29  H   UNL A   1      31.828  34.782  27.133  1.00  0.00     0.163 HD
ATOM     30  O   UNL A   1      32.748  35.664  29.170  1.00  0.00    -0.269 OA
BRANCH  28  31
ATOM     31  C   UNL A   1      34.331  33.926  29.175  1.00  0.00     0.039 A 
ATOM     32  C   UNL A   1      35.611  34.425  28.916  1.00  0.00     0.014 A 
ATOM     33  C   UNL A   1      34.180  32.753  29.919  1.00  0.00     0.014 A 
ATOM     34  C   UNL A   1      36.732  33.784  29.451  1.00  0.00     0.010 A 
ATOM     35  C   UNL A   1      35.292  32.157  30.512  1.00  0.00     0.010 A 
ATOM     36  C   UNL A   1      36.581  32.660  30.279  1.00  0.00    -0.014 A 
BRANCH  36  37
ATOM     37  C   UNL A   1      37.751  32.001  30.917  1.00  0.00     0.031 A 
ATOM     38  C   UNL A   1      38.522  30.940  30.177  1.00  0.00     0.074 A 
ATOM     39  C   UNL A   1      38.064  32.288  32.196  1.00  0.00     0.049 A 
ATOM     40  N   UNL A   1      39.516  30.199  30.595  1.00  0.00    -0.248 NA
ATOM     41  C   UNL A   1      38.104  30.655  28.794  1.00  0.00     0.031 C 
ATOM     42  C   UNL A   1      37.348  33.239  33.048  1.00  0.00     0.029 A 
ATOM     43  N   UNL A   1      39.044  31.783  33.014  1.00  0.00    -0.354 N 
ATOM     44  C   UNL A   1      39.814  29.335  29.548  1.00  0.00     0.074 A 
ATOM     45  C   UNL A   1      38.878  29.624  28.484  1.00  0.00     0.031 C 
ATOM     46  C   UNL A   1      37.911  33.248  34.268  1.00  0.00     0.029 A 
ATOM     47  C   UNL A   1      39.008  32.286  34.294  1.00  0.00     0.049 A 
ATOM     48  H   UNL A   1      39.710  31.123  32.713  1.00  0.00     0.167 HD
ATOM     49  C   UNL A   1      40.797  28.406  29.467  1.00  0.00     0.034 A 
ATOM     50  C   UNL A   1      39.768  32.000  35.370  1.00  0.00     0.034 A 
ATOM     51  C   UNL A   1      41.762  28.159  30.504  1.00  0.00     0.049 A 
ATOM     52  C   UNL A   1      40.885  31.002  35.236  1.00  0.00     0.074 A 
ATOM     53  C   UNL A   1      42.852  27.305  30.479  1.00  0.00     0.029 A 
ATOM     54  N   UNL A   1      41.756  28.762  31.751  1.00  0.00    -0.354 N 
ATOM     55  N   UNL A   1      41.251  30.311  34.184  1.00  0.00    -0.248 NA
ATOM     56  C   UNL A   1      41.718  30.771  36.425  1.00  0.00     0.031 C 
ATOM     57  C   UNL A   1      43.497  27.384  31.718  1.00  0.00     0.029 A 
ATOM     58  C   UNL A   1      42.820  28.298  32.506  1.00  0.00     0.049 A 
ATOM     59  H   UNL A   1      41.094  29.423  32.055  1.00  0.00     0.167 HD
ATOM     60  C   UNL A   1      42.376  29.592  34.572  1.00  0.00     0.074 A 
ATOM     61  C   UNL A   1      42.643  29.947  35.951  1.00  0.00     0.031 C 
ATOM     62  C   UNL A   1      43.111  28.705  33.858  1.00  0.00     0.034 A 
BRANCH  49  63
ATOM     63  C   UNL A   1      40.919  27.628  28.182  1.00  0.00     0.023 A 
ATOM     64  C   UNL A   1      41.537  28.229  27.066  1.00  0.00     0.012 A 
ATOM     65  C   UNL A   1      40.483  26.292  28.093  1.00  0.00     0.148 A 
ATOM     66  C   UNL A   1      41.687  27.526  25.871  1.00  0.00     0.002 A 
ATOM     67  C   UNL A   1      40.675  25.583  26.912  1.00  0.00     0.091 A 
ATOM     68  F   UNL A   1      39.879  25.743  29.157  1.00  0.00    -0.205 F 
ATOM     69  C   UNL A   1      41.265  26.202  25.798  1.00  0.00     0.022 A 
BRANCH  67  70
ATOM     70  S   UNL A   1      40.236  23.849  26.742  1.00  0.00     0.127 S 
ATOM     71  O   UNL A   1      38.876  23.940  26.211  1.00  0.00    -0.237 OA
ATOM     72  O   UNL A   1      41.232  23.370  25.784  1.00  0.00    -0.237 OA
ATOM     73  O   UNL A   1      40.351  23.276  28.075  1.00  0.00    -0.744 OA
ENDBRANCH  67  70
ENDBRANCH  49  63
BRANCH  50  74
ATOM     74  C   UNL A   1      39.542  32.728  36.651  1.00  0.00     0.023 A 
ATOM     75  C   UNL A   1      40.251  33.921  36.898  1.00  0.00     0.012 A 
ATOM     76  C   UNL A   1      38.615  32.270  37.605  1.00  0.00     0.148 A 
ATOM     77  C   UNL A   1      40.061  34.629  38.085  1.00  0.00     0.002 A 
ATOM     78  C   UNL A   1      38.391  33.009  38.762  1.00  0.00     0.091 A 
ATOM     79  F   UNL A   1      37.961  31.126  37.359  1.00  0.00    -0.205 F 
ATOM     80  C   UNL A   1      39.124  34.180  39.011  1.00  0.00     0.022 A 
BRANCH  78  81
ATOM     81  S   UNL A   1      37.109  32.575  39.944  1.00  0.00     0.127 S 
ATOM     82  O   UNL A   1      37.271  33.615  40.956  1.00  0.00    -0.237 OA
ATOM     83  O   UNL A   1      35.896  32.689  39.132  1.00  0.00    -0.237 OA
ATOM     84  O   UNL A   1      37.416  31.217  40.370  1.00  0.00    -0.744 OA
ENDBRANCH  78  81
ENDBRANCH  50  74
BRANCH  62  85
ATOM     85  C   UNL A   1      44.300  28.075  34.533  1.00  0.00     0.023 A 
ATOM     86  C   UNL A   1      45.545  28.733  34.509  1.00  0.00     0.012 A 
ATOM     87  C   UNL A   1      44.165  26.874  35.256  1.00  0.00     0.148 A 
ATOM     88  C   UNL A   1      46.646  28.191  35.173  1.00  0.00     0.002 A 
ATOM     89  C   UNL A   1      45.255  26.363  35.952  1.00  0.00     0.091 A 
ATOM     90  F   UNL A   1      42.977  26.252  35.250  1.00  0.00    -0.205 F 
ATOM     91  C   UNL A   1      46.498  27.014  35.904  1.00  0.00     0.022 A 
BRANCH  89  92
ATOM     92  S   UNL A   1      45.129  24.905  36.995  1.00  0.00     0.127 S 
ATOM     93  O   UNL A   1      44.107  25.313  37.957  1.00  0.00    -0.237 OA
ATOM     94  O   UNL A   1      44.698  23.878  36.046  1.00  0.00    -0.237 OA
ATOM     95  O   UNL A   1      46.462  24.693  37.547  1.00  0.00    -0.744 OA
ENDBRANCH  89  92
ENDBRANCH  62  85
ENDBRANCH  36  37
ENDBRANCH  28  31
ENDBRANCH  26  27
ENDBRANCH  25  26
ENDBRANCH   1  25
TORSDOF 19
ENDMDL
