MODEL 1
REMARK VINA RESULT:     -12.3      0.000      0.000
REMARK SMILES C[C@@H]1C[NH+](Cc2ccccc2/C=C/C(=O)NCCCNC(=O)c2ccc(-c3c4nc(c(-c5cccc(S(=O)(=O)[O-])c5F)c5ccc([nH]5)c(-c5cccc(S(=O)(=O)[O-])c5F)c5nc(c(-c6cccc(S(=O)(=O)[O-])c6F)c6ccc3[nH]6)C=C5)C=C4)cc2)C[C@H]1C
REMARK SMILES IDX 18 1 17 2 16 3 14 4 15 5 13 7 12 8 11 9 6 10 7 11 8 12 10 13
REMARK SMILES IDX 9 14 5 15 4 16 1 17 2 18 3 19 87 20 86 21 88 22 19 24 20 25
REMARK SMILES IDX 21 26 22 28 23 29 24 30 85 31 25 32 84 33 26 34 27 35 28 36
REMARK SMILES IDX 78 37 29 38 83 39 77 40 79 41 30 42 82 43 76 44 75 45 31 47
REMARK SMILES IDX 63 48 43 49 62 50 44 51 47 52 61 53 80 54 45 55 46 56 60 58
REMARK SMILES IDX 81 59 48 60 32 61 33 62 41 63 34 64 36 65 42 66 35 67 37 68
REMARK SMILES IDX 38 69 39 70 40 71 64 72 65 73 73 74 66 75 68 76 74 77 67 78
REMARK SMILES IDX 69 79 70 80 71 81 72 82 49 83 50 84 58 85 51 86 53 87 59 88
REMARK SMILES IDX 52 89 54 90 55 91 56 92 57 93
REMARK H PARENT 16 6 4 23 20 27 79 46 47 57
REMARK Flexibility Score: inf
ROOT
ATOM      1  C   UNL A   1      32.555  29.162  24.044  1.00  0.00     0.042 C 
ENDROOT
BRANCH   1   2
ATOM      2  C   UNL A   1      33.472  28.192  23.336  1.00  0.00     0.118 C 
BRANCH   2   3
ATOM      3  N   UNL A   1      32.936  27.597  22.135  1.00  0.00    -0.352 N 
ATOM      4  C   UNL A   1      32.907  26.276  21.793  1.00  0.00     0.244 C 
ATOM      5  O   UNL A   1      32.179  25.898  20.878  1.00  0.00    -0.270 OA
ATOM      6  H   UNL A   1      32.541  28.221  21.483  1.00  0.00     0.163 HD
BRANCH   4   7
ATOM      7  C   UNL A   1      33.655  25.264  22.585  1.00  0.00     0.072 C 
ATOM      8  C   UNL A   1      33.627  23.931  22.395  1.00  0.00     0.014 C 
BRANCH   8   9
ATOM      9  C   UNL A   1      34.411  22.991  23.221  1.00  0.00    -0.017 A 
ATOM     10  C   UNL A   1      33.848  22.079  24.152  1.00  0.00     0.013 A 
ATOM     11  C   UNL A   1      34.727  21.348  24.983  1.00  0.00     0.010 A 
ATOM     12  C   UNL A   1      36.111  21.468  24.874  1.00  0.00     0.001 A 
ATOM     13  C   UNL A   1      35.814  23.082  23.115  1.00  0.00     0.008 A 
ATOM     14  C   UNL A   1      36.656  22.322  23.926  1.00  0.00     0.001 A 
BRANCH  10  15
ATOM     15  C   UNL A   1      32.356  21.833  24.366  1.00  0.00     0.299 C 
BRANCH  15  16
ATOM     16  N   UNL A   1      31.597  22.804  25.172  1.00  0.00    -0.331 N 
ATOM     17  C   UNL A   1      30.008  26.143  24.940  1.00  0.00     0.014 C 
ATOM     18  C   UNL A   1      31.133  25.125  24.841  1.00  0.00     0.049 C 
ATOM     19  C   UNL A   1      30.653  23.703  24.519  1.00  0.00     0.266 C 
ATOM     20  C   UNL A   1      31.865  24.979  26.170  1.00  0.00     0.049 C 
ATOM     21  C   UNL A   1      32.423  23.578  26.074  1.00  0.00     0.266 C 
ATOM     22  C   UNL A   1      32.994  25.994  26.357  1.00  0.00     0.014 C 
ATOM     23  H   UNL A   1      31.007  22.140  25.673  1.00  0.00     0.348 HD
ENDBRANCH  15  16
ENDBRANCH  10  15
ENDBRANCH   8   9
ENDBRANCH   4   7
ENDBRANCH   2   3
ENDBRANCH   1   2
BRANCH   1  24
ATOM     24  C   UNL A   1      32.878  29.333  25.511  1.00  0.00     0.118 C 
BRANCH  24  25
ATOM     25  N   UNL A   1      32.539  30.654  26.033  1.00  0.00    -0.352 N 
ATOM     26  C   UNL A   1      33.191  31.437  26.958  1.00  0.00     0.251 C 
ATOM     27  H   UNL A   1      31.714  31.045  25.666  1.00  0.00     0.163 HD
ATOM     28  O   UNL A   1      32.669  32.488  27.328  1.00  0.00    -0.269 OA
BRANCH  26  29
ATOM     29  C   UNL A   1      34.486  31.009  27.531  1.00  0.00     0.039 A 
ATOM     30  C   UNL A   1      35.465  31.973  27.786  1.00  0.00     0.014 A 
ATOM     31  C   UNL A   1      34.737  29.672  27.842  1.00  0.00     0.014 A 
ATOM     32  C   UNL A   1      36.652  31.602  28.422  1.00  0.00     0.010 A 
ATOM     33  C   UNL A   1      35.851  29.330  28.599  1.00  0.00     0.010 A 
ATOM     34  C   UNL A   1      36.836  30.284  28.878  1.00  0.00    -0.014 A 
BRANCH  34  35
ATOM     35  C   UNL A   1      38.046  29.899  29.646  1.00  0.00     0.031 A 
ATOM     36  C   UNL A   1      38.264  30.415  31.047  1.00  0.00     0.074 A 
ATOM     37  C   UNL A   1      38.985  29.129  29.058  1.00  0.00     0.049 A 
ATOM     38  N   UNL A   1      39.239  30.149  31.877  1.00  0.00    -0.248 NA
ATOM     39  C   UNL A   1      37.282  31.378  31.574  1.00  0.00     0.031 C 
ATOM     40  C   UNL A   1      38.948  28.659  27.670  1.00  0.00     0.029 A 
ATOM     41  N   UNL A   1      40.157  28.610  29.548  1.00  0.00    -0.354 N 
ATOM     42  C   UNL A   1      39.007  30.935  33.001  1.00  0.00     0.074 A 
ATOM     43  C   UNL A   1      37.827  31.723  32.731  1.00  0.00     0.031 C 
ATOM     44  C   UNL A   1      40.021  27.889  27.436  1.00  0.00     0.029 A 
ATOM     45  C   UNL A   1      40.840  27.834  28.641  1.00  0.00     0.049 A 
ATOM     46  H   UNL A   1      40.479  28.779  30.464  1.00  0.00     0.167 HD
ATOM     47  C   UNL A   1      39.691  30.971  34.168  1.00  0.00     0.034 A 
ATOM     48  C   UNL A   1      41.990  27.146  28.771  1.00  0.00     0.034 A 
ATOM     49  C   UNL A   1      40.836  30.149  34.451  1.00  0.00     0.049 A 
ATOM     50  C   UNL A   1      42.692  27.152  30.101  1.00  0.00     0.074 A 
ATOM     51  C   UNL A   1      41.535  30.027  35.638  1.00  0.00     0.029 A 
ATOM     52  N   UNL A   1      41.457  29.316  33.533  1.00  0.00    -0.354 N 
ATOM     53  N   UNL A   1      42.349  27.754  31.214  1.00  0.00    -0.248 NA
ATOM     54  C   UNL A   1      43.919  26.351  30.204  1.00  0.00     0.031 C 
ATOM     55  C   UNL A   1      42.604  29.150  35.426  1.00  0.00     0.029 A 
ATOM     56  C   UNL A   1      42.544  28.693  34.119  1.00  0.00     0.049 A 
ATOM     57  H   UNL A   1      41.167  29.189  32.601  1.00  0.00     0.167 HD
ATOM     58  C   UNL A   1      43.298  27.378  32.158  1.00  0.00     0.074 A 
ATOM     59  C   UNL A   1      44.209  26.469  31.491  1.00  0.00     0.031 C 
ATOM     60  C   UNL A   1      43.419  27.762  33.453  1.00  0.00     0.034 A 
BRANCH  47  61
ATOM     61  C   UNL A   1      39.191  31.896  35.250  1.00  0.00     0.023 A 
ATOM     62  C   UNL A   1      38.231  31.440  36.175  1.00  0.00     0.012 A 
ATOM     63  C   UNL A   1      39.719  33.196  35.388  1.00  0.00     0.148 A 
ATOM     64  C   UNL A   1      37.778  32.271  37.199  1.00  0.00     0.002 A 
ATOM     65  C   UNL A   1      39.300  34.000  36.440  1.00  0.00     0.091 A 
ATOM     66  F   UNL A   1      40.614  33.621  34.485  1.00  0.00    -0.205 F 
ATOM     67  C   UNL A   1      38.320  33.545  37.338  1.00  0.00     0.022 A 
BRANCH  65  68
ATOM     68  S   UNL A   1      39.997  35.625  36.758  1.00  0.00     0.127 S 
ATOM     69  O   UNL A   1      39.331  35.993  38.007  1.00  0.00    -0.237 OA
ATOM     70  O   UNL A   1      41.422  35.325  36.892  1.00  0.00    -0.237 OA
ATOM     71  O   UNL A   1      39.653  36.443  35.604  1.00  0.00    -0.744 OA
ENDBRANCH  65  68
ENDBRANCH  47  61
BRANCH  48  72
ATOM     72  C   UNL A   1      42.508  26.327  27.637  1.00  0.00     0.023 A 
ATOM     73  C   UNL A   1      43.425  26.899  26.732  1.00  0.00     0.012 A 
ATOM     74  C   UNL A   1      42.111  24.989  27.455  1.00  0.00     0.148 A 
ATOM     75  C   UNL A   1      43.902  26.168  25.644  1.00  0.00     0.002 A 
ATOM     76  C   UNL A   1      42.636  24.248  26.404  1.00  0.00     0.091 A 
ATOM     77  F   UNL A   1      41.231  24.466  28.320  1.00  0.00    -0.205 F 
ATOM     78  C   UNL A   1      43.515  24.840  25.485  1.00  0.00     0.022 A 
BRANCH  76  79
ATOM     79  S   UNL A   1      42.297  22.496  26.199  1.00  0.00     0.127 S 
ATOM     80  O   UNL A   1      43.014  22.194  24.964  1.00  0.00    -0.237 OA
ATOM     81  O   UNL A   1      42.890  21.929  27.411  1.00  0.00    -0.237 OA
ATOM     82  O   UNL A   1      40.846  22.383  26.133  1.00  0.00    -0.744 OA
ENDBRANCH  76  79
ENDBRANCH  48  72
BRANCH  60  83
ATOM     83  C   UNL A   1      44.561  27.178  34.242  1.00  0.00     0.023 A 
ATOM     84  C   UNL A   1      45.786  27.870  34.325  1.00  0.00     0.012 A 
ATOM     85  C   UNL A   1      44.409  25.959  34.931  1.00  0.00     0.148 A 
ATOM     86  C   UNL A   1      46.858  27.334  35.036  1.00  0.00     0.002 A 
ATOM     87  C   UNL A   1      45.464  25.458  35.684  1.00  0.00     0.091 A 
ATOM     88  F   UNL A   1      43.243  25.305  34.829  1.00  0.00    -0.205 F 
ATOM     89  C   UNL A   1      46.694  26.134  35.723  1.00  0.00     0.022 A 
BRANCH  87  90
ATOM     90  S   UNL A   1      45.309  23.973  36.683  1.00  0.00     0.127 S 
ATOM     91  O   UNL A   1      46.709  23.621  36.913  1.00  0.00    -0.237 OA
ATOM     92  O   UNL A   1      44.601  24.464  37.865  1.00  0.00    -0.237 OA
ATOM     93  O   UNL A   1      44.549  23.027  35.877  1.00  0.00    -0.744 OA
ENDBRANCH  87  90
ENDBRANCH  60  83
ENDBRANCH  34  35
ENDBRANCH  26  29
ENDBRANCH  24  25
ENDBRANCH   1  24
TORSDOF 16
ENDMDL
MODEL 2
REMARK VINA RESULT:     -12.2      1.200      2.121
REMARK SMILES C[C@@H]1C[NH+](Cc2ccccc2/C=C/C(=O)NCCCNC(=O)c2ccc(-c3c4nc(c(-c5cccc(S(=O)(=O)[O-])c5F)c5ccc([nH]5)c(-c5cccc(S(=O)(=O)[O-])c5F)c5nc(c(-c6cccc(S(=O)(=O)[O-])c6F)c6ccc3[nH]6)C=C5)C=C4)cc2)C[C@H]1C
REMARK SMILES IDX 18 1 17 2 16 3 14 4 15 5 13 7 12 8 11 9 6 10 7 11 8 12 10 13
REMARK SMILES IDX 9 14 5 15 4 16 1 17 2 18 3 19 87 20 86 21 88 22 19 24 20 25
REMARK SMILES IDX 21 26 22 28 23 29 24 30 85 31 25 32 84 33 26 34 27 35 28 36
REMARK SMILES IDX 78 37 29 38 83 39 77 40 79 41 30 42 82 43 76 44 75 45 31 47
REMARK SMILES IDX 63 48 43 49 62 50 44 51 47 52 61 53 80 54 45 55 46 56 60 58
REMARK SMILES IDX 81 59 48 60 32 61 33 62 41 63 34 64 36 65 42 66 35 67 37 68
REMARK SMILES IDX 38 69 39 70 40 71 64 72 65 73 73 74 66 75 68 76 74 77 67 78
REMARK SMILES IDX 69 79 70 80 71 81 72 82 49 83 50 84 58 85 51 86 53 87 59 88
REMARK SMILES IDX 52 89 54 90 55 91 56 92 57 93
REMARK H PARENT 16 6 4 23 20 27 79 46 47 57
REMARK Flexibility Score: inf
ROOT
ATOM      1  C   UNL A   1      32.590  28.883  24.602  1.00  0.00     0.042 C 
ENDROOT
BRANCH   1   2
ATOM      2  C   UNL A   1      32.161  27.481  24.238  1.00  0.00     0.118 C 
BRANCH   2   3
ATOM      3  N   UNL A   1      31.307  26.825  25.199  1.00  0.00    -0.352 N 
ATOM      4  C   UNL A   1      31.515  25.632  25.829  1.00  0.00     0.244 C 
ATOM      5  O   UNL A   1      30.844  25.339  26.817  1.00  0.00    -0.270 OA
ATOM      6  H   UNL A   1      30.473  27.297  25.429  1.00  0.00     0.163 HD
BRANCH   4   7
ATOM      7  C   UNL A   1      32.620  24.728  25.413  1.00  0.00     0.072 C 
ATOM      8  C   UNL A   1      33.701  24.410  26.148  1.00  0.00     0.014 C 
BRANCH   8   9
ATOM      9  C   UNL A   1      34.753  23.492  25.665  1.00  0.00    -0.017 A 
ATOM     10  C   UNL A   1      34.797  22.102  25.949  1.00  0.00     0.013 A 
ATOM     11  C   UNL A   1      35.942  21.377  25.551  1.00  0.00     0.010 A 
ATOM     12  C   UNL A   1      36.988  21.979  24.854  1.00  0.00     0.001 A 
ATOM     13  C   UNL A   1      35.814  24.077  24.943  1.00  0.00     0.008 A 
ATOM     14  C   UNL A   1      36.915  23.327  24.534  1.00  0.00     0.001 A 
BRANCH  10  15
ATOM     15  C   UNL A   1      33.719  21.310  26.686  1.00  0.00     0.299 C 
BRANCH  15  16
ATOM     16  N   UNL A   1      32.815  20.457  25.895  1.00  0.00    -0.331 N 
ATOM     17  C   UNL A   1      32.863  17.875  23.238  1.00  0.00     0.014 C 
ATOM     18  C   UNL A   1      33.159  19.223  23.877  1.00  0.00     0.049 C 
ATOM     19  C   UNL A   1      33.286  19.166  25.406  1.00  0.00     0.266 C 
ATOM     20  C   UNL A   1      32.023  20.211  23.634  1.00  0.00     0.049 C 
ATOM     21  C   UNL A   1      32.167  21.155  24.805  1.00  0.00     0.266 C 
ATOM     22  C   UNL A   1      32.153  20.971  22.314  1.00  0.00     0.014 C 
ATOM     23  H   UNL A   1      32.158  20.220  26.639  1.00  0.00     0.348 HD
ENDBRANCH  15  16
ENDBRANCH  10  15
ENDBRANCH   8   9
ENDBRANCH   4   7
ENDBRANCH   2   3
ENDBRANCH   1   2
BRANCH   1  24
ATOM     24  C   UNL A   1      32.449  29.190  26.076  1.00  0.00     0.118 C 
BRANCH  24  25
ATOM     25  N   UNL A   1      32.237  30.607  26.358  1.00  0.00    -0.352 N 
ATOM     26  C   UNL A   1      33.013  31.496  27.066  1.00  0.00     0.251 C 
ATOM     27  H   UNL A   1      31.410  30.986  25.984  1.00  0.00     0.163 HD
ATOM     28  O   UNL A   1      32.591  32.635  27.265  1.00  0.00    -0.269 OA
BRANCH  26  29
ATOM     29  C   UNL A   1      34.324  31.084  27.615  1.00  0.00     0.039 A 
ATOM     30  C   UNL A   1      35.263  32.068  27.939  1.00  0.00     0.014 A 
ATOM     31  C   UNL A   1      34.628  29.741  27.839  1.00  0.00     0.014 A 
ATOM     32  C   UNL A   1      36.462  31.703  28.554  1.00  0.00     0.010 A 
ATOM     33  C   UNL A   1      35.754  29.395  28.576  1.00  0.00     0.010 A 
ATOM     34  C   UNL A   1      36.698  30.367  28.922  1.00  0.00    -0.014 A 
BRANCH  34  35
ATOM     35  C   UNL A   1      37.922  29.981  29.669  1.00  0.00     0.031 A 
ATOM     36  C   UNL A   1      38.168  30.502  31.063  1.00  0.00     0.074 A 
ATOM     37  C   UNL A   1      38.847  29.206  29.066  1.00  0.00     0.049 A 
ATOM     38  N   UNL A   1      39.157  30.236  31.876  1.00  0.00    -0.248 NA
ATOM     39  C   UNL A   1      37.199  31.470  31.605  1.00  0.00     0.031 C 
ATOM     40  C   UNL A   1      38.782  28.730  27.681  1.00  0.00     0.029 A 
ATOM     41  N   UNL A   1      40.027  28.685  29.536  1.00  0.00    -0.354 N 
ATOM     42  C   UNL A   1      38.950  31.027  33.001  1.00  0.00     0.074 A 
ATOM     43  C   UNL A   1      37.767  31.817  32.750  1.00  0.00     0.031 C 
ATOM     44  C   UNL A   1      39.848  27.955  27.429  1.00  0.00     0.029 A 
ATOM     45  C   UNL A   1      40.690  27.903  28.619  1.00  0.00     0.049 A 
ATOM     46  H   UNL A   1      40.367  28.856  30.444  1.00  0.00     0.167 HD
ATOM     47  C   UNL A   1      39.656  31.065  34.155  1.00  0.00     0.034 A 
ATOM     48  C   UNL A   1      41.840  27.212  28.730  1.00  0.00     0.034 A 
ATOM     49  C   UNL A   1      40.804  30.240  34.419  1.00  0.00     0.049 A 
ATOM     50  C   UNL A   1      42.567  27.221  30.046  1.00  0.00     0.074 A 
ATOM     51  C   UNL A   1      41.525  30.121  35.593  1.00  0.00     0.029 A 
ATOM     52  N   UNL A   1      41.404  29.402  33.492  1.00  0.00    -0.354 N 
ATOM     53  N   UNL A   1      42.247  27.828  31.164  1.00  0.00    -0.248 NA
ATOM     54  C   UNL A   1      43.793  26.416  30.129  1.00  0.00     0.031 C 
ATOM     55  C   UNL A   1      42.586  29.239  35.364  1.00  0.00     0.029 A 
ATOM     56  C   UNL A   1      42.501  28.778  34.061  1.00  0.00     0.049 A 
ATOM     57  H   UNL A   1      41.096  29.272  32.567  1.00  0.00     0.167 HD
ATOM     58  C   UNL A   1      43.213  27.452  32.090  1.00  0.00     0.074 A 
ATOM     59  C   UNL A   1      44.108  26.538  31.410  1.00  0.00     0.031 C 
ATOM     60  C   UNL A   1      43.359  27.842  33.381  1.00  0.00     0.034 A 
BRANCH  47  61
ATOM     61  C   UNL A   1      39.180  31.996  35.242  1.00  0.00     0.023 A 
ATOM     62  C   UNL A   1      38.234  31.547  36.186  1.00  0.00     0.012 A 
ATOM     63  C   UNL A   1      39.716  33.294  35.366  1.00  0.00     0.148 A 
ATOM     64  C   UNL A   1      37.803  32.384  37.215  1.00  0.00     0.002 A 
ATOM     65  C   UNL A   1      39.319  34.104  36.423  1.00  0.00     0.091 A 
ATOM     66  F   UNL A   1      40.597  33.712  34.446  1.00  0.00    -0.205 F 
ATOM     67  C   UNL A   1      38.353  33.656  37.340  1.00  0.00     0.022 A 
BRANCH  65  68
ATOM     68  S   UNL A   1      40.029  35.726  36.723  1.00  0.00     0.127 S 
ATOM     69  O   UNL A   1      41.453  35.411  36.828  1.00  0.00    -0.237 OA
ATOM     70  O   UNL A   1      39.653  36.453  35.510  1.00  0.00    -0.237 OA
ATOM     71  O   UNL A   1      39.408  36.218  37.945  1.00  0.00    -0.744 OA
ENDBRANCH  65  68
ENDBRANCH  47  61
BRANCH  48  72
ATOM     72  C   UNL A   1      42.334  26.387  27.590  1.00  0.00     0.023 A 
ATOM     73  C   UNL A   1      43.202  26.965  26.642  1.00  0.00     0.012 A 
ATOM     74  C   UNL A   1      41.961  25.038  27.443  1.00  0.00     0.148 A 
ATOM     75  C   UNL A   1      43.655  26.227  25.547  1.00  0.00     0.002 A 
ATOM     76  C   UNL A   1      42.463  24.291  26.384  1.00  0.00     0.091 A 
ATOM     77  F   UNL A   1      41.127  24.508  28.349  1.00  0.00    -0.205 F 
ATOM     78  C   UNL A   1      43.293  24.889  25.423  1.00  0.00     0.022 A 
BRANCH  76  79
ATOM     79  S   UNL A   1      42.158  22.529  26.219  1.00  0.00     0.127 S 
ATOM     80  O   UNL A   1      42.714  22.011  27.465  1.00  0.00    -0.237 OA
ATOM     81  O   UNL A   1      40.698  22.482  26.127  1.00  0.00    -0.237 OA
ATOM     82  O   UNL A   1      42.848  22.125  25.001  1.00  0.00    -0.744 OA
ENDBRANCH  76  79
ENDBRANCH  48  72
BRANCH  60  83
ATOM     83  C   UNL A   1      44.514  27.257  34.151  1.00  0.00     0.023 A 
ATOM     84  C   UNL A   1      45.773  27.892  34.123  1.00  0.00     0.012 A 
ATOM     85  C   UNL A   1      44.345  26.097  34.931  1.00  0.00     0.148 A 
ATOM     86  C   UNL A   1      46.856  27.353  34.814  1.00  0.00     0.002 A 
ATOM     87  C   UNL A   1      45.414  25.596  35.664  1.00  0.00     0.091 A 
ATOM     88  F   UNL A   1      43.146  25.495  34.935  1.00  0.00    -0.205 F 
ATOM     89  C   UNL A   1      46.674  26.211  35.592  1.00  0.00     0.022 A 
BRANCH  87  90
ATOM     90  S   UNL A   1      45.246  24.192  36.771  1.00  0.00     0.127 S 
ATOM     91  O   UNL A   1      46.606  24.056  37.289  1.00  0.00    -0.237 OA
ATOM     92  O   UNL A   1      44.268  24.678  37.744  1.00  0.00    -0.237 OA
ATOM     93  O   UNL A   1      44.776  23.087  35.946  1.00  0.00    -0.744 OA
ENDBRANCH  87  90
ENDBRANCH  60  83
ENDBRANCH  34  35
ENDBRANCH  26  29
ENDBRANCH  24  25
ENDBRANCH   1  24
TORSDOF 16
ENDMDL
MODEL 3
REMARK VINA RESULT:     -12.1      1.691      2.281
REMARK SMILES C[C@@H]1C[NH+](Cc2ccccc2/C=C/C(=O)NCCCNC(=O)c2ccc(-c3c4nc(c(-c5cccc(S(=O)(=O)[O-])c5F)c5ccc([nH]5)c(-c5cccc(S(=O)(=O)[O-])c5F)c5nc(c(-c6cccc(S(=O)(=O)[O-])c6F)c6ccc3[nH]6)C=C5)C=C4)cc2)C[C@H]1C
REMARK SMILES IDX 18 1 17 2 16 3 14 4 15 5 13 7 12 8 11 9 6 10 7 11 8 12 10 13
REMARK SMILES IDX 9 14 5 15 4 16 1 17 2 18 3 19 87 20 86 21 88 22 19 24 20 25
REMARK SMILES IDX 21 26 22 28 23 29 24 30 85 31 25 32 84 33 26 34 27 35 28 36
REMARK SMILES IDX 78 37 29 38 83 39 77 40 79 41 30 42 82 43 76 44 75 45 31 47
REMARK SMILES IDX 63 48 43 49 62 50 44 51 47 52 61 53 80 54 45 55 46 56 60 58
REMARK SMILES IDX 81 59 48 60 32 61 33 62 41 63 34 64 36 65 42 66 35 67 37 68
REMARK SMILES IDX 38 69 39 70 40 71 64 72 65 73 73 74 66 75 68 76 74 77 67 78
REMARK SMILES IDX 69 79 70 80 71 81 72 82 49 83 50 84 58 85 51 86 53 87 59 88
REMARK SMILES IDX 52 89 54 90 55 91 56 92 57 93
REMARK H PARENT 16 6 4 23 20 27 79 46 47 57
REMARK Flexibility Score: inf
ROOT
ATOM      1  C   UNL A   1      32.106  29.089  26.818  1.00  0.00     0.042 C 
ENDROOT
BRANCH   1   2
ATOM      2  C   UNL A   1      32.665  27.688  26.899  1.00  0.00     0.118 C 
BRANCH   2   3
ATOM      3  N   UNL A   1      31.684  26.636  27.016  1.00  0.00    -0.352 N 
ATOM      4  C   UNL A   1      31.850  25.302  26.773  1.00  0.00     0.244 C 
ATOM      5  O   UNL A   1      31.013  24.499  27.179  1.00  0.00    -0.270 OA
ATOM      6  H   UNL A   1      30.785  26.913  27.309  1.00  0.00     0.163 HD
BRANCH   4   7
ATOM      7  C   UNL A   1      33.088  24.790  26.127  1.00  0.00     0.072 C 
ATOM      8  C   UNL A   1      33.704  23.627  26.408  1.00  0.00     0.014 C 
BRANCH   8   9
ATOM      9  C   UNL A   1      34.928  23.184  25.709  1.00  0.00    -0.017 A 
ATOM     10  C   UNL A   1      34.959  22.188  24.699  1.00  0.00     0.013 A 
ATOM     11  C   UNL A   1      36.219  21.755  24.228  1.00  0.00     0.010 A 
ATOM     12  C   UNL A   1      37.409  22.313  24.694  1.00  0.00     0.001 A 
ATOM     13  C   UNL A   1      36.142  23.747  26.152  1.00  0.00     0.008 A 
ATOM     14  C   UNL A   1      37.369  23.323  25.643  1.00  0.00     0.001 A 
BRANCH  10  15
ATOM     15  C   UNL A   1      33.738  21.504  24.086  1.00  0.00     0.299 C 
BRANCH  15  16
ATOM     16  N   UNL A   1      33.007  22.207  23.019  1.00  0.00    -0.331 N 
ATOM     17  C   UNL A   1      32.727  25.535  21.412  1.00  0.00     0.014 C 
ATOM     18  C   UNL A   1      32.721  24.536  22.558  1.00  0.00     0.049 C 
ATOM     19  C   UNL A   1      33.638  23.326  22.328  1.00  0.00     0.266 C 
ATOM     20  C   UNL A   1      31.338  23.924  22.751  1.00  0.00     0.049 C 
ATOM     21  C   UNL A   1      31.665  22.597  23.397  1.00  0.00     0.266 C 
ATOM     22  C   UNL A   1      30.429  24.752  23.659  1.00  0.00     0.014 C 
ATOM     23  H   UNL A   1      33.004  21.455  22.330  1.00  0.00     0.348 HD
ENDBRANCH  15  16
ENDBRANCH  10  15
ENDBRANCH   8   9
ENDBRANCH   4   7
ENDBRANCH   2   3
ENDBRANCH   1   2
BRANCH   1  24
ATOM     24  C   UNL A   1      33.069  30.086  26.211  1.00  0.00     0.118 C 
BRANCH  24  25
ATOM     25  N   UNL A   1      32.930  31.434  26.754  1.00  0.00    -0.352 N 
ATOM     26  C   UNL A   1      33.741  32.128  27.623  1.00  0.00     0.251 C 
ATOM     27  H   UNL A   1      32.132  31.923  26.452  1.00  0.00     0.163 HD
ATOM     28  O   UNL A   1      33.379  33.232  28.029  1.00  0.00    -0.269 OA
BRANCH  26  29
ATOM     29  C   UNL A   1      35.017  31.545  28.094  1.00  0.00     0.039 A 
ATOM     30  C   UNL A   1      36.146  32.364  28.176  1.00  0.00     0.014 A 
ATOM     31  C   UNL A   1      35.106  30.207  28.480  1.00  0.00     0.014 A 
ATOM     32  C   UNL A   1      37.331  31.857  28.717  1.00  0.00     0.010 A 
ATOM     33  C   UNL A   1      36.236  29.748  29.145  1.00  0.00     0.010 A 
ATOM     34  C   UNL A   1      37.372  30.557  29.251  1.00  0.00    -0.014 A 
BRANCH  34  35
ATOM     35  C   UNL A   1      38.592  30.041  29.921  1.00  0.00     0.031 A 
ATOM     36  C   UNL A   1      38.964  30.509  31.306  1.00  0.00     0.074 A 
ATOM     37  C   UNL A   1      39.403  29.193  29.256  1.00  0.00     0.049 A 
ATOM     38  N   UNL A   1      39.966  30.133  32.058  1.00  0.00    -0.248 NA
ATOM     39  C   UNL A   1      38.125  31.554  31.916  1.00  0.00     0.031 C 
ATOM     40  C   UNL A   1      39.216  28.753  27.870  1.00  0.00     0.029 A 
ATOM     41  N   UNL A   1      40.550  28.552  29.651  1.00  0.00    -0.354 N 
ATOM     42  C   UNL A   1      39.898  30.918  33.204  1.00  0.00     0.074 A 
ATOM     43  C   UNL A   1      38.786  31.823  33.032  1.00  0.00     0.031 C 
ATOM     44  C   UNL A   1      40.186  27.884  27.547  1.00  0.00     0.029 A 
ATOM     45  C   UNL A   1      41.083  27.728  28.686  1.00  0.00     0.049 A 
ATOM     46  H   UNL A   1      40.955  28.672  30.541  1.00  0.00     0.167 HD
ATOM     47  C   UNL A   1      40.668  30.866  34.316  1.00  0.00     0.034 A 
ATOM     48  C   UNL A   1      42.165  26.928  28.722  1.00  0.00     0.034 A 
ATOM     49  C   UNL A   1      41.743  29.930  34.503  1.00  0.00     0.049 A 
ATOM     50  C   UNL A   1      42.961  26.842  29.995  1.00  0.00     0.074 A 
ATOM     51  C   UNL A   1      42.513  29.719  35.632  1.00  0.00     0.029 A 
ATOM     52  N   UNL A   1      42.207  29.057  33.532  1.00  0.00    -0.354 N 
ATOM     53  N   UNL A   1      42.764  27.454  31.137  1.00  0.00    -0.248 NA
ATOM     54  C   UNL A   1      44.106  25.921  29.996  1.00  0.00     0.031 C 
ATOM     55  C   UNL A   1      43.470  28.745  35.331  1.00  0.00     0.029 A 
ATOM     56  C   UNL A   1      43.268  28.319  34.028  1.00  0.00     0.049 A 
ATOM     57  H   UNL A   1      41.837  28.975  32.623  1.00  0.00     0.167 HD
ATOM     58  C   UNL A   1      43.738  26.970  32.002  1.00  0.00     0.074 A 
ATOM     59  C   UNL A   1      44.502  25.988  31.259  1.00  0.00     0.031 C 
ATOM     60  C   UNL A   1      43.993  27.318  33.288  1.00  0.00     0.034 A 
BRANCH  47  61
ATOM     61  C   UNL A   1      40.345  31.817  35.441  1.00  0.00     0.023 A 
ATOM     62  C   UNL A   1      41.152  32.954  35.652  1.00  0.00     0.012 A 
ATOM     63  C   UNL A   1      39.207  31.620  36.249  1.00  0.00     0.148 A 
ATOM     64  C   UNL A   1      40.853  33.860  36.670  1.00  0.00     0.002 A 
ATOM     65  C   UNL A   1      38.887  32.553  37.227  1.00  0.00     0.091 A 
ATOM     66  F   UNL A   1      38.464  30.522  36.049  1.00  0.00    -0.205 F 
ATOM     67  C   UNL A   1      39.716  33.666  37.448  1.00  0.00     0.022 A 
BRANCH  65  68
ATOM     68  S   UNL A   1      37.399  32.441  38.227  1.00  0.00     0.127 S 
ATOM     69  O   UNL A   1      37.269  30.995  38.401  1.00  0.00    -0.237 OA
ATOM     70  O   UNL A   1      37.788  33.168  39.436  1.00  0.00    -0.237 OA
ATOM     71  O   UNL A   1      36.343  33.073  37.450  1.00  0.00    -0.744 OA
ENDBRANCH  65  68
ENDBRANCH  47  61
BRANCH  48  72
ATOM     72  C   UNL A   1      42.514  26.082  27.544  1.00  0.00     0.023 A 
ATOM     73  C   UNL A   1      43.302  26.625  26.510  1.00  0.00     0.012 A 
ATOM     74  C   UNL A   1      42.081  24.746  27.445  1.00  0.00     0.148 A 
ATOM     75  C   UNL A   1      43.617  25.868  25.381  1.00  0.00     0.002 A 
ATOM     76  C   UNL A   1      42.447  23.978  26.347  1.00  0.00     0.091 A 
ATOM     77  F   UNL A   1      41.323  24.250  28.434  1.00  0.00    -0.205 F 
ATOM     78  C   UNL A   1      43.198  24.543  25.303  1.00  0.00     0.022 A 
BRANCH  76  79
ATOM     79  S   UNL A   1      42.066  22.228  26.225  1.00  0.00     0.127 S 
ATOM     80  O   UNL A   1      42.766  21.852  25.001  1.00  0.00    -0.237 OA
ATOM     81  O   UNL A   1      42.653  21.704  27.459  1.00  0.00    -0.237 OA
ATOM     82  O   UNL A   1      40.612  22.147  26.173  1.00  0.00    -0.744 OA
ENDBRANCH  76  79
ENDBRANCH  48  72
BRANCH  60  83
ATOM     83  C   UNL A   1      45.127  26.611  33.983  1.00  0.00     0.023 A 
ATOM     84  C   UNL A   1      46.450  27.067  33.814  1.00  0.00     0.012 A 
ATOM     85  C   UNL A   1      44.878  25.514  34.830  1.00  0.00     0.148 A 
ATOM     86  C   UNL A   1      47.511  26.411  34.435  1.00  0.00     0.002 A 
ATOM     87  C   UNL A   1      45.935  24.900  35.491  1.00  0.00     0.091 A 
ATOM     88  F   UNL A   1      43.615  25.082  34.967  1.00  0.00    -0.205 F 
ATOM     89  C   UNL A   1      47.253  25.335  35.280  1.00  0.00     0.022 A 
BRANCH  87  90
ATOM     90  S   UNL A   1      45.685  23.574  36.677  1.00  0.00     0.127 S 
ATOM     91  O   UNL A   1      45.114  22.525  35.834  1.00  0.00    -0.237 OA
ATOM     92  O   UNL A   1      47.047  23.309  37.140  1.00  0.00    -0.237 OA
ATOM     93  O   UNL A   1      44.796  24.112  37.697  1.00  0.00    -0.744 OA
ENDBRANCH  87  90
ENDBRANCH  60  83
ENDBRANCH  34  35
ENDBRANCH  26  29
ENDBRANCH  24  25
ENDBRANCH   1  24
TORSDOF 16
ENDMDL
