MODEL 1
REMARK VINA RESULT:     -12.4      0.000      0.000
REMARK SMILES O=C(Cc1ccccc1Nc1c(F)cccc1C(F)(F)F)NCCCNC(=O)c1ccc(-c2c3nc(c(-c4cccc(S(=O)(=O)[O-])c4F)c4ccc([nH]4)c(-c4cccc(S(=O)(=O)[O-])c4F)c4nc(c(-c5cccc(S(=O)(=O)[O-])c5F)c5ccc2[nH]5)C=C4)C=C3)cc1
REMARK SMILES IDX 23 1 22 2 1 3 2 4 3 6 4 7 5 8 9 9 6 10 8 11 7 12 10 13 11 15
REMARK SMILES IDX 12 16 17 17 13 18 14 19 16 20 15 21 18 22 19 23 20 24 21 25
REMARK SMILES IDX 24 26 25 27 26 28 27 29 28 31 29 32 30 33 91 34 31 35 90 36
REMARK SMILES IDX 32 37 33 38 34 39 84 40 35 41 89 42 83 43 85 44 36 45 88 46
REMARK SMILES IDX 82 47 81 48 37 50 69 51 49 52 68 53 50 54 53 55 67 56 86 57
REMARK SMILES IDX 51 58 52 59 66 61 87 62 54 63 38 64 39 65 47 66 40 67 42 68
REMARK SMILES IDX 48 69 41 70 43 71 44 72 45 73 46 74 70 75 71 76 79 77 72 78
REMARK SMILES IDX 74 79 80 80 73 81 75 82 76 83 77 84 78 85 55 86 56 87 64 88
REMARK SMILES IDX 57 89 59 90 65 91 58 92 60 93 61 94 62 95 63 96
REMARK H PARENT 22 5 10 14 26 30 85 49 53 60
REMARK Flexibility Score: inf
ROOT
ATOM      1  C   UNL A   1      32.025  30.537  26.676  1.00  0.00     0.117 C 
ENDROOT
BRANCH   1   2
ATOM      2  N   UNL A   1      31.707  30.093  25.334  1.00  0.00    -0.356 N 
ATOM      3  O   UNL A   1      33.631  28.891  24.919  1.00  0.00    -0.275 OA
ATOM      4  C   UNL A   1      32.528  29.294  24.563  1.00  0.00     0.224 C 
ATOM      5  H   UNL A   1      30.848  30.379  24.947  1.00  0.00     0.163 HD
BRANCH   4   6
ATOM      6  C   UNL A   1      31.936  28.941  23.203  1.00  0.00     0.137 C 
BRANCH   6   7
ATOM      7  C   UNL A   1      30.701  28.076  23.348  1.00  0.00    -0.015 A 
ATOM      8  C   UNL A   1      29.455  28.634  22.993  1.00  0.00     0.006 A 
ATOM      9  C   UNL A   1      30.748  26.775  23.891  1.00  0.00     0.042 A 
ATOM     10  C   UNL A   1      28.268  27.948  23.226  1.00  0.00     0.000 A 
ATOM     11  C   UNL A   1      29.534  26.108  24.125  1.00  0.00     0.026 A 
ATOM     12  C   UNL A   1      28.307  26.689  23.806  1.00  0.00     0.002 A 
BRANCH   9  13
ATOM     13  N   UNL A   1      31.983  26.135  24.134  1.00  0.00    -0.352 N 
ATOM     14  H   UNL A   1      32.605  26.638  24.707  1.00  0.00     0.167 HD
BRANCH  13  15
ATOM     15  C   UNL A   1      32.468  24.887  23.684  1.00  0.00     0.087 A 
ATOM     16  C   UNL A   1      32.660  23.883  24.655  1.00  0.00     0.147 A 
ATOM     17  C   UNL A   1      32.682  24.542  22.334  1.00  0.00     0.082 A 
ATOM     18  F   UNL A   1      32.496  24.187  25.952  1.00  0.00    -0.205 F 
ATOM     19  C   UNL A   1      32.992  22.572  24.325  1.00  0.00     0.041 A 
ATOM     20  C   UNL A   1      32.992  23.198  22.009  1.00  0.00     0.015 A 
ATOM     21  C   UNL A   1      33.139  22.220  22.992  1.00  0.00     0.004 A 
BRANCH  17  22
ATOM     22  C   UNL A   1      32.641  25.523  21.185  1.00  0.00     0.418 C 
ATOM     23  F   UNL A   1      33.492  26.577  21.399  1.00  0.00    -0.166 F 
ATOM     24  F   UNL A   1      33.071  24.972  20.014  1.00  0.00    -0.166 F 
ATOM     25  F   UNL A   1      31.439  26.103  20.932  1.00  0.00    -0.166 F 
ENDBRANCH  17  22
ENDBRANCH  13  15
ENDBRANCH   9  13
ENDBRANCH   6   7
ENDBRANCH   4   6
ENDBRANCH   1   2
BRANCH   1  26
ATOM     26  C   UNL A   1      31.733  32.022  26.877  1.00  0.00     0.042 C 
BRANCH  26  27
ATOM     27  C   UNL A   1      32.911  32.860  27.372  1.00  0.00     0.118 C 
BRANCH  27  28
ATOM     28  N   UNL A   1      32.544  34.210  27.775  1.00  0.00    -0.352 N 
ATOM     29  C   UNL A   1      33.076  35.003  28.766  1.00  0.00     0.251 C 
ATOM     30  H   UNL A   1      31.807  34.615  27.265  1.00  0.00     0.163 HD
ATOM     31  O   UNL A   1      32.548  36.084  29.025  1.00  0.00    -0.269 OA
BRANCH  29  32
ATOM     32  C   UNL A   1      34.255  34.556  29.543  1.00  0.00     0.039 A 
ATOM     33  C   UNL A   1      34.053  33.970  30.796  1.00  0.00     0.014 A 
ATOM     34  C   UNL A   1      35.553  34.707  29.049  1.00  0.00     0.014 A 
ATOM     35  C   UNL A   1      35.142  33.466  31.515  1.00  0.00     0.010 A 
ATOM     36  C   UNL A   1      36.629  34.138  29.733  1.00  0.00     0.010 A 
ATOM     37  C   UNL A   1      36.435  33.506  30.971  1.00  0.00    -0.014 A 
BRANCH  37  38
ATOM     38  C   UNL A   1      37.584  32.857  31.660  1.00  0.00     0.031 A 
ATOM     39  C   UNL A   1      38.290  31.680  31.039  1.00  0.00     0.074 A 
ATOM     40  C   UNL A   1      37.939  33.272  32.893  1.00  0.00     0.049 A 
ATOM     41  N   UNL A   1      39.264  30.953  31.524  1.00  0.00    -0.248 NA
ATOM     42  C   UNL A   1      37.823  31.246  29.713  1.00  0.00     0.031 C 
ATOM     43  C   UNL A   1      37.290  34.352  33.642  1.00  0.00     0.029 A 
ATOM     44  N   UNL A   1      38.912  32.817  33.751  1.00  0.00    -0.354 N 
ATOM     45  C   UNL A   1      39.504  29.959  30.583  1.00  0.00     0.074 A 
ATOM     46  C   UNL A   1      38.553  30.158  29.511  1.00  0.00     0.031 C 
ATOM     47  C   UNL A   1      37.883  34.477  34.839  1.00  0.00     0.029 A 
ATOM     48  C   UNL A   1      38.927  33.466  34.965  1.00  0.00     0.049 A 
ATOM     49  H   UNL A   1      39.539  32.094  33.519  1.00  0.00     0.167 HD
ATOM     50  C   UNL A   1      40.446  28.984  30.595  1.00  0.00     0.034 A 
ATOM     51  C   UNL A   1      39.683  33.262  36.061  1.00  0.00     0.034 A 
ATOM     52  C   UNL A   1      41.413  28.808  31.646  1.00  0.00     0.049 A 
ATOM     53  C   UNL A   1      40.737  32.188  36.039  1.00  0.00     0.074 A 
ATOM     54  C   UNL A   1      42.460  27.904  31.707  1.00  0.00     0.029 A 
ATOM     55  N   UNL A   1      41.446  29.535  32.826  1.00  0.00    -0.354 N 
ATOM     56  N   UNL A   1      41.049  31.359  35.074  1.00  0.00    -0.248 NA
ATOM     57  C   UNL A   1      41.567  32.047  37.245  1.00  0.00     0.031 C 
ATOM     58  C   UNL A   1      43.104  28.061  32.939  1.00  0.00     0.029 A 
ATOM     59  C   UNL A   1      42.485  29.092  33.627  1.00  0.00     0.049 A 
ATOM     60  H   UNL A   1      40.823  30.261  33.059  1.00  0.00     0.167 HD
ATOM     61  C   UNL A   1      42.135  30.626  35.538  1.00  0.00     0.074 A 
ATOM     62  C   UNL A   1      42.438  31.122  36.865  1.00  0.00     0.031 C 
ATOM     63  C   UNL A   1      42.814  29.625  34.924  1.00  0.00     0.034 A 
BRANCH  50  64
ATOM     64  C   UNL A   1      40.507  28.052  29.412  1.00  0.00     0.023 A 
ATOM     65  C   UNL A   1      39.606  26.970  29.327  1.00  0.00     0.012 A 
ATOM     66  C   UNL A   1      41.408  28.284  28.354  1.00  0.00     0.148 A 
ATOM     67  C   UNL A   1      39.626  26.114  28.226  1.00  0.00     0.002 A 
ATOM     68  C   UNL A   1      41.389  27.454  27.238  1.00  0.00     0.091 A 
ATOM     69  F   UNL A   1      42.269  29.306  28.457  1.00  0.00    -0.205 F 
ATOM     70  C   UNL A   1      40.508  26.361  27.179  1.00  0.00     0.022 A 
BRANCH  68  71
ATOM     71  S   UNL A   1      42.426  27.737  25.799  1.00  0.00     0.127 S 
ATOM     72  O   UNL A   1      43.761  27.513  26.351  1.00  0.00    -0.237 OA
ATOM     73  O   UNL A   1      41.965  26.698  24.878  1.00  0.00    -0.237 OA
ATOM     74  O   UNL A   1      42.151  29.100  25.366  1.00  0.00    -0.744 OA
ENDBRANCH  68  71
ENDBRANCH  50  64
BRANCH  51  75
ATOM     75  C   UNL A   1      39.507  34.131  37.261  1.00  0.00     0.023 A 
ATOM     76  C   UNL A   1      39.909  35.479  37.207  1.00  0.00     0.012 A 
ATOM     77  C   UNL A   1      38.926  33.634  38.443  1.00  0.00     0.148 A 
ATOM     78  C   UNL A   1      39.771  36.308  38.321  1.00  0.00     0.002 A 
ATOM     79  C   UNL A   1      38.738  34.480  39.530  1.00  0.00     0.091 A 
ATOM     80  F   UNL A   1      38.559  32.346  38.477  1.00  0.00    -0.205 F 
ATOM     81  C   UNL A   1      39.178  35.812  39.479  1.00  0.00     0.022 A 
BRANCH  79  82
ATOM     82  S   UNL A   1      37.866  33.966  41.013  1.00  0.00     0.127 S 
ATOM     83  O   UNL A   1      37.706  35.234  41.721  1.00  0.00    -0.237 OA
ATOM     84  O   UNL A   1      36.632  33.410  40.457  1.00  0.00    -0.237 OA
ATOM     85  O   UNL A   1      38.729  32.986  41.658  1.00  0.00    -0.744 OA
ENDBRANCH  79  82
ENDBRANCH  51  75
BRANCH  63  86
ATOM     86  C   UNL A   1      43.989  29.024  35.651  1.00  0.00     0.023 A 
ATOM     87  C   UNL A   1      45.259  29.628  35.567  1.00  0.00     0.012 A 
ATOM     88  C   UNL A   1      43.813  27.897  36.480  1.00  0.00     0.148 A 
ATOM     89  C   UNL A   1      46.343  29.098  36.267  1.00  0.00     0.002 A 
ATOM     90  C   UNL A   1      44.886  27.407  37.215  1.00  0.00     0.091 A 
ATOM     91  F   UNL A   1      42.601  27.325  36.533  1.00  0.00    -0.205 F 
ATOM     92  C   UNL A   1      46.154  27.997  37.099  1.00  0.00     0.022 A 
BRANCH  90  93
ATOM     93  S   UNL A   1      44.715  26.057  38.388  1.00  0.00     0.127 S 
ATOM     94  O   UNL A   1      46.098  25.600  38.519  1.00  0.00    -0.237 OA
ATOM     95  O   UNL A   1      44.182  26.739  39.568  1.00  0.00    -0.237 OA
ATOM     96  O   UNL A   1      43.799  25.104  37.775  1.00  0.00    -0.744 OA
ENDBRANCH  90  93
ENDBRANCH  63  86
ENDBRANCH  37  38
ENDBRANCH  29  32
ENDBRANCH  27  28
ENDBRANCH  26  27
ENDBRANCH   1  26
TORSDOF 17
ENDMDL
MODEL 2
REMARK VINA RESULT:     -12.3      0.561      1.721
REMARK SMILES O=C(Cc1ccccc1Nc1c(F)cccc1C(F)(F)F)NCCCNC(=O)c1ccc(-c2c3nc(c(-c4cccc(S(=O)(=O)[O-])c4F)c4ccc([nH]4)c(-c4cccc(S(=O)(=O)[O-])c4F)c4nc(c(-c5cccc(S(=O)(=O)[O-])c5F)c5ccc2[nH]5)C=C4)C=C3)cc1
REMARK SMILES IDX 23 1 22 2 1 3 2 4 3 6 4 7 5 8 9 9 6 10 8 11 7 12 10 13 11 15
REMARK SMILES IDX 12 16 17 17 13 18 14 19 16 20 15 21 18 22 19 23 20 24 21 25
REMARK SMILES IDX 24 26 25 27 26 28 27 29 28 31 29 32 30 33 91 34 31 35 90 36
REMARK SMILES IDX 32 37 33 38 34 39 84 40 35 41 89 42 83 43 85 44 36 45 88 46
REMARK SMILES IDX 82 47 81 48 37 50 69 51 49 52 68 53 50 54 53 55 67 56 86 57
REMARK SMILES IDX 51 58 52 59 66 61 87 62 54 63 38 64 39 65 47 66 40 67 42 68
REMARK SMILES IDX 48 69 41 70 43 71 44 72 45 73 46 74 70 75 71 76 79 77 72 78
REMARK SMILES IDX 74 79 80 80 73 81 75 82 76 83 77 84 78 85 55 86 56 87 64 88
REMARK SMILES IDX 57 89 59 90 65 91 58 92 60 93 61 94 62 95 63 96
REMARK H PARENT 22 5 10 14 26 30 85 49 53 60
REMARK Flexibility Score: inf
ROOT
ATOM      1  C   UNL A   1      31.980  30.468  26.661  1.00  0.00     0.117 C 
ENDROOT
BRANCH   1   2
ATOM      2  N   UNL A   1      31.664  30.002  25.326  1.00  0.00    -0.356 N 
ATOM      3  O   UNL A   1      33.511  28.662  24.996  1.00  0.00    -0.275 OA
ATOM      4  C   UNL A   1      32.447  29.126  24.601  1.00  0.00     0.224 C 
ATOM      5  H   UNL A   1      30.836  30.333  24.909  1.00  0.00     0.163 HD
BRANCH   4   6
ATOM      6  C   UNL A   1      31.863  28.769  23.238  1.00  0.00     0.137 C 
BRANCH   6   7
ATOM      7  C   UNL A   1      30.576  27.982  23.379  1.00  0.00    -0.015 A 
ATOM      8  C   UNL A   1      29.371  28.610  23.001  1.00  0.00     0.006 A 
ATOM      9  C   UNL A   1      30.539  26.688  23.938  1.00  0.00     0.042 A 
ATOM     10  C   UNL A   1      28.141  28.000  23.229  1.00  0.00     0.000 A 
ATOM     11  C   UNL A   1      29.284  26.098  24.165  1.00  0.00     0.026 A 
ATOM     12  C   UNL A   1      28.097  26.749  23.825  1.00  0.00     0.002 A 
BRANCH   9  13
ATOM     13  N   UNL A   1      31.729  25.977  24.204  1.00  0.00    -0.352 N 
ATOM     14  H   UNL A   1      32.457  26.517  24.588  1.00  0.00     0.167 HD
BRANCH  13  15
ATOM     15  C   UNL A   1      32.043  24.615  24.004  1.00  0.00     0.087 A 
ATOM     16  C   UNL A   1      32.526  24.247  22.731  1.00  0.00     0.147 A 
ATOM     17  C   UNL A   1      32.000  23.620  25.001  1.00  0.00     0.082 A 
ATOM     18  F   UNL A   1      32.549  25.162  21.750  1.00  0.00    -0.205 F 
ATOM     19  C   UNL A   1      33.006  22.970  22.450  1.00  0.00     0.041 A 
ATOM     20  C   UNL A   1      32.518  22.333  24.711  1.00  0.00     0.015 A 
ATOM     21  C   UNL A   1      33.022  22.012  23.451  1.00  0.00     0.004 A 
BRANCH  17  22
ATOM     22  C   UNL A   1      31.399  23.813  26.374  1.00  0.00     0.418 C 
ATOM     23  F   UNL A   1      31.775  22.807  27.228  1.00  0.00    -0.166 F 
ATOM     24  F   UNL A   1      31.838  24.953  26.980  1.00  0.00    -0.166 F 
ATOM     25  F   UNL A   1      30.043  23.825  26.440  1.00  0.00    -0.166 F 
ENDBRANCH  17  22
ENDBRANCH  13  15
ENDBRANCH   9  13
ENDBRANCH   6   7
ENDBRANCH   4   6
ENDBRANCH   1   2
BRANCH   1  26
ATOM     26  C   UNL A   1      31.677  31.953  26.841  1.00  0.00     0.042 C 
BRANCH  26  27
ATOM     27  C   UNL A   1      32.864  32.816  27.268  1.00  0.00     0.118 C 
BRANCH  27  28
ATOM     28  N   UNL A   1      32.491  34.155  27.704  1.00  0.00    -0.352 N 
ATOM     29  C   UNL A   1      33.027  34.931  28.706  1.00  0.00     0.251 C 
ATOM     30  H   UNL A   1      31.745  34.565  27.209  1.00  0.00     0.163 HD
ATOM     31  O   UNL A   1      32.493  36.002  28.992  1.00  0.00    -0.269 OA
BRANCH  29  32
ATOM     32  C   UNL A   1      34.217  34.477  29.461  1.00  0.00     0.039 A 
ATOM     33  C   UNL A   1      34.033  33.885  30.714  1.00  0.00     0.014 A 
ATOM     34  C   UNL A   1      35.507  34.628  28.947  1.00  0.00     0.014 A 
ATOM     35  C   UNL A   1      35.132  33.375  31.413  1.00  0.00     0.010 A 
ATOM     36  C   UNL A   1      36.592  34.052  29.610  1.00  0.00     0.010 A 
ATOM     37  C   UNL A   1      36.417  33.414  30.848  1.00  0.00    -0.014 A 
BRANCH  37  38
ATOM     38  C   UNL A   1      37.575  32.759  31.515  1.00  0.00     0.031 A 
ATOM     39  C   UNL A   1      38.285  31.601  30.864  1.00  0.00     0.074 A 
ATOM     40  C   UNL A   1      37.935  33.149  32.755  1.00  0.00     0.049 A 
ATOM     41  N   UNL A   1      39.268  30.871  31.326  1.00  0.00    -0.248 NA
ATOM     42  C   UNL A   1      37.813  31.193  29.531  1.00  0.00     0.031 C 
ATOM     43  C   UNL A   1      37.283  34.206  33.532  1.00  0.00     0.029 A 
ATOM     44  N   UNL A   1      38.917  32.682  33.596  1.00  0.00    -0.354 N 
ATOM     45  C   UNL A   1      39.509  29.900  30.362  1.00  0.00     0.074 A 
ATOM     46  C   UNL A   1      38.550  30.115  29.300  1.00  0.00     0.031 C 
ATOM     47  C   UNL A   1      37.883  34.310  34.728  1.00  0.00     0.029 A 
ATOM     48  C   UNL A   1      38.935  33.304  34.824  1.00  0.00     0.049 A 
ATOM     49  H   UNL A   1      39.547  31.969  33.344  1.00  0.00     0.167 HD
ATOM     50  C   UNL A   1      40.459  28.932  30.346  1.00  0.00     0.034 A 
ATOM     51  C   UNL A   1      39.700  33.082  35.911  1.00  0.00     0.034 A 
ATOM     52  C   UNL A   1      41.434  28.740  31.386  1.00  0.00     0.049 A 
ATOM     53  C   UNL A   1      40.762  32.016  35.858  1.00  0.00     0.074 A 
ATOM     54  C   UNL A   1      42.488  27.843  31.421  1.00  0.00     0.029 A 
ATOM     55  N   UNL A   1      41.469  29.441  32.582  1.00  0.00    -0.354 N 
ATOM     56  N   UNL A   1      41.074  31.211  34.873  1.00  0.00    -0.248 NA
ATOM     57  C   UNL A   1      41.601  31.854  37.055  1.00  0.00     0.031 C 
ATOM     58  C   UNL A   1      43.139  27.977  32.651  1.00  0.00     0.029 A 
ATOM     59  C   UNL A   1      42.517  28.988  33.366  1.00  0.00     0.049 A 
ATOM     60  H   UNL A   1      40.842  30.157  32.835  1.00  0.00     0.167 HD
ATOM     61  C   UNL A   1      42.168  30.476  35.313  1.00  0.00     0.074 A 
ATOM     62  C   UNL A   1      42.476  30.944  36.649  1.00  0.00     0.031 C 
ATOM     63  C   UNL A   1      42.850  29.494  34.673  1.00  0.00     0.034 A 
BRANCH  50  64
ATOM     64  C   UNL A   1      40.519  28.027  29.142  1.00  0.00     0.023 A 
ATOM     65  C   UNL A   1      39.598  26.966  29.017  1.00  0.00     0.012 A 
ATOM     66  C   UNL A   1      41.441  28.265  28.103  1.00  0.00     0.148 A 
ATOM     67  C   UNL A   1      39.616  26.136  27.897  1.00  0.00     0.002 A 
ATOM     68  C   UNL A   1      41.422  27.462  26.967  1.00  0.00     0.091 A 
ATOM     69  F   UNL A   1      42.321  29.266  28.244  1.00  0.00    -0.205 F 
ATOM     70  C   UNL A   1      40.520  26.390  26.870  1.00  0.00     0.022 A 
BRANCH  68  71
ATOM     71  S   UNL A   1      42.487  27.757  25.552  1.00  0.00     0.127 S 
ATOM     72  O   UNL A   1      41.954  29.019  25.041  1.00  0.00    -0.237 OA
ATOM     73  O   UNL A   1      43.806  27.860  26.175  1.00  0.00    -0.237 OA
ATOM     74  O   UNL A   1      42.317  26.607  24.674  1.00  0.00    -0.744 OA
ENDBRANCH  68  71
ENDBRANCH  50  64
BRANCH  51  75
ATOM     75  C   UNL A   1      39.525  33.922  37.130  1.00  0.00     0.023 A 
ATOM     76  C   UNL A   1      40.037  35.234  37.149  1.00  0.00     0.012 A 
ATOM     77  C   UNL A   1      38.839  33.436  38.260  1.00  0.00     0.148 A 
ATOM     78  C   UNL A   1      39.902  36.034  38.284  1.00  0.00     0.002 A 
ATOM     79  C   UNL A   1      38.657  34.259  39.366  1.00  0.00     0.091 A 
ATOM     80  F   UNL A   1      38.367  32.182  38.225  1.00  0.00    -0.205 F 
ATOM     81  C   UNL A   1      39.205  35.551  39.388  1.00  0.00     0.022 A 
BRANCH  79  82
ATOM     82  S   UNL A   1      37.661  33.770  40.778  1.00  0.00     0.127 S 
ATOM     83  O   UNL A   1      36.493  33.178  40.129  1.00  0.00    -0.237 OA
ATOM     84  O   UNL A   1      38.543  32.815  41.450  1.00  0.00    -0.237 OA
ATOM     85  O   UNL A   1      37.414  34.993  41.529  1.00  0.00    -0.744 OA
ENDBRANCH  79  82
ENDBRANCH  51  75
BRANCH  63  86
ATOM     86  C   UNL A   1      44.034  28.886  35.379  1.00  0.00     0.023 A 
ATOM     87  C   UNL A   1      45.325  29.418  35.186  1.00  0.00     0.012 A 
ATOM     88  C   UNL A   1      43.852  27.829  36.294  1.00  0.00     0.148 A 
ATOM     89  C   UNL A   1      46.420  28.884  35.864  1.00  0.00     0.002 A 
ATOM     90  C   UNL A   1      44.940  27.338  37.005  1.00  0.00     0.091 A 
ATOM     91  F   UNL A   1      42.620  27.324  36.451  1.00  0.00    -0.205 F 
ATOM     92  C   UNL A   1      46.226  27.854  36.782  1.00  0.00     0.022 A 
BRANCH  90  93
ATOM     93  S   UNL A   1      44.771  26.082  38.280  1.00  0.00     0.127 S 
ATOM     94  O   UNL A   1      44.503  24.885  37.483  1.00  0.00    -0.237 OA
ATOM     95  O   UNL A   1      46.088  26.110  38.916  1.00  0.00    -0.237 OA
ATOM     96  O   UNL A   1      43.676  26.520  39.135  1.00  0.00    -0.744 OA
ENDBRANCH  90  93
ENDBRANCH  63  86
ENDBRANCH  37  38
ENDBRANCH  29  32
ENDBRANCH  27  28
ENDBRANCH  26  27
ENDBRANCH   1  26
TORSDOF 17
ENDMDL
MODEL 3
REMARK VINA RESULT:     -12.2      2.737      8.347
REMARK SMILES O=C(Cc1ccccc1Nc1c(F)cccc1C(F)(F)F)NCCCNC(=O)c1ccc(-c2c3nc(c(-c4cccc(S(=O)(=O)[O-])c4F)c4ccc([nH]4)c(-c4cccc(S(=O)(=O)[O-])c4F)c4nc(c(-c5cccc(S(=O)(=O)[O-])c5F)c5ccc2[nH]5)C=C4)C=C3)cc1
REMARK SMILES IDX 23 1 22 2 1 3 2 4 3 6 4 7 5 8 9 9 6 10 8 11 7 12 10 13 11 15
REMARK SMILES IDX 12 16 17 17 13 18 14 19 16 20 15 21 18 22 19 23 20 24 21 25
REMARK SMILES IDX 24 26 25 27 26 28 27 29 28 31 29 32 30 33 91 34 31 35 90 36
REMARK SMILES IDX 32 37 33 38 34 39 84 40 35 41 89 42 83 43 85 44 36 45 88 46
REMARK SMILES IDX 82 47 81 48 37 50 69 51 49 52 68 53 50 54 53 55 67 56 86 57
REMARK SMILES IDX 51 58 52 59 66 61 87 62 54 63 38 64 39 65 47 66 40 67 42 68
REMARK SMILES IDX 48 69 41 70 43 71 44 72 45 73 46 74 70 75 71 76 79 77 72 78
REMARK SMILES IDX 74 79 80 80 73 81 75 82 76 83 77 84 78 85 55 86 56 87 64 88
REMARK SMILES IDX 57 89 59 90 65 91 58 92 60 93 61 94 62 95 63 96
REMARK H PARENT 22 5 10 14 26 30 85 49 53 60
REMARK Flexibility Score: inf
ROOT
ATOM      1  C   UNL A   1      32.123  27.623  27.170  1.00  0.00     0.117 C 
ENDROOT
BRANCH   1   2
ATOM      2  N   UNL A   1      31.567  26.800  26.115  1.00  0.00    -0.356 N 
ATOM      3  O   UNL A   1      31.515  24.794  27.252  1.00  0.00    -0.275 OA
ATOM      4  C   UNL A   1      31.294  25.452  26.241  1.00  0.00     0.224 C 
ATOM      5  H   UNL A   1      31.370  27.230  25.252  1.00  0.00     0.163 HD
BRANCH   4   6
ATOM      6  C   UNL A   1      30.676  24.834  24.991  1.00  0.00     0.137 C 
BRANCH   6   7
ATOM      7  C   UNL A   1      31.538  25.082  23.770  1.00  0.00    -0.015 A 
ATOM      8  C   UNL A   1      31.002  25.866  22.728  1.00  0.00     0.006 A 
ATOM      9  C   UNL A   1      32.813  24.497  23.614  1.00  0.00     0.042 A 
ATOM     10  C   UNL A   1      31.681  26.023  21.524  1.00  0.00     0.000 A 
ATOM     11  C   UNL A   1      33.473  24.664  22.385  1.00  0.00     0.026 A 
ATOM     12  C   UNL A   1      32.912  25.409  21.347  1.00  0.00     0.002 A 
BRANCH   9  13
ATOM     13  N   UNL A   1      33.436  23.818  24.683  1.00  0.00    -0.352 N 
ATOM     14  H   UNL A   1      33.261  24.199  25.573  1.00  0.00     0.167 HD
BRANCH  13  15
ATOM     15  C   UNL A   1      34.273  22.680  24.677  1.00  0.00     0.087 A 
ATOM     16  C   UNL A   1      35.648  22.893  24.905  1.00  0.00     0.147 A 
ATOM     17  C   UNL A   1      33.827  21.349  24.555  1.00  0.00     0.082 A 
ATOM     18  F   UNL A   1      36.110  24.150  24.993  1.00  0.00    -0.205 F 
ATOM     19  C   UNL A   1      36.553  21.848  25.069  1.00  0.00     0.041 A 
ATOM     20  C   UNL A   1      34.753  20.294  24.752  1.00  0.00     0.015 A 
ATOM     21  C   UNL A   1      36.100  20.539  25.013  1.00  0.00     0.004 A 
BRANCH  17  22
ATOM     22  C   UNL A   1      32.416  20.951  24.189  1.00  0.00     0.418 C 
ATOM     23  F   UNL A   1      31.507  21.460  25.081  1.00  0.00    -0.166 F 
ATOM     24  F   UNL A   1      32.028  21.458  22.983  1.00  0.00    -0.166 F 
ATOM     25  F   UNL A   1      32.156  19.619  24.161  1.00  0.00    -0.166 F 
ENDBRANCH  17  22
ENDBRANCH  13  15
ENDBRANCH   9  13
ENDBRANCH   6   7
ENDBRANCH   4   6
ENDBRANCH   1   2
BRANCH   1  26
ATOM     26  C   UNL A   1      31.752  29.094  27.010  1.00  0.00     0.042 C 
BRANCH  26  27
ATOM     27  C   UNL A   1      32.822  29.973  26.362  1.00  0.00     0.118 C 
BRANCH  27  28
ATOM     28  N   UNL A   1      32.765  31.368  26.775  1.00  0.00    -0.352 N 
ATOM     29  C   UNL A   1      33.626  32.079  27.579  1.00  0.00     0.251 C 
ATOM     30  H   UNL A   1      31.999  31.879  26.427  1.00  0.00     0.163 HD
ATOM     31  O   UNL A   1      33.341  33.233  27.900  1.00  0.00    -0.269 OA
BRANCH  29  32
ATOM     32  C   UNL A   1      34.873  31.462  28.087  1.00  0.00     0.039 A 
ATOM     33  C   UNL A   1      36.017  32.256  28.206  1.00  0.00     0.014 A 
ATOM     34  C   UNL A   1      34.924  30.113  28.446  1.00  0.00     0.014 A 
ATOM     35  C   UNL A   1      37.185  31.719  28.758  1.00  0.00     0.010 A 
ATOM     36  C   UNL A   1      36.065  29.600  29.064  1.00  0.00     0.010 A 
ATOM     37  C   UNL A   1      37.208  30.398  29.233  1.00  0.00    -0.014 A 
BRANCH  37  38
ATOM     38  C   UNL A   1      38.396  29.851  29.942  1.00  0.00     0.031 A 
ATOM     39  C   UNL A   1      38.786  30.366  31.303  1.00  0.00     0.074 A 
ATOM     40  C   UNL A   1      39.184  28.950  29.320  1.00  0.00     0.049 A 
ATOM     41  N   UNL A   1      39.822  30.052  32.038  1.00  0.00    -0.248 NA
ATOM     42  C   UNL A   1      37.911  31.385  31.906  1.00  0.00     0.031 C 
ATOM     43  C   UNL A   1      38.965  28.423  27.971  1.00  0.00     0.029 A 
ATOM     44  N   UNL A   1      40.346  28.338  29.726  1.00  0.00    -0.354 N 
ATOM     45  C   UNL A   1      39.745  30.855  33.170  1.00  0.00     0.074 A 
ATOM     46  C   UNL A   1      38.575  31.692  33.012  1.00  0.00     0.031 C 
ATOM     47  C   UNL A   1      39.953  27.569  27.664  1.00  0.00     0.029 A 
ATOM     48  C   UNL A   1      40.899  27.512  28.774  1.00  0.00     0.049 A 
ATOM     49  H   UNL A   1      40.746  28.478  30.616  1.00  0.00     0.167 HD
ATOM     50  C   UNL A   1      40.557  30.878  34.255  1.00  0.00     0.034 A 
ATOM     51  C   UNL A   1      42.043  26.801  28.783  1.00  0.00     0.034 A 
ATOM     52  C   UNL A   1      41.701  30.022  34.426  1.00  0.00     0.049 A 
ATOM     53  C   UNL A   1      42.915  26.827  30.010  1.00  0.00     0.074 A 
ATOM     54  C   UNL A   1      42.534  29.911  35.527  1.00  0.00     0.029 A 
ATOM     55  N   UNL A   1      42.185  29.142  33.471  1.00  0.00    -0.354 N 
ATOM     56  N   UNL A   1      42.738  27.478  31.134  1.00  0.00    -0.248 NA
ATOM     57  C   UNL A   1      44.124  25.991  29.984  1.00  0.00     0.031 C 
ATOM     58  C   UNL A   1      43.542  28.991  35.223  1.00  0.00     0.029 A 
ATOM     59  C   UNL A   1      43.312  28.495  33.950  1.00  0.00     0.049 A 
ATOM     60  H   UNL A   1      41.785  28.997  32.583  1.00  0.00     0.167 HD
ATOM     61  C   UNL A   1      43.790  27.100  31.961  1.00  0.00     0.074 A 
ATOM     62  C   UNL A   1      44.589  26.150  31.216  1.00  0.00     0.031 C 
ATOM     63  C   UNL A   1      44.073  27.512  33.222  1.00  0.00     0.034 A 
BRANCH  50  64
ATOM     64  C   UNL A   1      40.214  31.834  35.370  1.00  0.00     0.023 A 
ATOM     65  C   UNL A   1      40.925  33.046  35.494  1.00  0.00     0.012 A 
ATOM     66  C   UNL A   1      39.147  31.567  36.249  1.00  0.00     0.148 A 
ATOM     67  C   UNL A   1      40.604  33.958  36.499  1.00  0.00     0.002 A 
ATOM     68  C   UNL A   1      38.802  32.503  37.219  1.00  0.00     0.091 A 
ATOM     69  F   UNL A   1      38.492  30.403  36.128  1.00  0.00    -0.205 F 
ATOM     70  C   UNL A   1      39.538  33.692  37.353  1.00  0.00     0.022 A 
BRANCH  68  71
ATOM     71  S   UNL A   1      37.393  32.294  38.313  1.00  0.00     0.127 S 
ATOM     72  O   UNL A   1      37.892  32.889  39.551  1.00  0.00    -0.237 OA
ATOM     73  O   UNL A   1      36.358  33.075  37.635  1.00  0.00    -0.237 OA
ATOM     74  O   UNL A   1      37.136  30.862  38.369  1.00  0.00    -0.744 OA
ENDBRANCH  68  71
ENDBRANCH  50  64
BRANCH  51  75
ATOM     75  C   UNL A   1      42.408  25.960  27.608  1.00  0.00     0.023 A 
ATOM     76  C   UNL A   1      43.220  26.501  26.592  1.00  0.00     0.012 A 
ATOM     77  C   UNL A   1      41.972  24.625  27.501  1.00  0.00     0.148 A 
ATOM     78  C   UNL A   1      43.561  25.740  25.473  1.00  0.00     0.002 A 
ATOM     79  C   UNL A   1      42.364  23.855  26.412  1.00  0.00     0.091 A 
ATOM     80  F   UNL A   1      41.193  24.133  28.473  1.00  0.00    -0.205 F 
ATOM     81  C   UNL A   1      43.142  24.415  25.387  1.00  0.00     0.022 A 
BRANCH  79  82
ATOM     82  S   UNL A   1      41.981  22.105  26.283  1.00  0.00     0.127 S 
ATOM     83  O   UNL A   1      40.530  22.128  26.116  1.00  0.00    -0.237 OA
ATOM     84  O   UNL A   1      42.733  21.721  25.088  1.00  0.00    -0.237 OA
ATOM     85  O   UNL A   1      42.466  21.503  27.517  1.00  0.00    -0.744 OA
ENDBRANCH  79  82
ENDBRANCH  51  75
BRANCH  63  86
ATOM     86  C   UNL A   1      45.269  26.904  33.907  1.00  0.00     0.023 A 
ATOM     87  C   UNL A   1      46.526  27.536  33.832  1.00  0.00     0.012 A 
ATOM     88  C   UNL A   1      45.127  25.740  34.690  1.00  0.00     0.148 A 
ATOM     89  C   UNL A   1      47.630  27.000  34.494  1.00  0.00     0.002 A 
ATOM     90  C   UNL A   1      46.219  25.242  35.390  1.00  0.00     0.091 A 
ATOM     91  F   UNL A   1      43.927  25.143  34.735  1.00  0.00    -0.205 F 
ATOM     92  C   UNL A   1      47.474  25.861  35.282  1.00  0.00     0.022 A 
BRANCH  90  93
ATOM     93  S   UNL A   1      46.091  23.840  36.507  1.00  0.00     0.127 S 
ATOM     94  O   UNL A   1      45.574  22.799  35.620  1.00  0.00    -0.237 OA
ATOM     95  O   UNL A   1      47.480  23.652  36.927  1.00  0.00    -0.237 OA
ATOM     96  O   UNL A   1      45.187  24.256  37.572  1.00  0.00    -0.744 OA
ENDBRANCH  90  93
ENDBRANCH  63  86
ENDBRANCH  37  38
ENDBRANCH  29  32
ENDBRANCH  27  28
ENDBRANCH  26  27
ENDBRANCH   1  26
TORSDOF 17
ENDMDL
