MODEL 1
REMARK VINA RESULT:     -12.1      0.000      0.000
REMARK SMILES COc1ccc(NC(=O)[C@@H]2CC=CC[C@H]2C(=O)NCCCNC(=O)c2ccc(-c3c4nc(c(-c5cccc(S(=O)(=O)[O-])c5F)c5ccc([nH]5)c(-c5cccc(S(=O)(=O)[O-])c5F)c5nc(c(-c6cccc(S(=O)(=O)[O-])c6F)c6ccc3[nH]6)C=C5)C=C4)cc2)cc1Cl
REMARK SMILES IDX 20 1 19 2 18 3 16 4 17 5 15 7 10 8 11 9 12 10 14 11 13 12
REMARK SMILES IDX 8 13 7 14 9 16 6 17 3 18 4 19 89 20 5 21 88 22 90 23 2 24
REMARK SMILES IDX 1 25 21 26 22 27 23 28 24 30 25 31 26 32 87 33 27 34 86 35
REMARK SMILES IDX 28 36 29 37 30 38 80 39 31 40 85 41 79 42 81 43 32 44 84 45
REMARK SMILES IDX 78 46 77 47 33 49 65 50 45 51 64 52 46 53 49 54 63 55 82 56
REMARK SMILES IDX 47 57 48 58 62 60 83 61 50 62 34 63 35 64 43 65 36 66 38 67
REMARK SMILES IDX 44 68 37 69 39 70 40 71 41 72 42 73 66 74 67 75 75 76 68 77
REMARK SMILES IDX 70 78 76 79 69 80 71 81 72 82 73 83 74 84 51 85 52 86 60 87
REMARK SMILES IDX 53 88 55 89 61 90 54 91 56 92 57 93 58 94 59 95
REMARK H PARENT 18 6 7 15 22 29 81 48 49 59
REMARK Flexibility Score: inf
ROOT
ATOM      1  C   UNL A   1      33.333  27.741  26.318  1.00  0.00     0.042 C 
ENDROOT
BRANCH   1   2
ATOM      2  C   UNL A   1      33.672  26.412  25.666  1.00  0.00     0.117 C 
BRANCH   2   3
ATOM      3  N   UNL A   1      32.906  25.320  26.239  1.00  0.00    -0.356 N 
ATOM      4  C   UNL A   1      33.073  23.979  26.164  1.00  0.00     0.224 C 
ATOM      5  O   UNL A   1      32.230  23.268  26.716  1.00  0.00    -0.275 OA
ATOM      6  H   UNL A   1      32.132  25.605  26.776  1.00  0.00     0.163 HD
BRANCH   4   7
ATOM      7  C   UNL A   1      34.257  23.356  25.454  1.00  0.00     0.095 C 
ATOM      8  C   UNL A   1      34.173  23.433  23.922  1.00  0.00     0.095 C 
ATOM      9  C   UNL A   1      35.394  22.837  23.214  1.00  0.00     0.041 C 
ATOM     10  C   UNL A   1      36.687  23.207  23.874  1.00  0.00    -0.030 C 
ATOM     11  C   UNL A   1      35.600  23.833  26.046  1.00  0.00     0.041 C 
ATOM     12  C   UNL A   1      36.775  23.667  25.128  1.00  0.00    -0.030 C 
BRANCH   8  13
ATOM     13  C   UNL A   1      32.911  22.996  23.177  1.00  0.00     0.228 C 
ATOM     14  N   UNL A   1      31.807  23.716  22.866  1.00  0.00    -0.326 N 
ATOM     15  H   UNL A   1      31.094  23.150  22.491  1.00  0.00     0.169 HD
ATOM     16  O   UNL A   1      32.853  21.805  22.826  1.00  0.00    -0.274 OA
BRANCH  14  17
ATOM     17  C   UNL A   1      31.422  25.059  22.942  1.00  0.00     0.042 A 
ATOM     18  C   UNL A   1      30.191  27.557  22.668  1.00  0.00     0.137 A 
ATOM     19  C   UNL A   1      31.492  27.359  22.209  1.00  0.00     0.050 A 
ATOM     20  C   UNL A   1      29.560  26.552  23.399  1.00  0.00     0.085 A 
ATOM     21  C   UNL A   1      32.127  26.128  22.408  1.00  0.00     0.030 A 
ATOM     22  C   UNL A   1      30.182  25.310  23.548  1.00  0.00     0.050 A 
ATOM     23  Cl  UNL A   1      27.997  26.788  24.090  1.00  0.00    -0.080 Cl
BRANCH  18  24
ATOM     24  O   UNL A   1      29.494  28.659  22.252  1.00  0.00    -0.495 OA
ATOM     25  C   UNL A   1      29.659  29.770  23.121  1.00  0.00     0.278 C 
ENDBRANCH  18  24
ENDBRANCH  14  17
ENDBRANCH   8  13
ENDBRANCH   4   7
ENDBRANCH   2   3
ENDBRANCH   1   2
BRANCH   1  26
ATOM     26  C   UNL A   1      34.233  28.881  25.871  1.00  0.00     0.118 C 
BRANCH  26  27
ATOM     27  N   UNL A   1      33.920  30.135  26.550  1.00  0.00    -0.352 N 
ATOM     28  C   UNL A   1      34.510  30.709  27.643  1.00  0.00     0.251 C 
ATOM     29  H   UNL A   1      33.170  30.645  26.163  1.00  0.00     0.163 HD
ATOM     30  O   UNL A   1      33.947  31.649  28.213  1.00  0.00    -0.269 OA
BRANCH  28  31
ATOM     31  C   UNL A   1      35.806  30.209  28.137  1.00  0.00     0.039 A 
ATOM     32  C   UNL A   1      35.875  29.616  29.400  1.00  0.00     0.014 A 
ATOM     33  C   UNL A   1      36.961  30.348  27.363  1.00  0.00     0.014 A 
ATOM     34  C   UNL A   1      37.097  29.131  29.867  1.00  0.00     0.010 A 
ATOM     35  C   UNL A   1      38.150  29.768  27.782  1.00  0.00     0.010 A 
ATOM     36  C   UNL A   1      38.241  29.185  29.053  1.00  0.00    -0.014 A 
BRANCH  36  37
ATOM     37  C   UNL A   1      39.553  28.685  29.527  1.00  0.00     0.031 A 
ATOM     38  C   UNL A   1      40.274  29.408  30.635  1.00  0.00     0.074 A 
ATOM     39  C   UNL A   1      40.130  27.634  28.913  1.00  0.00     0.049 A 
ATOM     40  N   UNL A   1      41.445  29.156  31.159  1.00  0.00    -0.248 NA
ATOM     41  C   UNL A   1      39.608  30.591  31.208  1.00  0.00     0.031 C 
ATOM     42  C   UNL A   1      39.574  26.916  27.764  1.00  0.00     0.029 A 
ATOM     43  N   UNL A   1      41.323  27.004  29.153  1.00  0.00    -0.354 N 
ATOM     44  C   UNL A   1      41.671  30.167  32.086  1.00  0.00     0.074 A 
ATOM     45  C   UNL A   1      40.540  31.065  32.020  1.00  0.00     0.031 C 
ATOM     46  C   UNL A   1      40.423  25.939  27.405  1.00  0.00     0.029 A 
ATOM     47  C   UNL A   1      41.588  25.975  28.282  1.00  0.00     0.049 A 
ATOM     48  H   UNL A   1      41.933  27.264  29.882  1.00  0.00     0.167 HD
ATOM     49  C   UNL A   1      42.703  30.314  32.950  1.00  0.00     0.034 A 
ATOM     50  C   UNL A   1      42.651  25.152  28.202  1.00  0.00     0.034 A 
ATOM     51  C   UNL A   1      43.796  29.386  33.050  1.00  0.00     0.049 A 
ATOM     52  C   UNL A   1      43.749  25.284  29.223  1.00  0.00     0.074 A 
ATOM     53  C   UNL A   1      44.852  29.390  33.943  1.00  0.00     0.029 A 
ATOM     54  N   UNL A   1      43.972  28.284  32.227  1.00  0.00    -0.354 N 
ATOM     55  N   UNL A   1      43.867  26.152  30.200  1.00  0.00    -0.248 NA
ATOM     56  C   UNL A   1      44.835  24.297  29.162  1.00  0.00     0.031 C 
ATOM     57  C   UNL A   1      45.672  28.295  33.654  1.00  0.00     0.029 A 
ATOM     58  C   UNL A   1      45.115  27.596  32.594  1.00  0.00     0.049 A 
ATOM     59  H   UNL A   1      43.371  28.028  31.491  1.00  0.00     0.167 HD
ATOM     60  C   UNL A   1      45.019  25.794  30.890  1.00  0.00     0.074 A 
ATOM     61  C   UNL A   1      45.549  24.617  30.234  1.00  0.00     0.031 C 
ATOM     62  C   UNL A   1      45.594  26.394  31.962  1.00  0.00     0.034 A 
BRANCH  49  63
ATOM     63  C   UNL A   1      42.659  31.485  33.897  1.00  0.00     0.023 A 
ATOM     64  C   UNL A   1      43.208  32.722  33.496  1.00  0.00     0.012 A 
ATOM     65  C   UNL A   1      42.048  31.381  35.161  1.00  0.00     0.148 A 
ATOM     66  C   UNL A   1      43.189  33.821  34.352  1.00  0.00     0.002 A 
ATOM     67  C   UNL A   1      41.990  32.496  35.991  1.00  0.00     0.091 A 
ATOM     68  F   UNL A   1      41.552  30.194  35.538  1.00  0.00    -0.205 F 
ATOM     69  C   UNL A   1      42.571  33.712  35.594  1.00  0.00     0.022 A 
BRANCH  67  70
ATOM     70  S   UNL A   1      41.145  32.481  37.576  1.00  0.00     0.127 S 
ATOM     71  O   UNL A   1      42.002  31.591  38.359  1.00  0.00    -0.237 OA
ATOM     72  O   UNL A   1      41.208  33.889  37.971  1.00  0.00    -0.237 OA
ATOM     73  O   UNL A   1      39.803  31.985  37.311  1.00  0.00    -0.744 OA
ENDBRANCH  67  70
ENDBRANCH  49  63
BRANCH  50  74
ATOM     74  C   UNL A   1      42.681  24.077  27.171  1.00  0.00     0.023 A 
ATOM     75  C   UNL A   1      43.390  24.287  25.973  1.00  0.00     0.012 A 
ATOM     76  C   UNL A   1      42.051  22.836  27.388  1.00  0.00     0.148 A 
ATOM     77  C   UNL A   1      43.444  23.294  24.994  1.00  0.00     0.002 A 
ATOM     78  C   UNL A   1      42.155  21.831  26.433  1.00  0.00     0.091 A 
ATOM     79  F   UNL A   1      41.375  22.658  28.532  1.00  0.00    -0.205 F 
ATOM     80  C   UNL A   1      42.836  22.064  25.228  1.00  0.00     0.022 A 
BRANCH  78  81
ATOM     81  S   UNL A   1      41.518  20.173  26.707  1.00  0.00     0.127 S 
ATOM     82  O   UNL A   1      40.094  20.432  26.913  1.00  0.00    -0.237 OA
ATOM     83  O   UNL A   1      41.845  19.512  25.441  1.00  0.00    -0.237 OA
ATOM     84  O   UNL A   1      42.244  19.658  27.856  1.00  0.00    -0.744 OA
ENDBRANCH  78  81
ENDBRANCH  50  74
BRANCH  62  85
ATOM     85  C   UNL A   1      46.844  25.767  32.521  1.00  0.00     0.023 A 
ATOM     86  C   UNL A   1      48.107  26.178  32.050  1.00  0.00     0.012 A 
ATOM     87  C   UNL A   1      46.768  24.822  33.563  1.00  0.00     0.148 A 
ATOM     88  C   UNL A   1      49.274  25.631  32.582  1.00  0.00     0.002 A 
ATOM     89  C   UNL A   1      47.936  24.319  34.123  1.00  0.00     0.091 A 
ATOM     90  F   UNL A   1      45.557  24.429  33.985  1.00  0.00    -0.205 F 
ATOM     91  C   UNL A   1      49.188  24.712  33.625  1.00  0.00     0.022 A 
BRANCH  89  92
ATOM     92  S   UNL A   1      47.919  23.206  35.533  1.00  0.00     0.127 S 
ATOM     93  O   UNL A   1      49.343  23.103  35.848  1.00  0.00    -0.237 OA
ATOM     94  O   UNL A   1      47.130  23.955  36.512  1.00  0.00    -0.237 OA
ATOM     95  O   UNL A   1      47.289  21.980  35.065  1.00  0.00    -0.744 OA
ENDBRANCH  89  92
ENDBRANCH  62  85
ENDBRANCH  36  37
ENDBRANCH  28  31
ENDBRANCH  26  27
ENDBRANCH   1  26
TORSDOF 16
ENDMDL
MODEL 2
REMARK VINA RESULT:     -11.8      2.491      3.391
REMARK SMILES COc1ccc(NC(=O)[C@@H]2CC=CC[C@H]2C(=O)NCCCNC(=O)c2ccc(-c3c4nc(c(-c5cccc(S(=O)(=O)[O-])c5F)c5ccc([nH]5)c(-c5cccc(S(=O)(=O)[O-])c5F)c5nc(c(-c6cccc(S(=O)(=O)[O-])c6F)c6ccc3[nH]6)C=C5)C=C4)cc2)cc1Cl
REMARK SMILES IDX 20 1 19 2 18 3 16 4 17 5 15 7 10 8 11 9 12 10 14 11 13 12
REMARK SMILES IDX 8 13 7 14 9 16 6 17 3 18 4 19 89 20 5 21 88 22 90 23 2 24
REMARK SMILES IDX 1 25 21 26 22 27 23 28 24 30 25 31 26 32 87 33 27 34 86 35
REMARK SMILES IDX 28 36 29 37 30 38 80 39 31 40 85 41 79 42 81 43 32 44 84 45
REMARK SMILES IDX 78 46 77 47 33 49 65 50 45 51 64 52 46 53 49 54 63 55 82 56
REMARK SMILES IDX 47 57 48 58 62 60 83 61 50 62 34 63 35 64 43 65 36 66 38 67
REMARK SMILES IDX 44 68 37 69 39 70 40 71 41 72 42 73 66 74 67 75 75 76 68 77
REMARK SMILES IDX 70 78 76 79 69 80 71 81 72 82 73 83 74 84 51 85 52 86 60 87
REMARK SMILES IDX 53 88 55 89 61 90 54 91 56 92 57 93 58 94 59 95
REMARK H PARENT 18 6 7 15 22 29 81 48 49 59
REMARK Flexibility Score: inf
ROOT
ATOM      1  C   UNL A   1      31.515  31.053  26.171  1.00  0.00     0.042 C 
ENDROOT
BRANCH   1   2
ATOM      2  C   UNL A   1      31.614  29.690  25.510  1.00  0.00     0.117 C 
BRANCH   2   3
ATOM      3  N   UNL A   1      32.793  29.585  24.669  1.00  0.00    -0.356 N 
ATOM      4  C   UNL A   1      33.487  28.506  24.236  1.00  0.00     0.224 C 
ATOM      5  O   UNL A   1      34.497  28.711  23.560  1.00  0.00    -0.275 OA
ATOM      6  H   UNL A   1      33.148  30.448  24.357  1.00  0.00     0.163 HD
BRANCH   4   7
ATOM      7  C   UNL A   1      33.040  27.091  24.542  1.00  0.00     0.095 C 
ATOM      8  C   UNL A   1      33.241  26.112  23.376  1.00  0.00     0.095 C 
ATOM      9  C   UNL A   1      32.824  24.675  23.708  1.00  0.00     0.041 C 
ATOM     10  C   UNL A   1      33.255  24.247  25.078  1.00  0.00    -0.030 C 
ATOM     11  C   UNL A   1      33.587  26.594  25.896  1.00  0.00     0.041 C 
ATOM     12  C   UNL A   1      33.611  25.102  26.044  1.00  0.00    -0.030 C 
BRANCH   8  13
ATOM     13  C   UNL A   1      32.754  26.450  21.966  1.00  0.00     0.228 C 
ATOM     14  N   UNL A   1      31.673  27.170  21.583  1.00  0.00    -0.326 N 
ATOM     15  H   UNL A   1      31.528  27.125  20.610  1.00  0.00     0.169 HD
ATOM     16  O   UNL A   1      33.408  25.977  21.020  1.00  0.00    -0.274 OA
BRANCH  14  17
ATOM     17  C   UNL A   1      30.710  27.963  22.218  1.00  0.00     0.042 A 
ATOM     18  C   UNL A   1      28.386  29.291  23.033  1.00  0.00     0.137 A 
ATOM     19  C   UNL A   1      29.456  30.007  22.499  1.00  0.00     0.050 A 
ATOM     20  C   UNL A   1      28.535  27.931  23.301  1.00  0.00     0.085 A 
ATOM     21  C   UNL A   1      30.640  29.347  22.155  1.00  0.00     0.030 A 
ATOM     22  C   UNL A   1      29.702  27.272  22.907  1.00  0.00     0.050 A 
ATOM     23  Cl  UNL A   1      27.286  27.023  24.070  1.00  0.00    -0.080 Cl
BRANCH  18  24
ATOM     24  O   UNL A   1      27.160  29.890  23.129  1.00  0.00    -0.495 OA
ATOM     25  C   UNL A   1      27.235  31.211  23.645  1.00  0.00     0.278 C 
ENDBRANCH  18  24
ENDBRANCH  14  17
ENDBRANCH   8  13
ENDBRANCH   4   7
ENDBRANCH   2   3
ENDBRANCH   1   2
BRANCH   1  26
ATOM     26  C   UNL A   1      32.806  31.495  26.842  1.00  0.00     0.118 C 
BRANCH  26  27
ATOM     27  N   UNL A   1      32.797  32.915  27.183  1.00  0.00    -0.352 N 
ATOM     28  C   UNL A   1      33.541  33.597  28.107  1.00  0.00     0.251 C 
ATOM     29  H   UNL A   1      32.159  33.464  26.671  1.00  0.00     0.163 HD
ATOM     30  O   UNL A   1      33.217  34.747  28.417  1.00  0.00    -0.269 OA
BRANCH  28  31
ATOM     31  C   UNL A   1      34.719  32.964  28.727  1.00  0.00     0.039 A 
ATOM     32  C   UNL A   1      34.540  32.086  29.799  1.00  0.00     0.014 A 
ATOM     33  C   UNL A   1      36.005  33.255  28.267  1.00  0.00     0.014 A 
ATOM     34  C   UNL A   1      35.652  31.474  30.382  1.00  0.00     0.010 A 
ATOM     35  C   UNL A   1      37.097  32.564  28.774  1.00  0.00     0.010 A 
ATOM     36  C   UNL A   1      36.937  31.694  29.860  1.00  0.00    -0.014 A 
BRANCH  36  37
ATOM     37  C   UNL A   1      38.135  31.065  30.465  1.00  0.00     0.031 A 
ATOM     38  C   UNL A   1      38.584  31.479  31.842  1.00  0.00     0.074 A 
ATOM     39  C   UNL A   1      38.861  30.183  29.749  1.00  0.00     0.049 A 
ATOM     40  N   UNL A   1      39.627  31.081  32.524  1.00  0.00    -0.248 NA
ATOM     41  C   UNL A   1      37.776  32.500  32.531  1.00  0.00     0.031 C 
ATOM     42  C   UNL A   1      38.582  29.781  28.370  1.00  0.00     0.029 A 
ATOM     43  N   UNL A   1      39.996  29.488  30.076  1.00  0.00    -0.354 N 
ATOM     44  C   UNL A   1      39.621  31.829  33.696  1.00  0.00     0.074 A 
ATOM     45  C   UNL A   1      38.502  32.740  33.612  1.00  0.00     0.031 C 
ATOM     46  C   UNL A   1      39.517  28.903  27.971  1.00  0.00     0.029 A 
ATOM     47  C   UNL A   1      40.470  28.698  29.056  1.00  0.00     0.049 A 
ATOM     48  H   UNL A   1      40.431  29.549  30.958  1.00  0.00     0.167 HD
ATOM     49  C   UNL A   1      40.444  31.738  34.767  1.00  0.00     0.034 A 
ATOM     50  C   UNL A   1      41.551  27.896  29.005  1.00  0.00     0.034 A 
ATOM     51  C   UNL A   1      41.520  30.790  34.867  1.00  0.00     0.049 A 
ATOM     52  C   UNL A   1      42.405  27.751  30.236  1.00  0.00     0.074 A 
ATOM     53  C   UNL A   1      42.363  30.553  35.937  1.00  0.00     0.029 A 
ATOM     54  N   UNL A   1      41.898  29.919  33.857  1.00  0.00    -0.354 N 
ATOM     55  N   UNL A   1      42.289  28.351  31.397  1.00  0.00    -0.248 NA
ATOM     56  C   UNL A   1      43.510  26.785  30.168  1.00  0.00     0.031 C 
ATOM     57  C   UNL A   1      43.259  29.544  35.570  1.00  0.00     0.029 A 
ATOM     58  C   UNL A   1      42.960  29.138  34.278  1.00  0.00     0.049 A 
ATOM     59  H   UNL A   1      41.474  29.864  32.971  1.00  0.00     0.167 HD
ATOM     60  C   UNL A   1      43.280  27.810  32.207  1.00  0.00     0.074 A 
ATOM     61  C   UNL A   1      43.973  26.817  31.410  1.00  0.00     0.031 C 
ATOM     62  C   UNL A   1      43.598  28.117  33.489  1.00  0.00     0.034 A 
BRANCH  49  63
ATOM     63  C   UNL A   1      40.165  32.642  35.940  1.00  0.00     0.023 A 
ATOM     64  C   UNL A   1      40.849  33.872  36.044  1.00  0.00     0.012 A 
ATOM     65  C   UNL A   1      39.208  32.303  36.915  1.00  0.00     0.148 A 
ATOM     66  C   UNL A   1      40.618  34.727  37.120  1.00  0.00     0.002 A 
ATOM     67  C   UNL A   1      38.948  33.183  37.960  1.00  0.00     0.091 A 
ATOM     68  F   UNL A   1      38.583  31.121  36.815  1.00  0.00    -0.205 F 
ATOM     69  C   UNL A   1      39.661  34.388  38.072  1.00  0.00     0.022 A 
BRANCH  67  70
ATOM     70  S   UNL A   1      37.677  32.877  39.192  1.00  0.00     0.127 S 
ATOM     71  O   UNL A   1      36.464  32.898  38.376  1.00  0.00    -0.237 OA
ATOM     72  O   UNL A   1      38.049  31.553  39.695  1.00  0.00    -0.237 OA
ATOM     73  O   UNL A   1      37.795  33.951  40.166  1.00  0.00    -0.744 OA
ENDBRANCH  67  70
ENDBRANCH  49  63
BRANCH  50  74
ATOM     74  C   UNL A   1      41.831  27.106  27.773  1.00  0.00     0.023 A 
ATOM     75  C   UNL A   1      42.375  27.750  26.646  1.00  0.00     0.012 A 
ATOM     76  C   UNL A   1      41.603  25.716  27.728  1.00  0.00     0.148 A 
ATOM     77  C   UNL A   1      42.657  27.033  25.483  1.00  0.00     0.002 A 
ATOM     78  C   UNL A   1      41.938  24.998  26.585  1.00  0.00     0.091 A 
ATOM     79  F   UNL A   1      41.078  25.123  28.809  1.00  0.00    -0.205 F 
ATOM     80  C   UNL A   1      42.448  25.657  25.456  1.00  0.00     0.022 A 
BRANCH  78  81
ATOM     81  S   UNL A   1      41.829  23.206  26.508  1.00  0.00     0.127 S 
ATOM     82  O   UNL A   1      42.583  22.811  27.696  1.00  0.00    -0.237 OA
ATOM     83  O   UNL A   1      40.383  22.989  26.598  1.00  0.00    -0.237 OA
ATOM     84  O   UNL A   1      42.413  22.831  25.231  1.00  0.00    -0.744 OA
ENDBRANCH  78  81
ENDBRANCH  50  74
BRANCH  62  85
ATOM     85  C   UNL A   1      44.722  27.345  34.130  1.00  0.00     0.023 A 
ATOM     86  C   UNL A   1      46.045  27.818  34.029  1.00  0.00     0.012 A 
ATOM     87  C   UNL A   1      44.455  26.191  34.891  1.00  0.00     0.148 A 
ATOM     88  C   UNL A   1      47.091  27.132  34.645  1.00  0.00     0.002 A 
ATOM     89  C   UNL A   1      45.495  25.541  35.544  1.00  0.00     0.091 A 
ATOM     90  F   UNL A   1      43.192  25.745  34.960  1.00  0.00    -0.205 F 
ATOM     91  C   UNL A   1      46.815  26.003  35.412  1.00  0.00     0.022 A 
BRANCH  89  92
ATOM     92  S   UNL A   1      45.216  24.138  36.631  1.00  0.00     0.127 S 
ATOM     93  O   UNL A   1      46.579  23.794  37.030  1.00  0.00    -0.237 OA
ATOM     94  O   UNL A   1      44.398  24.724  37.693  1.00  0.00    -0.237 OA
ATOM     95  O   UNL A   1      44.528  23.140  35.823  1.00  0.00    -0.744 OA
ENDBRANCH  89  92
ENDBRANCH  62  85
ENDBRANCH  36  37
ENDBRANCH  28  31
ENDBRANCH  26  27
ENDBRANCH   1  26
TORSDOF 16
ENDMDL
MODEL 3
REMARK VINA RESULT:     -11.8      4.804      9.632
REMARK SMILES COc1ccc(NC(=O)[C@@H]2CC=CC[C@H]2C(=O)NCCCNC(=O)c2ccc(-c3c4nc(c(-c5cccc(S(=O)(=O)[O-])c5F)c5ccc([nH]5)c(-c5cccc(S(=O)(=O)[O-])c5F)c5nc(c(-c6cccc(S(=O)(=O)[O-])c6F)c6ccc3[nH]6)C=C5)C=C4)cc2)cc1Cl
REMARK SMILES IDX 20 1 19 2 18 3 16 4 17 5 15 7 10 8 11 9 12 10 14 11 13 12
REMARK SMILES IDX 8 13 7 14 9 16 6 17 3 18 4 19 89 20 5 21 88 22 90 23 2 24
REMARK SMILES IDX 1 25 21 26 22 27 23 28 24 30 25 31 26 32 87 33 27 34 86 35
REMARK SMILES IDX 28 36 29 37 30 38 80 39 31 40 85 41 79 42 81 43 32 44 84 45
REMARK SMILES IDX 78 46 77 47 33 49 65 50 45 51 64 52 46 53 49 54 63 55 82 56
REMARK SMILES IDX 47 57 48 58 62 60 83 61 50 62 34 63 35 64 43 65 36 66 38 67
REMARK SMILES IDX 44 68 37 69 39 70 40 71 41 72 42 73 66 74 67 75 75 76 68 77
REMARK SMILES IDX 70 78 76 79 69 80 71 81 72 82 73 83 74 84 51 85 52 86 60 87
REMARK SMILES IDX 53 88 55 89 61 90 54 91 56 92 57 93 58 94 59 95
REMARK H PARENT 18 6 7 15 22 29 81 48 49 59
REMARK Flexibility Score: inf
ROOT
ATOM      1  C   UNL A   1      36.088  23.841  24.663  1.00  0.00     0.042 C 
ENDROOT
BRANCH   1   2
ATOM      2  C   UNL A   1      34.749  24.551  24.569  1.00  0.00     0.117 C 
BRANCH   2   3
ATOM      3  N   UNL A   1      34.339  24.745  23.191  1.00  0.00    -0.356 N 
ATOM      4  C   UNL A   1      33.509  25.655  22.627  1.00  0.00     0.224 C 
ATOM      5  O   UNL A   1      33.295  25.558  21.416  1.00  0.00    -0.275 OA
ATOM      6  H   UNL A   1      34.734  24.106  22.555  1.00  0.00     0.163 HD
BRANCH   4   7
ATOM      7  C   UNL A   1      32.875  26.770  23.433  1.00  0.00     0.095 C 
ATOM      8  C   UNL A   1      31.790  26.292  24.408  1.00  0.00     0.095 C 
ATOM      9  C   UNL A   1      31.184  27.422  25.247  1.00  0.00     0.041 C 
ATOM     10  C   UNL A   1      32.212  28.390  25.748  1.00  0.00    -0.030 C 
ATOM     11  C   UNL A   1      33.934  27.701  24.060  1.00  0.00     0.041 C 
ATOM     12  C   UNL A   1      33.441  28.500  25.230  1.00  0.00    -0.030 C 
BRANCH   8  13
ATOM     13  C   UNL A   1      30.664  25.366  23.946  1.00  0.00     0.228 C 
ATOM     14  N   UNL A   1      30.625  24.012  23.918  1.00  0.00    -0.326 N 
ATOM     15  H   UNL A   1      29.823  23.678  23.455  1.00  0.00     0.169 HD
ATOM     16  O   UNL A   1      29.642  25.911  23.495  1.00  0.00    -0.274 OA
BRANCH  14  17
ATOM     17  C   UNL A   1      31.434  22.968  24.379  1.00  0.00     0.042 A 
ATOM     18  C   UNL A   1      33.472  21.366  25.433  1.00  0.00     0.137 A 
ATOM     19  C   UNL A   1      33.130  21.274  24.085  1.00  0.00     0.050 A 
ATOM     20  C   UNL A   1      32.695  22.147  26.287  1.00  0.00     0.085 A 
ATOM     21  C   UNL A   1      32.067  22.029  23.577  1.00  0.00     0.030 A 
ATOM     22  C   UNL A   1      31.668  22.935  25.762  1.00  0.00     0.050 A 
ATOM     23  Cl  UNL A   1      33.001  22.202  27.984  1.00  0.00    -0.080 Cl
BRANCH  18  24
ATOM     24  O   UNL A   1      34.654  20.828  25.863  1.00  0.00    -0.495 OA
ATOM     25  C   UNL A   1      35.216  19.922  24.925  1.00  0.00     0.278 C 
ENDBRANCH  18  24
ENDBRANCH  14  17
ENDBRANCH   8  13
ENDBRANCH   4   7
ENDBRANCH   2   3
ENDBRANCH   1   2
BRANCH   1  26
ATOM     26  C   UNL A   1      36.464  23.444  26.082  1.00  0.00     0.118 C 
BRANCH  26  27
ATOM     27  N   UNL A   1      37.579  22.502  26.118  1.00  0.00    -0.352 N 
ATOM     28  C   UNL A   1      38.912  22.732  26.326  1.00  0.00     0.251 C 
ATOM     29  H   UNL A   1      37.335  21.559  25.969  1.00  0.00     0.163 HD
ATOM     30  O   UNL A   1      39.727  21.839  26.078  1.00  0.00    -0.269 OA
BRANCH  28  31
ATOM     31  C   UNL A   1      39.370  24.035  26.841  1.00  0.00     0.039 A 
ATOM     32  C   UNL A   1      39.930  24.962  25.959  1.00  0.00     0.014 A 
ATOM     33  C   UNL A   1      39.270  24.334  28.202  1.00  0.00     0.014 A 
ATOM     34  C   UNL A   1      40.354  26.202  26.440  1.00  0.00     0.010 A 
ATOM     35  C   UNL A   1      39.590  25.605  28.659  1.00  0.00     0.010 A 
ATOM     36  C   UNL A   1      40.169  26.540  27.791  1.00  0.00    -0.014 A 
BRANCH  36  37
ATOM     37  C   UNL A   1      40.618  27.846  28.330  1.00  0.00     0.031 A 
ATOM     38  C   UNL A   1      42.091  28.135  28.462  1.00  0.00     0.074 A 
ATOM     39  C   UNL A   1      39.708  28.736  28.771  1.00  0.00     0.049 A 
ATOM     40  N   UNL A   1      42.683  29.194  28.949  1.00  0.00    -0.248 NA
ATOM     41  C   UNL A   1      43.022  27.081  28.022  1.00  0.00     0.031 C 
ATOM     42  C   UNL A   1      38.259  28.527  28.787  1.00  0.00     0.029 A 
ATOM     43  N   UNL A   1      39.870  29.984  29.314  1.00  0.00    -0.354 N 
ATOM     44  C   UNL A   1      44.044  28.918  28.912  1.00  0.00     0.074 A 
ATOM     45  C   UNL A   1      44.192  27.574  28.403  1.00  0.00     0.031 C 
ATOM     46  C   UNL A   1      37.665  29.613  29.307  1.00  0.00     0.029 A 
ATOM     47  C   UNL A   1      38.688  30.583  29.679  1.00  0.00     0.049 A 
ATOM     48  H   UNL A   1      40.750  30.411  29.432  1.00  0.00     0.167 HD
ATOM     49  C   UNL A   1      45.085  29.724  29.229  1.00  0.00     0.034 A 
ATOM     50  C   UNL A   1      38.458  31.782  30.248  1.00  0.00     0.034 A 
ATOM     51  C   UNL A   1      44.933  31.080  29.682  1.00  0.00     0.049 A 
ATOM     52  C   UNL A   1      39.626  32.693  30.518  1.00  0.00     0.074 A 
ATOM     53  C   UNL A   1      45.916  32.014  29.952  1.00  0.00     0.029 A 
ATOM     54  N   UNL A   1      43.716  31.697  29.927  1.00  0.00    -0.354 N 
ATOM     55  N   UNL A   1      40.905  32.474  30.325  1.00  0.00    -0.248 NA
ATOM     56  C   UNL A   1      39.318  34.032  31.039  1.00  0.00     0.031 C 
ATOM     57  C   UNL A   1      45.293  33.194  30.372  1.00  0.00     0.029 A 
ATOM     58  C   UNL A   1      43.921  33.001  30.341  1.00  0.00     0.049 A 
ATOM     59  H   UNL A   1      42.836  31.269  29.822  1.00  0.00     0.167 HD
ATOM     60  C   UNL A   1      41.550  33.657  30.665  1.00  0.00     0.074 A 
ATOM     61  C   UNL A   1      40.518  34.597  31.055  1.00  0.00     0.031 C 
ATOM     62  C   UNL A   1      42.877  33.937  30.670  1.00  0.00     0.034 A 
BRANCH  49  63
ATOM     63  C   UNL A   1      46.476  29.179  29.032  1.00  0.00     0.023 A 
ATOM     64  C   UNL A   1      47.213  28.738  30.152  1.00  0.00     0.012 A 
ATOM     65  C   UNL A   1      47.042  29.065  27.748  1.00  0.00     0.148 A 
ATOM     66  C   UNL A   1      48.504  28.236  30.002  1.00  0.00     0.002 A 
ATOM     67  C   UNL A   1      48.312  28.517  27.602  1.00  0.00     0.091 A 
ATOM     68  F   UNL A   1      46.339  29.509  26.696  1.00  0.00    -0.205 F 
ATOM     69  C   UNL A   1      49.049  28.116  28.728  1.00  0.00     0.022 A 
BRANCH  67  70
ATOM     70  S   UNL A   1      49.071  28.244  25.997  1.00  0.00     0.127 S 
ATOM     71  O   UNL A   1      47.917  28.348  25.103  1.00  0.00    -0.237 OA
ATOM     72  O   UNL A   1      50.012  29.361  25.907  1.00  0.00    -0.237 OA
ATOM     73  O   UNL A   1      49.693  26.930  26.065  1.00  0.00    -0.744 OA
ENDBRANCH  67  70
ENDBRANCH  49  63
BRANCH  50  74
ATOM     74  C   UNL A   1      37.059  32.220  30.515  1.00  0.00     0.023 A 
ATOM     75  C   UNL A   1      36.517  32.055  31.804  1.00  0.00     0.012 A 
ATOM     76  C   UNL A   1      36.282  32.837  29.515  1.00  0.00     0.148 A 
ATOM     77  C   UNL A   1      35.214  32.466  32.085  1.00  0.00     0.002 A 
ATOM     78  C   UNL A   1      35.004  33.294  29.818  1.00  0.00     0.091 A 
ATOM     79  F   UNL A   1      36.814  32.979  28.293  1.00  0.00    -0.205 F 
ATOM     80  C   UNL A   1      34.461  33.093  31.097  1.00  0.00     0.022 A 
BRANCH  78  81
ATOM     81  S   UNL A   1      34.015  34.232  28.647  1.00  0.00     0.127 S 
ATOM     82  O   UNL A   1      33.740  33.230  27.619  1.00  0.00    -0.237 OA
ATOM     83  O   UNL A   1      32.859  34.609  29.463  1.00  0.00    -0.237 OA
ATOM     84  O   UNL A   1      34.849  35.351  28.236  1.00  0.00    -0.744 OA
ENDBRANCH  78  81
ENDBRANCH  50  74
BRANCH  62  85
ATOM     85  C   UNL A   1      43.292  35.328  31.072  1.00  0.00     0.023 A 
ATOM     86  C   UNL A   1      43.604  35.606  32.418  1.00  0.00     0.012 A 
ATOM     87  C   UNL A   1      43.441  36.339  30.104  1.00  0.00     0.148 A 
ATOM     88  C   UNL A   1      44.023  36.880  32.799  1.00  0.00     0.002 A 
ATOM     89  C   UNL A   1      43.907  37.592  30.483  1.00  0.00     0.091 A 
ATOM     90  F   UNL A   1      43.122  36.061  28.831  1.00  0.00    -0.205 F 
ATOM     91  C   UNL A   1      44.186  37.867  31.831  1.00  0.00     0.022 A 
BRANCH  89  92
ATOM     92  S   UNL A   1      44.240  38.892  29.288  1.00  0.00     0.127 S 
ATOM     93  O   UNL A   1      44.616  40.006  30.156  1.00  0.00    -0.237 OA
ATOM     94  O   UNL A   1      45.342  38.326  28.509  1.00  0.00    -0.237 OA
ATOM     95  O   UNL A   1      43.003  39.069  28.538  1.00  0.00    -0.744 OA
ENDBRANCH  89  92
ENDBRANCH  62  85
ENDBRANCH  36  37
ENDBRANCH  28  31
ENDBRANCH  26  27
ENDBRANCH   1  26
TORSDOF 16
ENDMDL
