MODEL 1
REMARK VINA RESULT:     -13.3      0.000      0.000
REMARK SMILES Cc1c(CC(=O)NCCCNC(=O)c2ccc(-c3c4nc(c(-c5cccc(S(=O)(=O)[O-])c5F)c5ccc([nH]5)c(-c5cccc(S(=O)(=O)[O-])c5F)c5nc(c(-c6cccc(S(=O)(=O)[O-])c6F)c6ccc3[nH]6)C=C5)C=C4)cc2)cc(-c2ccc(S(C)(=O)=O)cc2)n1-c1cccc(F)c1
REMARK SMILES IDX 9 1 8 2 7 3 5 4 6 5 4 7 3 8 1 9 2 10 89 11 77 12 78 13 90 14
REMARK SMILES IDX 91 15 96 16 92 17 94 18 93 19 95 20 79 21 80 22 88 23 81 24
REMARK SMILES IDX 87 25 82 26 83 27 84 28 85 29 86 30 10 31 11 32 12 33 13 35
REMARK SMILES IDX 14 36 15 37 76 38 16 39 75 40 17 41 18 42 19 43 69 44 20 45
REMARK SMILES IDX 74 46 68 47 70 48 21 49 73 50 67 51 66 52 22 54 54 55 34 56
REMARK SMILES IDX 53 57 35 58 38 59 52 60 71 61 36 62 37 63 51 65 72 66 39 67
REMARK SMILES IDX 23 68 24 69 32 70 25 71 27 72 33 73 26 74 28 75 29 76 30 77
REMARK SMILES IDX 31 78 55 79 56 80 64 81 57 82 59 83 65 84 58 85 60 86 61 87
REMARK SMILES IDX 62 88 63 89 40 90 41 91 49 92 42 93 44 94 50 95 43 96 45 97
REMARK SMILES IDX 46 98 47 99 48 100
REMARK H PARENT 7 6 11 34 70 53 38 64
REMARK Flexibility Score: inf
ROOT
ATOM      1  C   UNL A   1      36.464  23.244  23.982  1.00  0.00     0.042 C 
ENDROOT
BRANCH   1   2
ATOM      2  C   UNL A   1      36.088  21.759  23.926  1.00  0.00     0.117 C 
BRANCH   2   3
ATOM      3  N   UNL A   1      34.759  21.471  24.432  1.00  0.00    -0.356 N 
ATOM      4  C   UNL A   1      33.554  22.046  24.165  1.00  0.00     0.224 C 
ATOM      5  O   UNL A   1      32.563  21.609  24.756  1.00  0.00    -0.275 OA
ATOM      6  H   UNL A   1      34.722  20.731  25.080  1.00  0.00     0.163 HD
BRANCH   4   7
ATOM      7  C   UNL A   1      33.408  23.132  23.113  1.00  0.00     0.137 C 
BRANCH   7   8
ATOM      8  C   UNL A   1      32.866  24.432  23.619  1.00  0.00    -0.017 A 
ATOM      9  C   UNL A   1      34.121  24.682  25.881  1.00  0.00     0.065 C 
ATOM     10  C   UNL A   1      33.200  25.114  24.783  1.00  0.00     0.024 A 
ATOM     11  N   UNL A   1      32.470  26.300  24.825  1.00  0.00    -0.313 N 
ATOM     12  C   UNL A   1      31.852  25.191  22.979  1.00  0.00     0.033 A 
ATOM     13  C   UNL A   1      31.648  26.356  23.697  1.00  0.00     0.053 A 
BRANCH  11  14
ATOM     14  C   UNL A   1      32.550  27.303  25.829  1.00  0.00     0.049 A 
ATOM     15  C   UNL A   1      31.558  27.375  26.820  1.00  0.00     0.027 A 
ATOM     16  C   UNL A   1      33.562  28.265  25.775  1.00  0.00     0.065 A 
ATOM     17  C   UNL A   1      31.577  28.413  27.753  1.00  0.00     0.005 A 
ATOM     18  C   UNL A   1      33.554  29.301  26.702  1.00  0.00     0.125 A 
ATOM     19  C   UNL A   1      32.575  29.383  27.688  1.00  0.00     0.039 A 
ATOM     20  F   UNL A   1      34.486  30.258  26.625  1.00  0.00    -0.207 F 
ENDBRANCH  11  14
BRANCH  13  21
ATOM     21  C   UNL A   1      30.835  27.511  23.295  1.00  0.00    -0.001 A 
ATOM     22  C   UNL A   1      29.441  27.496  23.462  1.00  0.00     0.011 A 
ATOM     23  C   UNL A   1      31.446  28.650  22.755  1.00  0.00     0.011 A 
ATOM     24  C   UNL A   1      28.662  28.580  23.051  1.00  0.00     0.021 A 
ATOM     25  C   UNL A   1      30.673  29.739  22.344  1.00  0.00     0.021 A 
ATOM     26  C   UNL A   1      29.283  29.691  22.479  1.00  0.00     0.067 A 
BRANCH  26  27
ATOM     27  S   UNL A   1      28.283  31.064  21.962  1.00  0.00     0.175 S 
ATOM     28  C   UNL A   1      27.944  30.739  20.252  1.00  0.00     0.163 C 
ATOM     29  O   UNL A   1      27.048  31.000  22.700  1.00  0.00    -0.224 OA
ATOM     30  O   UNL A   1      29.122  32.260  22.012  1.00  0.00    -0.224 OA
ENDBRANCH  26  27
ENDBRANCH  13  21
ENDBRANCH   7   8
ENDBRANCH   4   7
ENDBRANCH   2   3
ENDBRANCH   1   2
BRANCH   1  31
ATOM     31  C   UNL A   1      37.351  23.687  25.156  1.00  0.00     0.118 C 
BRANCH  31  32
ATOM     32  N   UNL A   1      38.222  22.661  25.675  1.00  0.00    -0.352 N 
ATOM     33  C   UNL A   1      39.314  22.847  26.508  1.00  0.00     0.251 C 
ATOM     34  H   UNL A   1      38.021  21.734  25.409  1.00  0.00     0.163 HD
ATOM     35  O   UNL A   1      40.044  21.877  26.704  1.00  0.00    -0.269 OA
BRANCH  33  36
ATOM     36  C   UNL A   1      39.686  24.225  27.001  1.00  0.00     0.039 A 
ATOM     37  C   UNL A   1      39.033  24.683  28.128  1.00  0.00     0.014 A 
ATOM     38  C   UNL A   1      40.546  25.138  26.362  1.00  0.00     0.014 A 
ATOM     39  C   UNL A   1      39.295  25.986  28.630  1.00  0.00     0.010 A 
ATOM     40  C   UNL A   1      40.717  26.518  26.824  1.00  0.00     0.010 A 
ATOM     41  C   UNL A   1      40.088  27.010  27.980  1.00  0.00    -0.014 A 
BRANCH  41  42
ATOM     42  C   UNL A   1      39.741  28.553  28.392  1.00  0.00     0.031 A 
ATOM     43  C   UNL A   1      41.102  29.102  28.672  1.00  0.00     0.074 A 
ATOM     44  C   UNL A   1      38.706  29.455  28.679  1.00  0.00     0.049 A 
ATOM     45  N   UNL A   1      41.869  28.486  29.527  1.00  0.00    -0.248 NA
ATOM     46  C   UNL A   1      41.830  29.982  27.750  1.00  0.00     0.031 C 
ATOM     47  C   UNL A   1      37.260  29.191  28.757  1.00  0.00     0.029 A 
ATOM     48  N   UNL A   1      38.693  30.867  28.979  1.00  0.00    -0.354 N 
ATOM     49  C   UNL A   1      43.071  29.125  29.518  1.00  0.00     0.074 A 
ATOM     50  C   UNL A   1      43.069  29.835  28.243  1.00  0.00     0.031 C 
ATOM     51  C   UNL A   1      36.531  30.340  28.909  1.00  0.00     0.029 A 
ATOM     52  C   UNL A   1      37.395  31.516  29.016  1.00  0.00     0.049 A 
ATOM     53  H   UNL A   1      39.525  31.365  29.151  1.00  0.00     0.167 HD
ATOM     54  C   UNL A   1      43.492  29.553  30.742  1.00  0.00     0.034 A 
ATOM     55  C   UNL A   1      37.025  32.854  29.206  1.00  0.00     0.034 A 
ATOM     56  C   UNL A   1      43.284  30.964  30.914  1.00  0.00     0.049 A 
ATOM     57  C   UNL A   1      38.122  33.462  29.968  1.00  0.00     0.074 A 
ATOM     58  C   UNL A   1      43.426  32.047  30.066  1.00  0.00     0.029 A 
ATOM     59  N   UNL A   1      42.370  31.332  31.879  1.00  0.00    -0.354 N 
ATOM     60  N   UNL A   1      38.244  33.275  31.249  1.00  0.00    -0.248 NA
ATOM     61  C   UNL A   1      39.058  34.416  29.381  1.00  0.00     0.031 C 
ATOM     62  C   UNL A   1      42.202  32.737  30.191  1.00  0.00     0.029 A 
ATOM     63  C   UNL A   1      41.589  32.349  31.374  1.00  0.00     0.049 A 
ATOM     64  H   UNL A   1      42.289  30.934  32.776  1.00  0.00     0.167 HD
ATOM     65  C   UNL A   1      39.551  33.588  31.457  1.00  0.00     0.074 A 
ATOM     66  C   UNL A   1      39.895  34.536  30.413  1.00  0.00     0.031 C 
ATOM     67  C   UNL A   1      40.323  32.620  32.006  1.00  0.00     0.034 A 
BRANCH  54  68
ATOM     68  C   UNL A   1      43.364  28.536  31.859  1.00  0.00     0.023 A 
ATOM     69  C   UNL A   1      42.172  28.546  32.600  1.00  0.00     0.012 A 
ATOM     70  C   UNL A   1      44.409  27.665  32.272  1.00  0.00     0.148 A 
ATOM     71  C   UNL A   1      42.047  27.764  33.752  1.00  0.00     0.002 A 
ATOM     72  C   UNL A   1      44.328  26.994  33.485  1.00  0.00     0.091 A 
ATOM     73  F   UNL A   1      45.460  27.462  31.461  1.00  0.00    -0.205 F 
ATOM     74  C   UNL A   1      43.136  27.025  34.217  1.00  0.00     0.022 A 
BRANCH  72  75
ATOM     75  S   UNL A   1      45.788  26.273  34.264  1.00  0.00     0.127 S 
ATOM     76  O   UNL A   1      45.294  25.929  35.602  1.00  0.00    -0.237 OA
ATOM     77  O   UNL A   1      46.083  25.122  33.419  1.00  0.00    -0.237 OA
ATOM     78  O   UNL A   1      46.802  27.325  34.277  1.00  0.00    -0.744 OA
ENDBRANCH  72  75
ENDBRANCH  54  68
BRANCH  55  79
ATOM     79  C   UNL A   1      35.866  33.916  29.151  1.00  0.00     0.023 A 
ATOM     80  C   UNL A   1      35.011  33.940  27.988  1.00  0.00     0.012 A 
ATOM     81  C   UNL A   1      35.307  34.531  30.294  1.00  0.00     0.148 A 
ATOM     82  C   UNL A   1      33.683  34.413  27.982  1.00  0.00     0.002 A 
ATOM     83  C   UNL A   1      33.975  35.036  30.277  1.00  0.00     0.091 A 
ATOM     84  F   UNL A   1      36.025  34.533  31.423  1.00  0.00    -0.205 F 
ATOM     85  C   UNL A   1      33.159  34.951  29.137  1.00  0.00     0.022 A 
BRANCH  83  86
ATOM     86  S   UNL A   1      33.146  35.735  31.724  1.00  0.00     0.127 S 
ATOM     87  O   UNL A   1      31.956  36.358  31.141  1.00  0.00    -0.237 OA
ATOM     88  O   UNL A   1      32.871  34.540  32.521  1.00  0.00    -0.237 OA
ATOM     89  O   UNL A   1      34.099  36.671  32.301  1.00  0.00    -0.744 OA
ENDBRANCH  83  86
ENDBRANCH  55  79
BRANCH  67  90
ATOM     90  C   UNL A   1      39.698  31.755  33.081  1.00  0.00     0.023 A 
ATOM     91  C   UNL A   1      39.198  30.449  32.876  1.00  0.00     0.012 A 
ATOM     92  C   UNL A   1      39.576  32.307  34.365  1.00  0.00     0.148 A 
ATOM     93  C   UNL A   1      38.569  29.739  33.906  1.00  0.00     0.002 A 
ATOM     94  C   UNL A   1      38.988  31.587  35.400  1.00  0.00     0.091 A 
ATOM     95  F   UNL A   1      40.034  33.554  34.550  1.00  0.00    -0.205 F 
ATOM     96  C   UNL A   1      38.474  30.303  35.175  1.00  0.00     0.022 A 
BRANCH  94  97
ATOM     97  S   UNL A   1      38.867  32.292  37.045  1.00  0.00     0.127 S 
ATOM     98  O   UNL A   1      40.269  32.325  37.463  1.00  0.00    -0.237 OA
ATOM     99  O   UNL A   1      38.269  33.603  36.814  1.00  0.00    -0.237 OA
ATOM    100  O   UNL A   1      38.020  31.371  37.798  1.00  0.00    -0.744 OA
ENDBRANCH  94  97
ENDBRANCH  67  90
ENDBRANCH  41  42
ENDBRANCH  33  36
ENDBRANCH  31  32
ENDBRANCH   1  31
TORSDOF 17
ENDMDL
MODEL 2
REMARK VINA RESULT:     -12.1      5.171     12.899
REMARK SMILES Cc1c(CC(=O)NCCCNC(=O)c2ccc(-c3c4nc(c(-c5cccc(S(=O)(=O)[O-])c5F)c5ccc([nH]5)c(-c5cccc(S(=O)(=O)[O-])c5F)c5nc(c(-c6cccc(S(=O)(=O)[O-])c6F)c6ccc3[nH]6)C=C5)C=C4)cc2)cc(-c2ccc(S(C)(=O)=O)cc2)n1-c1cccc(F)c1
REMARK SMILES IDX 9 1 8 2 7 3 5 4 6 5 4 7 3 8 1 9 2 10 89 11 77 12 78 13 90 14
REMARK SMILES IDX 91 15 96 16 92 17 94 18 93 19 95 20 79 21 80 22 88 23 81 24
REMARK SMILES IDX 87 25 82 26 83 27 84 28 85 29 86 30 10 31 11 32 12 33 13 35
REMARK SMILES IDX 14 36 15 37 76 38 16 39 75 40 17 41 18 42 19 43 69 44 20 45
REMARK SMILES IDX 74 46 68 47 70 48 21 49 73 50 67 51 66 52 22 54 54 55 34 56
REMARK SMILES IDX 53 57 35 58 38 59 52 60 71 61 36 62 37 63 51 65 72 66 39 67
REMARK SMILES IDX 23 68 24 69 32 70 25 71 27 72 33 73 26 74 28 75 29 76 30 77
REMARK SMILES IDX 31 78 55 79 56 80 64 81 57 82 59 83 65 84 58 85 60 86 61 87
REMARK SMILES IDX 62 88 63 89 40 90 41 91 49 92 42 93 44 94 50 95 43 96 45 97
REMARK SMILES IDX 46 98 47 99 48 100
REMARK H PARENT 7 6 11 34 70 53 38 64
REMARK Flexibility Score: inf
ROOT
ATOM      1  C   UNL A   1      35.444  34.263  29.123  1.00  0.00     0.042 C 
ENDROOT
BRANCH   1   2
ATOM      2  C   UNL A   1      34.579  33.752  30.281  1.00  0.00     0.117 C 
BRANCH   2   3
ATOM      3  N   UNL A   1      34.348  34.737  31.320  1.00  0.00    -0.356 N 
ATOM      4  C   UNL A   1      34.402  34.638  32.678  1.00  0.00     0.224 C 
ATOM      5  O   UNL A   1      34.142  35.646  33.341  1.00  0.00    -0.275 OA
ATOM      6  H   UNL A   1      34.113  35.633  30.987  1.00  0.00     0.163 HD
BRANCH   4   7
ATOM      7  C   UNL A   1      34.849  33.358  33.363  1.00  0.00     0.137 C 
BRANCH   7   8
ATOM      8  C   UNL A   1      36.222  33.409  33.959  1.00  0.00    -0.017 A 
ATOM      9  C   UNL A   1      37.704  32.760  31.925  1.00  0.00     0.065 C 
ATOM     10  C   UNL A   1      37.444  33.192  33.335  1.00  0.00     0.024 A 
ATOM     11  N   UNL A   1      38.458  33.382  34.272  1.00  0.00    -0.313 N 
ATOM     12  C   UNL A   1      36.502  33.663  35.327  1.00  0.00     0.033 A 
ATOM     13  C   UNL A   1      37.874  33.691  35.503  1.00  0.00     0.053 A 
BRANCH  11  14
ATOM     14  C   UNL A   1      39.856  33.297  34.029  1.00  0.00     0.049 A 
ATOM     15  C   UNL A   1      40.532  32.091  34.276  1.00  0.00     0.027 A 
ATOM     16  C   UNL A   1      40.566  34.433  33.633  1.00  0.00     0.065 A 
ATOM     17  C   UNL A   1      41.919  32.026  34.130  1.00  0.00     0.005 A 
ATOM     18  C   UNL A   1      41.948  34.354  33.510  1.00  0.00     0.125 A 
ATOM     19  C   UNL A   1      42.629  33.164  33.753  1.00  0.00     0.039 A 
ATOM     20  F   UNL A   1      42.643  35.450  33.186  1.00  0.00    -0.207 F 
ENDBRANCH  11  14
BRANCH  13  21
ATOM     21  C   UNL A   1      38.602  34.108  36.708  1.00  0.00    -0.001 A 
ATOM     22  C   UNL A   1      39.134  35.403  36.809  1.00  0.00     0.011 A 
ATOM     23  C   UNL A   1      38.762  33.219  37.778  1.00  0.00     0.011 A 
ATOM     24  C   UNL A   1      39.855  35.792  37.940  1.00  0.00     0.021 A 
ATOM     25  C   UNL A   1      39.482  33.601  38.914  1.00  0.00     0.021 A 
ATOM     26  C   UNL A   1      40.038  34.881  38.981  1.00  0.00     0.067 A 
BRANCH  26  27
ATOM     27  S   UNL A   1      40.956  35.386  40.415  1.00  0.00     0.175 S 
ATOM     28  C   UNL A   1      42.499  35.969  39.763  1.00  0.00     0.163 C 
ATOM     29  O   UNL A   1      40.255  36.496  41.007  1.00  0.00    -0.224 OA
ATOM     30  O   UNL A   1      41.247  34.184  41.194  1.00  0.00    -0.224 OA
ENDBRANCH  26  27
ENDBRANCH  13  21
ENDBRANCH   7   8
ENDBRANCH   4   7
ENDBRANCH   2   3
ENDBRANCH   1   2
BRANCH   1  31
ATOM     31  C   UNL A   1      35.725  33.272  27.982  1.00  0.00     0.118 C 
BRANCH  31  32
ATOM     32  N   UNL A   1      34.684  32.299  27.759  1.00  0.00    -0.352 N 
ATOM     33  C   UNL A   1      34.790  30.925  27.911  1.00  0.00     0.251 C 
ATOM     34  H   UNL A   1      33.809  32.645  27.468  1.00  0.00     0.163 HD
ATOM     35  O   UNL A   1      33.853  30.240  27.505  1.00  0.00    -0.269 OA
BRANCH  33  36
ATOM     36  C   UNL A   1      36.078  30.296  28.387  1.00  0.00     0.039 A 
ATOM     37  C   UNL A   1      37.010  29.974  27.422  1.00  0.00     0.014 A 
ATOM     38  C   UNL A   1      36.377  29.898  29.704  1.00  0.00     0.014 A 
ATOM     39  C   UNL A   1      38.229  29.340  27.784  1.00  0.00     0.010 A 
ATOM     40  C   UNL A   1      37.584  29.141  30.046  1.00  0.00     0.010 A 
ATOM     41  C   UNL A   1      38.566  28.818  29.093  1.00  0.00    -0.014 A 
BRANCH  41  42
ATOM     42  C   UNL A   1      39.681  27.624  29.122  1.00  0.00     0.031 A 
ATOM     43  C   UNL A   1      40.638  28.132  30.151  1.00  0.00     0.074 A 
ATOM     44  C   UNL A   1      40.109  26.442  28.498  1.00  0.00     0.049 A 
ATOM     45  N   UNL A   1      41.144  29.325  30.010  1.00  0.00    -0.248 NA
ATOM     46  C   UNL A   1      40.705  27.620  31.524  1.00  0.00     0.031 C 
ATOM     47  C   UNL A   1      39.561  25.795  27.294  1.00  0.00     0.029 A 
ATOM     48  N   UNL A   1      41.167  25.507  28.793  1.00  0.00    -0.354 N 
ATOM     49  C   UNL A   1      41.891  29.575  31.119  1.00  0.00     0.074 A 
ATOM     50  C   UNL A   1      41.368  28.632  32.102  1.00  0.00     0.031 C 
ATOM     51  C   UNL A   1      40.129  24.573  27.059  1.00  0.00     0.029 A 
ATOM     52  C   UNL A   1      41.177  24.269  28.035  1.00  0.00     0.049 A 
ATOM     53  H   UNL A   1      41.849  25.699  29.477  1.00  0.00     0.167 HD
ATOM     54  C   UNL A   1      43.184  29.924  30.863  1.00  0.00     0.034 A 
ATOM     55  C   UNL A   1      41.999  23.136  28.105  1.00  0.00     0.034 A 
ATOM     56  C   UNL A   1      44.087  28.829  31.089  1.00  0.00     0.049 A 
ATOM     57  C   UNL A   1      43.266  23.605  28.679  1.00  0.00     0.074 A 
ATOM     58  C   UNL A   1      44.145  27.842  32.057  1.00  0.00     0.029 A 
ATOM     59  N   UNL A   1      44.736  28.336  29.978  1.00  0.00    -0.354 N 
ATOM     60  N   UNL A   1      44.142  24.240  27.959  1.00  0.00    -0.248 NA
ATOM     61  C   UNL A   1      43.689  23.274  30.035  1.00  0.00     0.031 C 
ATOM     62  C   UNL A   1      44.269  26.648  31.314  1.00  0.00     0.029 A 
ATOM     63  C   UNL A   1      44.725  26.959  30.041  1.00  0.00     0.049 A 
ATOM     64  H   UNL A   1      45.139  28.876  29.260  1.00  0.00     0.167 HD
ATOM     65  C   UNL A   1      44.889  24.864  28.909  1.00  0.00     0.074 A 
ATOM     66  C   UNL A   1      44.786  24.031  30.094  1.00  0.00     0.031 C 
ATOM     67  C   UNL A   1      44.960  26.214  28.830  1.00  0.00     0.034 A 
BRANCH  54  68
ATOM     68  C   UNL A   1      43.367  30.960  29.772  1.00  0.00     0.023 A 
ATOM     69  C   UNL A   1      44.137  30.589  28.659  1.00  0.00     0.012 A 
ATOM     70  C   UNL A   1      42.914  32.305  29.862  1.00  0.00     0.148 A 
ATOM     71  C   UNL A   1      44.499  31.538  27.698  1.00  0.00     0.002 A 
ATOM     72  C   UNL A   1      43.384  33.267  28.978  1.00  0.00     0.091 A 
ATOM     73  F   UNL A   1      41.992  32.632  30.782  1.00  0.00    -0.205 F 
ATOM     74  C   UNL A   1      44.161  32.880  27.879  1.00  0.00     0.022 A 
BRANCH  72  75
ATOM     75  S   UNL A   1      43.222  35.030  29.328  1.00  0.00     0.127 S 
ATOM     76  O   UNL A   1      44.110  35.206  30.483  1.00  0.00    -0.237 OA
ATOM     77  O   UNL A   1      43.700  35.659  28.103  1.00  0.00    -0.237 OA
ATOM     78  O   UNL A   1      41.814  35.253  29.645  1.00  0.00    -0.744 OA
ENDBRANCH  72  75
ENDBRANCH  54  68
BRANCH  55  79
ATOM     79  C   UNL A   1      42.229  21.651  27.643  1.00  0.00     0.023 A 
ATOM     80  C   UNL A   1      41.105  20.745  27.656  1.00  0.00     0.012 A 
ATOM     81  C   UNL A   1      43.293  21.243  26.807  1.00  0.00     0.148 A 
ATOM     82  C   UNL A   1      40.984  19.609  26.829  1.00  0.00     0.002 A 
ATOM     83  C   UNL A   1      43.181  20.078  25.995  1.00  0.00     0.091 A 
ATOM     84  F   UNL A   1      44.366  22.037  26.720  1.00  0.00    -0.205 F 
ATOM     85  C   UNL A   1      42.023  19.282  25.985  1.00  0.00     0.022 A 
BRANCH  83  86
ATOM     86  S   UNL A   1      44.447  19.548  24.817  1.00  0.00     0.127 S 
ATOM     87  O   UNL A   1      43.863  18.332  24.247  1.00  0.00    -0.237 OA
ATOM     88  O   UNL A   1      44.495  20.683  23.895  1.00  0.00    -0.237 OA
ATOM     89  O   UNL A   1      45.647  19.330  25.611  1.00  0.00    -0.744 OA
ENDBRANCH  83  86
ENDBRANCH  55  79
BRANCH  67  90
ATOM     90  C   UNL A   1      45.048  26.829  27.449  1.00  0.00     0.023 A 
ATOM     91  C   UNL A   1      43.955  27.369  26.735  1.00  0.00     0.012 A 
ATOM     92  C   UNL A   1      46.303  26.827  26.820  1.00  0.00     0.148 A 
ATOM     93  C   UNL A   1      44.104  27.856  25.431  1.00  0.00     0.002 A 
ATOM     94  C   UNL A   1      46.461  27.347  25.539  1.00  0.00     0.091 A 
ATOM     95  F   UNL A   1      47.334  26.295  27.493  1.00  0.00    -0.205 F 
ATOM     96  C   UNL A   1      45.363  27.857  24.835  1.00  0.00     0.022 A 
BRANCH  94  97
ATOM     97  S   UNL A   1      48.075  27.369  24.758  1.00  0.00     0.127 S 
ATOM     98  O   UNL A   1      48.441  25.952  24.783  1.00  0.00    -0.237 OA
ATOM     99  O   UNL A   1      47.806  27.905  23.428  1.00  0.00    -0.237 OA
ATOM    100  O   UNL A   1      48.900  28.234  25.598  1.00  0.00    -0.744 OA
ENDBRANCH  94  97
ENDBRANCH  67  90
ENDBRANCH  41  42
ENDBRANCH  33  36
ENDBRANCH  31  32
ENDBRANCH   1  31
TORSDOF 17
ENDMDL
MODEL 3
REMARK VINA RESULT:     -11.9      2.882      4.721
REMARK SMILES Cc1c(CC(=O)NCCCNC(=O)c2ccc(-c3c4nc(c(-c5cccc(S(=O)(=O)[O-])c5F)c5ccc([nH]5)c(-c5cccc(S(=O)(=O)[O-])c5F)c5nc(c(-c6cccc(S(=O)(=O)[O-])c6F)c6ccc3[nH]6)C=C5)C=C4)cc2)cc(-c2ccc(S(C)(=O)=O)cc2)n1-c1cccc(F)c1
REMARK SMILES IDX 9 1 8 2 7 3 5 4 6 5 4 7 3 8 1 9 2 10 89 11 77 12 78 13 90 14
REMARK SMILES IDX 91 15 96 16 92 17 94 18 93 19 95 20 79 21 80 22 88 23 81 24
REMARK SMILES IDX 87 25 82 26 83 27 84 28 85 29 86 30 10 31 11 32 12 33 13 35
REMARK SMILES IDX 14 36 15 37 76 38 16 39 75 40 17 41 18 42 19 43 69 44 20 45
REMARK SMILES IDX 74 46 68 47 70 48 21 49 73 50 67 51 66 52 22 54 54 55 34 56
REMARK SMILES IDX 53 57 35 58 38 59 52 60 71 61 36 62 37 63 51 65 72 66 39 67
REMARK SMILES IDX 23 68 24 69 32 70 25 71 27 72 33 73 26 74 28 75 29 76 30 77
REMARK SMILES IDX 31 78 55 79 56 80 64 81 57 82 59 83 65 84 58 85 60 86 61 87
REMARK SMILES IDX 62 88 63 89 40 90 41 91 49 92 42 93 44 94 50 95 43 96 45 97
REMARK SMILES IDX 46 98 47 99 48 100
REMARK H PARENT 7 6 11 34 70 53 38 64
REMARK Flexibility Score: inf
ROOT
ATOM      1  C   UNL A   1      42.284  21.046  26.653  1.00  0.00     0.042 C 
ENDROOT
BRANCH   1   2
ATOM      2  C   UNL A   1      41.125  20.888  27.645  1.00  0.00     0.117 C 
BRANCH   2   3
ATOM      3  N   UNL A   1      40.457  22.135  27.970  1.00  0.00    -0.356 N 
ATOM      4  C   UNL A   1      39.698  22.970  27.207  1.00  0.00     0.224 C 
ATOM      5  O   UNL A   1      39.254  23.992  27.738  1.00  0.00    -0.275 OA
ATOM      6  H   UNL A   1      40.572  22.428  28.902  1.00  0.00     0.163 HD
BRANCH   4   7
ATOM      7  C   UNL A   1      39.332  22.623  25.774  1.00  0.00     0.137 C 
BRANCH   7   8
ATOM      8  C   UNL A   1      37.863  22.622  25.482  1.00  0.00    -0.017 A 
ATOM      9  C   UNL A   1      37.441  20.120  24.919  1.00  0.00     0.065 C 
ATOM     10  C   UNL A   1      37.048  21.545  25.154  1.00  0.00     0.024 A 
ATOM     11  N   UNL A   1      35.743  22.009  25.006  1.00  0.00    -0.313 N 
ATOM     12  C   UNL A   1      37.041  23.778  25.455  1.00  0.00     0.033 A 
ATOM     13  C   UNL A   1      35.736  23.392  25.210  1.00  0.00     0.053 A 
BRANCH  11  14
ATOM     14  C   UNL A   1      34.596  21.221  24.713  1.00  0.00     0.049 A 
ATOM     15  C   UNL A   1      33.753  21.588  23.653  1.00  0.00     0.027 A 
ATOM     16  C   UNL A   1      34.266  20.139  25.533  1.00  0.00     0.065 A 
ATOM     17  C   UNL A   1      32.576  20.874  23.418  1.00  0.00     0.005 A 
ATOM     18  C   UNL A   1      33.081  19.452  25.296  1.00  0.00     0.125 A 
ATOM     19  C   UNL A   1      32.236  19.808  24.248  1.00  0.00     0.039 A 
ATOM     20  F   UNL A   1      32.727  18.450  26.109  1.00  0.00    -0.207 F 
ENDBRANCH  11  14
BRANCH  13  21
ATOM     21  C   UNL A   1      34.535  24.232  25.288  1.00  0.00    -0.001 A 
ATOM     22  C   UNL A   1      34.259  25.177  24.287  1.00  0.00     0.011 A 
ATOM     23  C   UNL A   1      33.642  24.089  26.357  1.00  0.00     0.011 A 
ATOM     24  C   UNL A   1      33.134  26.001  24.375  1.00  0.00     0.021 A 
ATOM     25  C   UNL A   1      32.513  24.909  26.450  1.00  0.00     0.021 A 
ATOM     26  C   UNL A   1      32.275  25.871  25.467  1.00  0.00     0.067 A 
BRANCH  26  27
ATOM     27  S   UNL A   1      30.847  26.923  25.568  1.00  0.00     0.175 S 
ATOM     28  C   UNL A   1      30.749  27.681  23.967  1.00  0.00     0.163 C 
ATOM     29  O   UNL A   1      29.698  26.074  25.750  1.00  0.00    -0.224 OA
ATOM     30  O   UNL A   1      31.152  27.984  26.526  1.00  0.00    -0.224 OA
ENDBRANCH  26  27
ENDBRANCH  13  21
ENDBRANCH   7   8
ENDBRANCH   4   7
ENDBRANCH   2   3
ENDBRANCH   1   2
BRANCH   1  31
ATOM     31  C   UNL A   1      43.446  21.951  27.089  1.00  0.00     0.118 C 
BRANCH  31  32
ATOM     32  N   UNL A   1      44.062  22.699  26.020  1.00  0.00    -0.352 N 
ATOM     33  C   UNL A   1      43.903  24.052  25.759  1.00  0.00     0.251 C 
ATOM     34  H   UNL A   1      44.654  22.198  25.413  1.00  0.00     0.163 HD
ATOM     35  O   UNL A   1      44.364  24.478  24.702  1.00  0.00    -0.269 OA
BRANCH  33  36
ATOM     36  C   UNL A   1      43.044  24.916  26.651  1.00  0.00     0.039 A 
ATOM     37  C   UNL A   1      42.074  25.680  26.034  1.00  0.00     0.014 A 
ATOM     38  C   UNL A   1      43.208  25.112  28.035  1.00  0.00     0.014 A 
ATOM     39  C   UNL A   1      41.254  26.552  26.798  1.00  0.00     0.010 A 
ATOM     40  C   UNL A   1      42.434  26.101  28.791  1.00  0.00     0.010 A 
ATOM     41  C   UNL A   1      41.422  26.877  28.200  1.00  0.00    -0.014 A 
BRANCH  41  42
ATOM     42  C   UNL A   1      40.805  28.311  28.682  1.00  0.00     0.031 A 
ATOM     43  C   UNL A   1      41.971  29.223  28.480  1.00  0.00     0.074 A 
ATOM     44  C   UNL A   1      39.705  28.938  29.287  1.00  0.00     0.049 A 
ATOM     45  N   UNL A   1      43.112  28.924  29.036  1.00  0.00    -0.248 NA
ATOM     46  C   UNL A   1      42.088  30.158  27.355  1.00  0.00     0.031 C 
ATOM     47  C   UNL A   1      38.496  28.316  29.851  1.00  0.00     0.029 A 
ATOM     48  N   UNL A   1      39.392  30.321  29.555  1.00  0.00    -0.354 N 
ATOM     49  C   UNL A   1      44.016  29.850  28.615  1.00  0.00     0.074 A 
ATOM     50  C   UNL A   1      43.408  30.393  27.405  1.00  0.00     0.031 C 
ATOM     51  C   UNL A   1      37.561  29.244  30.222  1.00  0.00     0.029 A 
ATOM     52  C   UNL A   1      38.046  30.609  30.016  1.00  0.00     0.049 A 
ATOM     53  H   UNL A   1      40.058  31.034  29.430  1.00  0.00     0.167 HD
ATOM     54  C   UNL A   1      44.667  30.501  29.620  1.00  0.00     0.034 A 
ATOM     55  C   UNL A   1      37.394  31.817  30.301  1.00  0.00     0.034 A 
ATOM     56  C   UNL A   1      44.136  31.820  29.832  1.00  0.00     0.049 A 
ATOM     57  C   UNL A   1      38.459  32.768  30.641  1.00  0.00     0.074 A 
ATOM     58  C   UNL A   1      43.689  32.804  28.970  1.00  0.00     0.029 A 
ATOM     59  N   UNL A   1      43.513  32.038  31.042  1.00  0.00    -0.354 N 
ATOM     60  N   UNL A   1      39.029  32.758  31.809  1.00  0.00    -0.248 NA
ATOM     61  C   UNL A   1      38.850  33.864  29.760  1.00  0.00     0.031 C 
ATOM     62  C   UNL A   1      42.426  33.161  29.490  1.00  0.00     0.029 A 
ATOM     63  C   UNL A   1      42.358  32.756  30.816  1.00  0.00     0.049 A 
ATOM     64  H   UNL A   1      43.837  31.731  31.920  1.00  0.00     0.167 HD
ATOM     65  C   UNL A   1      40.191  33.422  31.561  1.00  0.00     0.074 A 
ATOM     66  C   UNL A   1      39.902  34.309  30.449  1.00  0.00     0.031 C 
ATOM     67  C   UNL A   1      41.338  32.753  31.832  1.00  0.00     0.034 A 
BRANCH  54  68
ATOM     68  C   UNL A   1      45.193  29.612  30.729  1.00  0.00     0.023 A 
ATOM     69  C   UNL A   1      44.730  29.869  32.029  1.00  0.00     0.012 A 
ATOM     70  C   UNL A   1      46.203  28.627  30.554  1.00  0.00     0.148 A 
ATOM     71  C   UNL A   1      45.298  29.213  33.126  1.00  0.00     0.002 A 
ATOM     72  C   UNL A   1      46.851  28.079  31.653  1.00  0.00     0.091 A 
ATOM     73  F   UNL A   1      46.499  28.197  29.317  1.00  0.00    -0.205 F 
ATOM     74  C   UNL A   1      46.383  28.355  32.943  1.00  0.00     0.022 A 
BRANCH  72  75
ATOM     75  S   UNL A   1      48.422  27.207  31.484  1.00  0.00     0.127 S 
ATOM     76  O   UNL A   1      49.245  28.177  30.753  1.00  0.00    -0.237 OA
ATOM     77  O   UNL A   1      48.834  26.992  32.866  1.00  0.00    -0.237 OA
ATOM     78  O   UNL A   1      48.136  25.999  30.714  1.00  0.00    -0.744 OA
ENDBRANCH  72  75
ENDBRANCH  54  68
BRANCH  55  79
ATOM     79  C   UNL A   1      36.029  32.527  30.623  1.00  0.00     0.023 A 
ATOM     80  C   UNL A   1      35.748  32.885  31.994  1.00  0.00     0.012 A 
ATOM     81  C   UNL A   1      35.270  33.243  29.671  1.00  0.00     0.148 A 
ATOM     82  C   UNL A   1      34.891  33.934  32.387  1.00  0.00     0.002 A 
ATOM     83  C   UNL A   1      34.382  34.282  30.072  1.00  0.00     0.091 A 
ATOM     84  F   UNL A   1      35.484  32.989  28.375  1.00  0.00    -0.205 F 
ATOM     85  C   UNL A   1      34.216  34.645  31.418  1.00  0.00     0.022 A 
BRANCH  83  86
ATOM     86  S   UNL A   1      33.459  35.319  28.912  1.00  0.00     0.127 S 
ATOM     87  O   UNL A   1      32.621  34.345  28.210  1.00  0.00    -0.237 OA
ATOM     88  O   UNL A   1      32.725  36.204  29.817  1.00  0.00    -0.237 OA
ATOM     89  O   UNL A   1      34.466  35.962  28.082  1.00  0.00    -0.744 OA
ENDBRANCH  83  86
ENDBRANCH  55  79
BRANCH  67  90
ATOM     90  C   UNL A   1      41.358  31.876  33.067  1.00  0.00     0.023 A 
ATOM     91  C   UNL A   1      41.520  32.348  34.389  1.00  0.00     0.012 A 
ATOM     92  C   UNL A   1      41.244  30.491  32.877  1.00  0.00     0.148 A 
ATOM     93  C   UNL A   1      41.599  31.466  35.473  1.00  0.00     0.002 A 
ATOM     94  C   UNL A   1      41.281  29.615  33.957  1.00  0.00     0.091 A 
ATOM     95  F   UNL A   1      41.110  30.045  31.618  1.00  0.00    -0.205 F 
ATOM     96  C   UNL A   1      41.467  30.096  35.260  1.00  0.00     0.022 A 
BRANCH  94  97
ATOM     97  S   UNL A   1      41.102  27.849  33.705  1.00  0.00     0.127 S 
ATOM     98  O   UNL A   1      42.192  27.565  32.770  1.00  0.00    -0.237 OA
ATOM     99  O   UNL A   1      41.285  27.290  35.040  1.00  0.00    -0.237 OA
ATOM    100  O   UNL A   1      39.759  27.670  33.159  1.00  0.00    -0.744 OA
ENDBRANCH  94  97
ENDBRANCH  67  90
ENDBRANCH  41  42
ENDBRANCH  33  36
ENDBRANCH  31  32
ENDBRANCH   1  31
TORSDOF 17
ENDMDL
