MODEL 1
REMARK VINA RESULT:     -11.1      0.000      0.000
REMARK SMILES Cc1n[nH]c(C(F)(F)Cl)c1C(=O)NCCCNC(=O)c1ccc(-c2c3nc(c(-c4cccc(S(=O)(=O)[O-])c4F)c4ccc([nH]4)c(-c4cccc(S(=O)(=O)[O-])c4F)c4nc(c(-c5cccc(S(=O)(=O)[O-])c5F)c5ccc2[nH]5)C=C4)C=C3)cc1
REMARK SMILES IDX 16 1 15 2 14 3 13 4 11 5 12 6 10 8 1 9 2 10 3 11 4 12 5 13
REMARK SMILES IDX 6 15 7 16 8 17 9 18 17 19 18 20 19 22 20 23 21 24 82 25
REMARK SMILES IDX 22 26 81 27 23 28 24 29 25 30 75 31 26 32 80 33 74 34 76 35
REMARK SMILES IDX 27 36 79 37 73 38 72 39 28 41 60 42 40 43 59 44 41 45 44 46
REMARK SMILES IDX 58 47 77 48 42 49 43 50 57 52 78 53 45 54 29 55 30 56 38 57
REMARK SMILES IDX 31 58 33 59 39 60 32 61 34 62 35 63 36 64 37 65 61 66 62 67
REMARK SMILES IDX 70 68 63 69 65 70 71 71 64 72 66 73 67 74 68 75 69 76 46 77
REMARK SMILES IDX 47 78 55 79 48 80 50 81 56 82 49 83 51 84 52 85 53 86 54 87
REMARK H PARENT 13 7 4 14 17 21 76 40 44 51
REMARK Flexibility Score: inf
ROOT
ATOM      1  C   UNL A   1      33.971  28.965  26.129  1.00  0.00     0.118 C 
ENDROOT
BRANCH   1   2
ATOM      2  C   UNL A   1      33.258  27.938  27.005  1.00  0.00     0.042 C 
BRANCH   2   3
ATOM      3  C   UNL A   1      31.744  28.151  27.116  1.00  0.00     0.118 C 
BRANCH   3   4
ATOM      4  N   UNL A   1      31.043  27.005  26.574  1.00  0.00    -0.352 N 
ATOM      5  C   UNL A   1      30.838  26.527  25.315  1.00  0.00     0.255 C 
ATOM      6  O   UNL A   1      29.950  25.662  25.236  1.00  0.00    -0.269 OA
ATOM      7  H   UNL A   1      30.624  26.448  27.269  1.00  0.00     0.163 HD
BRANCH   5   8
ATOM      8  C   UNL A   1      31.602  26.895  24.124  1.00  0.00     0.091 A 
ATOM      9  C   UNL A   1      33.879  25.469  23.957  1.00  0.00     0.069 C 
ATOM     10  C   UNL A   1      32.850  26.458  23.550  1.00  0.00     0.072 A 
ATOM     11  N   UNL A   1      33.155  27.137  22.437  1.00  0.00    -0.180 NA
ATOM     12  N   UNL A   1      32.217  28.064  22.346  1.00  0.00    -0.274 N 
ATOM     13  C   UNL A   1      31.232  27.956  23.280  1.00  0.00     0.133 A 
ATOM     14  H   UNL A   1      32.229  28.772  21.663  1.00  0.00     0.190 HD
BRANCH  13  15
ATOM     15  C   UNL A   1      30.161  28.982  23.171  1.00  0.00     0.365 C 
ATOM     16  F   UNL A   1      30.273  29.873  24.197  1.00  0.00    -0.181 F 
ATOM     17  F   UNL A   1      30.424  29.731  22.051  1.00  0.00    -0.181 F 
ATOM     18  Cl  UNL A   1      28.494  28.448  23.021  1.00  0.00    -0.040 Cl
ENDBRANCH  13  15
ENDBRANCH   5   8
ENDBRANCH   3   4
ENDBRANCH   2   3
ENDBRANCH   1   2
BRANCH   1  19
ATOM     19  N   UNL A   1      33.845  30.311  26.667  1.00  0.00    -0.352 N 
ATOM     20  C   UNL A   1      34.560  30.927  27.663  1.00  0.00     0.251 C 
ATOM     21  H   UNL A   1      33.142  30.862  26.255  1.00  0.00     0.163 HD
ATOM     22  O   UNL A   1      34.129  31.970  28.152  1.00  0.00    -0.269 OA
BRANCH  20  23
ATOM     23  C   UNL A   1      35.836  30.354  28.147  1.00  0.00     0.039 A 
ATOM     24  C   UNL A   1      36.973  30.457  27.339  1.00  0.00     0.014 A 
ATOM     25  C   UNL A   1      35.905  29.672  29.365  1.00  0.00     0.014 A 
ATOM     26  C   UNL A   1      38.186  29.918  27.774  1.00  0.00     0.010 A 
ATOM     27  C   UNL A   1      37.131  29.205  29.831  1.00  0.00     0.010 A 
ATOM     28  C   UNL A   1      38.281  29.309  29.036  1.00  0.00    -0.014 A 
BRANCH  28  29
ATOM     29  C   UNL A   1      39.572  28.779  29.543  1.00  0.00     0.031 A 
ATOM     30  C   UNL A   1      40.290  29.480  30.666  1.00  0.00     0.074 A 
ATOM     31  C   UNL A   1      40.139  27.719  28.934  1.00  0.00     0.049 A 
ATOM     32  N   UNL A   1      41.452  29.206  31.199  1.00  0.00    -0.248 NA
ATOM     33  C   UNL A   1      39.629  30.659  31.251  1.00  0.00     0.031 C 
ATOM     34  C   UNL A   1      39.575  27.002  27.788  1.00  0.00     0.029 A 
ATOM     35  N   UNL A   1      41.326  27.075  29.174  1.00  0.00    -0.354 N 
ATOM     36  C   UNL A   1      41.680  30.197  32.147  1.00  0.00     0.074 A 
ATOM     37  C   UNL A   1      40.551  31.098  32.096  1.00  0.00     0.031 C 
ATOM     38  C   UNL A   1      40.410  26.015  27.431  1.00  0.00     0.029 A 
ATOM     39  C   UNL A   1      41.584  26.048  28.297  1.00  0.00     0.049 A 
ATOM     40  H   UNL A   1      41.937  27.326  29.906  1.00  0.00     0.167 HD
ATOM     41  C   UNL A   1      42.723  30.331  33.001  1.00  0.00     0.034 A 
ATOM     42  C   UNL A   1      42.650  25.230  28.197  1.00  0.00     0.034 A 
ATOM     43  C   UNL A   1      43.822  29.405  33.076  1.00  0.00     0.049 A 
ATOM     44  C   UNL A   1      43.776  25.378  29.182  1.00  0.00     0.074 A 
ATOM     45  C   UNL A   1      44.881  29.399  33.967  1.00  0.00     0.029 A 
ATOM     46  N   UNL A   1      44.009  28.330  32.223  1.00  0.00    -0.354 N 
ATOM     47  N   UNL A   1      43.900  26.229  30.173  1.00  0.00    -0.248 NA
ATOM     48  C   UNL A   1      44.895  24.432  29.060  1.00  0.00     0.031 C 
ATOM     49  C   UNL A   1      45.724  28.335  33.633  1.00  0.00     0.029 A 
ATOM     50  C   UNL A   1      45.172  27.657  32.557  1.00  0.00     0.049 A 
ATOM     51  H   UNL A   1      43.403  28.079  31.488  1.00  0.00     0.167 HD
ATOM     52  C   UNL A   1      45.087  25.896  30.815  1.00  0.00     0.074 A 
ATOM     53  C   UNL A   1      45.635  24.754  30.112  1.00  0.00     0.031 C 
ATOM     54  C   UNL A   1      45.677  26.490  31.881  1.00  0.00     0.034 A 
BRANCH  41  55
ATOM     55  C   UNL A   1      42.705  31.495  33.958  1.00  0.00     0.023 A 
ATOM     56  C   UNL A   1      43.270  32.727  33.571  1.00  0.00     0.012 A 
ATOM     57  C   UNL A   1      42.075  31.390  35.214  1.00  0.00     0.148 A 
ATOM     58  C   UNL A   1      43.240  33.826  34.429  1.00  0.00     0.002 A 
ATOM     59  C   UNL A   1      42.006  32.502  36.045  1.00  0.00     0.091 A 
ATOM     60  F   UNL A   1      41.560  30.206  35.574  1.00  0.00    -0.205 F 
ATOM     61  C   UNL A   1      42.599  33.716  35.660  1.00  0.00     0.022 A 
BRANCH  59  62
ATOM     62  S   UNL A   1      41.132  32.490  37.615  1.00  0.00     0.127 S 
ATOM     63  O   UNL A   1      41.983  31.612  38.418  1.00  0.00    -0.237 OA
ATOM     64  O   UNL A   1      41.176  33.900  38.001  1.00  0.00    -0.237 OA
ATOM     65  O   UNL A   1      39.800  31.978  37.330  1.00  0.00    -0.744 OA
ENDBRANCH  59  62
ENDBRANCH  41  55
BRANCH  42  66
ATOM     66  C   UNL A   1      42.671  24.154  27.165  1.00  0.00     0.023 A 
ATOM     67  C   UNL A   1      43.357  24.372  25.954  1.00  0.00     0.012 A 
ATOM     68  C   UNL A   1      42.043  22.913  27.383  1.00  0.00     0.148 A 
ATOM     69  C   UNL A   1      43.386  23.390  24.965  1.00  0.00     0.002 A 
ATOM     70  C   UNL A   1      42.123  21.917  26.417  1.00  0.00     0.091 A 
ATOM     71  F   UNL A   1      41.389  22.727  28.539  1.00  0.00    -0.205 F 
ATOM     72  C   UNL A   1      42.778  22.160  25.199  1.00  0.00     0.022 A 
BRANCH  70  73
ATOM     73  S   UNL A   1      41.483  20.260  26.685  1.00  0.00     0.127 S 
ATOM     74  O   UNL A   1      40.046  20.505  26.777  1.00  0.00    -0.237 OA
ATOM     75  O   UNL A   1      41.914  19.571  25.468  1.00  0.00    -0.237 OA
ATOM     76  O   UNL A   1      42.124  19.784  27.902  1.00  0.00    -0.744 OA
ENDBRANCH  70  73
ENDBRANCH  42  66
BRANCH  54  77
ATOM     77  C   UNL A   1      46.963  25.893  32.390  1.00  0.00     0.023 A 
ATOM     78  C   UNL A   1      48.198  26.353  31.891  1.00  0.00     0.012 A 
ATOM     79  C   UNL A   1      46.945  24.931  33.419  1.00  0.00     0.148 A 
ATOM     80  C   UNL A   1      49.395  25.838  32.386  1.00  0.00     0.002 A 
ATOM     81  C   UNL A   1      48.143  24.462  33.944  1.00  0.00     0.091 A 
ATOM     82  F   UNL A   1      45.759  24.495  33.867  1.00  0.00    -0.205 F 
ATOM     83  C   UNL A   1      49.369  24.904  33.420  1.00  0.00     0.022 A 
BRANCH  81  84
ATOM     84  S   UNL A   1      48.206  23.336  35.341  1.00  0.00     0.127 S 
ATOM     85  O   UNL A   1      47.401  24.047  36.333  1.00  0.00    -0.237 OA
ATOM     86  O   UNL A   1      47.579  22.131  34.798  1.00  0.00    -0.237 OA
ATOM     87  O   UNL A   1      49.617  23.187  35.675  1.00  0.00    -0.744 OA
ENDBRANCH  81  84
ENDBRANCH  54  77
ENDBRANCH  28  29
ENDBRANCH  20  23
ENDBRANCH   1  19
TORSDOF 14
ENDMDL
MODEL 2
REMARK VINA RESULT:     -11.0      5.999     11.285
REMARK SMILES Cc1n[nH]c(C(F)(F)Cl)c1C(=O)NCCCNC(=O)c1ccc(-c2c3nc(c(-c4cccc(S(=O)(=O)[O-])c4F)c4ccc([nH]4)c(-c4cccc(S(=O)(=O)[O-])c4F)c4nc(c(-c5cccc(S(=O)(=O)[O-])c5F)c5ccc2[nH]5)C=C4)C=C3)cc1
REMARK SMILES IDX 16 1 15 2 14 3 13 4 11 5 12 6 10 8 1 9 2 10 3 11 4 12 5 13
REMARK SMILES IDX 6 15 7 16 8 17 9 18 17 19 18 20 19 22 20 23 21 24 82 25
REMARK SMILES IDX 22 26 81 27 23 28 24 29 25 30 75 31 26 32 80 33 74 34 76 35
REMARK SMILES IDX 27 36 79 37 73 38 72 39 28 41 60 42 40 43 59 44 41 45 44 46
REMARK SMILES IDX 58 47 77 48 42 49 43 50 57 52 78 53 45 54 29 55 30 56 38 57
REMARK SMILES IDX 31 58 33 59 39 60 32 61 34 62 35 63 36 64 37 65 61 66 62 67
REMARK SMILES IDX 70 68 63 69 65 70 71 71 64 72 66 73 67 74 68 75 69 76 46 77
REMARK SMILES IDX 47 78 55 79 48 80 50 81 56 82 49 83 51 84 52 85 53 86 54 87
REMARK H PARENT 13 7 4 14 17 21 76 40 44 51
REMARK Flexibility Score: inf
ROOT
ATOM      1  C   UNL A   1      40.736  21.484  27.018  1.00  0.00     0.118 C 
ENDROOT
BRANCH   1   2
ATOM      2  C   UNL A   1      41.570  20.407  26.330  1.00  0.00     0.042 C 
BRANCH   2   3
ATOM      3  C   UNL A   1      42.952  20.882  25.868  1.00  0.00     0.118 C 
BRANCH   3   4
ATOM      4  N   UNL A   1      42.840  22.172  25.220  1.00  0.00    -0.352 N 
ATOM      5  C   UNL A   1      43.409  23.392  25.430  1.00  0.00     0.255 C 
ATOM      6  O   UNL A   1      42.851  24.326  24.830  1.00  0.00    -0.269 OA
ATOM      7  H   UNL A   1      42.214  22.166  24.460  1.00  0.00     0.163 HD
BRANCH   5   8
ATOM      8  C   UNL A   1      44.614  23.650  26.217  1.00  0.00     0.091 A 
ATOM      9  C   UNL A   1      46.793  23.756  24.641  1.00  0.00     0.069 C 
ATOM     10  C   UNL A   1      46.011  23.813  25.900  1.00  0.00     0.072 A 
ATOM     11  N   UNL A   1      46.754  24.006  26.997  1.00  0.00    -0.180 NA
ATOM     12  N   UNL A   1      45.908  23.856  28.002  1.00  0.00    -0.274 N 
ATOM     13  C   UNL A   1      44.611  23.692  27.621  1.00  0.00     0.133 A 
ATOM     14  H   UNL A   1      46.191  23.860  28.945  1.00  0.00     0.190 HD
BRANCH  13  15
ATOM     15  C   UNL A   1      43.650  23.544  28.746  1.00  0.00     0.365 C 
ATOM     16  F   UNL A   1      42.428  24.019  28.373  1.00  0.00    -0.181 F 
ATOM     17  F   UNL A   1      43.441  22.200  28.932  1.00  0.00    -0.181 F 
ATOM     18  Cl  UNL A   1      44.089  24.191  30.319  1.00  0.00    -0.040 Cl
ENDBRANCH  13  15
ENDBRANCH   5   8
ENDBRANCH   3   4
ENDBRANCH   2   3
ENDBRANCH   1   2
BRANCH   1  19
ATOM     19  N   UNL A   1      39.508  21.761  26.287  1.00  0.00    -0.352 N 
ATOM     20  C   UNL A   1      38.721  22.885  26.289  1.00  0.00     0.251 C 
ATOM     21  H   UNL A   1      39.194  21.032  25.704  1.00  0.00     0.163 HD
ATOM     22  O   UNL A   1      37.589  22.824  25.814  1.00  0.00    -0.269 OA
BRANCH  20  23
ATOM     23  C   UNL A   1      39.221  24.159  26.851  1.00  0.00     0.039 A 
ATOM     24  C   UNL A   1      39.905  25.046  26.013  1.00  0.00     0.014 A 
ATOM     25  C   UNL A   1      39.065  24.461  28.207  1.00  0.00     0.014 A 
ATOM     26  C   UNL A   1      40.390  26.252  26.525  1.00  0.00     0.010 A 
ATOM     27  C   UNL A   1      39.480  25.696  28.697  1.00  0.00     0.010 A 
ATOM     28  C   UNL A   1      40.160  26.599  27.866  1.00  0.00    -0.014 A 
BRANCH  28  29
ATOM     29  C   UNL A   1      40.617  27.900  28.417  1.00  0.00     0.031 A 
ATOM     30  C   UNL A   1      42.087  28.180  28.581  1.00  0.00     0.074 A 
ATOM     31  C   UNL A   1      39.705  28.792  28.851  1.00  0.00     0.049 A 
ATOM     32  N   UNL A   1      42.673  29.227  29.100  1.00  0.00    -0.248 NA
ATOM     33  C   UNL A   1      43.022  27.137  28.126  1.00  0.00     0.031 C 
ATOM     34  C   UNL A   1      38.252  28.602  28.814  1.00  0.00     0.029 A 
ATOM     35  N   UNL A   1      39.862  30.025  29.432  1.00  0.00    -0.354 N 
ATOM     36  C   UNL A   1      44.036  28.953  29.073  1.00  0.00     0.074 A 
ATOM     37  C   UNL A   1      44.190  27.628  28.515  1.00  0.00     0.031 C 
ATOM     38  C   UNL A   1      37.653  29.681  29.340  1.00  0.00     0.029 A 
ATOM     39  C   UNL A   1      38.674  30.624  29.784  1.00  0.00     0.049 A 
ATOM     40  H   UNL A   1      40.741  30.442  29.583  1.00  0.00     0.167 HD
ATOM     41  C   UNL A   1      45.068  29.743  29.454  1.00  0.00     0.034 A 
ATOM     42  C   UNL A   1      38.437  31.798  30.402  1.00  0.00     0.034 A 
ATOM     43  C   UNL A   1      44.910  31.078  29.967  1.00  0.00     0.049 A 
ATOM     44  C   UNL A   1      39.601  32.671  30.780  1.00  0.00     0.074 A 
ATOM     45  C   UNL A   1      45.893  31.994  30.295  1.00  0.00     0.029 A 
ATOM     46  N   UNL A   1      43.692  31.682  30.235  1.00  0.00    -0.354 N 
ATOM     47  N   UNL A   1      40.883  32.458  30.604  1.00  0.00    -0.248 NA
ATOM     48  C   UNL A   1      39.288  33.961  31.409  1.00  0.00     0.031 C 
ATOM     49  C   UNL A   1      45.269  33.144  30.789  1.00  0.00     0.029 A 
ATOM     50  C   UNL A   1      43.897  32.956  30.736  1.00  0.00     0.049 A 
ATOM     51  H   UNL A   1      42.812  31.267  30.090  1.00  0.00     0.167 HD
ATOM     52  C   UNL A   1      41.526  33.602  31.064  1.00  0.00     0.074 A 
ATOM     53  C   UNL A   1      40.489  34.512  31.508  1.00  0.00     0.031 C 
ATOM     54  C   UNL A   1      42.853  33.870  31.124  1.00  0.00     0.034 A 
BRANCH  41  55
ATOM     55  C   UNL A   1      46.467  29.205  29.287  1.00  0.00     0.023 A 
ATOM     56  C   UNL A   1      47.089  28.532  30.358  1.00  0.00     0.012 A 
ATOM     57  C   UNL A   1      47.139  29.309  28.054  1.00  0.00     0.148 A 
ATOM     58  C   UNL A   1      48.371  28.002  30.217  1.00  0.00     0.002 A 
ATOM     59  C   UNL A   1      48.398  28.736  27.905  1.00  0.00     0.091 A 
ATOM     60  F   UNL A   1      46.542  29.968  27.052  1.00  0.00    -0.205 F 
ATOM     61  C   UNL A   1      49.020  28.094  28.989  1.00  0.00     0.022 A 
BRANCH  59  62
ATOM     62  S   UNL A   1      49.284  28.727  26.342  1.00  0.00     0.127 S 
ATOM     63  O   UNL A   1      50.321  27.728  26.598  1.00  0.00    -0.237 OA
ATOM     64  O   UNL A   1      48.245  28.301  25.404  1.00  0.00    -0.237 OA
ATOM     65  O   UNL A   1      49.762  30.087  26.143  1.00  0.00    -0.744 OA
ENDBRANCH  59  62
ENDBRANCH  41  55
BRANCH  42  66
ATOM     66  C   UNL A   1      37.034  32.245  30.640  1.00  0.00     0.023 A 
ATOM     67  C   UNL A   1      36.466  32.082  31.919  1.00  0.00     0.012 A 
ATOM     68  C   UNL A   1      36.273  32.851  29.623  1.00  0.00     0.148 A 
ATOM     69  C   UNL A   1      35.153  32.481  32.170  1.00  0.00     0.002 A 
ATOM     70  C   UNL A   1      34.985  33.297  29.895  1.00  0.00     0.091 A 
ATOM     71  F   UNL A   1      36.829  32.991  28.411  1.00  0.00    -0.205 F 
ATOM     72  C   UNL A   1      34.416  33.096  31.162  1.00  0.00     0.022 A 
BRANCH  70  73
ATOM     73  S   UNL A   1      34.010  34.217  28.699  1.00  0.00     0.127 S 
ATOM     74  O   UNL A   1      32.834  34.578  29.486  1.00  0.00    -0.237 OA
ATOM     75  O   UNL A   1      34.903  35.332  28.378  1.00  0.00    -0.237 OA
ATOM     76  O   UNL A   1      33.775  33.300  27.593  1.00  0.00    -0.744 OA
ENDBRANCH  70  73
ENDBRANCH  42  66
BRANCH  54  77
ATOM     77  C   UNL A   1      43.270  35.218  31.650  1.00  0.00     0.023 A 
ATOM     78  C   UNL A   1      43.543  35.387  33.021  1.00  0.00     0.012 A 
ATOM     79  C   UNL A   1      43.464  36.299  30.766  1.00  0.00     0.148 A 
ATOM     80  C   UNL A   1      43.971  36.620  33.511  1.00  0.00     0.002 A 
ATOM     81  C   UNL A   1      43.942  37.509  31.253  1.00  0.00     0.091 A 
ATOM     82  F   UNL A   1      43.182  36.123  29.468  1.00  0.00    -0.205 F 
ATOM     83  C   UNL A   1      44.183  37.676  32.627  1.00  0.00     0.022 A 
BRANCH  81  84
ATOM     84  S   UNL A   1      44.340  38.891  30.177  1.00  0.00     0.127 S 
ATOM     85  O   UNL A   1      44.660  39.939  31.145  1.00  0.00    -0.237 OA
ATOM     86  O   UNL A   1      45.489  38.380  29.429  1.00  0.00    -0.237 OA
ATOM     87  O   UNL A   1      43.150  39.129  29.371  1.00  0.00    -0.744 OA
ENDBRANCH  81  84
ENDBRANCH  54  77
ENDBRANCH  28  29
ENDBRANCH  20  23
ENDBRANCH   1  19
TORSDOF 14
ENDMDL
MODEL 3
REMARK VINA RESULT:     -11.0      3.516      5.570
REMARK SMILES Cc1n[nH]c(C(F)(F)Cl)c1C(=O)NCCCNC(=O)c1ccc(-c2c3nc(c(-c4cccc(S(=O)(=O)[O-])c4F)c4ccc([nH]4)c(-c4cccc(S(=O)(=O)[O-])c4F)c4nc(c(-c5cccc(S(=O)(=O)[O-])c5F)c5ccc2[nH]5)C=C4)C=C3)cc1
REMARK SMILES IDX 16 1 15 2 14 3 13 4 11 5 12 6 10 8 1 9 2 10 3 11 4 12 5 13
REMARK SMILES IDX 6 15 7 16 8 17 9 18 17 19 18 20 19 22 20 23 21 24 82 25
REMARK SMILES IDX 22 26 81 27 23 28 24 29 25 30 75 31 26 32 80 33 74 34 76 35
REMARK SMILES IDX 27 36 79 37 73 38 72 39 28 41 60 42 40 43 59 44 41 45 44 46
REMARK SMILES IDX 58 47 77 48 42 49 43 50 57 52 78 53 45 54 29 55 30 56 38 57
REMARK SMILES IDX 31 58 33 59 39 60 32 61 34 62 35 63 36 64 37 65 61 66 62 67
REMARK SMILES IDX 70 68 63 69 65 70 71 71 64 72 66 73 67 74 68 75 69 76 46 77
REMARK SMILES IDX 47 78 55 79 48 80 50 81 56 82 49 83 51 84 52 85 53 86 54 87
REMARK H PARENT 13 7 4 14 17 21 76 40 44 51
REMARK Flexibility Score: inf
ROOT
ATOM      1  C   UNL A   1      34.823  33.204  28.225  1.00  0.00     0.118 C 
ENDROOT
BRANCH   1   2
ATOM      2  C   UNL A   1      34.386  33.651  29.618  1.00  0.00     0.042 C 
BRANCH   2   3
ATOM      3  C   UNL A   1      35.069  32.895  30.763  1.00  0.00     0.118 C 
BRANCH   3   4
ATOM      4  N   UNL A   1      36.373  33.468  31.025  1.00  0.00    -0.352 N 
ATOM      5  C   UNL A   1      36.937  34.090  32.097  1.00  0.00     0.255 C 
ATOM      6  O   UNL A   1      37.997  34.686  31.842  1.00  0.00    -0.269 OA
ATOM      7  H   UNL A   1      36.986  33.389  30.260  1.00  0.00     0.163 HD
BRANCH   5   8
ATOM      8  C   UNL A   1      36.441  34.045  33.472  1.00  0.00     0.091 A 
ATOM      9  C   UNL A   1      37.727  32.162  34.902  1.00  0.00     0.069 C 
ATOM     10  C   UNL A   1      36.768  33.262  34.638  1.00  0.00     0.072 A 
ATOM     11  N   UNL A   1      35.993  33.575  35.684  1.00  0.00    -0.180 NA
ATOM     12  N   UNL A   1      35.113  34.435  35.201  1.00  0.00    -0.274 N 
ATOM     13  C   UNL A   1      35.343  34.803  33.910  1.00  0.00     0.133 A 
ATOM     14  H   UNL A   1      34.356  34.779  35.728  1.00  0.00     0.190 HD
BRANCH  13  15
ATOM     15  C   UNL A   1      34.370  35.787  33.365  1.00  0.00     0.365 C 
ATOM     16  F   UNL A   1      34.008  36.665  34.344  1.00  0.00    -0.181 F 
ATOM     17  F   UNL A   1      35.040  36.565  32.454  1.00  0.00    -0.181 F 
ATOM     18  Cl  UNL A   1      32.940  35.189  32.539  1.00  0.00    -0.040 Cl
ENDBRANCH  13  15
ENDBRANCH   5   8
ENDBRANCH   3   4
ENDBRANCH   2   3
ENDBRANCH   1   2
BRANCH   1  19
ATOM     19  N   UNL A   1      34.005  32.106  27.732  1.00  0.00    -0.352 N 
ATOM     20  C   UNL A   1      34.344  30.798  27.496  1.00  0.00     0.251 C 
ATOM     21  H   UNL A   1      33.068  32.336  27.539  1.00  0.00     0.163 HD
ATOM     22  O   UNL A   1      33.586  30.093  26.831  1.00  0.00    -0.269 OA
BRANCH  20  23
ATOM     23  C   UNL A   1      35.602  30.232  28.032  1.00  0.00     0.039 A 
ATOM     24  C   UNL A   1      36.757  30.283  27.245  1.00  0.00     0.014 A 
ATOM     25  C   UNL A   1      35.637  29.607  29.282  1.00  0.00     0.014 A 
ATOM     26  C   UNL A   1      37.953  29.749  27.730  1.00  0.00     0.010 A 
ATOM     27  C   UNL A   1      36.846  29.147  29.796  1.00  0.00     0.010 A 
ATOM     28  C   UNL A   1      38.014  29.198  29.021  1.00  0.00    -0.014 A 
BRANCH  28  29
ATOM     29  C   UNL A   1      39.287  28.676  29.580  1.00  0.00     0.031 A 
ATOM     30  C   UNL A   1      39.919  29.339  30.775  1.00  0.00     0.074 A 
ATOM     31  C   UNL A   1      39.917  27.661  28.957  1.00  0.00     0.049 A 
ATOM     32  N   UNL A   1      41.054  29.068  31.363  1.00  0.00    -0.248 NA
ATOM     33  C   UNL A   1      39.192  30.473  31.373  1.00  0.00     0.031 C 
ATOM     34  C   UNL A   1      39.441  26.987  27.746  1.00  0.00     0.029 A 
ATOM     35  N   UNL A   1      41.106  27.036  29.237  1.00  0.00    -0.354 N 
ATOM     36  C   UNL A   1      41.199  30.017  32.368  1.00  0.00     0.074 A 
ATOM     37  C   UNL A   1      40.050  30.892  32.292  1.00  0.00     0.031 C 
ATOM     38  C   UNL A   1      40.322  26.038  27.395  1.00  0.00     0.029 A 
ATOM     39  C   UNL A   1      41.442  26.058  28.330  1.00  0.00     0.049 A 
ATOM     40  H   UNL A   1      41.665  27.265  30.015  1.00  0.00     0.167 HD
ATOM     41  C   UNL A   1      42.186  30.136  33.288  1.00  0.00     0.034 A 
ATOM     42  C   UNL A   1      42.534  25.272  28.256  1.00  0.00     0.034 A 
ATOM     43  C   UNL A   1      43.304  29.235  33.386  1.00  0.00     0.049 A 
ATOM     44  C   UNL A   1      43.596  25.400  29.313  1.00  0.00     0.074 A 
ATOM     45  C   UNL A   1      44.308  29.211  34.338  1.00  0.00     0.029 A 
ATOM     46  N   UNL A   1      43.569  28.206  32.497  1.00  0.00    -0.354 N 
ATOM     47  N   UNL A   1      43.638  26.205  30.348  1.00  0.00    -0.248 NA
ATOM     48  C   UNL A   1      44.745  24.489  29.214  1.00  0.00     0.031 C 
ATOM     49  C   UNL A   1      45.197  28.185  34.006  1.00  0.00     0.029 A 
ATOM     50  C   UNL A   1      44.728  27.547  32.869  1.00  0.00     0.049 A 
ATOM     51  H   UNL A   1      43.015  27.977  31.716  1.00  0.00     0.167 HD
ATOM     52  C   UNL A   1      44.794  25.871  31.044  1.00  0.00     0.074 A 
ATOM     53  C   UNL A   1      45.413  24.777  30.322  1.00  0.00     0.031 C 
ATOM     54  C   UNL A   1      45.303  26.426  32.170  1.00  0.00     0.034 A 
BRANCH  41  55
ATOM     55  C   UNL A   1      42.080  31.251  34.297  1.00  0.00     0.023 A 
ATOM     56  C   UNL A   1      41.473  31.008  35.546  1.00  0.00     0.012 A 
ATOM     57  C   UNL A   1      42.637  32.518  34.036  1.00  0.00     0.148 A 
ATOM     58  C   UNL A   1      41.389  32.017  36.506  1.00  0.00     0.002 A 
ATOM     59  C   UNL A   1      42.593  33.505  35.015  1.00  0.00     0.091 A 
ATOM     60  F   UNL A   1      43.193  32.738  32.837  1.00  0.00    -0.205 F 
ATOM     61  C   UNL A   1      41.958  33.260  36.244  1.00  0.00     0.022 A 
BRANCH  59  62
ATOM     62  S   UNL A   1      43.367  35.113  34.810  1.00  0.00     0.127 S 
ATOM     63  O   UNL A   1      42.825  35.848  35.952  1.00  0.00    -0.237 OA
ATOM     64  O   UNL A   1      44.788  34.784  34.915  1.00  0.00    -0.237 OA
ATOM     65  O   UNL A   1      42.950  35.597  33.502  1.00  0.00    -0.744 OA
ENDBRANCH  59  62
ENDBRANCH  41  55
BRANCH  42  66
ATOM     66  C   UNL A   1      42.645  24.248  27.178  1.00  0.00     0.023 A 
ATOM     67  C   UNL A   1      43.411  24.534  26.030  1.00  0.00     0.012 A 
ATOM     68  C   UNL A   1      42.023  22.990  27.292  1.00  0.00     0.148 A 
ATOM     69  C   UNL A   1      43.525  23.601  25.000  1.00  0.00     0.002 A 
ATOM     70  C   UNL A   1      42.186  22.044  26.287  1.00  0.00     0.091 A 
ATOM     71  F   UNL A   1      41.292  22.740  28.388  1.00  0.00    -0.205 F 
ATOM     72  C   UNL A   1      42.921  22.353  25.132  1.00  0.00     0.022 A 
BRANCH  70  73
ATOM     73  S   UNL A   1      41.557  20.367  26.430  1.00  0.00     0.127 S 
ATOM     74  O   UNL A   1      42.193  19.711  25.291  1.00  0.00    -0.237 OA
ATOM     75  O   UNL A   1      42.071  19.964  27.739  1.00  0.00    -0.237 OA
ATOM     76  O   UNL A   1      40.107  20.485  26.365  1.00  0.00    -0.744 OA
ENDBRANCH  70  73
ENDBRANCH  42  66
BRANCH  54  77
ATOM     77  C   UNL A   1      46.573  25.837  32.726  1.00  0.00     0.023 A 
ATOM     78  C   UNL A   1      47.820  26.389  32.372  1.00  0.00     0.012 A 
ATOM     79  C   UNL A   1      46.521  24.785  33.662  1.00  0.00     0.148 A 
ATOM     80  C   UNL A   1      48.998  25.879  32.915  1.00  0.00     0.002 A 
ATOM     81  C   UNL A   1      47.696  24.318  34.239  1.00  0.00     0.091 A 
ATOM     82  F   UNL A   1      45.326  24.263  33.972  1.00  0.00    -0.205 F 
ATOM     83  C   UNL A   1      48.936  24.854  33.857  1.00  0.00     0.022 A 
BRANCH  81  84
ATOM     84  S   UNL A   1      47.704  23.072  35.532  1.00  0.00     0.127 S 
ATOM     85  O   UNL A   1      47.190  21.902  34.822  1.00  0.00    -0.237 OA
ATOM     86  O   UNL A   1      49.123  22.998  35.882  1.00  0.00    -0.237 OA
ATOM     87  O   UNL A   1      46.846  23.586  36.592  1.00  0.00    -0.744 OA
ENDBRANCH  81  84
ENDBRANCH  54  77
ENDBRANCH  28  29
ENDBRANCH  20  23
ENDBRANCH   1  19
TORSDOF 14
ENDMDL
