MODEL 1
REMARK VINA RESULT:     -11.9      0.000      0.000
REMARK SMILES O=C(CN1C(=O)/C(=C2/Sc3ccccc3N2CCCS(=O)(=O)[O-])SC1=S)NCCCNC(=O)c1ccc(-c2c3nc(c(-c4cccc(S(=O)(=O)[O-])c4F)c4ccc([nH]4)c(-c4cccc(S(=O)(=O)[O-])c4F)c4nc(c(-c5cccc(S(=O)(=O)[O-])c5F)c5ccc2[nH]5)C=C4)C=C3)cc1
REMARK SMILES IDX 28 1 27 2 1 3 2 4 3 6 4 7 5 8 25 9 6 10 7 11 24 12 26 13
REMARK SMILES IDX 8 14 9 15 16 16 10 17 15 18 11 19 14 20 12 21 13 22 17 23
REMARK SMILES IDX 18 24 19 25 20 26 21 27 22 28 23 29 29 30 30 31 31 32 32 33
REMARK SMILES IDX 33 35 34 36 35 37 96 38 36 39 95 40 37 41 38 42 39 43 89 44
REMARK SMILES IDX 40 45 94 46 88 47 90 48 41 49 93 50 87 51 86 52 42 54 74 55
REMARK SMILES IDX 54 56 73 57 55 58 58 59 72 60 91 61 56 62 57 63 71 65 92 66
REMARK SMILES IDX 59 67 43 68 44 69 52 70 45 71 47 72 53 73 46 74 48 75 49 76
REMARK SMILES IDX 50 77 51 78 75 79 76 80 84 81 77 82 79 83 85 84 78 85 80 86
REMARK SMILES IDX 81 87 82 88 83 89 60 90 61 91 69 92 62 93 64 94 70 95 63 96
REMARK SMILES IDX 65 97 66 98 67 99 68 100
REMARK H PARENT 27 5 31 34 90 53 58 64
REMARK Flexibility Score: inf
ROOT
ATOM      1  C   UNL A   1      37.405  21.587  24.113  1.00  0.00     0.117 C 
ENDROOT
BRANCH   1   2
ATOM      2  N   UNL A   1      36.694  22.727  24.756  1.00  0.00    -0.354 N 
ATOM      3  O   UNL A   1      35.600  23.357  22.834  1.00  0.00    -0.273 OA
ATOM      4  C   UNL A   1      35.766  23.522  24.046  1.00  0.00     0.240 C 
ATOM      5  H   UNL A   1      36.874  22.933  25.702  1.00  0.00     0.163 HD
BRANCH   4   6
ATOM      6  C   UNL A   1      34.883  24.592  24.822  1.00  0.00     0.227 C 
BRANCH   6   7
ATOM      7  N   UNL A   1      33.388  24.507  24.564  1.00  0.00    -0.283 N 
ATOM      8  C   UNL A   1      32.790  25.170  23.518  1.00  0.00     0.269 C 
ATOM      9  C   UNL A   1      32.528  23.549  25.041  1.00  0.00     0.148 C 
ATOM     10  O   UNL A   1      33.313  25.358  22.431  1.00  0.00    -0.268 OA
ATOM     11  C   UNL A   1      31.334  25.391  23.736  1.00  0.00     0.111 C 
ATOM     12  S   UNL A   1      30.854  23.911  24.526  1.00  0.00    -0.052 SA
ATOM     13  S   UNL A   1      32.894  22.160  25.888  1.00  0.00    -0.052 S 
ATOM     14  C   UNL A   1      30.571  26.506  23.534  1.00  0.00     0.100 C 
ATOM     15  S   UNL A   1      28.751  26.328  23.696  1.00  0.00    -0.068 SA
ATOM     16  N   UNL A   1      30.894  27.861  23.238  1.00  0.00    -0.334 N 
ATOM     17  C   UNL A   1      28.540  28.076  23.401  1.00  0.00     0.037 A 
ATOM     18  C   UNL A   1      29.770  28.734  23.307  1.00  0.00     0.056 A 
ATOM     19  C   UNL A   1      27.348  28.770  23.244  1.00  0.00     0.017 A 
ATOM     20  C   UNL A   1      29.794  30.133  23.249  1.00  0.00     0.027 A 
ATOM     21  C   UNL A   1      27.382  30.161  23.088  1.00  0.00     0.001 A 
ATOM     22  C   UNL A   1      28.600  30.845  23.134  1.00  0.00     0.002 A 
BRANCH  16  23
ATOM     23  C   UNL A   1      31.989  28.426  22.460  1.00  0.00     0.124 C 
BRANCH  23  24
ATOM     24  C   UNL A   1      32.955  29.191  23.337  1.00  0.00     0.037 C 
BRANCH  24  25
ATOM     25  C   UNL A   1      33.655  28.251  24.256  1.00  0.00     0.124 C 
BRANCH  25  26
ATOM     26  S   UNL A   1      33.379  28.469  26.026  1.00  0.00     0.095 S 
ATOM     27  O   UNL A   1      33.140  27.173  26.604  1.00  0.00    -0.243 OA
ATOM     28  O   UNL A   1      34.362  29.345  26.610  1.00  0.00    -0.243 OA
ATOM     29  O   UNL A   1      31.948  29.184  26.115  1.00  0.00    -0.748 OA
ENDBRANCH  25  26
ENDBRANCH  24  25
ENDBRANCH  23  24
ENDBRANCH  16  23
ENDBRANCH   6   7
ENDBRANCH   4   6
ENDBRANCH   1   2
BRANCH   1  30
ATOM     30  C   UNL A   1      37.311  20.142  24.652  1.00  0.00     0.042 C 
BRANCH  30  31
ATOM     31  C   UNL A   1      38.164  19.633  25.827  1.00  0.00     0.118 C 
BRANCH  31  32
ATOM     32  N   UNL A   1      39.574  19.328  25.580  1.00  0.00    -0.352 N 
ATOM     33  C   UNL A   1      40.709  19.930  26.125  1.00  0.00     0.251 C 
ATOM     34  H   UNL A   1      39.746  18.600  24.941  1.00  0.00     0.163 HD
ATOM     35  O   UNL A   1      41.816  19.408  26.014  1.00  0.00    -0.269 OA
BRANCH  33  36
ATOM     36  C   UNL A   1      40.594  21.248  26.775  1.00  0.00     0.039 A 
ATOM     37  C   UNL A   1      40.040  22.328  26.097  1.00  0.00     0.014 A 
ATOM     38  C   UNL A   1      41.211  21.423  28.016  1.00  0.00     0.014 A 
ATOM     39  C   UNL A   1      40.392  23.608  26.493  1.00  0.00     0.010 A 
ATOM     40  C   UNL A   1      41.469  22.714  28.471  1.00  0.00     0.010 A 
ATOM     41  C   UNL A   1      41.162  23.809  27.651  1.00  0.00    -0.014 A 
BRANCH  41  42
ATOM     42  C   UNL A   1      41.712  25.158  27.932  1.00  0.00     0.031 A 
ATOM     43  C   UNL A   1      43.090  25.541  27.449  1.00  0.00     0.074 A 
ATOM     44  C   UNL A   1      40.936  26.063  28.556  1.00  0.00     0.049 A 
ATOM     45  N   UNL A   1      43.713  26.684  27.579  1.00  0.00    -0.248 NA
ATOM     46  C   UNL A   1      43.873  24.520  26.729  1.00  0.00     0.031 C 
ATOM     47  C   UNL A   1      39.585  25.808  29.060  1.00  0.00     0.029 A 
ATOM     48  N   UNL A   1      41.161  27.380  28.855  1.00  0.00    -0.354 N 
ATOM     49  C   UNL A   1      44.966  26.507  27.005  1.00  0.00     0.074 A 
ATOM     50  C   UNL A   1      45.025  25.145  26.524  1.00  0.00     0.031 C 
ATOM     51  C   UNL A   1      39.086  26.941  29.570  1.00  0.00     0.029 A 
ATOM     52  C   UNL A   1      40.104  27.985  29.487  1.00  0.00     0.049 A 
ATOM     53  H   UNL A   1      42.000  27.849  28.637  1.00  0.00     0.167 HD
ATOM     54  C   UNL A   1      45.970  27.404  26.872  1.00  0.00     0.034 A 
ATOM     55  C   UNL A   1      39.968  29.234  29.968  1.00  0.00     0.034 A 
ATOM     56  C   UNL A   1      45.889  28.773  27.300  1.00  0.00     0.049 A 
ATOM     57  C   UNL A   1      41.099  30.204  29.817  1.00  0.00     0.074 A 
ATOM     58  C   UNL A   1      46.840  29.768  27.164  1.00  0.00     0.029 A 
ATOM     59  N   UNL A   1      44.801  29.340  27.943  1.00  0.00    -0.354 N 
ATOM     60  N   UNL A   1      42.251  30.032  29.217  1.00  0.00    -0.248 NA
ATOM     61  C   UNL A   1      40.912  31.542  30.395  1.00  0.00     0.031 C 
ATOM     62  C   UNL A   1      46.336  30.935  27.743  1.00  0.00     0.029 A 
ATOM     63  C   UNL A   1      45.061  30.671  28.217  1.00  0.00     0.049 A 
ATOM     64  H   UNL A   1      43.969  28.867  28.171  1.00  0.00     0.167 HD
ATOM     65  C   UNL A   1      42.921  31.243  29.328  1.00  0.00     0.074 A 
ATOM     66  C   UNL A   1      42.040  32.146  30.041  1.00  0.00     0.031 C 
ATOM     67  C   UNL A   1      44.159  31.569  28.887  1.00  0.00     0.034 A 
BRANCH  54  68
ATOM     68  C   UNL A   1      47.243  26.965  26.200  1.00  0.00     0.023 A 
ATOM     69  C   UNL A   1      47.468  27.306  24.852  1.00  0.00     0.012 A 
ATOM     70  C   UNL A   1      48.265  26.335  26.939  1.00  0.00     0.148 A 
ATOM     71  C   UNL A   1      48.692  27.024  24.246  1.00  0.00     0.002 A 
ATOM     72  C   UNL A   1      49.492  26.084  26.337  1.00  0.00     0.091 A 
ATOM     73  F   UNL A   1      48.022  26.015  28.218  1.00  0.00    -0.205 F 
ATOM     74  C   UNL A   1      49.706  26.426  24.990  1.00  0.00     0.022 A 
BRANCH  72  75
ATOM     75  S   UNL A   1      50.883  25.366  27.219  1.00  0.00     0.127 S 
ATOM     76  O   UNL A   1      51.352  26.507  28.005  1.00  0.00    -0.237 OA
ATOM     77  O   UNL A   1      50.237  24.312  28.000  1.00  0.00    -0.237 OA
ATOM     78  O   UNL A   1      51.810  24.896  26.200  1.00  0.00    -0.744 OA
ENDBRANCH  72  75
ENDBRANCH  54  68
BRANCH  55  79
ATOM     79  C   UNL A   1      38.685  29.621  30.611  1.00  0.00     0.023 A 
ATOM     80  C   UNL A   1      38.414  29.196  31.924  1.00  0.00     0.012 A 
ATOM     81  C   UNL A   1      37.787  30.488  29.961  1.00  0.00     0.148 A 
ATOM     82  C   UNL A   1      37.262  29.627  32.580  1.00  0.00     0.002 A 
ATOM     83  C   UNL A   1      36.663  30.947  30.635  1.00  0.00     0.091 A 
ATOM     84  F   UNL A   1      38.077  30.882  28.713  1.00  0.00    -0.205 F 
ATOM     85  C   UNL A   1      36.393  30.509  31.942  1.00  0.00     0.022 A 
BRANCH  83  86
ATOM     86  S   UNL A   1      35.545  32.165  29.936  1.00  0.00     0.127 S 
ATOM     87  O   UNL A   1      35.012  31.449  28.779  1.00  0.00    -0.237 OA
ATOM     88  O   UNL A   1      34.595  32.359  31.033  1.00  0.00    -0.237 OA
ATOM     89  O   UNL A   1      36.364  33.329  29.628  1.00  0.00    -0.744 OA
ENDBRANCH  83  86
ENDBRANCH  55  79
BRANCH  67  90
ATOM     90  C   UNL A   1      44.654  32.967  29.131  1.00  0.00     0.023 A 
ATOM     91  C   UNL A   1      45.379  33.248  30.304  1.00  0.00     0.012 A 
ATOM     92  C   UNL A   1      44.526  33.952  28.133  1.00  0.00     0.148 A 
ATOM     93  C   UNL A   1      45.973  34.497  30.481  1.00  0.00     0.002 A 
ATOM     94  C   UNL A   1      45.148  35.182  28.301  1.00  0.00     0.091 A 
ATOM     95  F   UNL A   1      43.825  33.654  27.029  1.00  0.00    -0.205 F 
ATOM     96  C   UNL A   1      45.869  35.458  29.476  1.00  0.00     0.022 A 
BRANCH  94  97
ATOM     97  S   UNL A   1      45.133  36.455  27.036  1.00  0.00     0.127 S 
ATOM     98  O   UNL A   1      43.719  36.488  26.664  1.00  0.00    -0.237 OA
ATOM     99  O   UNL A   1      45.597  37.629  27.776  1.00  0.00    -0.237 OA
ATOM    100  O   UNL A   1      46.034  35.998  25.986  1.00  0.00    -0.744 OA
ENDBRANCH  94  97
ENDBRANCH  67  90
ENDBRANCH  41  42
ENDBRANCH  33  36
ENDBRANCH  31  32
ENDBRANCH  30  31
ENDBRANCH   1  30
TORSDOF 18
ENDMDL
MODEL 2
REMARK VINA RESULT:     -10.7      2.165      7.582
REMARK SMILES O=C(CN1C(=O)/C(=C2/Sc3ccccc3N2CCCS(=O)(=O)[O-])SC1=S)NCCCNC(=O)c1ccc(-c2c3nc(c(-c4cccc(S(=O)(=O)[O-])c4F)c4ccc([nH]4)c(-c4cccc(S(=O)(=O)[O-])c4F)c4nc(c(-c5cccc(S(=O)(=O)[O-])c5F)c5ccc2[nH]5)C=C4)C=C3)cc1
REMARK SMILES IDX 28 1 27 2 1 3 2 4 3 6 4 7 5 8 25 9 6 10 7 11 24 12 26 13
REMARK SMILES IDX 8 14 9 15 16 16 10 17 15 18 11 19 14 20 12 21 13 22 17 23
REMARK SMILES IDX 18 24 19 25 20 26 21 27 22 28 23 29 29 30 30 31 31 32 32 33
REMARK SMILES IDX 33 35 34 36 35 37 96 38 36 39 95 40 37 41 38 42 39 43 89 44
REMARK SMILES IDX 40 45 94 46 88 47 90 48 41 49 93 50 87 51 86 52 42 54 74 55
REMARK SMILES IDX 54 56 73 57 55 58 58 59 72 60 91 61 56 62 57 63 71 65 92 66
REMARK SMILES IDX 59 67 43 68 44 69 52 70 45 71 47 72 53 73 46 74 48 75 49 76
REMARK SMILES IDX 50 77 51 78 75 79 76 80 84 81 77 82 79 83 85 84 78 85 80 86
REMARK SMILES IDX 81 87 82 88 83 89 60 90 61 91 69 92 62 93 64 94 70 95 63 96
REMARK SMILES IDX 65 97 66 98 67 99 68 100
REMARK H PARENT 27 5 31 34 90 53 58 64
REMARK Flexibility Score: inf
ROOT
ATOM      1  C   UNL A   1      37.236  22.128  25.813  1.00  0.00     0.117 C 
ENDROOT
BRANCH   1   2
ATOM      2  N   UNL A   1      36.482  22.567  24.606  1.00  0.00    -0.354 N 
ATOM      3  O   UNL A   1      35.192  24.087  25.748  1.00  0.00    -0.273 OA
ATOM      4  C   UNL A   1      35.515  23.595  24.664  1.00  0.00     0.240 C 
ATOM      5  H   UNL A   1      36.662  22.128  23.742  1.00  0.00     0.163 HD
BRANCH   4   6
ATOM      6  C   UNL A   1      34.886  24.168  23.321  1.00  0.00     0.227 C 
BRANCH   6   7
ATOM      7  N   UNL A   1      33.367  24.187  23.274  1.00  0.00    -0.283 N 
ATOM      8  C   UNL A   1      32.675  25.028  22.435  1.00  0.00     0.269 C 
ATOM      9  C   UNL A   1      32.522  23.202  23.722  1.00  0.00     0.148 C 
ATOM     10  O   UNL A   1      33.055  25.362  21.324  1.00  0.00    -0.268 OA
ATOM     11  C   UNL A   1      31.279  25.273  22.893  1.00  0.00     0.111 C 
ATOM     12  S   UNL A   1      30.819  23.709  23.515  1.00  0.00    -0.052 SA
ATOM     13  S   UNL A   1      32.912  21.684  24.291  1.00  0.00    -0.052 S 
ATOM     14  C   UNL A   1      30.567  26.436  22.971  1.00  0.00     0.100 C 
ATOM     15  S   UNL A   1      28.779  26.311  23.367  1.00  0.00    -0.068 SA
ATOM     16  N   UNL A   1      30.932  27.807  22.835  1.00  0.00    -0.334 N 
ATOM     17  C   UNL A   1      28.641  28.090  23.368  1.00  0.00     0.037 A 
ATOM     18  C   UNL A   1      29.885  28.703  23.196  1.00  0.00     0.056 A 
ATOM     19  C   UNL A   1      27.484  28.849  23.491  1.00  0.00     0.017 A 
ATOM     20  C   UNL A   1      29.989  30.092  23.343  1.00  0.00     0.027 A 
ATOM     21  C   UNL A   1      27.585  30.245  23.539  1.00  0.00     0.001 A 
ATOM     22  C   UNL A   1      28.838  30.863  23.510  1.00  0.00     0.002 A 
BRANCH  16  23
ATOM     23  C   UNL A   1      31.943  28.440  21.999  1.00  0.00     0.124 C 
BRANCH  23  24
ATOM     24  C   UNL A   1      33.310  28.386  22.646  1.00  0.00     0.037 C 
BRANCH  24  25
ATOM     25  C   UNL A   1      33.320  29.225  23.876  1.00  0.00     0.124 C 
BRANCH  25  26
ATOM     26  S   UNL A   1      33.433  28.367  25.459  1.00  0.00     0.095 S 
ATOM     27  O   UNL A   1      33.465  26.951  25.197  1.00  0.00    -0.243 OA
ATOM     28  O   UNL A   1      34.429  28.961  26.313  1.00  0.00    -0.243 OA
ATOM     29  O   UNL A   1      31.995  28.587  26.129  1.00  0.00    -0.748 OA
ENDBRANCH  25  26
ENDBRANCH  24  25
ENDBRANCH  23  24
ENDBRANCH  16  23
ENDBRANCH   6   7
ENDBRANCH   4   6
ENDBRANCH   1   2
BRANCH   1  30
ATOM     30  C   UNL A   1      38.747  22.404  25.991  1.00  0.00     0.042 C 
BRANCH  30  31
ATOM     31  C   UNL A   1      39.659  21.519  26.860  1.00  0.00     0.118 C 
BRANCH  31  32
ATOM     32  N   UNL A   1      40.224  20.309  26.262  1.00  0.00    -0.352 N 
ATOM     33  C   UNL A   1      41.563  19.941  26.128  1.00  0.00     0.251 C 
ATOM     34  H   UNL A   1      39.570  19.666  25.904  1.00  0.00     0.163 HD
ATOM     35  O   UNL A   1      41.875  18.789  25.831  1.00  0.00    -0.269 OA
BRANCH  33  36
ATOM     36  C   UNL A   1      42.617  20.961  26.267  1.00  0.00     0.039 A 
ATOM     37  C   UNL A   1      43.139  21.278  27.516  1.00  0.00     0.014 A 
ATOM     38  C   UNL A   1      42.950  21.718  25.141  1.00  0.00     0.014 A 
ATOM     39  C   UNL A   1      43.714  22.525  27.695  1.00  0.00     0.010 A 
ATOM     40  C   UNL A   1      43.627  22.923  25.307  1.00  0.00     0.010 A 
ATOM     41  C   UNL A   1      43.907  23.385  26.601  1.00  0.00    -0.014 A 
BRANCH  41  42
ATOM     42  C   UNL A   1      44.314  24.790  26.844  1.00  0.00     0.031 A 
ATOM     43  C   UNL A   1      43.331  25.788  27.407  1.00  0.00     0.074 A 
ATOM     44  C   UNL A   1      45.594  25.146  26.631  1.00  0.00     0.049 A 
ATOM     45  N   UNL A   1      43.525  27.046  27.709  1.00  0.00    -0.248 NA
ATOM     46  C   UNL A   1      41.955  25.324  27.665  1.00  0.00     0.031 C 
ATOM     47  C   UNL A   1      46.634  24.264  26.098  1.00  0.00     0.029 A 
ATOM     48  N   UNL A   1      46.242  26.332  26.853  1.00  0.00    -0.354 N 
ATOM     49  C   UNL A   1      42.297  27.531  28.145  1.00  0.00     0.074 A 
ATOM     50  C   UNL A   1      41.356  26.437  28.067  1.00  0.00     0.031 C 
ATOM     51  C   UNL A   1      47.798  24.927  26.070  1.00  0.00     0.029 A 
ATOM     52  C   UNL A   1      47.574  26.296  26.523  1.00  0.00     0.049 A 
ATOM     53  H   UNL A   1      45.796  27.133  27.215  1.00  0.00     0.167 HD
ATOM     54  C   UNL A   1      41.988  28.771  28.588  1.00  0.00     0.034 A 
ATOM     55  C   UNL A   1      48.511  27.260  26.559  1.00  0.00     0.034 A 
ATOM     56  C   UNL A   1      42.938  29.842  28.718  1.00  0.00     0.049 A 
ATOM     57  C   UNL A   1      48.139  28.628  27.045  1.00  0.00     0.074 A 
ATOM     58  C   UNL A   1      42.723  31.119  29.203  1.00  0.00     0.029 A 
ATOM     59  N   UNL A   1      44.274  29.763  28.365  1.00  0.00    -0.354 N 
ATOM     60  N   UNL A   1      46.987  29.046  27.508  1.00  0.00    -0.248 NA
ATOM     61  C   UNL A   1      49.191  29.652  27.026  1.00  0.00     0.031 C 
ATOM     62  C   UNL A   1      43.928  31.822  29.125  1.00  0.00     0.029 A 
ATOM     63  C   UNL A   1      44.897  30.972  28.614  1.00  0.00     0.049 A 
ATOM     64  H   UNL A   1      44.714  28.966  27.992  1.00  0.00     0.167 HD
ATOM     65  C   UNL A   1      47.178  30.377  27.853  1.00  0.00     0.074 A 
ATOM     66  C   UNL A   1      48.562  30.692  27.559  1.00  0.00     0.031 C 
ATOM     67  C   UNL A   1      46.283  31.258  28.358  1.00  0.00     0.034 A 
BRANCH  54  68
ATOM     68  C   UNL A   1      40.572  29.050  29.013  1.00  0.00     0.023 A 
ATOM     69  C   UNL A   1      39.591  29.306  28.035  1.00  0.00     0.012 A 
ATOM     70  C   UNL A   1      40.190  28.927  30.365  1.00  0.00     0.148 A 
ATOM     71  C   UNL A   1      38.251  29.439  28.394  1.00  0.00     0.002 A 
ATOM     72  C   UNL A   1      38.848  29.030  30.712  1.00  0.00     0.091 A 
ATOM     73  F   UNL A   1      41.143  28.689  31.277  1.00  0.00    -0.205 F 
ATOM     74  C   UNL A   1      37.878  29.289  29.728  1.00  0.00     0.022 A 
BRANCH  72  75
ATOM     75  S   UNL A   1      38.254  28.802  32.392  1.00  0.00     0.127 S 
ATOM     76  O   UNL A   1      38.590  27.399  32.634  1.00  0.00    -0.237 OA
ATOM     77  O   UNL A   1      39.068  29.761  33.137  1.00  0.00    -0.237 OA
ATOM     78  O   UNL A   1      36.829  29.098  32.361  1.00  0.00    -0.744 OA
ENDBRANCH  72  75
ENDBRANCH  54  68
BRANCH  55  79
ATOM     79  C   UNL A   1      49.899  26.929  26.142  1.00  0.00     0.023 A 
ATOM     80  C   UNL A   1      50.729  26.207  27.018  1.00  0.00     0.012 A 
ATOM     81  C   UNL A   1      50.356  27.241  24.848  1.00  0.00     0.148 A 
ATOM     82  C   UNL A   1      52.000  25.802  26.610  1.00  0.00     0.002 A 
ATOM     83  C   UNL A   1      51.605  26.799  24.435  1.00  0.00     0.091 A 
ATOM     84  F   UNL A   1      49.538  27.924  24.034  1.00  0.00    -0.205 F 
ATOM     85  C   UNL A   1      52.434  26.087  25.317  1.00  0.00     0.022 A 
BRANCH  83  86
ATOM     86  S   UNL A   1      52.207  27.026  22.757  1.00  0.00     0.127 S 
ATOM     87  O   UNL A   1      52.705  28.399  22.805  1.00  0.00    -0.237 OA
ATOM     88  O   UNL A   1      53.242  25.996  22.672  1.00  0.00    -0.237 OA
ATOM     89  O   UNL A   1      51.059  26.808  21.889  1.00  0.00    -0.744 OA
ENDBRANCH  83  86
ENDBRANCH  55  79
BRANCH  67  90
ATOM     90  C   UNL A   1      46.752  32.655  28.656  1.00  0.00     0.023 A 
ATOM     91  C   UNL A   1      47.259  32.956  29.933  1.00  0.00     0.012 A 
ATOM     92  C   UNL A   1      46.823  33.615  27.629  1.00  0.00     0.148 A 
ATOM     93  C   UNL A   1      47.835  34.201  30.185  1.00  0.00     0.002 A 
ATOM     94  C   UNL A   1      47.428  34.840  27.877  1.00  0.00     0.091 A 
ATOM     95  F   UNL A   1      46.326  33.298  26.424  1.00  0.00    -0.205 F 
ATOM     96  C   UNL A   1      47.930  35.137  29.156  1.00  0.00     0.022 A 
BRANCH  94  97
ATOM     97  S   UNL A   1      47.663  36.081  26.601  1.00  0.00     0.127 S 
ATOM     98  O   UNL A   1      46.347  36.717  26.558  1.00  0.00    -0.237 OA
ATOM     99  O   UNL A   1      48.725  36.910  27.171  1.00  0.00    -0.237 OA
ATOM    100  O   UNL A   1      48.035  35.356  25.393  1.00  0.00    -0.744 OA
ENDBRANCH  94  97
ENDBRANCH  67  90
ENDBRANCH  41  42
ENDBRANCH  33  36
ENDBRANCH  31  32
ENDBRANCH  30  31
ENDBRANCH   1  30
TORSDOF 18
ENDMDL
MODEL 3
REMARK VINA RESULT:     -10.5      6.114      9.683
REMARK SMILES O=C(CN1C(=O)/C(=C2/Sc3ccccc3N2CCCS(=O)(=O)[O-])SC1=S)NCCCNC(=O)c1ccc(-c2c3nc(c(-c4cccc(S(=O)(=O)[O-])c4F)c4ccc([nH]4)c(-c4cccc(S(=O)(=O)[O-])c4F)c4nc(c(-c5cccc(S(=O)(=O)[O-])c5F)c5ccc2[nH]5)C=C4)C=C3)cc1
REMARK SMILES IDX 28 1 27 2 1 3 2 4 3 6 4 7 5 8 25 9 6 10 7 11 24 12 26 13
REMARK SMILES IDX 8 14 9 15 16 16 10 17 15 18 11 19 14 20 12 21 13 22 17 23
REMARK SMILES IDX 18 24 19 25 20 26 21 27 22 28 23 29 29 30 30 31 31 32 32 33
REMARK SMILES IDX 33 35 34 36 35 37 96 38 36 39 95 40 37 41 38 42 39 43 89 44
REMARK SMILES IDX 40 45 94 46 88 47 90 48 41 49 93 50 87 51 86 52 42 54 74 55
REMARK SMILES IDX 54 56 73 57 55 58 58 59 72 60 91 61 56 62 57 63 71 65 92 66
REMARK SMILES IDX 59 67 43 68 44 69 52 70 45 71 47 72 53 73 46 74 48 75 49 76
REMARK SMILES IDX 50 77 51 78 75 79 76 80 84 81 77 82 79 83 85 84 78 85 80 86
REMARK SMILES IDX 81 87 82 88 83 89 60 90 61 91 69 92 62 93 64 94 70 95 63 96
REMARK SMILES IDX 65 97 66 98 67 99 68 100
REMARK H PARENT 27 5 31 34 90 53 58 64
REMARK Flexibility Score: inf
ROOT
ATOM      1  C   UNL A   1      34.044  30.556  27.687  1.00  0.00     0.117 C 
ENDROOT
BRANCH   1   2
ATOM      2  N   UNL A   1      33.200  30.325  26.481  1.00  0.00    -0.354 N 
ATOM      3  O   UNL A   1      31.685  28.992  27.581  1.00  0.00    -0.273 OA
ATOM      4  C   UNL A   1      32.006  29.572  26.541  1.00  0.00     0.240 C 
ATOM      5  H   UNL A   1      33.482  30.707  25.618  1.00  0.00     0.163 HD
BRANCH   4   6
ATOM      6  C   UNL A   1      31.036  29.524  25.282  1.00  0.00     0.227 C 
BRANCH   6   7
ATOM      7  N   UNL A   1      31.344  28.435  24.268  1.00  0.00    -0.283 N 
ATOM      8  C   UNL A   1      31.486  27.118  24.634  1.00  0.00     0.269 C 
ATOM      9  C   UNL A   1      31.165  28.509  22.908  1.00  0.00     0.148 C 
ATOM     10  O   UNL A   1      30.859  26.579  25.532  1.00  0.00    -0.268 OA
ATOM     11  C   UNL A   1      32.274  26.330  23.645  1.00  0.00     0.111 C 
ATOM     12  S   UNL A   1      31.737  27.005  22.128  1.00  0.00    -0.052 SA
ATOM     13  S   UNL A   1      30.438  29.722  22.025  1.00  0.00    -0.052 S 
ATOM     14  C   UNL A   1      33.279  25.425  23.839  1.00  0.00     0.100 C 
ATOM     15  S   UNL A   1      33.856  24.475  22.377  1.00  0.00    -0.068 SA
ATOM     16  N   UNL A   1      34.044  25.055  24.982  1.00  0.00    -0.334 N 
ATOM     17  C   UNL A   1      35.105  23.678  23.373  1.00  0.00     0.037 A 
ATOM     18  C   UNL A   1      35.135  24.193  24.672  1.00  0.00     0.056 A 
ATOM     19  C   UNL A   1      35.960  22.651  22.995  1.00  0.00     0.017 A 
ATOM     20  C   UNL A   1      36.166  23.806  25.537  1.00  0.00     0.027 A 
ATOM     21  C   UNL A   1      36.927  22.199  23.901  1.00  0.00     0.001 A 
ATOM     22  C   UNL A   1      37.059  22.805  25.153  1.00  0.00     0.002 A 
BRANCH  16  23
ATOM     23  C   UNL A   1      33.677  25.001  26.391  1.00  0.00     0.124 C 
BRANCH  23  24
ATOM     24  C   UNL A   1      33.330  23.592  26.819  1.00  0.00     0.037 C 
BRANCH  24  25
ATOM     25  C   UNL A   1      31.868  23.490  27.083  1.00  0.00     0.124 C 
BRANCH  25  26
ATOM     26  S   UNL A   1      30.870  22.608  25.865  1.00  0.00     0.095 S 
ATOM     27  O   UNL A   1      29.676  22.141  26.521  1.00  0.00    -0.243 OA
ATOM     28  O   UNL A   1      30.771  23.344  24.631  1.00  0.00    -0.243 OA
ATOM     29  O   UNL A   1      31.691  21.261  25.587  1.00  0.00    -0.748 OA
ENDBRANCH  25  26
ENDBRANCH  24  25
ENDBRANCH  23  24
ENDBRANCH  16  23
ENDBRANCH   6   7
ENDBRANCH   4   6
ENDBRANCH   1   2
BRANCH   1  30
ATOM     30  C   UNL A   1      35.318  31.431  27.650  1.00  0.00     0.042 C 
BRANCH  30  31
ATOM     31  C   UNL A   1      35.303  32.939  27.953  1.00  0.00     0.118 C 
BRANCH  31  32
ATOM     32  N   UNL A   1      34.025  33.564  28.299  1.00  0.00    -0.352 N 
ATOM     33  C   UNL A   1      33.651  34.190  29.488  1.00  0.00     0.251 C 
ATOM     34  H   UNL A   1      33.336  33.538  27.597  1.00  0.00     0.163 HD
ATOM     35  O   UNL A   1      32.636  34.883  29.544  1.00  0.00    -0.269 OA
BRANCH  33  36
ATOM     36  C   UNL A   1      34.434  33.957  30.714  1.00  0.00     0.039 A 
ATOM     37  C   UNL A   1      35.306  34.927  31.194  1.00  0.00     0.014 A 
ATOM     38  C   UNL A   1      34.407  32.679  31.276  1.00  0.00     0.014 A 
ATOM     39  C   UNL A   1      36.363  34.527  31.995  1.00  0.00     0.010 A 
ATOM     40  C   UNL A   1      35.408  32.308  32.170  1.00  0.00     0.010 A 
ATOM     41  C   UNL A   1      36.457  33.198  32.440  1.00  0.00    -0.014 A 
BRANCH  41  42
ATOM     42  C   UNL A   1      37.701  32.741  33.105  1.00  0.00     0.031 A 
ATOM     43  C   UNL A   1      38.786  32.050  32.313  1.00  0.00     0.074 A 
ATOM     44  C   UNL A   1      37.887  33.018  34.408  1.00  0.00     0.049 A 
ATOM     45  N   UNL A   1      39.948  31.613  32.726  1.00  0.00    -0.248 NA
ATOM     46  C   UNL A   1      38.544  31.818  30.877  1.00  0.00     0.031 C 
ATOM     47  C   UNL A   1      36.912  33.687  35.272  1.00  0.00     0.029 A 
ATOM     48  N   UNL A   1      38.960  32.791  35.228  1.00  0.00    -0.354 N 
ATOM     49  C   UNL A   1      40.550  31.019  31.623  1.00  0.00     0.074 A 
ATOM     50  C   UNL A   1      39.628  31.144  30.517  1.00  0.00     0.031 C 
ATOM     51  C   UNL A   1      37.445  33.852  36.489  1.00  0.00     0.029 A 
ATOM     52  C   UNL A   1      38.773  33.245  36.509  1.00  0.00     0.049 A 
ATOM     53  H   UNL A   1      39.786  32.346  34.927  1.00  0.00     0.167 HD
ATOM     54  C   UNL A   1      41.769  30.439  31.536  1.00  0.00     0.034 A 
ATOM     55  C   UNL A   1      39.568  33.166  37.592  1.00  0.00     0.034 A 
ATOM     56  C   UNL A   1      42.707  30.365  32.622  1.00  0.00     0.049 A 
ATOM     57  C   UNL A   1      40.909  32.509  37.470  1.00  0.00     0.074 A 
ATOM     58  C   UNL A   1      43.985  29.837  32.612  1.00  0.00     0.029 A 
ATOM     59  N   UNL A   1      42.472  30.831  33.904  1.00  0.00    -0.354 N 
ATOM     60  N   UNL A   1      41.481  32.008  36.403  1.00  0.00    -0.248 NA
ATOM     61  C   UNL A   1      41.720  32.415  38.691  1.00  0.00     0.031 C 
ATOM     62  C   UNL A   1      44.518  29.966  33.897  1.00  0.00     0.029 A 
ATOM     63  C   UNL A   1      43.580  30.596  34.698  1.00  0.00     0.049 A 
ATOM     64  H   UNL A   1      41.641  31.264  34.206  1.00  0.00     0.167 HD
ATOM     65  C   UNL A   1      42.726  31.555  36.818  1.00  0.00     0.074 A 
ATOM     66  C   UNL A   1      42.832  31.854  38.232  1.00  0.00     0.031 C 
ATOM     67  C   UNL A   1      43.688  30.938  36.091  1.00  0.00     0.034 A 
BRANCH  54  68
ATOM     68  C   UNL A   1      42.199  29.865  30.213  1.00  0.00     0.023 A 
ATOM     69  C   UNL A   1      42.913  30.673  29.306  1.00  0.00     0.012 A 
ATOM     70  C   UNL A   1      42.014  28.497  29.928  1.00  0.00     0.148 A 
ATOM     71  C   UNL A   1      43.433  30.130  28.132  1.00  0.00     0.002 A 
ATOM     72  C   UNL A   1      42.562  27.955  28.772  1.00  0.00     0.091 A 
ATOM     73  F   UNL A   1      41.327  27.751  30.805  1.00  0.00    -0.205 F 
ATOM     74  C   UNL A   1      43.269  28.771  27.871  1.00  0.00     0.022 A 
BRANCH  72  75
ATOM     75  S   UNL A   1      42.455  26.209  28.366  1.00  0.00     0.127 S 
ATOM     76  O   UNL A   1      43.107  26.170  27.058  1.00  0.00    -0.237 OA
ATOM     77  O   UNL A   1      43.223  25.596  29.449  1.00  0.00    -0.237 OA
ATOM     78  O   UNL A   1      41.036  25.881  28.358  1.00  0.00    -0.744 OA
ENDBRANCH  72  75
ENDBRANCH  54  68
BRANCH  55  79
ATOM     79  C   UNL A   1      39.102  33.761  38.871  1.00  0.00     0.023 A 
ATOM     80  C   UNL A   1      39.499  35.067  39.210  1.00  0.00     0.012 A 
ATOM     81  C   UNL A   1      38.191  33.074  39.696  1.00  0.00     0.148 A 
ATOM     82  C   UNL A   1      38.997  35.680  40.358  1.00  0.00     0.002 A 
ATOM     83  C   UNL A   1      37.663  33.706  40.813  1.00  0.00     0.091 A 
ATOM     84  F   UNL A   1      37.826  31.834  39.341  1.00  0.00    -0.205 F 
ATOM     85  C   UNL A   1      38.072  35.006  41.152  1.00  0.00     0.022 A 
BRANCH  83  86
ATOM     86  S   UNL A   1      36.389  32.960  41.836  1.00  0.00     0.127 S 
ATOM     87  O   UNL A   1      35.213  33.079  40.977  1.00  0.00    -0.237 OA
ATOM     88  O   UNL A   1      36.900  31.598  41.999  1.00  0.00    -0.237 OA
ATOM     89  O   UNL A   1      36.350  33.746  43.061  1.00  0.00    -0.744 OA
ENDBRANCH  83  86
ENDBRANCH  55  79
BRANCH  67  90
ATOM     90  C   UNL A   1      44.963  30.551  36.786  1.00  0.00     0.023 A 
ATOM     91  C   UNL A   1      46.016  31.482  36.868  1.00  0.00     0.012 A 
ATOM     92  C   UNL A   1      45.054  29.328  37.477  1.00  0.00     0.148 A 
ATOM     93  C   UNL A   1      47.147  31.197  37.632  1.00  0.00     0.002 A 
ATOM     94  C   UNL A   1      46.168  29.066  38.264  1.00  0.00     0.091 A 
ATOM     95  F   UNL A   1      44.035  28.461  37.375  1.00  0.00    -0.205 F 
ATOM     96  C   UNL A   1      47.217  29.998  38.339  1.00  0.00     0.022 A 
BRANCH  94  97
ATOM     97  S   UNL A   1      46.319  27.585  39.267  1.00  0.00     0.127 S 
ATOM     98  O   UNL A   1      47.584  27.824  39.961  1.00  0.00    -0.237 OA
ATOM     99  O   UNL A   1      45.131  27.667  40.116  1.00  0.00    -0.237 OA
ATOM    100  O   UNL A   1      46.330  26.463  38.337  1.00  0.00    -0.744 OA
ENDBRANCH  94  97
ENDBRANCH  67  90
ENDBRANCH  41  42
ENDBRANCH  33  36
ENDBRANCH  31  32
ENDBRANCH  30  31
ENDBRANCH   1  30
TORSDOF 18
ENDMDL
