MODEL 1
REMARK VINA RESULT:     -14.1      0.000      0.000
REMARK SMILES O=C(NCCCNC(=O)[C@H]1CCCN(c2cc(-c3ccccn3)nc(-c3ccccc3F)n2)C1)c1ccc(-c2c3nc(c(-c4cccc(S(=O)(=O)[O-])c4F)c4ccc([nH]4)c(-c4cccc(S(=O)(=O)[O-])c4F)c4nc(c(-c5cccc(S(=O)(=O)[O-])c5F)c5ccc2[nH]5)C=C4)C=C3)cc1
REMARK SMILES IDX 4 1 3 2 1 3 2 4 35 6 36 7 97 8 37 9 96 10 38 11 39 12 40 13
REMARK SMILES IDX 90 14 41 15 95 16 89 17 91 18 42 19 94 20 88 21 87 22 43 24
REMARK SMILES IDX 75 25 55 26 74 27 56 28 59 29 73 30 92 31 57 32 58 33 72 35
REMARK SMILES IDX 93 36 60 37 44 38 45 39 53 40 46 41 48 42 54 43 47 44 49 45
REMARK SMILES IDX 50 46 51 47 52 48 76 49 77 50 85 51 78 52 80 53 86 54 79 55
REMARK SMILES IDX 81 56 82 57 83 58 84 59 61 60 62 61 70 62 63 63 65 64 71 65
REMARK SMILES IDX 64 66 66 67 67 68 68 69 69 70 5 71 6 72 7 73 8 74 9 76 10 77
REMARK SMILES IDX 11 78 34 79 12 80 14 81 13 82 15 83 16 84 33 85 17 86 25 87
REMARK SMILES IDX 24 88 18 89 19 90 23 91 20 92 22 93 21 94 26 95 27 96 31 97
REMARK SMILES IDX 28 98 30 99 32 100 29 101
REMARK H PARENT 3 5 91 23 59 34 7 75
REMARK Flexibility Score: inf
ROOT
ATOM      1  C   UNL A   1      33.236  29.129  25.112  1.00  0.00     0.118 C 
ENDROOT
BRANCH   1   2
ATOM      2  N   UNL A   1      32.661  30.357  25.644  1.00  0.00    -0.352 N 
ATOM      3  O   UNL A   1      32.280  32.008  27.119  1.00  0.00    -0.269 OA
ATOM      4  C   UNL A   1      33.023  31.106  26.738  1.00  0.00     0.251 C 
ATOM      5  H   UNL A   1      31.890  30.706  25.141  1.00  0.00     0.163 HD
BRANCH   4   6
ATOM      6  C   UNL A   1      34.279  30.816  27.464  1.00  0.00     0.039 A 
ATOM      7  C   UNL A   1      34.550  29.533  27.939  1.00  0.00     0.014 A 
ATOM      8  C   UNL A   1      35.214  31.839  27.651  1.00  0.00     0.014 A 
ATOM      9  C   UNL A   1      35.666  29.310  28.737  1.00  0.00     0.010 A 
ATOM     10  C   UNL A   1      36.388  31.588  28.367  1.00  0.00     0.010 A 
ATOM     11  C   UNL A   1      36.609  30.329  28.945  1.00  0.00    -0.014 A 
BRANCH  11  12
ATOM     12  C   UNL A   1      37.855  30.014  29.688  1.00  0.00     0.031 A 
ATOM     13  C   UNL A   1      38.094  30.525  31.081  1.00  0.00     0.074 A 
ATOM     14  C   UNL A   1      38.776  29.234  29.087  1.00  0.00     0.049 A 
ATOM     15  N   UNL A   1      39.104  30.286  31.877  1.00  0.00    -0.248 NA
ATOM     16  C   UNL A   1      37.080  31.424  31.656  1.00  0.00     0.031 C 
ATOM     17  C   UNL A   1      38.670  28.720  27.720  1.00  0.00     0.029 A 
ATOM     18  N   UNL A   1      39.965  28.726  29.542  1.00  0.00    -0.354 N 
ATOM     19  C   UNL A   1      38.870  31.027  33.029  1.00  0.00     0.074 A 
ATOM     20  C   UNL A   1      37.624  31.735  32.826  1.00  0.00     0.031 C 
ATOM     21  C   UNL A   1      39.725  27.936  27.461  1.00  0.00     0.029 A 
ATOM     22  C   UNL A   1      40.611  27.935  28.620  1.00  0.00     0.049 A 
ATOM     23  H   UNL A   1      40.323  28.910  30.440  1.00  0.00     0.167 HD
ATOM     24  C   UNL A   1      39.618  31.094  34.155  1.00  0.00     0.034 A 
ATOM     25  C   UNL A   1      41.788  27.285  28.689  1.00  0.00     0.034 A 
ATOM     26  C   UNL A   1      40.837  30.354  34.360  1.00  0.00     0.049 A 
ATOM     27  C   UNL A   1      42.580  27.352  29.961  1.00  0.00     0.074 A 
ATOM     28  C   UNL A   1      41.628  30.307  35.495  1.00  0.00     0.029 A 
ATOM     29  N   UNL A   1      41.443  29.539  33.416  1.00  0.00    -0.354 N 
ATOM     30  N   UNL A   1      42.281  27.962  31.082  1.00  0.00    -0.248 NA
ATOM     31  C   UNL A   1      43.857  26.627  29.992  1.00  0.00     0.031 C 
ATOM     32  C   UNL A   1      42.724  29.482  35.229  1.00  0.00     0.029 A 
ATOM     33  C   UNL A   1      42.603  28.994  33.937  1.00  0.00     0.049 A 
ATOM     34  H   UNL A   1      41.097  29.374  32.509  1.00  0.00     0.167 HD
ATOM     35  C   UNL A   1      43.321  27.680  31.959  1.00  0.00     0.074 A 
ATOM     36  C   UNL A   1      44.247  26.826  31.245  1.00  0.00     0.031 C 
ATOM     37  C   UNL A   1      43.496  28.108  33.233  1.00  0.00     0.034 A 
BRANCH  24  38
ATOM     38  C   UNL A   1      39.127  31.961  35.286  1.00  0.00     0.023 A 
ATOM     39  C   UNL A   1      38.217  31.429  36.222  1.00  0.00     0.012 A 
ATOM     40  C   UNL A   1      39.645  33.257  35.485  1.00  0.00     0.148 A 
ATOM     41  C   UNL A   1      37.815  32.178  37.327  1.00  0.00     0.002 A 
ATOM     42  C   UNL A   1      39.269  33.983  36.610  1.00  0.00     0.091 A 
ATOM     43  F   UNL A   1      40.493  33.754  34.574  1.00  0.00    -0.205 F 
ATOM     44  C   UNL A   1      38.349  33.448  37.528  1.00  0.00     0.022 A 
BRANCH  42  45
ATOM     45  S   UNL A   1      39.965  35.593  37.000  1.00  0.00     0.127 S 
ATOM     46  O   UNL A   1      39.272  35.918  38.246  1.00  0.00    -0.237 OA
ATOM     47  O   UNL A   1      41.387  35.285  37.158  1.00  0.00    -0.237 OA
ATOM     48  O   UNL A   1      39.653  36.450  35.866  1.00  0.00    -0.744 OA
ENDBRANCH  42  45
ENDBRANCH  24  38
BRANCH  25  49
ATOM     49  C   UNL A   1      42.230  26.467  27.526  1.00  0.00     0.023 A 
ATOM     50  C   UNL A   1      42.805  27.104  26.412  1.00  0.00     0.012 A 
ATOM     51  C   UNL A   1      42.190  25.059  27.571  1.00  0.00     0.148 A 
ATOM     52  C   UNL A   1      43.332  26.353  25.360  1.00  0.00     0.002 A 
ATOM     53  C   UNL A   1      42.773  24.318  26.550  1.00  0.00     0.091 A 
ATOM     54  F   UNL A   1      41.625  24.475  28.637  1.00  0.00    -0.205 F 
ATOM     55  C   UNL A   1      43.332  24.963  25.438  1.00  0.00     0.022 A 
BRANCH  53  56
ATOM     56  S   UNL A   1      42.965  22.534  26.646  1.00  0.00     0.127 S 
ATOM     57  O   UNL A   1      44.402  22.399  26.862  1.00  0.00    -0.237 OA
ATOM     58  O   UNL A   1      42.133  22.204  27.804  1.00  0.00    -0.237 OA
ATOM     59  O   UNL A   1      42.464  22.015  25.380  1.00  0.00    -0.744 OA
ENDBRANCH  53  56
ENDBRANCH  25  49
BRANCH  37  60
ATOM     60  C   UNL A   1      44.733  27.658  33.962  1.00  0.00     0.023 A 
ATOM     61  C   UNL A   1      45.865  28.496  33.989  1.00  0.00     0.012 A 
ATOM     62  C   UNL A   1      44.732  26.468  34.714  1.00  0.00     0.148 A 
ATOM     63  C   UNL A   1      46.984  28.147  34.743  1.00  0.00     0.002 A 
ATOM     64  C   UNL A   1      45.833  26.149  35.501  1.00  0.00     0.091 A 
ATOM     65  F   UNL A   1      43.650  25.678  34.659  1.00  0.00    -0.205 F 
ATOM     66  C   UNL A   1      46.963  26.984  35.510  1.00  0.00     0.022 A 
BRANCH  64  67
ATOM     67  S   UNL A   1      45.856  24.726  36.596  1.00  0.00     0.127 S 
ATOM     68  O   UNL A   1      47.243  24.731  37.061  1.00  0.00    -0.237 OA
ATOM     69  O   UNL A   1      44.871  25.100  37.612  1.00  0.00    -0.237 OA
ATOM     70  O   UNL A   1      45.478  23.582  35.779  1.00  0.00    -0.744 OA
ENDBRANCH  64  67
ENDBRANCH  37  60
ENDBRANCH  11  12
ENDBRANCH   4   6
ENDBRANCH   1   2
BRANCH   1  71
ATOM     71  C   UNL A   1      32.972  28.950  23.623  1.00  0.00     0.042 C 
BRANCH  71  72
ATOM     72  C   UNL A   1      34.065  28.185  22.894  1.00  0.00     0.117 C 
BRANCH  72  73
ATOM     73  N   UNL A   1      33.580  27.560  21.677  1.00  0.00    -0.356 N 
ATOM     74  C   UNL A   1      33.033  26.326  21.495  1.00  0.00     0.224 C 
ATOM     75  H   UNL A   1      33.658  28.110  20.863  1.00  0.00     0.163 HD
ATOM     76  O   UNL A   1      32.770  25.971  20.346  1.00  0.00    -0.275 OA
BRANCH  74  77
ATOM     77  C   UNL A   1      32.714  25.473  22.710  1.00  0.00     0.098 C 
ATOM     78  C   UNL A   1      31.245  25.678  23.118  1.00  0.00     0.017 C 
ATOM     79  C   UNL A   1      32.968  23.998  22.382  1.00  0.00     0.131 C 
ATOM     80  C   UNL A   1      30.863  24.754  24.272  1.00  0.00     0.022 C 
ATOM     81  N   UNL A   1      32.490  23.147  23.470  1.00  0.00    -0.356 N 
ATOM     82  C   UNL A   1      31.115  23.291  23.914  1.00  0.00     0.118 C 
BRANCH  81  83
ATOM     83  C   UNL A   1      33.353  22.239  24.036  1.00  0.00     0.133 A 
ATOM     84  C   UNL A   1      32.989  20.917  24.174  1.00  0.00     0.077 A 
ATOM     85  N   UNL A   1      34.565  22.668  24.416  1.00  0.00    -0.211 NA
ATOM     86  C   UNL A   1      33.931  20.041  24.679  1.00  0.00     0.095 A 
ATOM     87  C   UNL A   1      35.412  21.759  24.934  1.00  0.00     0.165 A 
ATOM     88  N   UNL A   1      35.152  20.451  25.076  1.00  0.00    -0.226 NA
BRANCH  86  89
ATOM     89  C   UNL A   1      33.662  18.599  24.734  1.00  0.00     0.089 A 
ATOM     90  C   UNL A   1      34.312  17.713  23.871  1.00  0.00     0.030 A 
ATOM     91  N   UNL A   1      32.733  18.180  25.630  1.00  0.00    -0.255 NA
ATOM     92  C   UNL A   1      34.008  16.356  23.937  1.00  0.00     0.004 A 
ATOM     93  C   UNL A   1      32.471  16.857  25.683  1.00  0.00     0.112 A 
ATOM     94  C   UNL A   1      33.071  15.917  24.862  1.00  0.00     0.020 A 
ENDBRANCH  86  89
BRANCH  87  95
ATOM     95  C   UNL A   1      36.686  22.252  25.440  1.00  0.00     0.055 A 
ATOM     96  C   UNL A   1      36.802  23.554  25.960  1.00  0.00     0.015 A 
ATOM     97  C   UNL A   1      37.830  21.448  25.427  1.00  0.00     0.134 A 
ATOM     98  C   UNL A   1      38.020  24.022  26.463  1.00  0.00     0.001 A 
ATOM     99  C   UNL A   1      39.051  21.913  25.917  1.00  0.00     0.040 A 
ATOM    100  F   UNL A   1      37.784  20.208  24.914  1.00  0.00    -0.206 F 
ATOM    101  C   UNL A   1      39.145  23.201  26.441  1.00  0.00     0.003 A 
ENDBRANCH  87  95
ENDBRANCH  81  83
ENDBRANCH  74  77
ENDBRANCH  72  73
ENDBRANCH  71  72
ENDBRANCH   1  71
TORSDOF 16
ENDMDL
MODEL 2
REMARK VINA RESULT:     -14.0      4.738     10.432
REMARK SMILES O=C(NCCCNC(=O)[C@H]1CCCN(c2cc(-c3ccccn3)nc(-c3ccccc3F)n2)C1)c1ccc(-c2c3nc(c(-c4cccc(S(=O)(=O)[O-])c4F)c4ccc([nH]4)c(-c4cccc(S(=O)(=O)[O-])c4F)c4nc(c(-c5cccc(S(=O)(=O)[O-])c5F)c5ccc2[nH]5)C=C4)C=C3)cc1
REMARK SMILES IDX 4 1 3 2 1 3 2 4 35 6 36 7 97 8 37 9 96 10 38 11 39 12 40 13
REMARK SMILES IDX 90 14 41 15 95 16 89 17 91 18 42 19 94 20 88 21 87 22 43 24
REMARK SMILES IDX 75 25 55 26 74 27 56 28 59 29 73 30 92 31 57 32 58 33 72 35
REMARK SMILES IDX 93 36 60 37 44 38 45 39 53 40 46 41 48 42 54 43 47 44 49 45
REMARK SMILES IDX 50 46 51 47 52 48 76 49 77 50 85 51 78 52 80 53 86 54 79 55
REMARK SMILES IDX 81 56 82 57 83 58 84 59 61 60 62 61 70 62 63 63 65 64 71 65
REMARK SMILES IDX 64 66 66 67 67 68 68 69 69 70 5 71 6 72 7 73 8 74 9 76 10 77
REMARK SMILES IDX 11 78 34 79 12 80 14 81 13 82 15 83 16 84 33 85 17 86 25 87
REMARK SMILES IDX 24 88 18 89 19 90 23 91 20 92 22 93 21 94 26 95 27 96 31 97
REMARK SMILES IDX 28 98 30 99 32 100 29 101
REMARK H PARENT 3 5 91 23 59 34 7 75
REMARK Flexibility Score: inf
ROOT
ATOM      1  C   UNL A   1      35.840  22.178  26.079  1.00  0.00     0.118 C 
ENDROOT
BRANCH   1   2
ATOM      2  N   UNL A   1      36.810  21.120  25.831  1.00  0.00    -0.352 N 
ATOM      3  O   UNL A   1      38.804  20.188  25.381  1.00  0.00    -0.269 OA
ATOM      4  C   UNL A   1      38.183  21.164  25.797  1.00  0.00     0.251 C 
ATOM      5  H   UNL A   1      36.420  20.232  25.660  1.00  0.00     0.163 HD
BRANCH   4   6
ATOM      6  C   UNL A   1      38.906  22.379  26.234  1.00  0.00     0.039 A 
ATOM      7  C   UNL A   1      38.496  23.644  25.813  1.00  0.00     0.014 A 
ATOM      8  C   UNL A   1      39.998  22.253  27.098  1.00  0.00     0.014 A 
ATOM      9  C   UNL A   1      39.267  24.760  26.117  1.00  0.00     0.010 A 
ATOM     10  C   UNL A   1      40.713  23.389  27.489  1.00  0.00     0.010 A 
ATOM     11  C   UNL A   1      40.373  24.650  26.975  1.00  0.00    -0.014 A 
BRANCH  11  12
ATOM     12  C   UNL A   1      41.089  25.883  27.388  1.00  0.00     0.031 A 
ATOM     13  C   UNL A   1      42.498  26.162  26.946  1.00  0.00     0.074 A 
ATOM     14  C   UNL A   1      40.435  26.772  28.162  1.00  0.00     0.049 A 
ATOM     15  N   UNL A   1      43.232  27.221  27.176  1.00  0.00    -0.248 NA
ATOM     16  C   UNL A   1      43.180  25.124  26.156  1.00  0.00     0.031 C 
ATOM     17  C   UNL A   1      39.081  26.582  28.688  1.00  0.00     0.029 A 
ATOM     18  N   UNL A   1      40.803  28.006  28.631  1.00  0.00    -0.354 N 
ATOM     19  C   UNL A   1      44.467  26.968  26.593  1.00  0.00     0.074 A 
ATOM     20  C   UNL A   1      44.390  25.647  26.005  1.00  0.00     0.031 C 
ATOM     21  C   UNL A   1      38.715  27.677  29.368  1.00  0.00     0.029 A 
ATOM     22  C   UNL A   1      39.826  28.622  29.377  1.00  0.00     0.049 A 
ATOM     23  H   UNL A   1      41.682  28.411  28.451  1.00  0.00     0.167 HD
ATOM     24  C   UNL A   1      45.555  27.771  26.539  1.00  0.00     0.034 A 
ATOM     25  C   UNL A   1      39.819  29.811  30.008  1.00  0.00     0.034 A 
ATOM     26  C   UNL A   1      45.606  29.099  27.094  1.00  0.00     0.049 A 
ATOM     27  C   UNL A   1      41.028  30.695  29.905  1.00  0.00     0.074 A 
ATOM     28  C   UNL A   1      46.644  30.014  27.030  1.00  0.00     0.029 A 
ATOM     29  N   UNL A   1      44.586  29.701  27.815  1.00  0.00    -0.354 N 
ATOM     30  N   UNL A   1      42.142  30.485  29.246  1.00  0.00    -0.248 NA
ATOM     31  C   UNL A   1      40.977  31.983  30.607  1.00  0.00     0.031 C 
ATOM     32  C   UNL A   1      46.260  31.159  27.732  1.00  0.00     0.029 A 
ATOM     33  C   UNL A   1      44.973  30.970  28.212  1.00  0.00     0.049 A 
ATOM     34  H   UNL A   1      43.716  29.287  28.014  1.00  0.00     0.167 HD
ATOM     35  C   UNL A   1      42.917  31.621  29.438  1.00  0.00     0.074 A 
ATOM     36  C   UNL A   1      42.136  32.526  30.256  1.00  0.00     0.031 C 
ATOM     37  C   UNL A   1      44.170  31.880  28.989  1.00  0.00     0.034 A 
BRANCH  24  38
ATOM     38  C   UNL A   1      46.778  27.267  25.815  1.00  0.00     0.023 A 
ATOM     39  C   UNL A   1      46.903  27.489  24.429  1.00  0.00     0.012 A 
ATOM     40  C   UNL A   1      47.845  26.675  26.520  1.00  0.00     0.148 A 
ATOM     41  C   UNL A   1      48.062  27.112  23.751  1.00  0.00     0.002 A 
ATOM     42  C   UNL A   1      49.014  26.338  25.844  1.00  0.00     0.091 A 
ATOM     43  F   UNL A   1      47.700  26.453  27.834  1.00  0.00    -0.205 F 
ATOM     44  C   UNL A   1      49.120  26.550  24.459  1.00  0.00     0.022 A 
BRANCH  42  45
ATOM     45  S   UNL A   1      50.462  25.685  26.682  1.00  0.00     0.127 S 
ATOM     46  O   UNL A   1      49.938  24.445  27.253  1.00  0.00    -0.237 OA
ATOM     47  O   UNL A   1      51.401  25.495  25.575  1.00  0.00    -0.237 OA
ATOM     48  O   UNL A   1      50.859  26.700  27.646  1.00  0.00    -0.744 OA
ENDBRANCH  42  45
ENDBRANCH  24  38
BRANCH  25  49
ATOM     49  C   UNL A   1      38.589  30.240  30.728  1.00  0.00     0.023 A 
ATOM     50  C   UNL A   1      38.314  29.709  32.002  1.00  0.00     0.012 A 
ATOM     51  C   UNL A   1      37.758  31.253  30.209  1.00  0.00     0.148 A 
ATOM     52  C   UNL A   1      37.231  30.179  32.747  1.00  0.00     0.002 A 
ATOM     53  C   UNL A   1      36.720  31.760  30.982  1.00  0.00     0.091 A 
ATOM     54  F   UNL A   1      38.033  31.734  28.988  1.00  0.00    -0.205 F 
ATOM     55  C   UNL A   1      36.447  31.215  32.245  1.00  0.00     0.022 A 
BRANCH  53  56
ATOM     56  S   UNL A   1      35.766  33.199  30.486  1.00  0.00     0.127 S 
ATOM     57  O   UNL A   1      34.397  32.734  30.688  1.00  0.00    -0.237 OA
ATOM     58  O   UNL A   1      36.224  34.207  31.443  1.00  0.00    -0.237 OA
ATOM     59  O   UNL A   1      36.146  33.468  29.105  1.00  0.00    -0.744 OA
ENDBRANCH  53  56
ENDBRANCH  25  49
BRANCH  37  60
ATOM     60  C   UNL A   1      44.790  33.200  29.357  1.00  0.00     0.023 A 
ATOM     61  C   UNL A   1      45.613  33.286  30.497  1.00  0.00     0.012 A 
ATOM     62  C   UNL A   1      44.654  34.319  28.513  1.00  0.00     0.148 A 
ATOM     63  C   UNL A   1      46.281  34.471  30.798  1.00  0.00     0.002 A 
ATOM     64  C   UNL A   1      45.360  35.483  28.794  1.00  0.00     0.091 A 
ATOM     65  F   UNL A   1      43.851  34.219  27.443  1.00  0.00    -0.205 F 
ATOM     66  C   UNL A   1      46.167  35.564  29.941  1.00  0.00     0.022 A 
BRANCH  64  67
ATOM     67  S   UNL A   1      45.353  36.904  27.696  1.00  0.00     0.127 S 
ATOM     68  O   UNL A   1      45.883  37.955  28.564  1.00  0.00    -0.237 OA
ATOM     69  O   UNL A   1      46.262  36.478  26.631  1.00  0.00    -0.237 OA
ATOM     70  O   UNL A   1      43.970  37.083  27.276  1.00  0.00    -0.744 OA
ENDBRANCH  64  67
ENDBRANCH  37  60
ENDBRANCH  11  12
ENDBRANCH   4   6
ENDBRANCH   1   2
BRANCH   1  71
ATOM     71  C   UNL A   1      34.536  21.657  26.669  1.00  0.00     0.042 C 
BRANCH  71  72
ATOM     72  C   UNL A   1      33.850  22.642  27.603  1.00  0.00     0.117 C 
BRANCH  72  73
ATOM     73  N   UNL A   1      32.426  22.386  27.720  1.00  0.00    -0.356 N 
ATOM     74  C   UNL A   1      31.390  22.904  27.003  1.00  0.00     0.224 C 
ATOM     75  H   UNL A   1      32.171  21.743  28.421  1.00  0.00     0.163 HD
ATOM     76  O   UNL A   1      30.244  22.606  27.338  1.00  0.00    -0.275 OA
BRANCH  74  77
ATOM     77  C   UNL A   1      31.691  23.771  25.792  1.00  0.00     0.098 C 
ATOM     78  C   UNL A   1      31.683  22.906  24.520  1.00  0.00     0.017 C 
ATOM     79  C   UNL A   1      30.639  24.879  25.681  1.00  0.00     0.131 C 
ATOM     80  C   UNL A   1      31.878  23.766  23.273  1.00  0.00     0.022 C 
ATOM     81  N   UNL A   1      30.799  25.606  24.424  1.00  0.00    -0.356 N 
ATOM     82  C   UNL A   1      30.810  24.854  23.181  1.00  0.00     0.118 C 
BRANCH  81  83
ATOM     83  C   UNL A   1      30.932  26.973  24.455  1.00  0.00     0.133 A 
ATOM     84  C   UNL A   1      30.150  27.773  23.651  1.00  0.00     0.077 A 
ATOM     85  N   UNL A   1      31.817  27.505  25.310  1.00  0.00    -0.211 NA
ATOM     86  C   UNL A   1      30.278  29.143  23.787  1.00  0.00     0.095 A 
ATOM     87  C   UNL A   1      31.909  28.848  25.356  1.00  0.00     0.165 A 
ATOM     88  N   UNL A   1      31.166  29.699  24.633  1.00  0.00    -0.226 NA
BRANCH  86  89
ATOM     89  C   UNL A   1      29.387  30.057  23.060  1.00  0.00     0.089 A 
ATOM     90  C   UNL A   1      29.027  31.293  23.602  1.00  0.00     0.030 A 
ATOM     91  N   UNL A   1      28.908  29.627  21.865  1.00  0.00    -0.255 NA
ATOM     92  C   UNL A   1      28.159  32.118  22.893  1.00  0.00     0.004 A 
ATOM     93  C   UNL A   1      28.082  30.455  21.192  1.00  0.00     0.112 A 
ATOM     94  C   UNL A   1      27.677  31.694  21.662  1.00  0.00     0.020 A 
ENDBRANCH  86  89
BRANCH  87  95
ATOM     95  C   UNL A   1      32.944  29.414  26.210  1.00  0.00     0.055 A 
ATOM     96  C   UNL A   1      34.144  28.718  26.448  1.00  0.00     0.015 A 
ATOM     97  C   UNL A   1      32.779  30.662  26.817  1.00  0.00     0.134 A 
ATOM     98  C   UNL A   1      35.147  29.268  27.254  1.00  0.00     0.001 A 
ATOM     99  C   UNL A   1      33.771  31.212  27.632  1.00  0.00     0.040 A 
ATOM    100  F   UNL A   1      31.642  31.355  26.650  1.00  0.00    -0.206 F 
ATOM    101  C   UNL A   1      34.959  30.515  27.846  1.00  0.00     0.003 A 
ENDBRANCH  87  95
ENDBRANCH  81  83
ENDBRANCH  74  77
ENDBRANCH  72  73
ENDBRANCH  71  72
ENDBRANCH   1  71
TORSDOF 16
ENDMDL
MODEL 3
REMARK VINA RESULT:     -13.8      5.092     10.535
REMARK SMILES O=C(NCCCNC(=O)[C@H]1CCCN(c2cc(-c3ccccn3)nc(-c3ccccc3F)n2)C1)c1ccc(-c2c3nc(c(-c4cccc(S(=O)(=O)[O-])c4F)c4ccc([nH]4)c(-c4cccc(S(=O)(=O)[O-])c4F)c4nc(c(-c5cccc(S(=O)(=O)[O-])c5F)c5ccc2[nH]5)C=C4)C=C3)cc1
REMARK SMILES IDX 4 1 3 2 1 3 2 4 35 6 36 7 97 8 37 9 96 10 38 11 39 12 40 13
REMARK SMILES IDX 90 14 41 15 95 16 89 17 91 18 42 19 94 20 88 21 87 22 43 24
REMARK SMILES IDX 75 25 55 26 74 27 56 28 59 29 73 30 92 31 57 32 58 33 72 35
REMARK SMILES IDX 93 36 60 37 44 38 45 39 53 40 46 41 48 42 54 43 47 44 49 45
REMARK SMILES IDX 50 46 51 47 52 48 76 49 77 50 85 51 78 52 80 53 86 54 79 55
REMARK SMILES IDX 81 56 82 57 83 58 84 59 61 60 62 61 70 62 63 63 65 64 71 65
REMARK SMILES IDX 64 66 66 67 67 68 68 69 69 70 5 71 6 72 7 73 8 74 9 76 10 77
REMARK SMILES IDX 11 78 34 79 12 80 14 81 13 82 15 83 16 84 33 85 17 86 25 87
REMARK SMILES IDX 24 88 18 89 19 90 23 91 20 92 22 93 21 94 26 95 27 96 31 97
REMARK SMILES IDX 28 98 30 99 32 100 29 101
REMARK H PARENT 3 5 91 23 59 34 7 75
REMARK Flexibility Score: inf
ROOT
ATOM      1  C   UNL A   1      36.281  22.156  25.485  1.00  0.00     0.118 C 
ENDROOT
BRANCH   1   2
ATOM      2  N   UNL A   1      37.206  21.039  25.624  1.00  0.00    -0.352 N 
ATOM      3  O   UNL A   1      39.180  19.978  25.771  1.00  0.00    -0.269 OA
ATOM      4  C   UNL A   1      38.555  21.030  25.884  1.00  0.00     0.251 C 
ATOM      5  H   UNL A   1      36.800  20.149  25.512  1.00  0.00     0.163 HD
BRANCH   4   6
ATOM      6  C   UNL A   1      39.253  22.275  26.273  1.00  0.00     0.039 A 
ATOM      7  C   UNL A   1      40.414  22.233  27.045  1.00  0.00     0.014 A 
ATOM      8  C   UNL A   1      38.751  23.506  25.839  1.00  0.00     0.014 A 
ATOM      9  C   UNL A   1      40.976  23.413  27.518  1.00  0.00     0.010 A 
ATOM     10  C   UNL A   1      39.378  24.692  26.230  1.00  0.00     0.010 A 
ATOM     11  C   UNL A   1      40.478  24.657  27.101  1.00  0.00    -0.014 A 
BRANCH  11  12
ATOM     12  C   UNL A   1      41.189  25.893  27.516  1.00  0.00     0.031 A 
ATOM     13  C   UNL A   1      42.591  26.186  27.063  1.00  0.00     0.074 A 
ATOM     14  C   UNL A   1      40.536  26.770  28.305  1.00  0.00     0.049 A 
ATOM     15  N   UNL A   1      43.319  27.248  27.293  1.00  0.00    -0.248 NA
ATOM     16  C   UNL A   1      43.272  25.160  26.256  1.00  0.00     0.031 C 
ATOM     17  C   UNL A   1      39.190  26.565  28.843  1.00  0.00     0.029 A 
ATOM     18  N   UNL A   1      40.901  28.003  28.781  1.00  0.00    -0.354 N 
ATOM     19  C   UNL A   1      44.550  27.009  26.696  1.00  0.00     0.074 A 
ATOM     20  C   UNL A   1      44.477  25.693  26.097  1.00  0.00     0.031 C 
ATOM     21  C   UNL A   1      38.823  27.652  29.537  1.00  0.00     0.029 A 
ATOM     22  C   UNL A   1      39.927  28.605  29.542  1.00  0.00     0.049 A 
ATOM     23  H   UNL A   1      41.775  28.415  28.595  1.00  0.00     0.167 HD
ATOM     24  C   UNL A   1      45.632  27.821  26.637  1.00  0.00     0.034 A 
ATOM     25  C   UNL A   1      39.918  29.789  30.183  1.00  0.00     0.034 A 
ATOM     26  C   UNL A   1      45.679  29.144  27.203  1.00  0.00     0.049 A 
ATOM     27  C   UNL A   1      41.119  30.682  30.075  1.00  0.00     0.074 A 
ATOM     28  C   UNL A   1      46.709  30.067  27.137  1.00  0.00     0.029 A 
ATOM     29  N   UNL A   1      44.663  29.733  27.940  1.00  0.00    -0.354 N 
ATOM     30  N   UNL A   1      42.227  30.486  29.403  1.00  0.00    -0.248 NA
ATOM     31  C   UNL A   1      41.066  31.964  30.789  1.00  0.00     0.031 C 
ATOM     32  C   UNL A   1      46.324  31.203  27.853  1.00  0.00     0.029 A 
ATOM     33  C   UNL A   1      45.044  31.001  28.344  1.00  0.00     0.049 A 
ATOM     34  H   UNL A   1      43.797  29.310  28.145  1.00  0.00     0.167 HD
ATOM     35  C   UNL A   1      42.996  31.626  29.597  1.00  0.00     0.074 A 
ATOM     36  C   UNL A   1      42.217  32.518  30.431  1.00  0.00     0.031 C 
ATOM     37  C   UNL A   1      44.242  31.898  29.137  1.00  0.00     0.034 A 
BRANCH  24  38
ATOM     38  C   UNL A   1      46.850  27.332  25.897  1.00  0.00     0.023 A 
ATOM     39  C   UNL A   1      47.684  26.366  26.496  1.00  0.00     0.012 A 
ATOM     40  C   UNL A   1      47.109  27.743  24.574  1.00  0.00     0.148 A 
ATOM     41  C   UNL A   1      48.766  25.831  25.799  1.00  0.00     0.002 A 
ATOM     42  C   UNL A   1      48.167  27.176  23.871  1.00  0.00     0.091 A 
ATOM     43  F   UNL A   1      46.318  28.678  24.028  1.00  0.00    -0.205 F 
ATOM     44  C   UNL A   1      49.000  26.226  24.484  1.00  0.00     0.022 A 
BRANCH  42  45
ATOM     45  S   UNL A   1      48.499  27.558  22.147  1.00  0.00     0.127 S 
ATOM     46  O   UNL A   1      48.805  26.234  21.607  1.00  0.00    -0.237 OA
ATOM     47  O   UNL A   1      47.222  28.116  21.702  1.00  0.00    -0.237 OA
ATOM     48  O   UNL A   1      49.606  28.503  22.152  1.00  0.00    -0.744 OA
ENDBRANCH  42  45
ENDBRANCH  24  38
BRANCH  25  49
ATOM     49  C   UNL A   1      38.692  30.202  30.920  1.00  0.00     0.023 A 
ATOM     50  C   UNL A   1      38.443  29.671  32.199  1.00  0.00     0.012 A 
ATOM     51  C   UNL A   1      37.840  31.202  30.410  1.00  0.00     0.148 A 
ATOM     52  C   UNL A   1      37.364  30.128  32.958  1.00  0.00     0.002 A 
ATOM     53  C   UNL A   1      36.806  31.696  31.197  1.00  0.00     0.091 A 
ATOM     54  F   UNL A   1      38.090  31.683  29.184  1.00  0.00    -0.205 F 
ATOM     55  C   UNL A   1      36.558  31.151  32.465  1.00  0.00     0.022 A 
BRANCH  53  56
ATOM     56  S   UNL A   1      35.825  33.120  30.710  1.00  0.00     0.127 S 
ATOM     57  O   UNL A   1      34.465  32.621  30.889  1.00  0.00    -0.237 OA
ATOM     58  O   UNL A   1      36.247  34.124  31.688  1.00  0.00    -0.237 OA
ATOM     59  O   UNL A   1      36.214  33.418  29.339  1.00  0.00    -0.744 OA
ENDBRANCH  53  56
ENDBRANCH  25  49
BRANCH  37  60
ATOM     60  C   UNL A   1      44.857  33.220  29.510  1.00  0.00     0.023 A 
ATOM     61  C   UNL A   1      45.607  33.325  30.697  1.00  0.00     0.012 A 
ATOM     62  C   UNL A   1      44.790  34.318  28.631  1.00  0.00     0.148 A 
ATOM     63  C   UNL A   1      46.271  34.510  31.010  1.00  0.00     0.002 A 
ATOM     64  C   UNL A   1      45.494  35.480  28.926  1.00  0.00     0.091 A 
ATOM     65  F   UNL A   1      44.055  34.200  27.515  1.00  0.00    -0.205 F 
ATOM     66  C   UNL A   1      46.227  35.581  30.120  1.00  0.00     0.022 A 
BRANCH  64  67
ATOM     67  S   UNL A   1      45.576  36.871  27.794  1.00  0.00     0.127 S 
ATOM     68  O   UNL A   1      46.070  36.234  26.574  1.00  0.00    -0.237 OA
ATOM     69  O   UNL A   1      44.180  37.306  27.733  1.00  0.00    -0.237 OA
ATOM     70  O   UNL A   1      46.484  37.834  28.403  1.00  0.00    -0.744 OA
ENDBRANCH  64  67
ENDBRANCH  37  60
ENDBRANCH  11  12
ENDBRANCH   4   6
ENDBRANCH   1   2
BRANCH   1  71
ATOM     71  C   UNL A   1      34.892  21.843  26.027  1.00  0.00     0.042 C 
BRANCH  71  72
ATOM     72  C   UNL A   1      34.401  22.839  27.066  1.00  0.00     0.117 C 
BRANCH  72  73
ATOM     73  N   UNL A   1      33.055  22.539  27.519  1.00  0.00    -0.356 N 
ATOM     74  C   UNL A   1      31.861  23.003  27.056  1.00  0.00     0.224 C 
ATOM     75  H   UNL A   1      32.998  21.908  28.274  1.00  0.00     0.163 HD
ATOM     76  O   UNL A   1      30.838  22.676  27.658  1.00  0.00    -0.275 OA
BRANCH  74  77
ATOM     77  C   UNL A   1      31.835  23.844  25.792  1.00  0.00     0.098 C 
ATOM     78  C   UNL A   1      31.408  22.974  24.598  1.00  0.00     0.017 C 
ATOM     79  C   UNL A   1      30.856  25.008  25.972  1.00  0.00     0.131 C 
ATOM     80  C   UNL A   1      31.270  23.814  23.330  1.00  0.00     0.022 C 
ATOM     81  N   UNL A   1      30.674  25.718  24.707  1.00  0.00    -0.356 N 
ATOM     82  C   UNL A   1      30.280  24.959  23.533  1.00  0.00     0.118 C 
BRANCH  81  83
ATOM     83  C   UNL A   1      30.881  27.076  24.667  1.00  0.00     0.133 A 
ATOM     84  C   UNL A   1      30.145  27.874  23.818  1.00  0.00     0.077 A 
ATOM     85  N   UNL A   1      31.790  27.604  25.499  1.00  0.00    -0.211 NA
ATOM     86  C   UNL A   1      30.346  29.239  23.883  1.00  0.00     0.095 A 
ATOM     87  C   UNL A   1      31.954  28.940  25.475  1.00  0.00     0.165 A 
ATOM     88  N   UNL A   1      31.260  29.791  24.704  1.00  0.00    -0.226 NA
BRANCH  86  89
ATOM     89  C   UNL A   1      29.509  30.160  23.104  1.00  0.00     0.089 A 
ATOM     90  C   UNL A   1      28.865  31.239  23.715  1.00  0.00     0.030 A 
ATOM     91  N   UNL A   1      29.364  29.890  21.782  1.00  0.00    -0.255 NA
ATOM     92  C   UNL A   1      28.058  32.072  22.946  1.00  0.00     0.004 A 
ATOM     93  C   UNL A   1      28.589  30.725  21.057  1.00  0.00     0.112 A 
ATOM     94  C   UNL A   1      27.918  31.813  21.589  1.00  0.00     0.020 A 
ENDBRANCH  86  89
BRANCH  87  95
ATOM     95  C   UNL A   1      33.015  29.494  26.305  1.00  0.00     0.055 A 
ATOM     96  C   UNL A   1      34.219  28.792  26.502  1.00  0.00     0.015 A 
ATOM     97  C   UNL A   1      32.873  30.737  26.929  1.00  0.00     0.134 A 
ATOM     98  C   UNL A   1      35.247  29.331  27.284  1.00  0.00     0.001 A 
ATOM     99  C   UNL A   1      33.889  31.275  27.719  1.00  0.00     0.040 A 
ATOM    100  F   UNL A   1      31.734  31.435  26.800  1.00  0.00    -0.206 F 
ATOM    101  C   UNL A   1      35.081  30.572  27.893  1.00  0.00     0.003 A 
ENDBRANCH  87  95
ENDBRANCH  81  83
ENDBRANCH  74  77
ENDBRANCH  72  73
ENDBRANCH  71  72
ENDBRANCH   1  71
TORSDOF 16
ENDMDL
