MODEL 1
REMARK VINA RESULT:     -10.7      0.000      0.000
REMARK SMILES CC[NH2+][C@]1(C(=O)NCCCNC(=O)c2ccc(-c3c4nc(c(-c5cccc(S(=O)(=O)[O-])c5F)c5ccc([nH]5)c(-c5cccc(S(=O)(=O)[O-])c5F)c5nc(c(-c6cccc(S(=O)(=O)[O-])c6F)c6ccc3[nH]6)C=C5)C=C4)cc2)CC[C@@H]([N@@H+](CC)[C@@H](C)CC)C1
REMARK SMILES IDX 9 1 8 2 7 3 5 4 6 5 4 7 77 8 87 9 78 10 79 11 3 12 2 15 1 16
REMARK SMILES IDX 80 17 81 19 82 20 83 21 84 22 85 23 86 24 10 25 11 26 12 27
REMARK SMILES IDX 13 29 14 30 15 31 76 32 16 33 75 34 17 35 18 36 19 37 69 38
REMARK SMILES IDX 20 39 74 40 68 41 70 42 21 43 73 44 67 45 66 46 22 48 54 49
REMARK SMILES IDX 34 50 53 51 35 52 38 53 52 54 71 55 36 56 37 57 51 59 72 60
REMARK SMILES IDX 39 61 23 62 24 63 32 64 25 65 27 66 33 67 26 68 28 69 29 70
REMARK SMILES IDX 30 71 31 72 55 73 56 74 64 75 57 76 59 77 65 78 58 79 60 80
REMARK SMILES IDX 61 81 62 82 63 83 40 84 41 85 49 86 42 87 44 88 50 89 43 90
REMARK SMILES IDX 45 91 46 92 47 93 48 94
REMARK H PARENT 7 6 3 13 3 14 80 18 11 28 70 47 38 58
REMARK Flexibility Score: inf
ROOT
ATOM      1  C   UNL A   1      31.361  32.242  26.564  1.00  0.00     0.042 C 
ENDROOT
BRANCH   1   2
ATOM      2  C   UNL A   1      31.415  30.738  26.379  1.00  0.00     0.118 C 
BRANCH   2   3
ATOM      3  N   UNL A   1      31.366  30.327  24.983  1.00  0.00    -0.351 N 
ATOM      4  C   UNL A   1      31.877  29.303  24.247  1.00  0.00     0.281 C 
ATOM      5  O   UNL A   1      31.450  29.250  23.083  1.00  0.00    -0.268 OA
ATOM      6  H   UNL A   1      30.828  30.944  24.436  1.00  0.00     0.163 HD
BRANCH   4   7
ATOM      7  C   UNL A   1      32.989  28.299  24.733  1.00  0.00     0.181 C 
ATOM      8  C   UNL A   1      32.465  27.117  25.528  1.00  0.00     0.085 C 
ATOM      9  C   UNL A   1      33.596  27.605  23.475  1.00  0.00     0.144 C 
ATOM     10  C   UNL A   1      33.347  25.931  25.244  1.00  0.00     0.072 C 
ATOM     11  C   UNL A   1      33.696  26.079  23.761  1.00  0.00     0.191 C 
BRANCH   7  12
ATOM     12  N   UNL A   1      34.011  29.123  25.435  1.00  0.00    -0.334 N 
ATOM     13  H   UNL A   1      34.873  29.066  24.894  1.00  0.00     0.347 HD
ATOM     14  H   UNL A   1      33.596  30.053  25.497  1.00  0.00     0.347 HD
BRANCH  12  15
ATOM     15  C   UNL A   1      34.333  28.767  26.809  1.00  0.00     0.257 C 
ATOM     16  C   UNL A   1      34.944  29.950  27.545  1.00  0.00     0.071 C 
ENDBRANCH  12  15
ENDBRANCH   7  12
BRANCH  11  17
ATOM     17  N   UNL A   1      33.053  25.127  22.833  1.00  0.00    -0.330 N 
ATOM     18  H   UNL A   1      32.329  24.878  23.507  1.00  0.00     0.348 HD
BRANCH  17  19
ATOM     19  C   UNL A   1      32.544  25.767  21.603  1.00  0.00     0.259 C 
ATOM     20  C   UNL A   1      32.726  25.033  20.276  1.00  0.00     0.071 C 
ENDBRANCH  17  19
BRANCH  17  21
ATOM     21  C   UNL A   1      33.451  23.717  22.640  1.00  0.00     0.180 C 
ATOM     22  C   UNL A   1      34.881  23.333  23.050  1.00  0.00     0.075 C 
BRANCH  21  23
ATOM     23  C   UNL A   1      32.458  22.642  23.136  1.00  0.00     0.061 C 
ATOM     24  C   UNL A   1      32.900  21.968  24.432  1.00  0.00     0.010 C 
ENDBRANCH  21  23
ENDBRANCH  17  21
ENDBRANCH  11  17
ENDBRANCH   4   7
ENDBRANCH   2   3
ENDBRANCH   1   2
BRANCH   1  25
ATOM     25  C   UNL A   1      32.653  32.789  27.148  1.00  0.00     0.118 C 
BRANCH  25  26
ATOM     26  N   UNL A   1      32.509  34.177  27.589  1.00  0.00    -0.352 N 
ATOM     27  C   UNL A   1      33.094  34.846  28.632  1.00  0.00     0.251 C 
ATOM     28  H   UNL A   1      31.892  34.720  27.046  1.00  0.00     0.163 HD
ATOM     29  O   UNL A   1      32.648  35.937  28.975  1.00  0.00    -0.269 OA
BRANCH  27  30
ATOM     30  C   UNL A   1      34.255  34.261  29.330  1.00  0.00     0.039 A 
ATOM     31  C   UNL A   1      35.545  34.608  28.923  1.00  0.00     0.014 A 
ATOM     32  C   UNL A   1      34.068  33.340  30.362  1.00  0.00     0.014 A 
ATOM     33  C   UNL A   1      36.645  34.057  29.581  1.00  0.00     0.010 A 
ATOM     34  C   UNL A   1      35.155  32.887  31.091  1.00  0.00     0.010 A 
ATOM     35  C   UNL A   1      36.456  33.208  30.685  1.00  0.00    -0.014 A 
BRANCH  35  36
ATOM     36  C   UNL A   1      37.598  32.591  31.399  1.00  0.00     0.031 A 
ATOM     37  C   UNL A   1      38.346  31.451  30.759  1.00  0.00     0.074 A 
ATOM     38  C   UNL A   1      37.900  32.992  32.649  1.00  0.00     0.049 A 
ATOM     39  N   UNL A   1      39.313  30.722  31.248  1.00  0.00    -0.248 NA
ATOM     40  C   UNL A   1      37.924  31.050  29.405  1.00  0.00     0.031 C 
ATOM     41  C   UNL A   1      37.191  34.030  33.402  1.00  0.00     0.029 A 
ATOM     42  N   UNL A   1      38.866  32.554  33.516  1.00  0.00    -0.354 N 
ATOM     43  C   UNL A   1      39.579  29.753  30.287  1.00  0.00     0.074 A 
ATOM     44  C   UNL A   1      38.642  29.955  29.207  1.00  0.00     0.031 C 
ATOM     45  C   UNL A   1      37.754  34.155  34.614  1.00  0.00     0.029 A 
ATOM     46  C   UNL A   1      38.839  33.187  34.737  1.00  0.00     0.049 A 
ATOM     47  H   UNL A   1      39.518  31.853  33.288  1.00  0.00     0.167 HD
ATOM     48  C   UNL A   1      40.543  28.803  30.286  1.00  0.00     0.034 A 
ATOM     49  C   UNL A   1      39.601  33.001  35.831  1.00  0.00     0.034 A 
ATOM     50  C   UNL A   1      41.508  28.646  31.338  1.00  0.00     0.049 A 
ATOM     51  C   UNL A   1      40.704  31.978  35.781  1.00  0.00     0.074 A 
ATOM     52  C   UNL A   1      42.582  27.778  31.399  1.00  0.00     0.029 A 
ATOM     53  N   UNL A   1      41.513  29.376  32.516  1.00  0.00    -0.354 N 
ATOM     54  N   UNL A   1      41.038  31.172  34.803  1.00  0.00    -0.248 NA
ATOM     55  C   UNL A   1      41.563  31.869  36.968  1.00  0.00     0.031 C 
ATOM     56  C   UNL A   1      43.223  27.967  32.626  1.00  0.00     0.029 A 
ATOM     57  C   UNL A   1      42.571  28.978  33.314  1.00  0.00     0.049 A 
ATOM     58  H   UNL A   1      40.860  30.075  32.751  1.00  0.00     0.167 HD
ATOM     59  C   UNL A   1      42.170  30.493  35.237  1.00  0.00     0.074 A 
ATOM     60  C   UNL A   1      42.473  30.995  36.562  1.00  0.00     0.031 C 
ATOM     61  C   UNL A   1      42.890  29.534  34.604  1.00  0.00     0.034 A 
BRANCH  48  62
ATOM     62  C   UNL A   1      40.631  27.895  29.085  1.00  0.00     0.023 A 
ATOM     63  C   UNL A   1      39.737  26.810  28.961  1.00  0.00     0.012 A 
ATOM     64  C   UNL A   1      41.563  28.141  28.059  1.00  0.00     0.148 A 
ATOM     65  C   UNL A   1      39.798  25.960  27.858  1.00  0.00     0.002 A 
ATOM     66  C   UNL A   1      41.583  27.319  26.937  1.00  0.00     0.091 A 
ATOM     67  F   UNL A   1      42.419  29.163  28.203  1.00  0.00    -0.205 F 
ATOM     68  C   UNL A   1      40.713  26.221  26.842  1.00  0.00     0.022 A 
BRANCH  66  69
ATOM     69  S   UNL A   1      42.664  27.620  25.535  1.00  0.00     0.127 S 
ATOM     70  O   UNL A   1      42.466  26.407  24.743  1.00  0.00    -0.237 OA
ATOM     71  O   UNL A   1      42.081  28.830  24.953  1.00  0.00    -0.237 OA
ATOM     72  O   UNL A   1      44.000  27.794  26.086  1.00  0.00    -0.744 OA
ENDBRANCH  66  69
ENDBRANCH  48  62
BRANCH  49  73
ATOM     73  C   UNL A   1      39.397  33.853  37.036  1.00  0.00     0.023 A 
ATOM     74  C   UNL A   1      39.830  35.194  37.016  1.00  0.00     0.012 A 
ATOM     75  C   UNL A   1      38.756  33.356  38.186  1.00  0.00     0.148 A 
ATOM     76  C   UNL A   1      39.665  36.012  38.134  1.00  0.00     0.002 A 
ATOM     77  C   UNL A   1      38.544  34.193  39.276  1.00  0.00     0.091 A 
ATOM     78  F   UNL A   1      38.355  32.077  38.187  1.00  0.00    -0.205 F 
ATOM     79  C   UNL A   1      39.014  35.515  39.260  1.00  0.00     0.022 A 
BRANCH  77  80
ATOM     80  S   UNL A   1      37.601  33.679  40.716  1.00  0.00     0.127 S 
ATOM     81  O   UNL A   1      38.439  32.613  41.259  1.00  0.00    -0.237 OA
ATOM     82  O   UNL A   1      37.574  34.907  41.512  1.00  0.00    -0.237 OA
ATOM     83  O   UNL A   1      36.300  33.265  40.208  1.00  0.00    -0.744 OA
ENDBRANCH  77  80
ENDBRANCH  49  73
BRANCH  61  84
ATOM     84  C   UNL A   1      44.113  29.003  35.301  1.00  0.00     0.023 A 
ATOM     85  C   UNL A   1      45.361  29.629  35.118  1.00  0.00     0.012 A 
ATOM     86  C   UNL A   1      44.002  27.926  36.204  1.00  0.00     0.148 A 
ATOM     87  C   UNL A   1      46.489  29.166  35.796  1.00  0.00     0.002 A 
ATOM     88  C   UNL A   1      45.119  27.507  36.915  1.00  0.00     0.091 A 
ATOM     89  F   UNL A   1      42.808  27.332  36.350  1.00  0.00    -0.205 F 
ATOM     90  C   UNL A   1      46.366  28.116  36.702  1.00  0.00     0.022 A 
BRANCH  88  91
ATOM     91  S   UNL A   1      45.030  26.232  38.178  1.00  0.00     0.127 S 
ATOM     92  O   UNL A   1      44.494  25.102  37.422  1.00  0.00    -0.237 OA
ATOM     93  O   UNL A   1      46.432  26.091  38.575  1.00  0.00    -0.237 OA
ATOM     94  O   UNL A   1      44.158  26.759  39.219  1.00  0.00    -0.744 OA
ENDBRANCH  88  91
ENDBRANCH  61  84
ENDBRANCH  35  36
ENDBRANCH  27  30
ENDBRANCH  25  26
ENDBRANCH   1  25
TORSDOF 19
ENDMDL
MODEL 2
REMARK VINA RESULT:     -10.6      2.789      8.439
REMARK SMILES CC[NH2+][C@]1(C(=O)NCCCNC(=O)c2ccc(-c3c4nc(c(-c5cccc(S(=O)(=O)[O-])c5F)c5ccc([nH]5)c(-c5cccc(S(=O)(=O)[O-])c5F)c5nc(c(-c6cccc(S(=O)(=O)[O-])c6F)c6ccc3[nH]6)C=C5)C=C4)cc2)CC[C@@H]([N@@H+](CC)[C@@H](C)CC)C1
REMARK SMILES IDX 9 1 8 2 7 3 5 4 6 5 4 7 77 8 87 9 78 10 79 11 3 12 2 15 1 16
REMARK SMILES IDX 80 17 81 19 82 20 83 21 84 22 85 23 86 24 10 25 11 26 12 27
REMARK SMILES IDX 13 29 14 30 15 31 76 32 16 33 75 34 17 35 18 36 19 37 69 38
REMARK SMILES IDX 20 39 74 40 68 41 70 42 21 43 73 44 67 45 66 46 22 48 54 49
REMARK SMILES IDX 34 50 53 51 35 52 38 53 52 54 71 55 36 56 37 57 51 59 72 60
REMARK SMILES IDX 39 61 23 62 24 63 32 64 25 65 27 66 33 67 26 68 28 69 29 70
REMARK SMILES IDX 30 71 31 72 55 73 56 74 64 75 57 76 59 77 65 78 58 79 60 80
REMARK SMILES IDX 61 81 62 82 63 83 40 84 41 85 49 86 42 87 44 88 50 89 43 90
REMARK SMILES IDX 45 91 46 92 47 93 48 94
REMARK H PARENT 7 6 3 13 3 14 80 18 11 28 70 47 38 58
REMARK Flexibility Score: inf
ROOT
ATOM      1  C   UNL A   1      32.202  28.072  25.837  1.00  0.00     0.042 C 
ENDROOT
BRANCH   1   2
ATOM      2  C   UNL A   1      32.792  26.685  25.672  1.00  0.00     0.118 C 
BRANCH   2   3
ATOM      3  N   UNL A   1      32.192  25.695  26.556  1.00  0.00    -0.351 N 
ATOM      4  C   UNL A   1      31.759  24.410  26.434  1.00  0.00     0.281 C 
ATOM      5  O   UNL A   1      31.446  23.875  27.509  1.00  0.00    -0.268 OA
ATOM      6  H   UNL A   1      32.071  26.042  27.469  1.00  0.00     0.163 HD
BRANCH   4   7
ATOM      7  C   UNL A   1      31.551  23.644  25.074  1.00  0.00     0.181 C 
ATOM      8  C   UNL A   1      32.740  23.704  24.131  1.00  0.00     0.085 C 
ATOM      9  C   UNL A   1      31.457  22.120  25.388  1.00  0.00     0.144 C 
ATOM     10  C   UNL A   1      32.789  22.417  23.354  1.00  0.00     0.072 C 
ATOM     11  C   UNL A   1      32.354  21.358  24.370  1.00  0.00     0.191 C 
BRANCH   7  12
ATOM     12  N   UNL A   1      30.274  24.153  24.504  1.00  0.00    -0.334 N 
ATOM     13  H   UNL A   1      29.795  23.363  24.073  1.00  0.00     0.347 HD
ATOM     14  H   UNL A   1      29.788  24.579  25.294  1.00  0.00     0.347 HD
BRANCH  12  15
ATOM     15  C   UNL A   1      30.356  25.211  23.506  1.00  0.00     0.257 C 
ATOM     16  C   UNL A   1      29.470  26.386  23.891  1.00  0.00     0.071 C 
ENDBRANCH  12  15
ENDBRANCH   7  12
BRANCH  11  17
ATOM     17  N   UNL A   1      33.407  20.453  24.873  1.00  0.00    -0.330 N 
ATOM     18  H   UNL A   1      34.024  20.645  24.083  1.00  0.00     0.348 HD
BRANCH  17  19
ATOM     19  C   UNL A   1      33.953  20.865  26.182  1.00  0.00     0.259 C 
ATOM     20  C   UNL A   1      35.165  21.796  26.201  1.00  0.00     0.071 C 
ENDBRANCH  17  19
BRANCH  17  21
ATOM     21  C   UNL A   1      33.464  18.993  24.646  1.00  0.00     0.180 C 
ATOM     22  C   UNL A   1      34.858  18.352  24.577  1.00  0.00     0.075 C 
BRANCH  21  23
ATOM     23  C   UNL A   1      32.529  18.120  25.512  1.00  0.00     0.061 C 
ATOM     24  C   UNL A   1      32.965  16.660  25.584  1.00  0.00     0.010 C 
ENDBRANCH  21  23
ENDBRANCH  17  21
ENDBRANCH  11  17
ENDBRANCH   4   7
ENDBRANCH   2   3
ENDBRANCH   1   2
BRANCH   1  25
ATOM     25  C   UNL A   1      33.152  29.154  25.353  1.00  0.00     0.118 C 
BRANCH  25  26
ATOM     26  N   UNL A   1      32.742  30.484  25.805  1.00  0.00    -0.352 N 
ATOM     27  C   UNL A   1      33.156  31.227  26.880  1.00  0.00     0.251 C 
ATOM     28  H   UNL A   1      32.058  30.917  25.245  1.00  0.00     0.163 HD
ATOM     29  O   UNL A   1      32.508  32.212  27.218  1.00  0.00    -0.269 OA
BRANCH  27  30
ATOM     30  C   UNL A   1      34.377  30.847  27.617  1.00  0.00     0.039 A 
ATOM     31  C   UNL A   1      35.444  31.746  27.683  1.00  0.00     0.014 A 
ATOM     32  C   UNL A   1      34.482  29.588  28.209  1.00  0.00     0.014 A 
ATOM     33  C   UNL A   1      36.601  31.390  28.379  1.00  0.00     0.010 A 
ATOM     34  C   UNL A   1      35.578  29.283  28.999  1.00  0.00     0.010 A 
ATOM     35  C   UNL A   1      36.666  30.164  29.060  1.00  0.00    -0.014 A 
BRANCH  35  36
ATOM     36  C   UNL A   1      37.881  29.744  29.797  1.00  0.00     0.031 A 
ATOM     37  C   UNL A   1      38.147  30.301  31.170  1.00  0.00     0.074 A 
ATOM     38  C   UNL A   1      38.781  28.941  29.198  1.00  0.00     0.049 A 
ATOM     39  N   UNL A   1      39.186  30.129  31.942  1.00  0.00    -0.248 NA
ATOM     40  C   UNL A   1      37.128  31.205  31.735  1.00  0.00     0.031 C 
ATOM     41  C   UNL A   1      38.669  28.407  27.838  1.00  0.00     0.029 A 
ATOM     42  N   UNL A   1      39.981  28.455  29.648  1.00  0.00    -0.354 N 
ATOM     43  C   UNL A   1      38.969  30.936  33.054  1.00  0.00     0.074 A 
ATOM     44  C   UNL A   1      37.723  31.634  32.837  1.00  0.00     0.031 C 
ATOM     45  C   UNL A   1      39.752  27.659  27.569  1.00  0.00     0.029 A 
ATOM     46  C   UNL A   1      40.647  27.687  28.721  1.00  0.00     0.049 A 
ATOM     47  H   UNL A   1      40.333  28.638  30.549  1.00  0.00     0.167 HD
ATOM     48  C   UNL A   1      39.720  31.056  34.174  1.00  0.00     0.034 A 
ATOM     49  C   UNL A   1      41.847  27.080  28.795  1.00  0.00     0.034 A 
ATOM     50  C   UNL A   1      40.927  30.314  34.406  1.00  0.00     0.049 A 
ATOM     51  C   UNL A   1      42.634  27.182  30.073  1.00  0.00     0.074 A 
ATOM     52  C   UNL A   1      41.718  30.289  35.540  1.00  0.00     0.029 A 
ATOM     53  N   UNL A   1      41.518  29.465  33.485  1.00  0.00    -0.354 N 
ATOM     54  N   UNL A   1      42.339  27.830  31.175  1.00  0.00    -0.248 NA
ATOM     55  C   UNL A   1      43.897  26.435  30.138  1.00  0.00     0.031 C 
ATOM     56  C   UNL A   1      42.802  29.442  35.294  1.00  0.00     0.029 A 
ATOM     57  C   UNL A   1      42.667  28.911  34.021  1.00  0.00     0.049 A 
ATOM     58  H   UNL A   1      41.173  29.282  32.581  1.00  0.00     0.167 HD
ATOM     59  C   UNL A   1      43.354  27.533  32.076  1.00  0.00     0.074 A 
ATOM     60  C   UNL A   1      44.264  26.635  31.396  1.00  0.00     0.031 C 
ATOM     61  C   UNL A   1      43.526  27.971  33.348  1.00  0.00     0.034 A 
BRANCH  48  62
ATOM     62  C   UNL A   1      39.226  31.987  35.252  1.00  0.00     0.023 A 
ATOM     63  C   UNL A   1      38.255  31.539  36.173  1.00  0.00     0.012 A 
ATOM     64  C   UNL A   1      39.753  33.286  35.384  1.00  0.00     0.148 A 
ATOM     65  C   UNL A   1      37.787  32.381  37.180  1.00  0.00     0.002 A 
ATOM     66  C   UNL A   1      39.318  34.102  36.422  1.00  0.00     0.091 A 
ATOM     67  F   UNL A   1      40.658  33.704  34.487  1.00  0.00    -0.205 F 
ATOM     68  C   UNL A   1      38.325  33.657  37.311  1.00  0.00     0.022 A 
BRANCH  66  69
ATOM     69  S   UNL A   1      40.010  35.732  36.729  1.00  0.00     0.127 S 
ATOM     70  O   UNL A   1      41.434  35.427  36.863  1.00  0.00    -0.237 OA
ATOM     71  O   UNL A   1      39.653  36.451  35.505  1.00  0.00    -0.237 OA
ATOM     72  O   UNL A   1      39.360  36.225  37.935  1.00  0.00    -0.744 OA
ENDBRANCH  66  69
ENDBRANCH  48  62
BRANCH  49  73
ATOM     73  C   UNL A   1      42.339  26.261  27.652  1.00  0.00     0.023 A 
ATOM     74  C   UNL A   1      43.239  26.831  26.730  1.00  0.00     0.012 A 
ATOM     75  C   UNL A   1      41.946  24.920  27.487  1.00  0.00     0.148 A 
ATOM     76  C   UNL A   1      43.707  26.094  25.643  1.00  0.00     0.002 A 
ATOM     77  C   UNL A   1      42.460  24.173  26.434  1.00  0.00     0.091 A 
ATOM     78  F   UNL A   1      41.086  24.397  28.373  1.00  0.00    -0.205 F 
ATOM     79  C   UNL A   1      43.325  24.762  25.499  1.00  0.00     0.022 A 
BRANCH  77  80
ATOM     80  S   UNL A   1      42.127  22.418  26.244  1.00  0.00     0.127 S 
ATOM     81  O   UNL A   1      42.870  22.101  25.028  1.00  0.00    -0.237 OA
ATOM     82  O   UNL A   1      42.697  21.869  27.475  1.00  0.00    -0.237 OA
ATOM     83  O   UNL A   1      40.678  22.300  26.150  1.00  0.00    -0.744 OA
ENDBRANCH  77  80
ENDBRANCH  49  73
BRANCH  61  84
ATOM     84  C   UNL A   1      44.707  27.441  34.116  1.00  0.00     0.023 A 
ATOM     85  C   UNL A   1      45.922  28.152  34.124  1.00  0.00     0.012 A 
ATOM     86  C   UNL A   1      44.579  26.275  34.897  1.00  0.00     0.148 A 
ATOM     87  C   UNL A   1      47.007  27.688  34.868  1.00  0.00     0.002 A 
ATOM     88  C   UNL A   1      45.646  25.850  35.678  1.00  0.00     0.091 A 
ATOM     89  F   UNL A   1      43.419  25.604  34.862  1.00  0.00    -0.205 F 
ATOM     90  C   UNL A   1      46.865  26.547  35.654  1.00  0.00     0.022 A 
BRANCH  88  91
ATOM     91  S   UNL A   1      45.518  24.452  36.799  1.00  0.00     0.127 S 
ATOM     92  O   UNL A   1      46.844  24.441  37.413  1.00  0.00    -0.237 OA
ATOM     93  O   UNL A   1      44.435  24.868  37.691  1.00  0.00    -0.237 OA
ATOM     94  O   UNL A   1      45.205  23.298  35.967  1.00  0.00    -0.744 OA
ENDBRANCH  88  91
ENDBRANCH  61  84
ENDBRANCH  35  36
ENDBRANCH  27  30
ENDBRANCH  25  26
ENDBRANCH   1  25
TORSDOF 19
ENDMDL
MODEL 3
REMARK VINA RESULT:     -10.3      2.553      8.439
REMARK SMILES CC[NH2+][C@]1(C(=O)NCCCNC(=O)c2ccc(-c3c4nc(c(-c5cccc(S(=O)(=O)[O-])c5F)c5ccc([nH]5)c(-c5cccc(S(=O)(=O)[O-])c5F)c5nc(c(-c6cccc(S(=O)(=O)[O-])c6F)c6ccc3[nH]6)C=C5)C=C4)cc2)CC[C@@H]([N@@H+](CC)[C@@H](C)CC)C1
REMARK SMILES IDX 9 1 8 2 7 3 5 4 6 5 4 7 77 8 87 9 78 10 79 11 3 12 2 15 1 16
REMARK SMILES IDX 80 17 81 19 82 20 83 21 84 22 85 23 86 24 10 25 11 26 12 27
REMARK SMILES IDX 13 29 14 30 15 31 76 32 16 33 75 34 17 35 18 36 19 37 69 38
REMARK SMILES IDX 20 39 74 40 68 41 70 42 21 43 73 44 67 45 66 46 22 48 54 49
REMARK SMILES IDX 34 50 53 51 35 52 38 53 52 54 71 55 36 56 37 57 51 59 72 60
REMARK SMILES IDX 39 61 23 62 24 63 32 64 25 65 27 66 33 67 26 68 28 69 29 70
REMARK SMILES IDX 30 71 31 72 55 73 56 74 64 75 57 76 59 77 65 78 58 79 60 80
REMARK SMILES IDX 61 81 62 82 63 83 40 84 41 85 49 86 42 87 44 88 50 89 43 90
REMARK SMILES IDX 45 91 46 92 47 93 48 94
REMARK H PARENT 7 6 3 13 3 14 80 18 11 28 70 47 38 58
REMARK Flexibility Score: inf
ROOT
ATOM      1  C   UNL A   1      31.926  29.021  26.673  1.00  0.00     0.042 C 
ENDROOT
BRANCH   1   2
ATOM      2  C   UNL A   1      32.209  27.550  26.913  1.00  0.00     0.118 C 
BRANCH   2   3
ATOM      3  N   UNL A   1      31.014  26.720  26.879  1.00  0.00    -0.351 N 
ATOM      4  C   UNL A   1      30.565  25.683  26.119  1.00  0.00     0.281 C 
ATOM      5  O   UNL A   1      29.525  25.156  26.542  1.00  0.00    -0.268 OA
ATOM      6  H   UNL A   1      30.371  26.970  27.581  1.00  0.00     0.163 HD
BRANCH   4   7
ATOM      7  C   UNL A   1      31.202  25.209  24.759  1.00  0.00     0.181 C 
ATOM      8  C   UNL A   1      32.689  25.484  24.631  1.00  0.00     0.085 C 
ATOM      9  C   UNL A   1      31.152  23.651  24.720  1.00  0.00     0.144 C 
ATOM     10  C   UNL A   1      33.302  24.385  23.806  1.00  0.00     0.072 C 
ATOM     11  C   UNL A   1      32.537  23.131  24.240  1.00  0.00     0.191 C 
BRANCH   7  12
ATOM     12  N   UNL A   1      30.361  25.799  23.682  1.00  0.00    -0.334 N 
ATOM     13  H   UNL A   1      30.766  25.517  22.789  1.00  0.00     0.347 HD
ATOM     14  H   UNL A   1      29.421  25.447  23.864  1.00  0.00     0.347 HD
BRANCH  12  15
ATOM     15  C   UNL A   1      30.217  27.247  23.658  1.00  0.00     0.257 C 
ATOM     16  C   UNL A   1      30.792  27.827  22.374  1.00  0.00     0.071 C 
ENDBRANCH  12  15
ENDBRANCH   7  12
BRANCH  11  17
ATOM     17  N   UNL A   1      33.275  22.163  25.077  1.00  0.00    -0.330 N 
ATOM     18  H   UNL A   1      32.518  22.096  25.758  1.00  0.00     0.348 HD
BRANCH  17  19
ATOM     19  C   UNL A   1      33.576  20.899  24.376  1.00  0.00     0.259 C 
ATOM     20  C   UNL A   1      32.694  19.684  24.664  1.00  0.00     0.071 C 
ENDBRANCH  17  19
BRANCH  17  21
ATOM     21  C   UNL A   1      34.267  22.510  26.116  1.00  0.00     0.180 C 
ATOM     22  C   UNL A   1      34.022  21.954  27.527  1.00  0.00     0.075 C 
BRANCH  21  23
ATOM     23  C   UNL A   1      35.755  22.340  25.738  1.00  0.00     0.061 C 
ATOM     24  C   UNL A   1      36.514  23.662  25.674  1.00  0.00     0.010 C 
ENDBRANCH  21  23
ENDBRANCH  17  21
ENDBRANCH  11  17
ENDBRANCH   4   7
ENDBRANCH   2   3
ENDBRANCH   1   2
BRANCH   1  25
ATOM     25  C   UNL A   1      33.166  29.772  26.220  1.00  0.00     0.118 C 
BRANCH  25  26
ATOM     26  N   UNL A   1      33.077  31.202  26.513  1.00  0.00    -0.352 N 
ATOM     27  C   UNL A   1      33.756  31.970  27.422  1.00  0.00     0.251 C 
ATOM     28  H   UNL A   1      32.422  31.694  25.967  1.00  0.00     0.163 HD
ATOM     29  O   UNL A   1      33.355  33.101  27.677  1.00  0.00    -0.269 OA
BRANCH  27  30
ATOM     30  C   UNL A   1      34.966  31.441  28.082  1.00  0.00     0.039 A 
ATOM     31  C   UNL A   1      36.121  32.225  28.123  1.00  0.00     0.014 A 
ATOM     32  C   UNL A   1      34.969  30.155  28.626  1.00  0.00     0.014 A 
ATOM     33  C   UNL A   1      37.267  31.727  28.747  1.00  0.00     0.010 A 
ATOM     34  C   UNL A   1      36.065  29.712  29.347  1.00  0.00     0.010 A 
ATOM     35  C   UNL A   1      37.239  30.474  29.382  1.00  0.00    -0.014 A 
BRANCH  35  36
ATOM     36  C   UNL A   1      38.438  29.906  30.040  1.00  0.00     0.031 A 
ATOM     37  C   UNL A   1      38.833  30.389  31.411  1.00  0.00     0.074 A 
ATOM     38  C   UNL A   1      39.215  29.032  29.373  1.00  0.00     0.049 A 
ATOM     39  N   UNL A   1      39.886  30.085  32.121  1.00  0.00    -0.248 NA
ATOM     40  C   UNL A   1      37.946  31.377  32.053  1.00  0.00     0.031 C 
ATOM     41  C   UNL A   1      38.977  28.555  28.008  1.00  0.00     0.029 A 
ATOM     42  N   UNL A   1      40.377  28.408  29.745  1.00  0.00    -0.354 N 
ATOM     43  C   UNL A   1      39.814  30.874  33.263  1.00  0.00     0.074 A 
ATOM     44  C   UNL A   1      38.640  31.707  33.132  1.00  0.00     0.031 C 
ATOM     45  C   UNL A   1      39.958  27.705  27.662  1.00  0.00     0.029 A 
ATOM     46  C   UNL A   1      40.909  27.603  28.764  1.00  0.00     0.049 A 
ATOM     47  H   UNL A   1      40.793  28.525  30.629  1.00  0.00     0.167 HD
ATOM     48  C   UNL A   1      40.629  30.880  34.343  1.00  0.00     0.034 A 
ATOM     49  C   UNL A   1      42.039  26.872  28.757  1.00  0.00     0.034 A 
ATOM     50  C   UNL A   1      41.761  30.008  34.490  1.00  0.00     0.049 A 
ATOM     51  C   UNL A   1      42.897  26.850  29.992  1.00  0.00     0.074 A 
ATOM     52  C   UNL A   1      42.602  29.865  35.578  1.00  0.00     0.029 A 
ATOM     53  N   UNL A   1      42.210  29.130  33.516  1.00  0.00    -0.354 N 
ATOM     54  N   UNL A   1      42.730  27.491  31.124  1.00  0.00    -0.248 NA
ATOM     55  C   UNL A   1      44.075  25.972  29.969  1.00  0.00     0.031 C 
ATOM     56  C   UNL A   1      43.575  28.916  35.252  1.00  0.00     0.029 A 
ATOM     57  C   UNL A   1      43.319  28.441  33.975  1.00  0.00     0.049 A 
ATOM     58  H   UNL A   1      41.800  29.013  32.628  1.00  0.00     0.167 HD
ATOM     59  C   UNL A   1      43.753  27.060  31.961  1.00  0.00     0.074 A 
ATOM     60  C   UNL A   1      44.526  26.092  31.210  1.00  0.00     0.031 C 
ATOM     61  C   UNL A   1      44.036  27.438  33.233  1.00  0.00     0.034 A 
BRANCH  48  62
ATOM     62  C   UNL A   1      40.294  31.824  35.470  1.00  0.00     0.023 A 
ATOM     63  C   UNL A   1      41.075  32.983  35.668  1.00  0.00     0.012 A 
ATOM     64  C   UNL A   1      39.183  31.592  36.302  1.00  0.00     0.148 A 
ATOM     65  C   UNL A   1      40.781  33.871  36.701  1.00  0.00     0.002 A 
ATOM     66  C   UNL A   1      38.866  32.509  37.298  1.00  0.00     0.091 A 
ATOM     67  F   UNL A   1      38.465  30.475  36.114  1.00  0.00    -0.205 F 
ATOM     68  C   UNL A   1      39.672  33.640  37.508  1.00  0.00     0.022 A 
BRANCH  66  69
ATOM     69  S   UNL A   1      37.409  32.347  38.336  1.00  0.00     0.127 S 
ATOM     70  O   UNL A   1      37.258  30.895  38.409  1.00  0.00    -0.237 OA
ATOM     71  O   UNL A   1      37.849  32.978  39.581  1.00  0.00    -0.237 OA
ATOM     72  O   UNL A   1      36.340  33.052  37.643  1.00  0.00    -0.744 OA
ENDBRANCH  66  69
ENDBRANCH  48  62
BRANCH  49  73
ATOM     73  C   UNL A   1      42.382  26.041  27.568  1.00  0.00     0.023 A 
ATOM     74  C   UNL A   1      43.150  26.603  26.530  1.00  0.00     0.012 A 
ATOM     75  C   UNL A   1      41.977  24.696  27.471  1.00  0.00     0.148 A 
ATOM     76  C   UNL A   1      43.475  25.855  25.399  1.00  0.00     0.002 A 
ATOM     77  C   UNL A   1      42.352  23.939  26.367  1.00  0.00     0.091 A 
ATOM     78  F   UNL A   1      41.243  24.181  28.467  1.00  0.00    -0.205 F 
ATOM     79  C   UNL A   1      43.085  24.521  25.321  1.00  0.00     0.022 A 
BRANCH  77  80
ATOM     80  S   UNL A   1      42.005  22.181  26.242  1.00  0.00     0.127 S 
ATOM     81  O   UNL A   1      40.550  22.169  26.131  1.00  0.00    -0.237 OA
ATOM     82  O   UNL A   1      42.720  21.820  25.017  1.00  0.00    -0.237 OA
ATOM     83  O   UNL A   1      42.553  21.585  27.453  1.00  0.00    -0.744 OA
ENDBRANCH  77  80
ENDBRANCH  49  73
BRANCH  61  84
ATOM     84  C   UNL A   1      45.191  26.763  33.922  1.00  0.00     0.023 A 
ATOM     85  C   UNL A   1      46.476  27.337  33.875  1.00  0.00     0.012 A 
ATOM     86  C   UNL A   1      44.979  25.596  34.683  1.00  0.00     0.148 A 
ATOM     87  C   UNL A   1      47.542  26.738  34.548  1.00  0.00     0.002 A 
ATOM     88  C   UNL A   1      46.033  25.037  35.394  1.00  0.00     0.091 A 
ATOM     89  F   UNL A   1      43.751  25.056  34.700  1.00  0.00    -0.205 F 
ATOM     90  C   UNL A   1      47.318  25.599  35.316  1.00  0.00     0.022 A 
BRANCH  88  91
ATOM     91  S   UNL A   1      45.813  23.632  36.491  1.00  0.00     0.127 S 
ATOM     92  O   UNL A   1      45.298  22.617  35.574  1.00  0.00    -0.237 OA
ATOM     93  O   UNL A   1      47.177  23.391  36.964  1.00  0.00    -0.237 OA
ATOM     94  O   UNL A   1      44.885  24.070  37.524  1.00  0.00    -0.744 OA
ENDBRANCH  88  91
ENDBRANCH  61  84
ENDBRANCH  35  36
ENDBRANCH  27  30
ENDBRANCH  25  26
ENDBRANCH   1  25
TORSDOF 19
ENDMDL
