MODEL 1
REMARK VINA RESULT:     -12.8      0.000      0.000
REMARK SMILES CCN(C(=O)Cc1c(C(=O)NCCCNC(=O)c2ccc(-c3c4nc(c(-c5cccc(S(=O)(=O)[O-])c5F)c5ccc([nH]5)c(-c5cccc(S(=O)(=O)[O-])c5F)c5nc(c(-c6cccc(S(=O)(=O)[O-])c6F)c6ccc3[nH]6)C=C5)C=C4)cc2)[nH]c2ccc(Cl)cc12)c1ccc(C)c(C)c1
REMARK SMILES IDX 12 1 11 2 9 3 10 4 8 6 7 7 88 8 81 9 82 10 87 11 83 13 85 14
REMARK SMILES IDX 84 15 86 16 6 17 4 18 5 19 3 20 2 21 1 22 89 23 90 24 96 25
REMARK SMILES IDX 91 26 94 27 92 28 95 29 93 30 13 31 14 32 15 33 16 34 17 36
REMARK SMILES IDX 18 37 19 38 80 39 20 40 79 41 21 42 22 43 23 44 73 45 24 46
REMARK SMILES IDX 78 47 72 48 74 49 25 50 77 51 71 52 70 53 26 55 58 56 38 57
REMARK SMILES IDX 57 58 39 59 42 60 56 61 75 62 40 63 41 64 55 66 76 67 43 68
REMARK SMILES IDX 27 69 28 70 36 71 29 72 31 73 37 74 30 75 32 76 33 77 34 78
REMARK SMILES IDX 35 79 59 80 60 81 68 82 61 83 63 84 69 85 62 86 64 87 65 88
REMARK SMILES IDX 66 89 67 90 44 91 45 92 53 93 46 94 48 95 54 96 47 97 49 98
REMARK SMILES IDX 50 99 51 100 52 101
REMARK H PARENT 11 5 81 12 15 35 74 54 42 65
REMARK Flexibility Score: inf
ROOT
ATOM      1  C   UNL A   1      34.324  21.437  26.948  1.00  0.00     0.118 C 
ENDROOT
BRANCH   1   2
ATOM      2  N   UNL A   1      32.924  21.644  26.657  1.00  0.00    -0.351 N 
ATOM      3  C   UNL A   1      32.110  22.675  26.299  1.00  0.00     0.268 C 
ATOM      4  O   UNL A   1      30.964  22.313  26.005  1.00  0.00    -0.268 OA
ATOM      5  H   UNL A   1      32.416  20.804  26.743  1.00  0.00     0.163 HD
BRANCH   3   6
ATOM      6  C   UNL A   1      32.446  24.089  26.201  1.00  0.00     0.109 A 
ATOM      7  C   UNL A   1      33.467  24.932  25.742  1.00  0.00    -0.000 A 
ATOM      8  C   UNL A   1      33.132  26.279  26.147  1.00  0.00     0.005 A 
ATOM      9  N   UNL A   1      31.465  24.949  26.685  1.00  0.00    -0.350 N 
ATOM     10  C   UNL A   1      31.858  26.254  26.691  1.00  0.00     0.046 A 
ATOM     11  C   UNL A   1      33.817  27.514  26.103  1.00  0.00     0.031 A 
ATOM     12  H   UNL A   1      30.580  24.646  26.993  1.00  0.00     0.167 HD
ATOM     13  C   UNL A   1      31.195  27.395  27.153  1.00  0.00     0.028 A 
ATOM     14  C   UNL A   1      33.189  28.658  26.605  1.00  0.00     0.041 A 
ATOM     15  C   UNL A   1      31.891  28.606  27.107  1.00  0.00     0.022 A 
ATOM     16  Cl  UNL A   1      34.037  30.158  26.611  1.00  0.00    -0.084 Cl
BRANCH   7  17
ATOM     17  C   UNL A   1      34.755  24.644  25.048  1.00  0.00     0.139 C 
BRANCH  17  18
ATOM     18  C   UNL A   1      34.666  24.142  23.601  1.00  0.00     0.231 C 
ATOM     19  O   UNL A   1      35.708  23.666  23.122  1.00  0.00    -0.274 OA
BRANCH  18  20
ATOM     20  N   UNL A   1      33.466  24.161  22.869  1.00  0.00    -0.312 N 
BRANCH  20  21
ATOM     21  C   UNL A   1      32.942  23.076  22.023  1.00  0.00     0.122 C 
ATOM     22  C   UNL A   1      32.480  21.797  22.699  1.00  0.00     0.028 C 
ENDBRANCH  20  21
BRANCH  20  23
ATOM     23  C   UNL A   1      32.745  25.398  22.765  1.00  0.00     0.044 A 
ATOM     24  C   UNL A   1      31.354  25.438  22.868  1.00  0.00     0.026 A 
ATOM     25  C   UNL A   1      33.433  26.603  22.612  1.00  0.00     0.030 A 
ATOM     26  C   UNL A   1      30.679  26.661  22.829  1.00  0.00     0.006 A 
ATOM     27  C   UNL A   1      32.777  27.843  22.592  1.00  0.00    -0.046 A 
ATOM     28  C   UNL A   1      31.377  27.873  22.689  1.00  0.00    -0.048 A 
ATOM     29  C   UNL A   1      33.613  29.081  22.430  1.00  0.00     0.044 C 
ATOM     30  C   UNL A   1      30.578  29.142  22.594  1.00  0.00     0.044 C 
ENDBRANCH  20  23
ENDBRANCH  18  20
ENDBRANCH  17  18
ENDBRANCH   7  17
ENDBRANCH   3   6
ENDBRANCH   1   2
BRANCH   1  31
ATOM     31  C   UNL A   1      35.142  21.085  25.720  1.00  0.00     0.042 C 
BRANCH  31  32
ATOM     32  C   UNL A   1      36.514  21.720  25.785  1.00  0.00     0.118 C 
BRANCH  32  33
ATOM     33  N   UNL A   1      37.591  20.732  25.725  1.00  0.00    -0.352 N 
ATOM     34  C   UNL A   1      38.928  20.899  25.988  1.00  0.00     0.251 C 
ATOM     35  H   UNL A   1      37.320  19.824  25.460  1.00  0.00     0.163 HD
ATOM     36  O   UNL A   1      39.718  19.983  25.777  1.00  0.00    -0.269 OA
BRANCH  34  37
ATOM     37  C   UNL A   1      39.401  22.204  26.488  1.00  0.00     0.039 A 
ATOM     38  C   UNL A   1      40.416  22.239  27.446  1.00  0.00     0.014 A 
ATOM     39  C   UNL A   1      38.887  23.387  25.955  1.00  0.00     0.014 A 
ATOM     40  C   UNL A   1      40.964  23.466  27.814  1.00  0.00     0.010 A 
ATOM     41  C   UNL A   1      39.517  24.590  26.229  1.00  0.00     0.010 A 
ATOM     42  C   UNL A   1      40.545  24.646  27.179  1.00  0.00    -0.014 A 
BRANCH  42  43
ATOM     43  C   UNL A   1      41.142  25.963  27.502  1.00  0.00     0.031 A 
ATOM     44  C   UNL A   1      42.555  26.261  27.075  1.00  0.00     0.074 A 
ATOM     45  C   UNL A   1      40.457  26.837  28.264  1.00  0.00     0.049 A 
ATOM     46  N   UNL A   1      43.290  27.308  27.335  1.00  0.00    -0.248 NA
ATOM     47  C   UNL A   1      43.248  25.225  26.288  1.00  0.00     0.031 C 
ATOM     48  C   UNL A   1      39.118  26.615  28.818  1.00  0.00     0.029 A 
ATOM     49  N   UNL A   1      40.804  28.081  28.727  1.00  0.00    -0.354 N 
ATOM     50  C   UNL A   1      44.539  27.036  26.789  1.00  0.00     0.074 A 
ATOM     51  C   UNL A   1      44.480  25.707  26.228  1.00  0.00     0.031 C 
ATOM     52  C   UNL A   1      38.753  27.691  29.534  1.00  0.00     0.029 A 
ATOM     53  C   UNL A   1      39.840  28.663  29.517  1.00  0.00     0.049 A 
ATOM     54  H   UNL A   1      41.661  28.514  28.515  1.00  0.00     0.167 HD
ATOM     55  C   UNL A   1      45.628  27.837  26.727  1.00  0.00     0.034 A 
ATOM     56  C   UNL A   1      39.838  29.850  30.155  1.00  0.00     0.034 A 
ATOM     57  C   UNL A   1      45.654  29.182  27.227  1.00  0.00     0.049 A 
ATOM     58  C   UNL A   1      41.033  30.751  30.008  1.00  0.00     0.074 A 
ATOM     59  C   UNL A   1      46.663  30.121  27.122  1.00  0.00     0.029 A 
ATOM     60  N   UNL A   1      44.617  29.781  27.927  1.00  0.00    -0.354 N 
ATOM     61  N   UNL A   1      42.147  30.542  29.347  1.00  0.00    -0.248 NA
ATOM     62  C   UNL A   1      40.960  32.065  30.661  1.00  0.00     0.031 C 
ATOM     63  C   UNL A   1      46.245  31.283  27.776  1.00  0.00     0.029 A 
ATOM     64  C   UNL A   1      44.965  31.077  28.266  1.00  0.00     0.049 A 
ATOM     65  H   UNL A   1      43.762  29.350  28.149  1.00  0.00     0.167 HD
ATOM     66  C   UNL A   1      42.890  31.710  29.474  1.00  0.00     0.074 A 
ATOM     67  C   UNL A   1      42.090  32.629  30.257  1.00  0.00     0.031 C 
ATOM     68  C   UNL A   1      44.128  31.992  28.999  1.00  0.00     0.034 A 
BRANCH  55  69
ATOM     69  C   UNL A   1      46.855  27.298  26.039  1.00  0.00     0.023 A 
ATOM     70  C   UNL A   1      46.987  27.434  24.641  1.00  0.00     0.012 A 
ATOM     71  C   UNL A   1      47.894  26.698  26.775  1.00  0.00     0.148 A 
ATOM     72  C   UNL A   1      48.114  26.947  23.982  1.00  0.00     0.002 A 
ATOM     73  C   UNL A   1      49.037  26.257  26.117  1.00  0.00     0.091 A 
ATOM     74  F   UNL A   1      47.740  26.554  28.100  1.00  0.00    -0.205 F 
ATOM     75  C   UNL A   1      49.143  26.369  24.721  1.00  0.00     0.022 A 
BRANCH  73  76
ATOM     76  S   UNL A   1      50.452  25.573  26.986  1.00  0.00     0.127 S 
ATOM     77  O   UNL A   1      50.739  26.628  27.957  1.00  0.00    -0.237 OA
ATOM     78  O   UNL A   1      49.896  24.349  27.563  1.00  0.00    -0.237 OA
ATOM     79  O   UNL A   1      51.479  25.357  25.977  1.00  0.00    -0.744 OA
ENDBRANCH  73  76
ENDBRANCH  55  69
BRANCH  56  80
ATOM     80  C   UNL A   1      38.636  30.283  30.922  1.00  0.00     0.023 A 
ATOM     81  C   UNL A   1      38.511  29.912  32.276  1.00  0.00     0.012 A 
ATOM     82  C   UNL A   1      37.637  31.082  30.335  1.00  0.00     0.148 A 
ATOM     83  C   UNL A   1      37.397  30.301  33.021  1.00  0.00     0.002 A 
ATOM     84  C   UNL A   1      36.557  31.511  31.098  1.00  0.00     0.091 A 
ATOM     85  F   UNL A   1      37.769  31.417  29.044  1.00  0.00    -0.205 F 
ATOM     86  C   UNL A   1      36.425  31.109  32.436  1.00  0.00     0.022 A 
BRANCH  84  87
ATOM     87  S   UNL A   1      35.327  32.658  30.464  1.00  0.00     0.127 S 
ATOM     88  O   UNL A   1      34.822  31.938  29.298  1.00  0.00    -0.237 OA
ATOM     89  O   UNL A   1      34.392  32.749  31.586  1.00  0.00    -0.237 OA
ATOM     90  O   UNL A   1      36.050  33.892  30.184  1.00  0.00    -0.744 OA
ENDBRANCH  84  87
ENDBRANCH  56  80
BRANCH  68  91
ATOM     91  C   UNL A   1      44.685  33.363  29.278  1.00  0.00     0.023 A 
ATOM     92  C   UNL A   1      45.508  33.570  30.401  1.00  0.00     0.012 A 
ATOM     93  C   UNL A   1      44.459  34.423  28.377  1.00  0.00     0.148 A 
ATOM     94  C   UNL A   1      46.073  34.820  30.642  1.00  0.00     0.002 A 
ATOM     95  C   UNL A   1      45.066  35.652  28.598  1.00  0.00     0.091 A 
ATOM     96  F   UNL A   1      43.656  34.207  27.324  1.00  0.00    -0.205 F 
ATOM     97  C   UNL A   1      45.863  35.857  29.735  1.00  0.00     0.022 A 
BRANCH  95  98
ATOM     98  S   UNL A   1      44.934  37.011  27.430  1.00  0.00     0.127 S 
ATOM     99  O   UNL A   1      45.210  38.164  28.284  1.00  0.00    -0.237 OA
ATOM    100  O   UNL A   1      45.990  36.696  26.467  1.00  0.00    -0.237 OA
ATOM    101  O   UNL A   1      43.583  36.943  26.886  1.00  0.00    -0.744 OA
ENDBRANCH  95  98
ENDBRANCH  68  91
ENDBRANCH  42  43
ENDBRANCH  34  37
ENDBRANCH  32  33
ENDBRANCH  31  32
ENDBRANCH   1  31
TORSDOF 18
ENDMDL
MODEL 2
REMARK VINA RESULT:     -12.7      2.101      7.750
REMARK SMILES CCN(C(=O)Cc1c(C(=O)NCCCNC(=O)c2ccc(-c3c4nc(c(-c5cccc(S(=O)(=O)[O-])c5F)c5ccc([nH]5)c(-c5cccc(S(=O)(=O)[O-])c5F)c5nc(c(-c6cccc(S(=O)(=O)[O-])c6F)c6ccc3[nH]6)C=C5)C=C4)cc2)[nH]c2ccc(Cl)cc12)c1ccc(C)c(C)c1
REMARK SMILES IDX 12 1 11 2 9 3 10 4 8 6 7 7 88 8 81 9 82 10 87 11 83 13 85 14
REMARK SMILES IDX 84 15 86 16 6 17 4 18 5 19 3 20 2 21 1 22 89 23 90 24 96 25
REMARK SMILES IDX 91 26 94 27 92 28 95 29 93 30 13 31 14 32 15 33 16 34 17 36
REMARK SMILES IDX 18 37 19 38 80 39 20 40 79 41 21 42 22 43 23 44 73 45 24 46
REMARK SMILES IDX 78 47 72 48 74 49 25 50 77 51 71 52 70 53 26 55 58 56 38 57
REMARK SMILES IDX 57 58 39 59 42 60 56 61 75 62 40 63 41 64 55 66 76 67 43 68
REMARK SMILES IDX 27 69 28 70 36 71 29 72 31 73 37 74 30 75 32 76 33 77 34 78
REMARK SMILES IDX 35 79 59 80 60 81 68 82 61 83 63 84 69 85 62 86 64 87 65 88
REMARK SMILES IDX 66 89 67 90 44 91 45 92 53 93 46 94 48 95 54 96 47 97 49 98
REMARK SMILES IDX 50 99 51 100 52 101
REMARK H PARENT 11 5 81 12 15 35 74 54 42 65
REMARK Flexibility Score: inf
ROOT
ATOM      1  C   UNL A   1      36.215  20.314  24.945  1.00  0.00     0.118 C 
ENDROOT
BRANCH   1   2
ATOM      2  N   UNL A   1      35.044  19.469  24.963  1.00  0.00    -0.351 N 
ATOM      3  C   UNL A   1      33.693  19.619  24.890  1.00  0.00     0.268 C 
ATOM      4  O   UNL A   1      33.087  18.544  24.792  1.00  0.00    -0.268 OA
ATOM      5  H   UNL A   1      35.292  18.521  25.054  1.00  0.00     0.163 HD
BRANCH   3   6
ATOM      6  C   UNL A   1      32.926  20.858  24.884  1.00  0.00     0.109 A 
ATOM      7  C   UNL A   1      32.865  22.092  24.223  1.00  0.00    -0.000 A 
ATOM      8  C   UNL A   1      31.883  22.902  24.908  1.00  0.00     0.005 A 
ATOM      9  N   UNL A   1      31.878  20.891  25.798  1.00  0.00    -0.350 N 
ATOM     10  C   UNL A   1      31.259  22.104  25.853  1.00  0.00     0.046 A 
ATOM     11  C   UNL A   1      31.484  24.254  24.805  1.00  0.00     0.031 A 
ATOM     12  H   UNL A   1      31.612  20.119  26.349  1.00  0.00     0.167 HD
ATOM     13  C   UNL A   1      30.221  22.553  26.676  1.00  0.00     0.028 A 
ATOM     14  C   UNL A   1      30.481  24.734  25.652  1.00  0.00     0.041 A 
ATOM     15  C   UNL A   1      29.846  23.894  26.563  1.00  0.00     0.022 A 
ATOM     16  Cl  UNL A   1      30.028  26.394  25.577  1.00  0.00    -0.084 Cl
BRANCH   7  17
ATOM     17  C   UNL A   1      33.657  22.651  23.090  1.00  0.00     0.139 C 
BRANCH  17  18
ATOM     18  C   UNL A   1      35.004  23.297  23.438  1.00  0.00     0.231 C 
ATOM     19  O   UNL A   1      35.917  23.137  22.612  1.00  0.00    -0.274 OA
BRANCH  18  20
ATOM     20  N   UNL A   1      35.191  24.075  24.593  1.00  0.00    -0.312 N 
BRANCH  20  21
ATOM     21  C   UNL A   1      35.876  23.657  25.827  1.00  0.00     0.122 C 
ATOM     22  C   UNL A   1      37.394  23.710  25.860  1.00  0.00     0.028 C 
ENDBRANCH  20  21
BRANCH  20  23
ATOM     23  C   UNL A   1      34.511  25.336  24.689  1.00  0.00     0.044 A 
ATOM     24  C   UNL A   1      34.207  25.904  25.927  1.00  0.00     0.026 A 
ATOM     25  C   UNL A   1      34.187  26.051  23.535  1.00  0.00     0.030 A 
ATOM     26  C   UNL A   1      33.603  27.163  25.996  1.00  0.00     0.006 A 
ATOM     27  C   UNL A   1      33.601  27.324  23.582  1.00  0.00    -0.046 A 
ATOM     28  C   UNL A   1      33.293  27.885  24.831  1.00  0.00    -0.048 A 
ATOM     29  C   UNL A   1      33.301  28.011  22.280  1.00  0.00     0.044 C 
ATOM     30  C   UNL A   1      32.589  29.204  24.983  1.00  0.00     0.044 C 
ENDBRANCH  20  23
ENDBRANCH  18  20
ENDBRANCH  17  18
ENDBRANCH   7  17
ENDBRANCH   3   6
ENDBRANCH   1   2
BRANCH   1  31
ATOM     31  C   UNL A   1      37.509  19.537  24.792  1.00  0.00     0.042 C 
BRANCH  31  32
ATOM     32  C   UNL A   1      38.611  20.154  25.626  1.00  0.00     0.118 C 
BRANCH  32  33
ATOM     33  N   UNL A   1      39.753  19.255  25.796  1.00  0.00    -0.352 N 
ATOM     34  C   UNL A   1      41.036  19.557  26.183  1.00  0.00     0.251 C 
ATOM     35  H   UNL A   1      39.578  18.305  25.608  1.00  0.00     0.163 HD
ATOM     36  O   UNL A   1      41.905  18.691  26.165  1.00  0.00    -0.269 OA
BRANCH  34  37
ATOM     37  C   UNL A   1      41.356  20.941  26.580  1.00  0.00     0.039 A 
ATOM     38  C   UNL A   1      42.097  21.162  27.742  1.00  0.00     0.014 A 
ATOM     39  C   UNL A   1      40.982  22.009  25.763  1.00  0.00     0.014 A 
ATOM     40  C   UNL A   1      42.524  22.454  28.044  1.00  0.00     0.010 A 
ATOM     41  C   UNL A   1      41.512  23.267  25.998  1.00  0.00     0.010 A 
ATOM     42  C   UNL A   1      42.267  23.508  27.153  1.00  0.00    -0.014 A 
BRANCH  42  43
ATOM     43  C   UNL A   1      42.752  24.885  27.410  1.00  0.00     0.031 A 
ATOM     44  C   UNL A   1      41.830  25.885  28.054  1.00  0.00     0.074 A 
ATOM     45  C   UNL A   1      43.970  25.257  26.970  1.00  0.00     0.049 A 
ATOM     46  N   UNL A   1      42.025  27.157  28.282  1.00  0.00    -0.248 NA
ATOM     47  C   UNL A   1      40.496  25.404  28.457  1.00  0.00     0.031 C 
ATOM     48  C   UNL A   1      44.910  24.398  26.245  1.00  0.00     0.029 A 
ATOM     49  N   UNL A   1      44.615  26.464  27.046  1.00  0.00    -0.354 N 
ATOM     50  C   UNL A   1      40.828  27.633  28.805  1.00  0.00     0.074 A 
ATOM     51  C   UNL A   1      39.897  26.530  28.815  1.00  0.00     0.031 C 
ATOM     52  C   UNL A   1      46.016  25.103  25.955  1.00  0.00     0.029 A 
ATOM     53  C   UNL A   1      45.852  26.467  26.444  1.00  0.00     0.049 A 
ATOM     54  H   UNL A   1      44.230  27.254  27.489  1.00  0.00     0.167 HD
ATOM     55  C   UNL A   1      40.542  28.871  29.271  1.00  0.00     0.034 A 
ATOM     56  C   UNL A   1      46.749  27.462  26.303  1.00  0.00     0.034 A 
ATOM     57  C   UNL A   1      41.497  29.942  29.320  1.00  0.00     0.049 A 
ATOM     58  C   UNL A   1      46.434  28.808  26.896  1.00  0.00     0.074 A 
ATOM     59  C   UNL A   1      41.350  31.201  29.869  1.00  0.00     0.029 A 
ATOM     60  N   UNL A   1      42.780  29.875  28.800  1.00  0.00    -0.354 N 
ATOM     61  N   UNL A   1      45.356  29.196  27.535  1.00  0.00    -0.248 NA
ATOM     62  C   UNL A   1      47.470  29.843  26.782  1.00  0.00     0.031 C 
ATOM     63  C   UNL A   1      42.540  31.906  29.664  1.00  0.00     0.029 A 
ATOM     64  C   UNL A   1      43.436  31.075  29.009  1.00  0.00     0.049 A 
ATOM     65  H   UNL A   1      43.167  29.092  28.348  1.00  0.00     0.167 HD
ATOM     66  C   UNL A   1      45.599  30.505  27.932  1.00  0.00     0.074 A 
ATOM     67  C   UNL A   1      46.934  30.837  27.478  1.00  0.00     0.031 C 
ATOM     68  C   UNL A   1      44.786  31.363  28.597  1.00  0.00     0.034 A 
BRANCH  55  69
ATOM     69  C   UNL A   1      39.160  29.108  29.822  1.00  0.00     0.023 A 
ATOM     70  C   UNL A   1      38.842  28.666  31.124  1.00  0.00     0.012 A 
ATOM     71  C   UNL A   1      38.192  29.805  29.075  1.00  0.00     0.148 A 
ATOM     72  C   UNL A   1      37.573  28.877  31.657  1.00  0.00     0.002 A 
ATOM     73  C   UNL A   1      36.942  30.054  29.632  1.00  0.00     0.091 A 
ATOM     74  F   UNL A   1      38.502  30.196  27.830  1.00  0.00    -0.205 F 
ATOM     75  C   UNL A   1      36.627  29.581  30.916  1.00  0.00     0.022 A 
BRANCH  73  76
ATOM     76  S   UNL A   1      35.683  31.021  28.792  1.00  0.00     0.127 S 
ATOM     77  O   UNL A   1      34.926  31.561  29.921  1.00  0.00    -0.237 OA
ATOM     78  O   UNL A   1      36.485  32.008  28.069  1.00  0.00    -0.237 OA
ATOM     79  O   UNL A   1      34.957  30.086  27.944  1.00  0.00    -0.744 OA
ENDBRANCH  73  76
ENDBRANCH  55  69
BRANCH  56  80
ATOM     80  C   UNL A   1      48.059  27.198  25.642  1.00  0.00     0.023 A 
ATOM     81  C   UNL A   1      49.123  26.674  26.402  1.00  0.00     0.012 A 
ATOM     82  C   UNL A   1      48.248  27.430  24.266  1.00  0.00     0.148 A 
ATOM     83  C   UNL A   1      50.361  26.417  25.813  1.00  0.00     0.002 A 
ATOM     84  C   UNL A   1      49.467  27.121  23.674  1.00  0.00     0.091 A 
ATOM     85  F   UNL A   1      47.227  27.937  23.561  1.00  0.00    -0.205 F 
ATOM     86  C   UNL A   1      50.531  26.631  24.447  1.00  0.00     0.022 A 
BRANCH  84  87
ATOM     87  S   UNL A   1      49.733  27.241  21.901  1.00  0.00     0.127 S 
ATOM     88  O   UNL A   1      49.603  28.679  21.677  1.00  0.00    -0.237 OA
ATOM     89  O   UNL A   1      51.092  26.716  21.763  1.00  0.00    -0.237 OA
ATOM     90  O   UNL A   1      48.704  26.409  21.293  1.00  0.00    -0.744 OA
ENDBRANCH  84  87
ENDBRANCH  56  80
BRANCH  68  91
ATOM     91  C   UNL A   1      45.326  32.732  28.912  1.00  0.00     0.023 A 
ATOM     92  C   UNL A   1      46.064  32.940  30.093  1.00  0.00     0.012 A 
ATOM     93  C   UNL A   1      45.172  33.790  27.994  1.00  0.00     0.148 A 
ATOM     94  C   UNL A   1      46.613  34.189  30.372  1.00  0.00     0.002 A 
ATOM     95  C   UNL A   1      45.766  35.018  28.255  1.00  0.00     0.091 A 
ATOM     96  F   UNL A   1      44.450  33.574  26.884  1.00  0.00    -0.205 F 
ATOM     97  C   UNL A   1      46.476  35.223  29.448  1.00  0.00     0.022 A 
BRANCH  95  98
ATOM     98  S   UNL A   1      45.727  36.373  27.076  1.00  0.00     0.127 S 
ATOM     99  O   UNL A   1      44.292  36.630  26.967  1.00  0.00    -0.237 OA
ATOM    100  O   UNL A   1      46.483  37.413  27.774  1.00  0.00    -0.237 OA
ATOM    101  O   UNL A   1      46.367  35.871  25.867  1.00  0.00    -0.744 OA
ENDBRANCH  95  98
ENDBRANCH  68  91
ENDBRANCH  42  43
ENDBRANCH  34  37
ENDBRANCH  32  33
ENDBRANCH  31  32
ENDBRANCH   1  31
TORSDOF 18
ENDMDL
MODEL 3
REMARK VINA RESULT:     -12.2      0.644      7.515
REMARK SMILES CCN(C(=O)Cc1c(C(=O)NCCCNC(=O)c2ccc(-c3c4nc(c(-c5cccc(S(=O)(=O)[O-])c5F)c5ccc([nH]5)c(-c5cccc(S(=O)(=O)[O-])c5F)c5nc(c(-c6cccc(S(=O)(=O)[O-])c6F)c6ccc3[nH]6)C=C5)C=C4)cc2)[nH]c2ccc(Cl)cc12)c1ccc(C)c(C)c1
REMARK SMILES IDX 12 1 11 2 9 3 10 4 8 6 7 7 88 8 81 9 82 10 87 11 83 13 85 14
REMARK SMILES IDX 84 15 86 16 6 17 4 18 5 19 3 20 2 21 1 22 89 23 90 24 96 25
REMARK SMILES IDX 91 26 94 27 92 28 95 29 93 30 13 31 14 32 15 33 16 34 17 36
REMARK SMILES IDX 18 37 19 38 80 39 20 40 79 41 21 42 22 43 23 44 73 45 24 46
REMARK SMILES IDX 78 47 72 48 74 49 25 50 77 51 71 52 70 53 26 55 58 56 38 57
REMARK SMILES IDX 57 58 39 59 42 60 56 61 75 62 40 63 41 64 55 66 76 67 43 68
REMARK SMILES IDX 27 69 28 70 36 71 29 72 31 73 37 74 30 75 32 76 33 77 34 78
REMARK SMILES IDX 35 79 59 80 60 81 68 82 61 83 63 84 69 85 62 86 64 87 65 88
REMARK SMILES IDX 66 89 67 90 44 91 45 92 53 93 46 94 48 95 54 96 47 97 49 98
REMARK SMILES IDX 50 99 51 100 52 101
REMARK H PARENT 11 5 81 12 15 35 74 54 42 65
REMARK Flexibility Score: inf
ROOT
ATOM      1  C   UNL A   1      33.729  21.073  25.902  1.00  0.00     0.118 C 
ENDROOT
BRANCH   1   2
ATOM      2  N   UNL A   1      32.352  21.465  26.089  1.00  0.00    -0.351 N 
ATOM      3  C   UNL A   1      31.626  22.616  26.111  1.00  0.00     0.268 C 
ATOM      4  O   UNL A   1      30.404  22.423  26.157  1.00  0.00    -0.268 OA
ATOM      5  H   UNL A   1      31.777  20.680  26.245  1.00  0.00     0.163 HD
BRANCH   3   6
ATOM      6  C   UNL A   1      32.116  23.987  26.054  1.00  0.00     0.109 A 
ATOM      7  C   UNL A   1      33.252  24.717  25.680  1.00  0.00    -0.000 A 
ATOM      8  C   UNL A   1      33.034  26.091  26.077  1.00  0.00     0.005 A 
ATOM      9  N   UNL A   1      31.201  24.945  26.478  1.00  0.00    -0.350 N 
ATOM     10  C   UNL A   1      31.729  26.200  26.528  1.00  0.00     0.046 A 
ATOM     11  C   UNL A   1      33.848  27.245  26.098  1.00  0.00     0.031 A 
ATOM     12  H   UNL A   1      30.268  24.737  26.718  1.00  0.00     0.167 HD
ATOM     13  C   UNL A   1      31.159  27.403  26.957  1.00  0.00     0.028 A 
ATOM     14  C   UNL A   1      33.311  28.448  26.568  1.00  0.00     0.041 A 
ATOM     15  C   UNL A   1      31.983  28.532  26.976  1.00  0.00     0.022 A 
ATOM     16  Cl  UNL A   1      34.311  29.848  26.654  1.00  0.00    -0.084 Cl
BRANCH   7  17
ATOM     17  C   UNL A   1      34.549  24.297  25.076  1.00  0.00     0.139 C 
BRANCH  17  18
ATOM     18  C   UNL A   1      34.534  23.933  23.585  1.00  0.00     0.231 C 
ATOM     19  O   UNL A   1      35.591  23.474  23.124  1.00  0.00    -0.274 OA
BRANCH  18  20
ATOM     20  N   UNL A   1      33.380  24.053  22.792  1.00  0.00    -0.312 N 
BRANCH  20  21
ATOM     21  C   UNL A   1      32.838  23.033  21.878  1.00  0.00     0.122 C 
ATOM     22  C   UNL A   1      32.215  21.786  22.481  1.00  0.00     0.028 C 
ENDBRANCH  20  21
BRANCH  20  23
ATOM     23  C   UNL A   1      32.742  25.335  22.697  1.00  0.00     0.044 A 
ATOM     24  C   UNL A   1      31.354  25.462  22.762  1.00  0.00     0.026 A 
ATOM     25  C   UNL A   1      33.509  26.497  22.592  1.00  0.00     0.030 A 
ATOM     26  C   UNL A   1      30.759  26.726  22.733  1.00  0.00     0.006 A 
ATOM     27  C   UNL A   1      32.934  27.776  22.582  1.00  0.00    -0.046 A 
ATOM     28  C   UNL A   1      31.537  27.893  22.642  1.00  0.00    -0.048 A 
ATOM     29  C   UNL A   1      33.852  28.961  22.474  1.00  0.00     0.044 C 
ATOM     30  C   UNL A   1      30.824  29.213  22.553  1.00  0.00     0.044 C 
ENDBRANCH  20  23
ENDBRANCH  18  20
ENDBRANCH  17  18
ENDBRANCH   7  17
ENDBRANCH   3   6
ENDBRANCH   1   2
BRANCH   1  31
ATOM     31  C   UNL A   1      34.621  21.452  27.070  1.00  0.00     0.042 C 
BRANCH  31  32
ATOM     32  C   UNL A   1      35.863  22.171  26.588  1.00  0.00     0.118 C 
BRANCH  32  33
ATOM     33  N   UNL A   1      36.831  21.264  25.972  1.00  0.00    -0.352 N 
ATOM     34  C   UNL A   1      38.186  21.426  25.819  1.00  0.00     0.251 C 
ATOM     35  H   UNL A   1      36.461  20.422  25.620  1.00  0.00     0.163 HD
ATOM     36  O   UNL A   1      38.835  20.608  25.173  1.00  0.00    -0.269 OA
BRANCH  34  37
ATOM     37  C   UNL A   1      38.835  22.612  26.408  1.00  0.00     0.039 A 
ATOM     38  C   UNL A   1      39.931  22.438  27.255  1.00  0.00     0.014 A 
ATOM     39  C   UNL A   1      38.402  23.893  26.062  1.00  0.00     0.014 A 
ATOM     40  C   UNL A   1      40.635  23.557  27.697  1.00  0.00     0.010 A 
ATOM     41  C   UNL A   1      39.176  24.990  26.399  1.00  0.00     0.010 A 
ATOM     42  C   UNL A   1      40.286  24.837  27.240  1.00  0.00    -0.014 A 
BRANCH  42  43
ATOM     43  C   UNL A   1      41.044  26.045  27.643  1.00  0.00     0.031 A 
ATOM     44  C   UNL A   1      40.350  27.127  28.427  1.00  0.00     0.074 A 
ATOM     45  C   UNL A   1      42.310  26.212  27.215  1.00  0.00     0.049 A 
ATOM     46  N   UNL A   1      40.802  28.296  28.797  1.00  0.00    -0.248 NA
ATOM     47  C   UNL A   1      38.947  26.882  28.809  1.00  0.00     0.031 C 
ATOM     48  C   UNL A   1      43.051  25.274  26.367  1.00  0.00     0.029 A 
ATOM     49  N   UNL A   1      43.190  27.245  27.414  1.00  0.00    -0.354 N 
ATOM     50  C   UNL A   1      39.731  28.938  29.405  1.00  0.00     0.074 A 
ATOM     51  C   UNL A   1      38.593  28.054  29.313  1.00  0.00     0.031 C 
ATOM     52  C   UNL A   1      44.277  25.769  26.130  1.00  0.00     0.029 A 
ATOM     53  C   UNL A   1      44.399  27.068  26.781  1.00  0.00     0.049 A 
ATOM     54  H   UNL A   1      42.977  28.037  27.957  1.00  0.00     0.167 HD
ATOM     55  C   UNL A   1      39.707  30.143  30.022  1.00  0.00     0.034 A 
ATOM     56  C   UNL A   1      45.481  27.870  26.732  1.00  0.00     0.034 A 
ATOM     57  C   UNL A   1      40.861  30.983  30.168  1.00  0.00     0.049 A 
ATOM     58  C   UNL A   1      45.451  29.170  27.487  1.00  0.00     0.074 A 
ATOM     59  C   UNL A   1      40.978  32.171  30.866  1.00  0.00     0.029 A 
ATOM     60  N   UNL A   1      42.102  30.721  29.607  1.00  0.00    -0.354 N 
ATOM     61  N   UNL A   1      44.478  29.689  28.199  1.00  0.00    -0.248 NA
ATOM     62  C   UNL A   1      46.677  29.979  27.466  1.00  0.00     0.031 C 
ATOM     63  C   UNL A   1      42.287  32.638  30.711  1.00  0.00     0.029 A 
ATOM     64  C   UNL A   1      42.991  31.728  29.937  1.00  0.00     0.049 A 
ATOM     65  H   UNL A   1      42.318  29.935  29.056  1.00  0.00     0.167 HD
ATOM     66  C   UNL A   1      44.986  30.864  28.739  1.00  0.00     0.074 A 
ATOM     67  C   UNL A   1      46.359  30.970  28.289  1.00  0.00     0.031 C 
ATOM     68  C   UNL A   1      44.370  31.782  29.523  1.00  0.00     0.034 A 
BRANCH  55  69
ATOM     69  C   UNL A   1      38.405  30.588  30.636  1.00  0.00     0.023 A 
ATOM     70  C   UNL A   1      38.068  30.163  31.939  1.00  0.00     0.012 A 
ATOM     71  C   UNL A   1      37.539  31.458  29.948  1.00  0.00     0.148 A 
ATOM     72  C   UNL A   1      36.872  30.565  32.530  1.00  0.00     0.002 A 
ATOM     73  C   UNL A   1      36.370  31.893  30.563  1.00  0.00     0.091 A 
ATOM     74  F   UNL A   1      37.863  31.832  28.701  1.00  0.00    -0.205 F 
ATOM     75  C   UNL A   1      36.029  31.438  31.848  1.00  0.00     0.022 A 
BRANCH  73  76
ATOM     76  S   UNL A   1      35.259  33.080  29.801  1.00  0.00     0.127 S 
ATOM     77  O   UNL A   1      36.168  34.187  29.506  1.00  0.00    -0.237 OA
ATOM     78  O   UNL A   1      34.787  32.349  28.625  1.00  0.00    -0.237 OA
ATOM     79  O   UNL A   1      34.231  33.364  30.793  1.00  0.00    -0.744 OA
ENDBRANCH  73  76
ENDBRANCH  55  69
BRANCH  56  80
ATOM     80  C   UNL A   1      46.705  27.427  26.007  1.00  0.00     0.023 A 
ATOM     81  C   UNL A   1      46.844  27.731  24.638  1.00  0.00     0.012 A 
ATOM     82  C   UNL A   1      47.742  26.741  26.666  1.00  0.00     0.148 A 
ATOM     83  C   UNL A   1      47.978  27.329  23.931  1.00  0.00     0.002 A 
ATOM     84  C   UNL A   1      48.893  26.392  25.968  1.00  0.00     0.091 A 
ATOM     85  F   UNL A   1      47.588  26.454  27.966  1.00  0.00    -0.205 F 
ATOM     86  C   UNL A   1      49.007  26.669  24.597  1.00  0.00     0.022 A 
BRANCH  84  87
ATOM     87  S   UNL A   1      50.321  25.656  26.775  1.00  0.00     0.127 S 
ATOM     88  O   UNL A   1      51.254  25.517  25.659  1.00  0.00    -0.237 OA
ATOM     89  O   UNL A   1      50.678  26.684  27.753  1.00  0.00    -0.237 OA
ATOM     90  O   UNL A   1      49.842  24.412  27.360  1.00  0.00    -0.744 OA
ENDBRANCH  84  87
ENDBRANCH  56  80
BRANCH  68  91
ATOM     91  C   UNL A   1      45.180  32.965  29.981  1.00  0.00     0.023 A 
ATOM     92  C   UNL A   1      45.950  32.874  31.156  1.00  0.00     0.012 A 
ATOM     93  C   UNL A   1      45.242  34.135  29.199  1.00  0.00     0.148 A 
ATOM     94  C   UNL A   1      46.746  33.943  31.564  1.00  0.00     0.002 A 
ATOM     95  C   UNL A   1      46.076  35.176  29.585  1.00  0.00     0.091 A 
ATOM     96  F   UNL A   1      44.486  34.206  28.093  1.00  0.00    -0.205 F 
ATOM     97  C   UNL A   1      46.820  35.087  30.772  1.00  0.00     0.022 A 
BRANCH  95  98
ATOM     98  S   UNL A   1      46.311  36.644  28.575  1.00  0.00     0.127 S 
ATOM     99  O   UNL A   1      46.745  36.064  27.306  1.00  0.00    -0.237 OA
ATOM    100  O   UNL A   1      44.968  37.224  28.555  1.00  0.00    -0.237 OA
ATOM    101  O   UNL A   1      47.307  37.452  29.268  1.00  0.00    -0.744 OA
ENDBRANCH  95  98
ENDBRANCH  68  91
ENDBRANCH  42  43
ENDBRANCH  34  37
ENDBRANCH  32  33
ENDBRANCH  31  32
ENDBRANCH   1  31
TORSDOF 18
ENDMDL
