MODEL 1
REMARK VINA RESULT:     -12.7      0.000      0.000
REMARK SMILES O=C(NCCCNC(=O)[C@H]1[C@H]2CC[C@H](CC2)[C@@H]1C(=O)Nc1ccc(Cc2ccncc2)cc1)c1ccc(-c2c3nc(c(-c4cccc(S(=O)(=O)[O-])c4F)c4ccc([nH]4)c(-c4cccc(S(=O)(=O)[O-])c4F)c4nc(c(-c5cccc(S(=O)(=O)[O-])c5F)c5ccc2[nH]5)C=C4)C=C3)cc1
REMARK SMILES IDX 5 1 4 2 3 3 1 4 2 5 34 7 35 8 96 9 36 10 95 11 37 12 38 13
REMARK SMILES IDX 39 14 89 15 40 16 94 17 88 18 90 19 41 20 93 21 87 22 86 23
REMARK SMILES IDX 42 25 74 26 54 27 73 28 55 29 58 30 72 31 91 32 56 33 57 34
REMARK SMILES IDX 71 36 92 37 59 38 43 39 44 40 52 41 45 42 47 43 53 44 46 45
REMARK SMILES IDX 48 46 49 47 50 48 51 49 75 50 76 51 84 52 77 53 79 54 85 55
REMARK SMILES IDX 78 56 80 57 81 58 82 59 83 60 60 61 61 62 69 63 62 64 64 65
REMARK SMILES IDX 70 66 63 67 65 68 66 69 67 70 68 71 6 72 7 73 8 74 9 76
REMARK SMILES IDX 10 77 11 78 17 79 12 80 16 81 14 82 13 83 15 84 18 85 19 86
REMARK SMILES IDX 20 87 21 89 22 90 33 91 23 92 32 93 24 94 25 95 26 96 27 97
REMARK SMILES IDX 31 98 28 99 30 100 29 101
REMARK H PARENT 3 6 90 24 58 35 7 75 20 88
REMARK Flexibility Score: inf
ROOT
ATOM      1  C   UNL A   1      32.845  27.645  26.383  1.00  0.00     0.042 C 
ENDROOT
BRANCH   1   2
ATOM      2  C   UNL A   1      34.154  28.405  26.234  1.00  0.00     0.118 C 
BRANCH   2   3
ATOM      3  N   UNL A   1      33.999  29.820  26.557  1.00  0.00    -0.352 N 
ATOM      4  O   UNL A   1      34.180  31.649  27.854  1.00  0.00    -0.269 OA
ATOM      5  C   UNL A   1      34.673  30.593  27.475  1.00  0.00     0.251 C 
ATOM      6  H   UNL A   1      33.308  30.293  26.040  1.00  0.00     0.163 HD
BRANCH   5   7
ATOM      7  C   UNL A   1      35.972  30.132  28.006  1.00  0.00     0.039 A 
ATOM      8  C   UNL A   1      37.141  30.380  27.290  1.00  0.00     0.014 A 
ATOM      9  C   UNL A   1      36.034  29.474  29.238  1.00  0.00     0.014 A 
ATOM     10  C   UNL A   1      38.336  29.810  27.693  1.00  0.00     0.010 A 
ATOM     11  C   UNL A   1      37.266  29.019  29.714  1.00  0.00     0.010 A 
ATOM     12  C   UNL A   1      38.422  29.155  28.928  1.00  0.00    -0.014 A 
BRANCH  12  13
ATOM     13  C   UNL A   1      39.751  28.708  29.410  1.00  0.00     0.031 A 
ATOM     14  C   UNL A   1      40.448  29.419  30.532  1.00  0.00     0.074 A 
ATOM     15  C   UNL A   1      40.322  27.643  28.812  1.00  0.00     0.049 A 
ATOM     16  N   UNL A   1      41.628  29.184  31.044  1.00  0.00    -0.248 NA
ATOM     17  C   UNL A   1      39.738  30.547  31.155  1.00  0.00     0.031 C 
ATOM     18  C   UNL A   1      39.740  26.893  27.694  1.00  0.00     0.029 A 
ATOM     19  N   UNL A   1      41.512  27.008  29.049  1.00  0.00    -0.354 N 
ATOM     20  C   UNL A   1      41.828  30.164  32.008  1.00  0.00     0.074 A 
ATOM     21  C   UNL A   1      40.646  30.998  32.011  1.00  0.00     0.031 C 
ATOM     22  C   UNL A   1      40.558  25.888  27.360  1.00  0.00     0.029 A 
ATOM     23  C   UNL A   1      41.758  25.971  28.180  1.00  0.00     0.049 A 
ATOM     24  H   UNL A   1      42.130  27.267  29.769  1.00  0.00     0.167 HD
ATOM     25  C   UNL A   1      42.899  30.344  32.817  1.00  0.00     0.034 A 
ATOM     26  C   UNL A   1      42.847  25.195  28.027  1.00  0.00     0.034 A 
ATOM     27  C   UNL A   1      44.054  29.486  32.818  1.00  0.00     0.049 A 
ATOM     28  C   UNL A   1      44.015  25.411  28.942  1.00  0.00     0.074 A 
ATOM     29  C   UNL A   1      45.169  29.545  33.635  1.00  0.00     0.029 A 
ATOM     30  N   UNL A   1      44.249  28.418  31.953  1.00  0.00    -0.354 N 
ATOM     31  N   UNL A   1      44.147  26.283  29.911  1.00  0.00    -0.248 NA
ATOM     32  C   UNL A   1      45.171  24.525  28.761  1.00  0.00     0.031 C 
ATOM     33  C   UNL A   1      46.052  28.533  33.242  1.00  0.00     0.029 A 
ATOM     34  C   UNL A   1      45.470  27.817  32.207  1.00  0.00     0.049 A 
ATOM     35  H   UNL A   1      43.611  28.129  31.261  1.00  0.00     0.167 HD
ATOM     36  C   UNL A   1      45.388  26.034  30.480  1.00  0.00     0.074 A 
ATOM     37  C   UNL A   1      45.960  24.916  29.753  1.00  0.00     0.031 C 
ATOM     38  C   UNL A   1      46.000  26.676  31.504  1.00  0.00     0.034 A 
BRANCH  25  39
ATOM     39  C   UNL A   1      42.868  31.511  33.772  1.00  0.00     0.023 A 
ATOM     40  C   UNL A   1      43.346  32.772  33.360  1.00  0.00     0.012 A 
ATOM     41  C   UNL A   1      42.330  31.368  35.066  1.00  0.00     0.148 A 
ATOM     42  C   UNL A   1      43.327  33.860  34.234  1.00  0.00     0.002 A 
ATOM     43  C   UNL A   1      42.272  32.468  35.915  1.00  0.00     0.091 A 
ATOM     44  F   UNL A   1      41.900  30.157  35.450  1.00  0.00    -0.205 F 
ATOM     45  C   UNL A   1      42.782  33.709  35.506  1.00  0.00     0.022 A 
BRANCH  43  46
ATOM     46  S   UNL A   1      41.515  32.392  37.543  1.00  0.00     0.127 S 
ATOM     47  O   UNL A   1      41.670  33.770  38.004  1.00  0.00    -0.237 OA
ATOM     48  O   UNL A   1      40.140  32.007  37.228  1.00  0.00    -0.237 OA
ATOM     49  O   UNL A   1      42.268  31.392  38.287  1.00  0.00    -0.744 OA
ENDBRANCH  43  46
ENDBRANCH  25  39
BRANCH  26  50
ATOM     50  C   UNL A   1      42.851  24.139  26.977  1.00  0.00     0.023 A 
ATOM     51  C   UNL A   1      43.589  24.334  25.796  1.00  0.00     0.012 A 
ATOM     52  C   UNL A   1      42.193  22.910  27.182  1.00  0.00     0.148 A 
ATOM     53  C   UNL A   1      43.659  23.331  24.829  1.00  0.00     0.002 A 
ATOM     54  C   UNL A   1      42.315  21.893  26.244  1.00  0.00     0.091 A 
ATOM     55  F   UNL A   1      41.491  22.748  28.314  1.00  0.00    -0.205 F 
ATOM     56  C   UNL A   1      43.034  22.107  25.059  1.00  0.00     0.022 A 
BRANCH  54  57
ATOM     57  S   UNL A   1      41.670  20.240  26.524  1.00  0.00     0.127 S 
ATOM     58  O   UNL A   1      40.229  20.475  26.503  1.00  0.00    -0.237 OA
ATOM     59  O   UNL A   1      42.195  19.515  25.365  1.00  0.00    -0.237 OA
ATOM     60  O   UNL A   1      42.222  19.811  27.802  1.00  0.00    -0.744 OA
ENDBRANCH  54  57
ENDBRANCH  26  50
BRANCH  38  61
ATOM     61  C   UNL A   1      47.343  26.156  31.941  1.00  0.00     0.023 A 
ATOM     62  C   UNL A   1      47.434  25.247  33.013  1.00  0.00     0.012 A 
ATOM     63  C   UNL A   1      48.505  26.509  31.229  1.00  0.00     0.148 A 
ATOM     64  C   UNL A   1      48.668  24.719  33.387  1.00  0.00     0.002 A 
ATOM     65  C   UNL A   1      49.723  25.939  31.573  1.00  0.00     0.091 A 
ATOM     66  F   UNL A   1      48.396  27.393  30.225  1.00  0.00    -0.205 F 
ATOM     67  C   UNL A   1      49.808  25.053  32.660  1.00  0.00     0.022 A 
BRANCH  65  68
ATOM     68  S   UNL A   1      51.223  26.232  30.631  1.00  0.00     0.127 S 
ATOM     69  O   UNL A   1      52.208  25.465  31.392  1.00  0.00    -0.237 OA
ATOM     70  O   UNL A   1      50.883  25.666  29.325  1.00  0.00    -0.237 OA
ATOM     71  O   UNL A   1      51.423  27.674  30.631  1.00  0.00    -0.744 OA
ENDBRANCH  65  68
ENDBRANCH  38  61
ENDBRANCH  12  13
ENDBRANCH   5   7
ENDBRANCH   2   3
ENDBRANCH   1   2
BRANCH   1  72
ATOM     72  C   UNL A   1      33.025  26.145  26.212  1.00  0.00     0.117 C 
BRANCH  72  73
ATOM     73  N   UNL A   1      34.350  25.817  25.707  1.00  0.00    -0.356 N 
ATOM     74  C   UNL A   1      34.923  24.623  25.441  1.00  0.00     0.224 C 
ATOM     75  H   UNL A   1      34.925  26.596  25.529  1.00  0.00     0.163 HD
ATOM     76  O   UNL A   1      36.080  24.525  25.861  1.00  0.00    -0.275 OA
BRANCH  74  77
ATOM     77  C   UNL A   1      34.309  23.491  24.602  1.00  0.00     0.094 C 
ATOM     78  C   UNL A   1      34.158  22.112  25.278  1.00  0.00     0.002 C 
ATOM     79  C   UNL A   1      32.925  23.922  24.007  1.00  0.00     0.094 C 
ATOM     80  C   UNL A   1      33.059  22.125  26.372  1.00  0.00     0.005 C 
ATOM     81  C   UNL A   1      33.724  21.107  24.198  1.00  0.00     0.005 C 
ATOM     82  C   UNL A   1      31.859  22.803  24.294  1.00  0.00     0.002 C 
ATOM     83  C   UNL A   1      31.735  22.645  25.813  1.00  0.00     0.005 C 
ATOM     84  C   UNL A   1      32.296  21.423  23.750  1.00  0.00     0.005 C 
BRANCH  79  85
ATOM     85  C   UNL A   1      32.928  24.160  22.477  1.00  0.00     0.228 C 
ATOM     86  O   UNL A   1      33.674  23.538  21.719  1.00  0.00    -0.274 OA
ATOM     87  N   UNL A   1      31.905  24.907  21.934  1.00  0.00    -0.326 N 
ATOM     88  H   UNL A   1      31.479  24.548  21.123  1.00  0.00     0.169 HD
BRANCH  87  89
ATOM     89  C   UNL A   1      31.406  26.128  22.416  1.00  0.00     0.041 A 
ATOM     90  C   UNL A   1      30.183  26.181  23.077  1.00  0.00     0.026 A 
ATOM     91  C   UNL A   1      32.082  27.313  22.159  1.00  0.00     0.026 A 
ATOM     92  C   UNL A   1      29.734  27.399  23.611  1.00  0.00     0.006 A 
ATOM     93  C   UNL A   1      31.645  28.527  22.683  1.00  0.00     0.006 A 
ATOM     94  C   UNL A   1      30.482  28.577  23.452  1.00  0.00    -0.043 A 
BRANCH  94  95
ATOM     95  C   UNL A   1      30.054  29.883  24.081  1.00  0.00     0.071 C 
BRANCH  95  96
ATOM     96  C   UNL A   1      29.290  30.803  23.162  1.00  0.00    -0.041 A 
ATOM     97  C   UNL A   1      29.088  32.144  23.500  1.00  0.00     0.024 A 
ATOM     98  C   UNL A   1      28.786  30.347  21.940  1.00  0.00     0.024 A 
ATOM     99  C   UNL A   1      28.399  32.960  22.615  1.00  0.00     0.111 A 
ATOM    100  C   UNL A   1      28.117  31.242  21.119  1.00  0.00     0.111 A 
ATOM    101  N   UNL A   1      27.914  32.541  21.428  1.00  0.00    -0.265 NA
ENDBRANCH  95  96
ENDBRANCH  94  95
ENDBRANCH  87  89
ENDBRANCH  79  85
ENDBRANCH  74  77
ENDBRANCH  72  73
ENDBRANCH   1  72
TORSDOF 17
ENDMDL
MODEL 2
REMARK VINA RESULT:     -12.7      1.622      1.889
REMARK SMILES O=C(NCCCNC(=O)[C@H]1[C@H]2CC[C@H](CC2)[C@@H]1C(=O)Nc1ccc(Cc2ccncc2)cc1)c1ccc(-c2c3nc(c(-c4cccc(S(=O)(=O)[O-])c4F)c4ccc([nH]4)c(-c4cccc(S(=O)(=O)[O-])c4F)c4nc(c(-c5cccc(S(=O)(=O)[O-])c5F)c5ccc2[nH]5)C=C4)C=C3)cc1
REMARK SMILES IDX 5 1 4 2 3 3 1 4 2 5 34 7 35 8 96 9 36 10 95 11 37 12 38 13
REMARK SMILES IDX 39 14 89 15 40 16 94 17 88 18 90 19 41 20 93 21 87 22 86 23
REMARK SMILES IDX 42 25 74 26 54 27 73 28 55 29 58 30 72 31 91 32 56 33 57 34
REMARK SMILES IDX 71 36 92 37 59 38 43 39 44 40 52 41 45 42 47 43 53 44 46 45
REMARK SMILES IDX 48 46 49 47 50 48 51 49 75 50 76 51 84 52 77 53 79 54 85 55
REMARK SMILES IDX 78 56 80 57 81 58 82 59 83 60 60 61 61 62 69 63 62 64 64 65
REMARK SMILES IDX 70 66 63 67 65 68 66 69 67 70 68 71 6 72 7 73 8 74 9 76
REMARK SMILES IDX 10 77 11 78 17 79 12 80 16 81 14 82 13 83 15 84 18 85 19 86
REMARK SMILES IDX 20 87 21 89 22 90 33 91 23 92 32 93 24 94 25 95 26 96 27 97
REMARK SMILES IDX 31 98 28 99 30 100 29 101
REMARK H PARENT 3 6 90 24 58 35 7 75 20 88
REMARK Flexibility Score: inf
ROOT
ATOM      1  C   UNL A   1      33.248  27.414  26.601  1.00  0.00     0.042 C 
ENDROOT
BRANCH   1   2
ATOM      2  C   UNL A   1      33.952  28.449  25.737  1.00  0.00     0.118 C 
BRANCH   2   3
ATOM      3  N   UNL A   1      33.722  29.807  26.222  1.00  0.00    -0.352 N 
ATOM      4  O   UNL A   1      33.777  31.470  27.735  1.00  0.00    -0.269 OA
ATOM      5  C   UNL A   1      34.330  30.489  27.250  1.00  0.00     0.251 C 
ATOM      6  H   UNL A   1      33.026  30.310  25.740  1.00  0.00     0.163 HD
BRANCH   5   7
ATOM      7  C   UNL A   1      35.631  30.022  27.771  1.00  0.00     0.039 A 
ATOM      8  C   UNL A   1      35.691  29.373  29.003  1.00  0.00     0.014 A 
ATOM      9  C   UNL A   1      36.795  30.202  27.019  1.00  0.00     0.014 A 
ATOM     10  C   UNL A   1      36.918  29.082  29.574  1.00  0.00     0.010 A 
ATOM     11  C   UNL A   1      38.022  29.780  27.538  1.00  0.00     0.010 A 
ATOM     12  C   UNL A   1      38.095  29.247  28.835  1.00  0.00    -0.014 A 
BRANCH  12  13
ATOM     13  C   UNL A   1      39.374  28.764  29.409  1.00  0.00     0.031 A 
ATOM     14  C   UNL A   1      39.988  29.432  30.605  1.00  0.00     0.074 A 
ATOM     15  C   UNL A   1      39.978  27.707  28.828  1.00  0.00     0.049 A 
ATOM     16  N   UNL A   1      41.119  29.163  31.203  1.00  0.00    -0.248 NA
ATOM     17  C   UNL A   1      39.246  30.553  31.202  1.00  0.00     0.031 C 
ATOM     18  C   UNL A   1      39.477  26.999  27.646  1.00  0.00     0.029 A 
ATOM     19  N   UNL A   1      41.135  27.046  29.142  1.00  0.00    -0.354 N 
ATOM     20  C   UNL A   1      41.254  30.111  32.209  1.00  0.00     0.074 A 
ATOM     21  C   UNL A   1      40.087  30.964  32.142  1.00  0.00     0.031 C 
ATOM     22  C   UNL A   1      40.306  25.991  27.349  1.00  0.00     0.029 A 
ATOM     23  C   UNL A   1      41.436  26.031  28.265  1.00  0.00     0.049 A 
ATOM     24  H   UNL A   1      41.696  27.275  29.918  1.00  0.00     0.167 HD
ATOM     25  C   UNL A   1      42.258  30.250  33.107  1.00  0.00     0.034 A 
ATOM     26  C   UNL A   1      42.523  25.241  28.178  1.00  0.00     0.034 A 
ATOM     27  C   UNL A   1      43.397  29.374  33.176  1.00  0.00     0.049 A 
ATOM     28  C   UNL A   1      43.615  25.412  29.190  1.00  0.00     0.074 A 
ATOM     29  C   UNL A   1      44.443  29.391  34.082  1.00  0.00     0.029 A 
ATOM     30  N   UNL A   1      43.646  28.328  32.299  1.00  0.00    -0.354 N 
ATOM     31  N   UNL A   1      43.680  26.254  30.193  1.00  0.00    -0.248 NA
ATOM     32  C   UNL A   1      44.770  24.513  29.077  1.00  0.00     0.031 C 
ATOM     33  C   UNL A   1      45.339  28.376  33.732  1.00  0.00     0.029 A 
ATOM     34  C   UNL A   1      44.833  27.699  32.633  1.00  0.00     0.049 A 
ATOM     35  H   UNL A   1      43.062  28.070  31.549  1.00  0.00     0.167 HD
ATOM     36  C   UNL A   1      44.867  25.968  30.852  1.00  0.00     0.074 A 
ATOM     37  C   UNL A   1      45.481  24.863  30.141  1.00  0.00     0.031 C 
ATOM     38  C   UNL A   1      45.403  26.570  31.941  1.00  0.00     0.034 A 
BRANCH  25  39
ATOM     39  C   UNL A   1      42.166  31.390  34.091  1.00  0.00     0.023 A 
ATOM     40  C   UNL A   1      42.987  32.525  33.934  1.00  0.00     0.012 A 
ATOM     41  C   UNL A   1      41.238  31.353  35.151  1.00  0.00     0.148 A 
ATOM     42  C   UNL A   1      42.915  33.586  34.837  1.00  0.00     0.002 A 
ATOM     43  C   UNL A   1      41.140  32.434  36.020  1.00  0.00     0.091 A 
ATOM     44  F   UNL A   1      40.480  30.258  35.300  1.00  0.00    -0.205 F 
ATOM     45  C   UNL A   1      41.986  33.544  35.874  1.00  0.00     0.022 A 
BRANCH  43  46
ATOM     46  S   UNL A   1      39.920  32.506  37.337  1.00  0.00     0.127 S 
ATOM     47  O   UNL A   1      40.768  32.481  38.527  1.00  0.00    -0.237 OA
ATOM     48  O   UNL A   1      39.266  33.790  37.083  1.00  0.00    -0.237 OA
ATOM     49  O   UNL A   1      39.063  31.343  37.152  1.00  0.00    -0.744 OA
ENDBRANCH  43  46
ENDBRANCH  25  39
BRANCH  26  50
ATOM     50  C   UNL A   1      42.597  24.216  27.101  1.00  0.00     0.023 A 
ATOM     51  C   UNL A   1      43.347  24.479  25.940  1.00  0.00     0.012 A 
ATOM     52  C   UNL A   1      41.996  22.952  27.261  1.00  0.00     0.148 A 
ATOM     53  C   UNL A   1      43.483  23.507  24.948  1.00  0.00     0.002 A 
ATOM     54  C   UNL A   1      42.184  21.968  26.299  1.00  0.00     0.091 A 
ATOM     55  F   UNL A   1      41.281  22.726  28.373  1.00  0.00    -0.205 F 
ATOM     56  C   UNL A   1      42.914  22.248  25.134  1.00  0.00     0.022 A 
BRANCH  54  57
ATOM     57  S   UNL A   1      41.615  20.279  26.522  1.00  0.00     0.127 S 
ATOM     58  O   UNL A   1      40.166  20.440  26.437  1.00  0.00    -0.237 OA
ATOM     59  O   UNL A   1      42.229  19.603  25.378  1.00  0.00    -0.237 OA
ATOM     60  O   UNL A   1      42.130  19.855  27.817  1.00  0.00    -0.744 OA
ENDBRANCH  54  57
ENDBRANCH  26  50
BRANCH  38  61
ATOM     61  C   UNL A   1      46.698  26.017  32.469  1.00  0.00     0.023 A 
ATOM     62  C   UNL A   1      47.926  26.552  32.034  1.00  0.00     0.012 A 
ATOM     63  C   UNL A   1      46.690  25.019  33.463  1.00  0.00     0.148 A 
ATOM     64  C   UNL A   1      49.128  26.083  32.561  1.00  0.00     0.002 A 
ATOM     65  C   UNL A   1      47.887  24.593  34.021  1.00  0.00     0.091 A 
ATOM     66  F   UNL A   1      45.509  24.509  33.846  1.00  0.00    -0.205 F 
ATOM     67  C   UNL A   1      49.108  25.115  33.562  1.00  0.00     0.022 A 
BRANCH  65  68
ATOM     68  S   UNL A   1      47.951  23.426  35.384  1.00  0.00     0.127 S 
ATOM     69  O   UNL A   1      47.303  22.252  34.802  1.00  0.00    -0.237 OA
ATOM     70  O   UNL A   1      49.391  23.284  35.602  1.00  0.00    -0.237 OA
ATOM     71  O   UNL A   1      47.233  24.053  36.485  1.00  0.00    -0.744 OA
ENDBRANCH  65  68
ENDBRANCH  38  61
ENDBRANCH  12  13
ENDBRANCH   5   7
ENDBRANCH   2   3
ENDBRANCH   1   2
BRANCH   1  72
ATOM     72  C   UNL A   1      33.146  26.061  25.914  1.00  0.00     0.117 C 
BRANCH  72  73
ATOM     73  N   UNL A   1      34.414  25.663  25.322  1.00  0.00    -0.356 N 
ATOM     74  C   UNL A   1      35.029  24.461  25.277  1.00  0.00     0.224 C 
ATOM     75  H   UNL A   1      34.907  26.392  24.880  1.00  0.00     0.163 HD
ATOM     76  O   UNL A   1      36.235  24.511  25.540  1.00  0.00    -0.275 OA
BRANCH  74  77
ATOM     77  C   UNL A   1      34.391  23.133  24.835  1.00  0.00     0.094 C 
ATOM     78  C   UNL A   1      34.604  21.909  25.750  1.00  0.00     0.002 C 
ATOM     79  C   UNL A   1      32.858  23.311  24.568  1.00  0.00     0.094 C 
ATOM     80  C   UNL A   1      33.816  22.040  27.079  1.00  0.00     0.005 C 
ATOM     81  C   UNL A   1      34.062  20.674  25.010  1.00  0.00     0.005 C 
ATOM     82  C   UNL A   1      32.060  22.180  25.313  1.00  0.00     0.002 C 
ATOM     83  C   UNL A   1      32.336  22.316  26.814  1.00  0.00     0.005 C 
ATOM     84  C   UNL A   1      32.538  20.764  24.913  1.00  0.00     0.005 C 
BRANCH  79  85
ATOM     85  C   UNL A   1      32.452  23.239  23.075  1.00  0.00     0.228 C 
ATOM     86  O   UNL A   1      32.906  22.384  22.314  1.00  0.00    -0.274 OA
ATOM     87  N   UNL A   1      31.380  23.998  22.656  1.00  0.00    -0.326 N 
ATOM     88  H   UNL A   1      30.718  23.547  22.084  1.00  0.00     0.169 HD
BRANCH  87  89
ATOM     89  C   UNL A   1      31.132  25.346  22.959  1.00  0.00     0.041 A 
ATOM     90  C   UNL A   1      30.039  25.707  23.739  1.00  0.00     0.026 A 
ATOM     91  C   UNL A   1      31.922  26.346  22.407  1.00  0.00     0.026 A 
ATOM     92  C   UNL A   1      29.848  27.052  24.088  1.00  0.00     0.006 A 
ATOM     93  C   UNL A   1      31.740  27.685  22.745  1.00  0.00     0.006 A 
ATOM     94  C   UNL A   1      30.721  28.050  23.625  1.00  0.00    -0.043 A 
BRANCH  94  95
ATOM     95  C   UNL A   1      30.576  29.494  24.047  1.00  0.00     0.071 C 
BRANCH  95  96
ATOM     96  C   UNL A   1      29.577  30.288  23.243  1.00  0.00    -0.041 A 
ATOM     97  C   UNL A   1      28.916  31.384  23.804  1.00  0.00     0.024 A 
ATOM     98  C   UNL A   1      29.303  29.964  21.910  1.00  0.00     0.024 A 
ATOM     99  C   UNL A   1      28.022  32.098  23.021  1.00  0.00     0.111 A 
ATOM    100  C   UNL A   1      28.398  30.745  21.206  1.00  0.00     0.111 A 
ATOM    101  N   UNL A   1      27.753  31.808  21.732  1.00  0.00    -0.265 NA
ENDBRANCH  95  96
ENDBRANCH  94  95
ENDBRANCH  87  89
ENDBRANCH  79  85
ENDBRANCH  74  77
ENDBRANCH  72  73
ENDBRANCH   1  72
TORSDOF 17
ENDMDL
MODEL 3
REMARK VINA RESULT:     -12.6      2.526      3.203
REMARK SMILES O=C(NCCCNC(=O)[C@H]1[C@H]2CC[C@H](CC2)[C@@H]1C(=O)Nc1ccc(Cc2ccncc2)cc1)c1ccc(-c2c3nc(c(-c4cccc(S(=O)(=O)[O-])c4F)c4ccc([nH]4)c(-c4cccc(S(=O)(=O)[O-])c4F)c4nc(c(-c5cccc(S(=O)(=O)[O-])c5F)c5ccc2[nH]5)C=C4)C=C3)cc1
REMARK SMILES IDX 5 1 4 2 3 3 1 4 2 5 34 7 35 8 96 9 36 10 95 11 37 12 38 13
REMARK SMILES IDX 39 14 89 15 40 16 94 17 88 18 90 19 41 20 93 21 87 22 86 23
REMARK SMILES IDX 42 25 74 26 54 27 73 28 55 29 58 30 72 31 91 32 56 33 57 34
REMARK SMILES IDX 71 36 92 37 59 38 43 39 44 40 52 41 45 42 47 43 53 44 46 45
REMARK SMILES IDX 48 46 49 47 50 48 51 49 75 50 76 51 84 52 77 53 79 54 85 55
REMARK SMILES IDX 78 56 80 57 81 58 82 59 83 60 60 61 61 62 69 63 62 64 64 65
REMARK SMILES IDX 70 66 63 67 65 68 66 69 67 70 68 71 6 72 7 73 8 74 9 76
REMARK SMILES IDX 10 77 11 78 17 79 12 80 16 81 14 82 13 83 15 84 18 85 19 86
REMARK SMILES IDX 20 87 21 89 22 90 33 91 23 92 32 93 24 94 25 95 26 96 27 97
REMARK SMILES IDX 31 98 28 99 30 100 29 101
REMARK H PARENT 3 6 90 24 58 35 7 75 20 88
REMARK Flexibility Score: inf
ROOT
ATOM      1  C   UNL A   1      33.217  27.845  25.842  1.00  0.00     0.042 C 
ENDROOT
BRANCH   1   2
ATOM      2  C   UNL A   1      33.677  29.104  25.122  1.00  0.00     0.118 C 
BRANCH   2   3
ATOM      3  N   UNL A   1      33.116  30.309  25.725  1.00  0.00    -0.352 N 
ATOM      4  O   UNL A   1      32.600  31.691  27.423  1.00  0.00    -0.269 OA
ATOM      5  C   UNL A   1      33.402  30.905  26.932  1.00  0.00     0.251 C 
ATOM      6  H   UNL A   1      32.429  30.764  25.186  1.00  0.00     0.163 HD
BRANCH   5   7
ATOM      7  C   UNL A   1      34.661  30.575  27.630  1.00  0.00     0.039 A 
ATOM      8  C   UNL A   1      34.800  29.342  28.263  1.00  0.00     0.014 A 
ATOM      9  C   UNL A   1      35.722  31.485  27.633  1.00  0.00     0.014 A 
ATOM     10  C   UNL A   1      35.904  29.090  29.059  1.00  0.00     0.010 A 
ATOM     11  C   UNL A   1      36.896  31.171  28.322  1.00  0.00     0.010 A 
ATOM     12  C   UNL A   1      36.982  29.984  29.068  1.00  0.00    -0.014 A 
BRANCH  12  13
ATOM     13  C   UNL A   1      38.220  29.604  29.791  1.00  0.00     0.031 A 
ATOM     14  C   UNL A   1      38.522  30.155  31.154  1.00  0.00     0.074 A 
ATOM     15  C   UNL A   1      39.073  28.749  29.192  1.00  0.00     0.049 A 
ATOM     16  N   UNL A   1      39.576  29.959  31.902  1.00  0.00    -0.248 NA
ATOM     17  C   UNL A   1      37.520  31.051  31.752  1.00  0.00     0.031 C 
ATOM     18  C   UNL A   1      38.886  28.172  27.857  1.00  0.00     0.029 A 
ATOM     19  N   UNL A   1      40.263  28.218  29.616  1.00  0.00    -0.354 N 
ATOM     20  C   UNL A   1      39.394  30.747  33.032  1.00  0.00     0.074 A 
ATOM     21  C   UNL A   1      38.126  31.425  32.872  1.00  0.00     0.031 C 
ATOM     22  C   UNL A   1      39.907  27.351  27.581  1.00  0.00     0.029 A 
ATOM     23  C   UNL A   1      40.860  27.407  28.680  1.00  0.00     0.049 A 
ATOM     24  H   UNL A   1      40.651  28.399  30.501  1.00  0.00     0.167 HD
ATOM     25  C   UNL A   1      40.211  30.884  34.103  1.00  0.00     0.034 A 
ATOM     26  C   UNL A   1      42.064  26.804  28.683  1.00  0.00     0.034 A 
ATOM     27  C   UNL A   1      41.456  30.179  34.257  1.00  0.00     0.049 A 
ATOM     28  C   UNL A   1      42.943  26.967  29.886  1.00  0.00     0.074 A 
ATOM     29  C   UNL A   1      42.332  30.202  35.327  1.00  0.00     0.029 A 
ATOM     30  N   UNL A   1      42.008  29.331  33.307  1.00  0.00    -0.354 N 
ATOM     31  N   UNL A   1      42.712  27.641  30.986  1.00  0.00    -0.248 NA
ATOM     32  C   UNL A   1      44.235  26.271  29.861  1.00  0.00     0.031 C 
ATOM     33  C   UNL A   1      43.429  29.393  35.011  1.00  0.00     0.029 A 
ATOM     34  C   UNL A   1      43.218  28.833  33.760  1.00  0.00     0.049 A 
ATOM     35  H   UNL A   1      41.598  29.113  32.438  1.00  0.00     0.167 HD
ATOM     36  C   UNL A   1      43.814  27.427  31.801  1.00  0.00     0.074 A 
ATOM     37  C   UNL A   1      44.705  26.546  31.071  1.00  0.00     0.031 C 
ATOM     38  C   UNL A   1      44.068  27.920  33.038  1.00  0.00     0.034 A 
BRANCH  25  39
ATOM     39  C   UNL A   1      39.780  31.830  35.196  1.00  0.00     0.023 A 
ATOM     40  C   UNL A   1      40.194  33.177  35.168  1.00  0.00     0.012 A 
ATOM     41  C   UNL A   1      38.932  31.393  36.234  1.00  0.00     0.148 A 
ATOM     42  C   UNL A   1      39.806  34.063  36.174  1.00  0.00     0.002 A 
ATOM     43  C   UNL A   1      38.511  32.292  37.207  1.00  0.00     0.091 A 
ATOM     44  F   UNL A   1      38.564  30.103  36.259  1.00  0.00    -0.205 F 
ATOM     45  C   UNL A   1      38.958  33.622  37.186  1.00  0.00     0.022 A 
BRANCH  43  46
ATOM     46  S   UNL A   1      37.356  31.839  38.506  1.00  0.00     0.127 S 
ATOM     47  O   UNL A   1      38.149  32.095  39.707  1.00  0.00    -0.237 OA
ATOM     48  O   UNL A   1      36.259  32.782  38.289  1.00  0.00    -0.237 OA
ATOM     49  O   UNL A   1      37.012  30.444  38.266  1.00  0.00    -0.744 OA
ENDBRANCH  43  46
ENDBRANCH  25  39
BRANCH  26  50
ATOM     50  C   UNL A   1      42.473  25.983  27.511  1.00  0.00     0.023 A 
ATOM     51  C   UNL A   1      43.333  26.531  26.542  1.00  0.00     0.012 A 
ATOM     52  C   UNL A   1      42.079  24.634  27.397  1.00  0.00     0.148 A 
ATOM     53  C   UNL A   1      43.781  25.757  25.471  1.00  0.00     0.002 A 
ATOM     54  C   UNL A   1      42.575  23.852  26.362  1.00  0.00     0.091 A 
ATOM     55  F   UNL A   1      41.254  24.135  28.329  1.00  0.00    -0.205 F 
ATOM     56  C   UNL A   1      43.413  24.416  25.389  1.00  0.00     0.022 A 
BRANCH  54  57
ATOM     57  S   UNL A   1      42.275  22.084  26.261  1.00  0.00     0.127 S 
ATOM     58  O   UNL A   1      43.042  21.720  25.072  1.00  0.00    -0.237 OA
ATOM     59  O   UNL A   1      42.838  21.612  27.527  1.00  0.00    -0.237 OA
ATOM     60  O   UNL A   1      40.830  21.933  26.152  1.00  0.00    -0.744 OA
ENDBRANCH  54  57
ENDBRANCH  26  50
BRANCH  38  61
ATOM     61  C   UNL A   1      45.340  27.480  33.709  1.00  0.00     0.023 A 
ATOM     62  C   UNL A   1      46.504  28.266  33.601  1.00  0.00     0.012 A 
ATOM     63  C   UNL A   1      45.353  26.327  34.517  1.00  0.00     0.148 A 
ATOM     64  C   UNL A   1      47.671  27.894  34.267  1.00  0.00     0.002 A 
ATOM     65  C   UNL A   1      46.503  25.991  35.218  1.00  0.00     0.091 A 
ATOM     66  F   UNL A   1      44.239  25.583  34.586  1.00  0.00    -0.205 F 
ATOM     67  C   UNL A   1      47.667  26.767  35.084  1.00  0.00     0.022 A 
BRANCH  65  68
ATOM     68  S   UNL A   1      46.558  24.617  36.372  1.00  0.00     0.127 S 
ATOM     69  O   UNL A   1      46.380  23.472  35.480  1.00  0.00    -0.237 OA
ATOM     70  O   UNL A   1      47.900  24.744  36.941  1.00  0.00    -0.237 OA
ATOM     71  O   UNL A   1      45.476  24.842  37.320  1.00  0.00    -0.744 OA
ENDBRANCH  65  68
ENDBRANCH  38  61
ENDBRANCH  12  13
ENDBRANCH   5   7
ENDBRANCH   2   3
ENDBRANCH   1   2
BRANCH   1  72
ATOM     72  C   UNL A   1      31.765  27.929  26.283  1.00  0.00     0.117 C 
BRANCH  72  73
ATOM     73  N   UNL A   1      31.313  26.681  26.881  1.00  0.00    -0.356 N 
ATOM     74  C   UNL A   1      31.406  25.407  26.441  1.00  0.00     0.224 C 
ATOM     75  H   UNL A   1      30.865  26.782  27.752  1.00  0.00     0.163 HD
ATOM     76  O   UNL A   1      30.360  24.761  26.569  1.00  0.00    -0.275 OA
BRANCH  74  77
ATOM     77  C   UNL A   1      32.681  24.716  25.929  1.00  0.00     0.094 C 
ATOM     78  C   UNL A   1      33.256  23.570  26.787  1.00  0.00     0.002 C 
ATOM     79  C   UNL A   1      32.490  24.208  24.460  1.00  0.00     0.094 C 
ATOM     80  C   UNL A   1      32.353  22.310  26.744  1.00  0.00     0.005 C 
ATOM     81  C   UNL A   1      34.621  23.182  26.194  1.00  0.00     0.005 C 
ATOM     82  C   UNL A   1      32.956  22.711  24.357  1.00  0.00     0.002 C 
ATOM     83  C   UNL A   1      32.084  21.877  25.302  1.00  0.00     0.005 C 
ATOM     84  C   UNL A   1      34.416  22.516  24.832  1.00  0.00     0.005 C 
BRANCH  79  85
ATOM     85  C   UNL A   1      33.288  25.002  23.396  1.00  0.00     0.228 C 
ATOM     86  O   UNL A   1      34.498  24.841  23.230  1.00  0.00    -0.274 OA
ATOM     87  N   UNL A   1      32.580  25.722  22.458  1.00  0.00    -0.326 N 
ATOM     88  H   UNL A   1      32.870  25.631  21.522  1.00  0.00     0.169 HD
BRANCH  87  89
ATOM     89  C   UNL A   1      31.489  26.573  22.696  1.00  0.00     0.041 A 
ATOM     90  C   UNL A   1      31.602  27.944  22.493  1.00  0.00     0.026 A 
ATOM     91  C   UNL A   1      30.309  26.069  23.228  1.00  0.00     0.026 A 
ATOM     92  C   UNL A   1      30.481  28.769  22.671  1.00  0.00     0.006 A 
ATOM     93  C   UNL A   1      29.191  26.878  23.410  1.00  0.00     0.006 A 
ATOM     94  C   UNL A   1      29.253  28.235  23.094  1.00  0.00    -0.043 A 
BRANCH  94  95
ATOM     95  C   UNL A   1      28.014  29.092  23.222  1.00  0.00     0.071 C 
BRANCH  95  96
ATOM     96  C   UNL A   1      28.145  30.478  22.641  1.00  0.00    -0.041 A 
ATOM     97  C   UNL A   1      28.032  30.690  21.264  1.00  0.00     0.024 A 
ATOM     98  C   UNL A   1      28.357  31.589  23.464  1.00  0.00     0.024 A 
ATOM     99  C   UNL A   1      28.136  31.983  20.776  1.00  0.00     0.111 A 
ATOM    100  C   UNL A   1      28.439  32.844  22.881  1.00  0.00     0.111 A 
ATOM    101  N   UNL A   1      28.330  33.068  21.554  1.00  0.00    -0.265 NA
ENDBRANCH  95  96
ENDBRANCH  94  95
ENDBRANCH  87  89
ENDBRANCH  79  85
ENDBRANCH  74  77
ENDBRANCH  72  73
ENDBRANCH   1  72
TORSDOF 17
ENDMDL
