MODEL 1
REMARK VINA RESULT:     -12.4      0.000      0.000
REMARK SMILES C[C@@H]1CCC[C@H](C)N1C(=O)Cn1cccc1C(=O)NCCCNC(=O)c1ccc(-c2c3nc(c(-c4cccc(S(=O)(=O)[O-])c4F)c4ccc([nH]4)c(-c4cccc(S(=O)(=O)[O-])c4F)c4nc(c(-c5cccc(S(=O)(=O)[O-])c5F)c5ccc2[nH]5)C=C4)C=C3)cc1
REMARK SMILES IDX 21 1 20 2 19 3 17 4 18 5 16 7 12 8 13 9 14 10 15 11 11 12
REMARK SMILES IDX 9 13 10 14 8 15 1 16 2 17 3 18 4 19 6 20 5 21 7 22 22 23
REMARK SMILES IDX 23 24 24 25 25 27 26 28 27 29 88 30 28 31 87 32 29 33 30 34
REMARK SMILES IDX 31 35 81 36 32 37 86 38 80 39 82 40 33 41 85 42 79 43 78 44
REMARK SMILES IDX 34 46 66 47 46 48 65 49 47 50 50 51 64 52 83 53 48 54 49 55
REMARK SMILES IDX 63 57 84 58 51 59 35 60 36 61 44 62 37 63 39 64 45 65 38 66
REMARK SMILES IDX 40 67 41 68 42 69 43 70 67 71 68 72 76 73 69 74 71 75 77 76
REMARK SMILES IDX 70 77 72 78 73 79 74 80 75 81 52 82 53 83 61 84 54 85 56 86
REMARK SMILES IDX 62 87 55 88 57 89 58 90 59 91 60 92
REMARK H PARENT 19 6 23 26 82 45 50 56
REMARK Flexibility Score: inf
ROOT
ATOM      1  C   UNL A   1      34.380  28.702  26.867  1.00  0.00     0.042 C 
ENDROOT
BRANCH   1   2
ATOM      2  C   UNL A   1      32.907  28.900  27.274  1.00  0.00     0.118 C 
BRANCH   2   3
ATOM      3  N   UNL A   1      31.848  27.916  26.863  1.00  0.00    -0.351 N 
ATOM      4  C   UNL A   1      31.374  26.943  26.007  1.00  0.00     0.267 C 
ATOM      5  O   UNL A   1      30.510  26.292  26.624  1.00  0.00    -0.268 OA
ATOM      6  H   UNL A   1      31.142  28.013  27.543  1.00  0.00     0.163 HD
BRANCH   4   7
ATOM      7  C   UNL A   1      31.669  26.489  24.629  1.00  0.00     0.107 A 
ATOM      8  N   UNL A   1      31.305  25.446  23.787  1.00  0.00    -0.334 N 
ATOM      9  C   UNL A   1      31.873  25.617  22.522  1.00  0.00     0.087 A 
ATOM     10  C   UNL A   1      32.918  26.484  22.653  1.00  0.00     0.020 A 
ATOM     11  C   UNL A   1      32.794  27.020  23.949  1.00  0.00     0.033 A 
BRANCH   8  12
ATOM     12  C   UNL A   1      30.785  24.116  24.059  1.00  0.00     0.222 C 
BRANCH  12  13
ATOM     13  C   UNL A   1      31.556  23.279  25.025  1.00  0.00     0.242 C 
ATOM     14  O   UNL A   1      30.872  22.533  25.725  1.00  0.00    -0.273 OA
BRANCH  13  15
ATOM     15  N   UNL A   1      32.958  23.309  24.971  1.00  0.00    -0.336 N 
ATOM     16  C   UNL A   1      33.719  21.042  24.465  1.00  0.00     0.031 C 
ATOM     17  C   UNL A   1      33.594  22.478  23.952  1.00  0.00     0.082 C 
ATOM     18  C   UNL A   1      34.879  23.108  23.413  1.00  0.00     0.025 C 
ATOM     19  C   UNL A   1      35.833  23.604  24.491  1.00  0.00     0.004 C 
ATOM     20  C   UNL A   1      33.865  23.797  26.059  1.00  0.00     0.082 C 
ATOM     21  C   UNL A   1      35.094  24.505  25.468  1.00  0.00     0.025 C 
ATOM     22  C   UNL A   1      34.291  22.785  27.127  1.00  0.00     0.031 C 
ENDBRANCH  13  15
ENDBRANCH  12  13
ENDBRANCH   8  12
ENDBRANCH   4   7
ENDBRANCH   2   3
ENDBRANCH   1   2
BRANCH   1  23
ATOM     23  C   UNL A   1      35.589  29.421  27.457  1.00  0.00     0.118 C 
BRANCH  23  24
ATOM     24  N   UNL A   1      35.488  29.987  28.779  1.00  0.00    -0.352 N 
ATOM     25  C   UNL A   1      36.331  29.673  29.842  1.00  0.00     0.251 C 
ATOM     26  H   UNL A   1      34.772  30.642  28.942  1.00  0.00     0.163 HD
ATOM     27  O   UNL A   1      35.936  29.817  30.985  1.00  0.00    -0.269 OA
BRANCH  25  28
ATOM     28  C   UNL A   1      37.697  29.129  29.582  1.00  0.00     0.039 A 
ATOM     29  C   UNL A   1      38.215  28.152  30.442  1.00  0.00     0.014 A 
ATOM     30  C   UNL A   1      38.486  29.611  28.529  1.00  0.00     0.014 A 
ATOM     31  C   UNL A   1      39.501  27.664  30.226  1.00  0.00     0.010 A 
ATOM     32  C   UNL A   1      39.715  29.043  28.240  1.00  0.00     0.010 A 
ATOM     33  C   UNL A   1      40.247  28.112  29.123  1.00  0.00    -0.014 A 
BRANCH  33  34
ATOM     34  C   UNL A   1      41.620  27.598  28.934  1.00  0.00     0.031 A 
ATOM     35  C   UNL A   1      41.573  26.174  28.346  1.00  0.00     0.074 A 
ATOM     36  C   UNL A   1      42.620  28.401  29.429  1.00  0.00     0.049 A 
ATOM     37  N   UNL A   1      42.075  25.070  28.810  1.00  0.00    -0.248 NA
ATOM     38  C   UNL A   1      40.690  25.900  27.181  1.00  0.00     0.031 C 
ATOM     39  C   UNL A   1      42.452  29.814  29.865  1.00  0.00     0.029 A 
ATOM     40  N   UNL A   1      43.967  28.229  29.681  1.00  0.00    -0.354 N 
ATOM     41  C   UNL A   1      41.785  24.039  27.877  1.00  0.00     0.074 A 
ATOM     42  C   UNL A   1      40.787  24.575  27.000  1.00  0.00     0.031 C 
ATOM     43  C   UNL A   1      43.587  30.308  30.405  1.00  0.00     0.029 A 
ATOM     44  C   UNL A   1      44.606  29.280  30.400  1.00  0.00     0.049 A 
ATOM     45  H   UNL A   1      44.457  27.429  29.382  1.00  0.00     0.167 HD
ATOM     46  C   UNL A   1      42.533  22.891  27.791  1.00  0.00     0.034 A 
ATOM     47  C   UNL A   1      45.833  29.292  31.016  1.00  0.00     0.034 A 
ATOM     48  C   UNL A   1      43.662  23.043  28.654  1.00  0.00     0.049 A 
ATOM     49  C   UNL A   1      46.415  27.982  30.705  1.00  0.00     0.074 A 
ATOM     50  C   UNL A   1      43.811  23.015  30.015  1.00  0.00     0.029 A 
ATOM     51  N   UNL A   1      44.739  23.678  28.076  1.00  0.00    -0.354 N 
ATOM     52  N   UNL A   1      46.866  27.630  29.539  1.00  0.00    -0.248 NA
ATOM     53  C   UNL A   1      46.340  26.928  31.725  1.00  0.00     0.031 C 
ATOM     54  C   UNL A   1      44.711  24.076  30.241  1.00  0.00     0.029 A 
ATOM     55  C   UNL A   1      45.285  24.490  29.031  1.00  0.00     0.049 A 
ATOM     56  H   UNL A   1      45.055  23.569  27.150  1.00  0.00     0.167 HD
ATOM     57  C   UNL A   1      46.751  26.264  29.598  1.00  0.00     0.074 A 
ATOM     58  C   UNL A   1      46.778  25.904  31.000  1.00  0.00     0.031 C 
ATOM     59  C   UNL A   1      46.102  25.600  28.604  1.00  0.00     0.034 A 
BRANCH  46  60
ATOM     60  C   UNL A   1      42.638  21.712  26.842  1.00  0.00     0.023 A 
ATOM     61  C   UNL A   1      41.798  20.600  27.168  1.00  0.00     0.012 A 
ATOM     62  C   UNL A   1      43.650  21.486  25.898  1.00  0.00     0.148 A 
ATOM     63  C   UNL A   1      42.043  19.306  26.714  1.00  0.00     0.002 A 
ATOM     64  C   UNL A   1      43.859  20.191  25.402  1.00  0.00     0.091 A 
ATOM     65  F   UNL A   1      44.448  22.496  25.540  1.00  0.00    -0.205 F 
ATOM     66  C   UNL A   1      43.092  19.099  25.841  1.00  0.00     0.022 A 
BRANCH  64  67
ATOM     67  S   UNL A   1      45.126  19.793  24.190  1.00  0.00     0.127 S 
ATOM     68  O   UNL A   1      46.090  20.872  24.393  1.00  0.00    -0.237 OA
ATOM     69  O   UNL A   1      45.581  18.480  24.653  1.00  0.00    -0.237 OA
ATOM     70  O   UNL A   1      44.449  19.768  22.901  1.00  0.00    -0.744 OA
ENDBRANCH  64  67
ENDBRANCH  46  60
BRANCH  47  71
ATOM     71  C   UNL A   1      46.584  30.158  32.012  1.00  0.00     0.023 A 
ATOM     72  C   UNL A   1      47.884  30.648  31.823  1.00  0.00     0.012 A 
ATOM     73  C   UNL A   1      45.937  30.587  33.215  1.00  0.00     0.148 A 
ATOM     74  C   UNL A   1      48.452  31.585  32.716  1.00  0.00     0.002 A 
ATOM     75  C   UNL A   1      46.438  31.608  34.017  1.00  0.00     0.091 A 
ATOM     76  F   UNL A   1      44.828  29.967  33.631  1.00  0.00    -0.205 F 
ATOM     77  C   UNL A   1      47.712  32.105  33.780  1.00  0.00     0.022 A 
BRANCH  75  78
ATOM     78  S   UNL A   1      45.421  32.418  35.272  1.00  0.00     0.127 S 
ATOM     79  O   UNL A   1      45.125  31.321  36.192  1.00  0.00    -0.237 OA
ATOM     80  O   UNL A   1      46.347  33.423  35.792  1.00  0.00    -0.237 OA
ATOM     81  O   UNL A   1      44.265  32.966  34.573  1.00  0.00    -0.744 OA
ENDBRANCH  75  78
ENDBRANCH  47  71
BRANCH  59  82
ATOM     82  C   UNL A   1      46.081  26.314  27.246  1.00  0.00     0.023 A 
ATOM     83  C   UNL A   1      44.820  26.698  26.748  1.00  0.00     0.012 A 
ATOM     84  C   UNL A   1      47.192  26.517  26.388  1.00  0.00     0.148 A 
ATOM     85  C   UNL A   1      44.661  27.235  25.466  1.00  0.00     0.002 A 
ATOM     86  C   UNL A   1      47.034  27.037  25.096  1.00  0.00     0.091 A 
ATOM     87  F   UNL A   1      48.404  26.201  26.831  1.00  0.00    -0.205 F 
ATOM     88  C   UNL A   1      45.764  27.403  24.639  1.00  0.00     0.022 A 
BRANCH  86  89
ATOM     89  S   UNL A   1      48.386  27.204  23.901  1.00  0.00     0.127 S 
ATOM     90  O   UNL A   1      49.333  28.067  24.612  1.00  0.00    -0.237 OA
ATOM     91  O   UNL A   1      48.838  25.824  23.749  1.00  0.00    -0.237 OA
ATOM     92  O   UNL A   1      47.816  27.816  22.705  1.00  0.00    -0.744 OA
ENDBRANCH  86  89
ENDBRANCH  59  82
ENDBRANCH  33  34
ENDBRANCH  25  28
ENDBRANCH  23  24
ENDBRANCH   1  23
TORSDOF 16
ENDMDL
MODEL 2
REMARK VINA RESULT:     -12.4      3.487      6.166
REMARK SMILES C[C@@H]1CCC[C@H](C)N1C(=O)Cn1cccc1C(=O)NCCCNC(=O)c1ccc(-c2c3nc(c(-c4cccc(S(=O)(=O)[O-])c4F)c4ccc([nH]4)c(-c4cccc(S(=O)(=O)[O-])c4F)c4nc(c(-c5cccc(S(=O)(=O)[O-])c5F)c5ccc2[nH]5)C=C4)C=C3)cc1
REMARK SMILES IDX 21 1 20 2 19 3 17 4 18 5 16 7 12 8 13 9 14 10 15 11 11 12
REMARK SMILES IDX 9 13 10 14 8 15 1 16 2 17 3 18 4 19 6 20 5 21 7 22 22 23
REMARK SMILES IDX 23 24 24 25 25 27 26 28 27 29 88 30 28 31 87 32 29 33 30 34
REMARK SMILES IDX 31 35 81 36 32 37 86 38 80 39 82 40 33 41 85 42 79 43 78 44
REMARK SMILES IDX 34 46 66 47 46 48 65 49 47 50 50 51 64 52 83 53 48 54 49 55
REMARK SMILES IDX 63 57 84 58 51 59 35 60 36 61 44 62 37 63 39 64 45 65 38 66
REMARK SMILES IDX 40 67 41 68 42 69 43 70 67 71 68 72 76 73 69 74 71 75 77 76
REMARK SMILES IDX 70 77 72 78 73 79 74 80 75 81 52 82 53 83 61 84 54 85 56 86
REMARK SMILES IDX 62 87 55 88 57 89 58 90 59 91 60 92
REMARK H PARENT 19 6 23 26 82 45 50 56
REMARK Flexibility Score: inf
ROOT
ATOM      1  C   UNL A   1      36.023  33.623  28.714  1.00  0.00     0.042 C 
ENDROOT
BRANCH   1   2
ATOM      2  C   UNL A   1      34.694  34.008  28.037  1.00  0.00     0.118 C 
BRANCH   2   3
ATOM      3  N   UNL A   1      33.673  34.850  28.751  1.00  0.00    -0.351 N 
ATOM      4  C   UNL A   1      33.287  35.619  29.829  1.00  0.00     0.267 C 
ATOM      5  O   UNL A   1      32.342  36.339  29.454  1.00  0.00    -0.268 OA
ATOM      6  H   UNL A   1      32.892  34.854  28.151  1.00  0.00     0.163 HD
BRANCH   4   7
ATOM      7  C   UNL A   1      33.737  35.814  31.226  1.00  0.00     0.107 A 
ATOM      8  N   UNL A   1      34.447  35.107  32.188  1.00  0.00    -0.334 N 
ATOM      9  C   UNL A   1      34.631  35.887  33.332  1.00  0.00     0.087 A 
ATOM     10  C   UNL A   1      33.705  36.889  33.301  1.00  0.00     0.020 A 
ATOM     11  C   UNL A   1      33.156  36.844  32.006  1.00  0.00     0.033 A 
BRANCH   8  12
ATOM     12  C   UNL A   1      34.696  33.685  32.360  1.00  0.00     0.222 C 
BRANCH  12  13
ATOM     13  C   UNL A   1      35.751  33.304  33.346  1.00  0.00     0.242 C 
ATOM     14  O   UNL A   1      35.339  33.067  34.480  1.00  0.00    -0.273 OA
BRANCH  13  15
ATOM     15  N   UNL A   1      37.065  33.122  32.887  1.00  0.00    -0.336 N 
ATOM     16  C   UNL A   1      38.118  31.451  34.325  1.00  0.00     0.031 C 
ATOM     17  C   UNL A   1      37.591  31.760  32.923  1.00  0.00     0.082 C 
ATOM     18  C   UNL A   1      38.559  31.486  31.771  1.00  0.00     0.025 C 
ATOM     19  C   UNL A   1      39.624  32.556  31.579  1.00  0.00     0.004 C 
ATOM     20  C   UNL A   1      38.090  34.203  32.720  1.00  0.00     0.082 C 
ATOM     21  C   UNL A   1      38.977  33.930  31.495  1.00  0.00     0.025 C 
ATOM     22  C   UNL A   1      38.951  34.551  33.938  1.00  0.00     0.031 C 
ENDBRANCH  13  15
ENDBRANCH  12  13
ENDBRANCH   8  12
ENDBRANCH   4   7
ENDBRANCH   2   3
ENDBRANCH   1   2
BRANCH   1  23
ATOM     23  C   UNL A   1      36.490  32.212  29.058  1.00  0.00     0.118 C 
BRANCH  23  24
ATOM     24  N   UNL A   1      35.549  31.125  28.971  1.00  0.00    -0.352 N 
ATOM     25  C   UNL A   1      35.858  29.845  28.518  1.00  0.00     0.251 C 
ATOM     26  H   UNL A   1      34.622  31.298  29.252  1.00  0.00     0.163 HD
ATOM     27  O   UNL A   1      34.977  29.144  28.051  1.00  0.00    -0.269 OA
BRANCH  25  28
ATOM     28  C   UNL A   1      37.265  29.348  28.568  1.00  0.00     0.039 A 
ATOM     29  C   UNL A   1      38.121  29.622  27.493  1.00  0.00     0.014 A 
ATOM     30  C   UNL A   1      37.728  28.576  29.641  1.00  0.00     0.014 A 
ATOM     31  C   UNL A   1      39.425  29.133  27.517  1.00  0.00     0.010 A 
ATOM     32  C   UNL A   1      39.056  28.192  29.723  1.00  0.00     0.010 A 
ATOM     33  C   UNL A   1      39.888  28.419  28.635  1.00  0.00    -0.014 A 
BRANCH  33  34
ATOM     34  C   UNL A   1      41.267  27.889  28.622  1.00  0.00     0.031 A 
ATOM     35  C   UNL A   1      41.270  26.438  28.100  1.00  0.00     0.074 A 
ATOM     36  C   UNL A   1      42.216  28.709  29.185  1.00  0.00     0.049 A 
ATOM     37  N   UNL A   1      41.706  25.355  28.669  1.00  0.00    -0.248 NA
ATOM     38  C   UNL A   1      40.516  26.112  26.860  1.00  0.00     0.031 C 
ATOM     39  C   UNL A   1      42.017  30.143  29.532  1.00  0.00     0.029 A 
ATOM     40  N   UNL A   1      43.526  28.542  29.590  1.00  0.00    -0.354 N 
ATOM     41  C   UNL A   1      41.508  24.281  27.760  1.00  0.00     0.074 A 
ATOM     42  C   UNL A   1      40.618  24.780  26.754  1.00  0.00     0.031 C 
ATOM     43  C   UNL A   1      43.091  30.656  30.168  1.00  0.00     0.029 A 
ATOM     44  C   UNL A   1      44.094  29.624  30.324  1.00  0.00     0.049 A 
ATOM     45  H   UNL A   1      44.036  27.726  29.385  1.00  0.00     0.167 HD
ATOM     46  C   UNL A   1      42.248  23.127  27.811  1.00  0.00     0.034 A 
ATOM     47  C   UNL A   1      45.246  29.658  31.069  1.00  0.00     0.034 A 
ATOM     48  C   UNL A   1      43.279  23.314  28.785  1.00  0.00     0.049 A 
ATOM     49  C   UNL A   1      45.845  28.331  30.887  1.00  0.00     0.074 A 
ATOM     50  C   UNL A   1      43.278  23.352  30.153  1.00  0.00     0.029 A 
ATOM     51  N   UNL A   1      44.419  23.915  28.298  1.00  0.00    -0.354 N 
ATOM     52  N   UNL A   1      46.416  27.921  29.795  1.00  0.00    -0.248 NA
ATOM     53  C   UNL A   1      45.647  27.329  31.941  1.00  0.00     0.031 C 
ATOM     54  C   UNL A   1      44.159  24.417  30.426  1.00  0.00     0.029 A 
ATOM     55  C   UNL A   1      44.867  24.769  29.267  1.00  0.00     0.049 A 
ATOM     56  H   UNL A   1      44.833  23.759  27.418  1.00  0.00     0.167 HD
ATOM     57  C   UNL A   1      46.280  26.560  29.906  1.00  0.00     0.074 A 
ATOM     58  C   UNL A   1      46.150  26.269  31.318  1.00  0.00     0.031 C 
ATOM     59  C   UNL A   1      45.737  25.852  28.880  1.00  0.00     0.034 A 
BRANCH  46  60
ATOM     60  C   UNL A   1      42.444  21.902  26.937  1.00  0.00     0.023 A 
ATOM     61  C   UNL A   1      41.714  20.743  27.352  1.00  0.00     0.012 A 
ATOM     62  C   UNL A   1      43.455  21.706  25.986  1.00  0.00     0.148 A 
ATOM     63  C   UNL A   1      42.067  19.450  26.975  1.00  0.00     0.002 A 
ATOM     64  C   UNL A   1      43.773  20.406  25.568  1.00  0.00     0.091 A 
ATOM     65  F   UNL A   1      44.152  22.758  25.546  1.00  0.00    -0.205 F 
ATOM     66  C   UNL A   1      43.115  19.280  26.093  1.00  0.00     0.022 A 
BRANCH  64  67
ATOM     67  S   UNL A   1      45.049  20.045  24.354  1.00  0.00     0.127 S 
ATOM     68  O   UNL A   1      44.791  18.640  24.051  1.00  0.00    -0.237 OA
ATOM     69  O   UNL A   1      44.704  20.971  23.273  1.00  0.00    -0.237 OA
ATOM     70  O   UNL A   1      46.315  20.340  25.010  1.00  0.00    -0.744 OA
ENDBRANCH  64  67
ENDBRANCH  46  60
BRANCH  47  71
ATOM     71  C   UNL A   1      45.894  30.567  32.099  1.00  0.00     0.023 A 
ATOM     72  C   UNL A   1      47.196  31.079  32.006  1.00  0.00     0.012 A 
ATOM     73  C   UNL A   1      45.139  31.017  33.230  1.00  0.00     0.148 A 
ATOM     74  C   UNL A   1      47.668  32.053  32.916  1.00  0.00     0.002 A 
ATOM     75  C   UNL A   1      45.550  32.070  34.041  1.00  0.00     0.091 A 
ATOM     76  F   UNL A   1      44.010  30.386  33.568  1.00  0.00    -0.205 F 
ATOM     77  C   UNL A   1      46.831  32.586  33.897  1.00  0.00     0.022 A 
BRANCH  75  78
ATOM     78  S   UNL A   1      44.415  32.893  35.179  1.00  0.00     0.127 S 
ATOM     79  O   UNL A   1      45.325  33.647  36.039  1.00  0.00    -0.237 OA
ATOM     80  O   UNL A   1      43.622  33.709  34.260  1.00  0.00    -0.237 OA
ATOM     81  O   UNL A   1      43.666  31.837  35.849  1.00  0.00    -0.744 OA
ENDBRANCH  75  78
ENDBRANCH  47  71
BRANCH  59  82
ATOM     82  C   UNL A   1      45.872  26.499  27.495  1.00  0.00     0.023 A 
ATOM     83  C   UNL A   1      44.676  26.793  26.811  1.00  0.00     0.012 A 
ATOM     84  C   UNL A   1      47.080  26.720  26.787  1.00  0.00     0.148 A 
ATOM     85  C   UNL A   1      44.671  27.260  25.491  1.00  0.00     0.002 A 
ATOM     86  C   UNL A   1      47.080  27.170  25.459  1.00  0.00     0.091 A 
ATOM     87  F   UNL A   1      48.233  26.489  27.407  1.00  0.00    -0.205 F 
ATOM     88  C   UNL A   1      45.870  27.446  24.814  1.00  0.00     0.022 A 
BRANCH  86  89
ATOM     89  S   UNL A   1      48.575  27.351  24.452  1.00  0.00     0.127 S 
ATOM     90  O   UNL A   1      48.054  27.934  23.212  1.00  0.00    -0.237 OA
ATOM     91  O   UNL A   1      49.377  28.274  25.251  1.00  0.00    -0.237 OA
ATOM     92  O   UNL A   1      49.134  26.014  24.285  1.00  0.00    -0.744 OA
ENDBRANCH  86  89
ENDBRANCH  59  82
ENDBRANCH  33  34
ENDBRANCH  25  28
ENDBRANCH  23  24
ENDBRANCH   1  23
TORSDOF 16
ENDMDL
MODEL 3
REMARK VINA RESULT:     -12.3      3.488      6.746
REMARK SMILES C[C@@H]1CCC[C@H](C)N1C(=O)Cn1cccc1C(=O)NCCCNC(=O)c1ccc(-c2c3nc(c(-c4cccc(S(=O)(=O)[O-])c4F)c4ccc([nH]4)c(-c4cccc(S(=O)(=O)[O-])c4F)c4nc(c(-c5cccc(S(=O)(=O)[O-])c5F)c5ccc2[nH]5)C=C4)C=C3)cc1
REMARK SMILES IDX 21 1 20 2 19 3 17 4 18 5 16 7 12 8 13 9 14 10 15 11 11 12
REMARK SMILES IDX 9 13 10 14 8 15 1 16 2 17 3 18 4 19 6 20 5 21 7 22 22 23
REMARK SMILES IDX 23 24 24 25 25 27 26 28 27 29 88 30 28 31 87 32 29 33 30 34
REMARK SMILES IDX 31 35 81 36 32 37 86 38 80 39 82 40 33 41 85 42 79 43 78 44
REMARK SMILES IDX 34 46 66 47 46 48 65 49 47 50 50 51 64 52 83 53 48 54 49 55
REMARK SMILES IDX 63 57 84 58 51 59 35 60 36 61 44 62 37 63 39 64 45 65 38 66
REMARK SMILES IDX 40 67 41 68 42 69 43 70 67 71 68 72 76 73 69 74 71 75 77 76
REMARK SMILES IDX 70 77 72 78 73 79 74 80 75 81 52 82 53 83 61 84 54 85 56 86
REMARK SMILES IDX 62 87 55 88 57 89 58 90 59 91 60 92
REMARK H PARENT 19 6 23 26 82 45 50 56
REMARK Flexibility Score: inf
ROOT
ATOM      1  C   UNL A   1      36.197  32.439  31.371  1.00  0.00     0.042 C 
ENDROOT
BRANCH   1   2
ATOM      2  C   UNL A   1      36.295  31.685  32.710  1.00  0.00     0.118 C 
BRANCH   2   3
ATOM      3  N   UNL A   1      36.836  30.284  32.776  1.00  0.00    -0.351 N 
ATOM      4  C   UNL A   1      37.874  29.402  32.996  1.00  0.00     0.267 C 
ATOM      5  O   UNL A   1      37.372  28.291  33.248  1.00  0.00    -0.268 OA
ATOM      6  H   UNL A   1      36.067  29.710  32.551  1.00  0.00     0.163 HD
BRANCH   4   7
ATOM      7  C   UNL A   1      39.352  29.475  33.047  1.00  0.00     0.107 A 
ATOM      8  N   UNL A   1      40.339  30.449  32.968  1.00  0.00    -0.334 N 
ATOM      9  C   UNL A   1      41.600  29.886  33.183  1.00  0.00     0.087 A 
ATOM     10  C   UNL A   1      41.494  28.543  32.968  1.00  0.00     0.020 A 
ATOM     11  C   UNL A   1      40.112  28.290  32.884  1.00  0.00     0.033 A 
BRANCH   8  12
ATOM     12  C   UNL A   1      40.346  31.779  32.382  1.00  0.00     0.222 C 
BRANCH  12  13
ATOM     13  C   UNL A   1      40.509  32.926  33.323  1.00  0.00     0.242 C 
ATOM     14  O   UNL A   1      41.396  33.723  33.020  1.00  0.00    -0.273 OA
BRANCH  13  15
ATOM     15  N   UNL A   1      39.585  33.073  34.369  1.00  0.00    -0.336 N 
ATOM     16  C   UNL A   1      39.741  35.378  35.165  1.00  0.00     0.031 C 
ATOM     17  C   UNL A   1      38.873  34.346  34.444  1.00  0.00     0.082 C 
ATOM     18  C   UNL A   1      37.450  34.180  34.978  1.00  0.00     0.025 C 
ATOM     19  C   UNL A   1      37.350  33.340  36.244  1.00  0.00     0.004 C 
ATOM     20  C   UNL A   1      39.525  32.230  35.607  1.00  0.00     0.082 C 
ATOM     21  C   UNL A   1      38.070  32.015  36.051  1.00  0.00     0.025 C 
ATOM     22  C   UNL A   1      40.389  32.663  36.796  1.00  0.00     0.031 C 
ENDBRANCH  13  15
ENDBRANCH  12  13
ENDBRANCH   8  12
ENDBRANCH   4   7
ENDBRANCH   2   3
ENDBRANCH   1   2
BRANCH   1  23
ATOM     23  C   UNL A   1      36.463  31.864  29.984  1.00  0.00     0.118 C 
BRANCH  23  24
ATOM     24  N   UNL A   1      35.543  30.896  29.442  1.00  0.00    -0.352 N 
ATOM     25  C   UNL A   1      35.905  29.835  28.615  1.00  0.00     0.251 C 
ATOM     26  H   UNL A   1      34.591  30.991  29.671  1.00  0.00     0.163 HD
ATOM     27  O   UNL A   1      35.081  29.358  27.855  1.00  0.00    -0.269 OA
BRANCH  25  28
ATOM     28  C   UNL A   1      37.303  29.312  28.633  1.00  0.00     0.039 A 
ATOM     29  C   UNL A   1      38.180  29.678  27.604  1.00  0.00     0.014 A 
ATOM     30  C   UNL A   1      37.737  28.426  29.628  1.00  0.00     0.014 A 
ATOM     31  C   UNL A   1      39.476  29.167  27.595  1.00  0.00     0.010 A 
ATOM     32  C   UNL A   1      39.057  28.012  29.689  1.00  0.00     0.010 A 
ATOM     33  C   UNL A   1      39.909  28.334  28.641  1.00  0.00    -0.014 A 
BRANCH  33  34
ATOM     34  C   UNL A   1      41.280  27.784  28.593  1.00  0.00     0.031 A 
ATOM     35  C   UNL A   1      41.247  26.331  28.076  1.00  0.00     0.074 A 
ATOM     36  C   UNL A   1      42.255  28.591  29.127  1.00  0.00     0.049 A 
ATOM     37  N   UNL A   1      41.682  25.244  28.636  1.00  0.00    -0.248 NA
ATOM     38  C   UNL A   1      40.455  26.013  26.858  1.00  0.00     0.031 C 
ATOM     39  C   UNL A   1      42.086  30.029  29.475  1.00  0.00     0.029 A 
ATOM     40  N   UNL A   1      43.573  28.406  29.498  1.00  0.00    -0.354 N 
ATOM     41  C   UNL A   1      41.444  24.170  27.736  1.00  0.00     0.074 A 
ATOM     42  C   UNL A   1      40.535  24.679  26.753  1.00  0.00     0.031 C 
ATOM     43  C   UNL A   1      43.185  30.528  30.081  1.00  0.00     0.029 A 
ATOM     44  C   UNL A   1      44.176  29.481  30.213  1.00  0.00     0.049 A 
ATOM     45  H   UNL A   1      44.066  27.582  29.281  1.00  0.00     0.167 HD
ATOM     46  C   UNL A   1      42.169  23.005  27.771  1.00  0.00     0.034 A 
ATOM     47  C   UNL A   1      45.348  29.501  30.927  1.00  0.00     0.034 A 
ATOM     48  C   UNL A   1      43.227  23.180  28.716  1.00  0.00     0.049 A 
ATOM     49  C   UNL A   1      45.923  28.165  30.733  1.00  0.00     0.074 A 
ATOM     50  C   UNL A   1      43.264  23.221  30.084  1.00  0.00     0.029 A 
ATOM     51  N   UNL A   1      44.363  23.762  28.197  1.00  0.00    -0.354 N 
ATOM     52  N   UNL A   1      46.458  27.743  29.627  1.00  0.00    -0.248 NA
ATOM     53  C   UNL A   1      45.738  27.168  31.795  1.00  0.00     0.031 C 
ATOM     54  C   UNL A   1      44.168  24.275  30.329  1.00  0.00     0.029 A 
ATOM     55  C   UNL A   1      44.849  24.612  29.151  1.00  0.00     0.049 A 
ATOM     56  H   UNL A   1      44.751  23.598  27.307  1.00  0.00     0.167 HD
ATOM     57  C   UNL A   1      46.306  26.384  29.746  1.00  0.00     0.074 A 
ATOM     58  C   UNL A   1      46.209  26.099  31.162  1.00  0.00     0.031 C 
ATOM     59  C   UNL A   1      45.724  25.681  28.737  1.00  0.00     0.034 A 
BRANCH  46  60
ATOM     60  C   UNL A   1      42.323  21.776  26.895  1.00  0.00     0.023 A 
ATOM     61  C   UNL A   1      41.504  20.664  27.270  1.00  0.00     0.012 A 
ATOM     62  C   UNL A   1      43.359  21.520  25.986  1.00  0.00     0.148 A 
ATOM     63  C   UNL A   1      41.789  19.352  26.898  1.00  0.00     0.002 A 
ATOM     64  C   UNL A   1      43.611  20.205  25.572  1.00  0.00     0.091 A 
ATOM     65  F   UNL A   1      44.140  22.528  25.585  1.00  0.00    -0.205 F 
ATOM     66  C   UNL A   1      42.861  19.121  26.059  1.00  0.00     0.022 A 
BRANCH  64  67
ATOM     67  S   UNL A   1      44.912  19.769  24.410  1.00  0.00     0.127 S 
ATOM     68  O   UNL A   1      46.107  20.254  25.097  1.00  0.00    -0.237 OA
ATOM     69  O   UNL A   1      44.792  18.310  24.361  1.00  0.00    -0.237 OA
ATOM     70  O   UNL A   1      44.570  20.437  23.162  1.00  0.00    -0.744 OA
ENDBRANCH  64  67
ENDBRANCH  46  60
BRANCH  47  71
ATOM     71  C   UNL A   1      46.037  30.403  31.936  1.00  0.00     0.023 A 
ATOM     72  C   UNL A   1      47.155  31.203  31.660  1.00  0.00     0.012 A 
ATOM     73  C   UNL A   1      45.503  30.532  33.259  1.00  0.00     0.148 A 
ATOM     74  C   UNL A   1      47.635  32.142  32.602  1.00  0.00     0.002 A 
ATOM     75  C   UNL A   1      45.886  31.546  34.131  1.00  0.00     0.091 A 
ATOM     76  F   UNL A   1      44.631  29.627  33.715  1.00  0.00    -0.205 F 
ATOM     77  C   UNL A   1      46.971  32.352  33.811  1.00  0.00     0.022 A 
BRANCH  75  78
ATOM     78  S   UNL A   1      44.921  31.950  35.603  1.00  0.00     0.127 S 
ATOM     79  O   UNL A   1      45.183  30.805  36.473  1.00  0.00    -0.237 OA
ATOM     80  O   UNL A   1      45.549  33.201  36.028  1.00  0.00    -0.237 OA
ATOM     81  O   UNL A   1      43.538  32.088  35.164  1.00  0.00    -0.744 OA
ENDBRANCH  75  78
ENDBRANCH  47  71
BRANCH  59  82
ATOM     82  C   UNL A   1      45.832  26.323  27.347  1.00  0.00     0.023 A 
ATOM     83  C   UNL A   1      44.674  26.951  26.845  1.00  0.00     0.012 A 
ATOM     84  C   UNL A   1      46.942  26.241  26.470  1.00  0.00     0.148 A 
ATOM     85  C   UNL A   1      44.610  27.454  25.541  1.00  0.00     0.002 A 
ATOM     86  C   UNL A   1      46.875  26.726  25.155  1.00  0.00     0.091 A 
ATOM     87  F   UNL A   1      48.065  25.687  26.914  1.00  0.00    -0.205 F 
ATOM     88  C   UNL A   1      45.706  27.340  24.695  1.00  0.00     0.022 A 
BRANCH  86  89
ATOM     89  S   UNL A   1      48.206  26.542  23.940  1.00  0.00     0.127 S 
ATOM     90  O   UNL A   1      49.396  26.905  24.715  1.00  0.00    -0.237 OA
ATOM     91  O   UNL A   1      48.126  25.123  23.605  1.00  0.00    -0.237 OA
ATOM     92  O   UNL A   1      47.909  27.464  22.849  1.00  0.00    -0.744 OA
ENDBRANCH  86  89
ENDBRANCH  59  82
ENDBRANCH  33  34
ENDBRANCH  25  28
ENDBRANCH  23  24
ENDBRANCH   1  23
TORSDOF 16
ENDMDL
