MODEL 1
REMARK VINA RESULT:     -12.0      0.000      0.000
REMARK SMILES COc1cccc(CSc2nc3ccccc3c(=O)n2CCC(=O)NCCCNC(=O)c2ccc(-c3c4nc(c(-c5cccc(S(=O)(=O)[O-])c5F)c5ccc([nH]5)c(-c5cccc(S(=O)(=O)[O-])c5F)c5nc(c(-c6cccc(S(=O)(=O)[O-])c6F)c6ccc3[nH]6)C=C5)C=C4)cc2)c1
REMARK SMILES IDX 23 1 24 2 25 3 22 5 21 6 20 7 10 8 11 9 12 10 18 11 13 12
REMARK SMILES IDX 17 13 19 14 14 15 16 16 15 17 9 18 8 19 7 20 3 21 4 22 95 23
REMARK SMILES IDX 5 24 6 25 2 26 1 27 26 28 27 29 28 30 29 31 30 32 31 34
REMARK SMILES IDX 32 35 33 36 94 37 34 38 93 39 35 40 36 41 37 42 87 43 38 44
REMARK SMILES IDX 92 45 86 46 88 47 39 48 91 49 85 50 84 51 40 53 72 54 52 55
REMARK SMILES IDX 71 56 53 57 56 58 70 59 89 60 54 61 55 62 69 64 90 65 57 66
REMARK SMILES IDX 41 67 42 68 50 69 43 70 45 71 51 72 44 73 46 74 47 75 48 76
REMARK SMILES IDX 49 77 73 78 74 79 82 80 75 81 77 82 83 83 76 84 78 85 79 86
REMARK SMILES IDX 80 87 81 88 58 89 59 90 67 91 60 92 62 93 68 94 61 95 63 96
REMARK SMILES IDX 64 97 65 98 66 99
REMARK H PARENT 25 4 29 33 88 52 56 63
REMARK Flexibility Score: inf
ROOT
ATOM      1  C   UNL A   1      30.199  25.369  26.396  1.00  0.00     0.221 C 
ATOM      2  O   UNL A   1      29.157  24.909  26.870  1.00  0.00    -0.275 OA
ATOM      3  N   UNL A   1      30.629  26.582  26.846  1.00  0.00    -0.356 N 
ATOM      4  H   UNL A   1      30.036  27.014  27.503  1.00  0.00     0.163 HD
ENDROOT
BRANCH   1   5
ATOM      5  C   UNL A   1      30.984  24.584  25.362  1.00  0.00     0.122 C 
BRANCH   5   6
ATOM      6  C   UNL A   1      32.260  23.967  25.950  1.00  0.00     0.138 C 
BRANCH   6   7
ATOM      7  N   UNL A   1      33.179  23.453  24.937  1.00  0.00    -0.287 N 
ATOM      8  C   UNL A   1      33.947  24.206  24.068  1.00  0.00     0.171 A 
ATOM      9  N   UNL A   1      35.092  23.768  23.630  1.00  0.00    -0.224 NA
ATOM     10  C   UNL A   1      35.567  22.530  24.086  1.00  0.00     0.079 A 
ATOM     11  C   UNL A   1      33.362  22.056  24.981  1.00  0.00     0.262 A 
ATOM     12  C   UNL A   1      36.939  22.260  24.109  1.00  0.00     0.029 A 
ATOM     13  C   UNL A   1      34.707  21.581  24.609  1.00  0.00     0.066 A 
ATOM     14  O   UNL A   1      32.549  21.269  25.429  1.00  0.00    -0.269 OA
ATOM     15  C   UNL A   1      37.423  21.040  24.597  1.00  0.00     0.002 A 
ATOM     16  C   UNL A   1      35.162  20.318  25.012  1.00  0.00     0.016 A 
ATOM     17  C   UNL A   1      36.530  20.050  25.004  1.00  0.00     0.001 A 
BRANCH   8  18
ATOM     18  S   UNL A   1      33.668  25.883  23.620  1.00  0.00    -0.083 SA
BRANCH  18  19
ATOM     19  C   UNL A   1      32.373  26.123  22.402  1.00  0.00     0.113 C 
BRANCH  19  20
ATOM     20  C   UNL A   1      31.449  27.281  22.638  1.00  0.00    -0.034 A 
ATOM     21  C   UNL A   1      29.212  28.097  23.133  1.00  0.00     0.119 A 
ATOM     22  C   UNL A   1      29.626  29.383  22.788  1.00  0.00     0.046 A 
ATOM     23  C   UNL A   1      30.146  27.066  23.123  1.00  0.00     0.051 A 
ATOM     24  C   UNL A   1      30.954  29.635  22.439  1.00  0.00     0.004 A 
ATOM     25  C   UNL A   1      31.862  28.585  22.357  1.00  0.00     0.005 A 
BRANCH  21  26
ATOM     26  O   UNL A   1      27.886  27.966  23.437  1.00  0.00    -0.497 OA
ATOM     27  C   UNL A   1      26.990  28.909  22.858  1.00  0.00     0.278 C 
ENDBRANCH  21  26
ENDBRANCH  19  20
ENDBRANCH  18  19
ENDBRANCH   8  18
ENDBRANCH   6   7
ENDBRANCH   5   6
ENDBRANCH   1   5
BRANCH   3  28
ATOM     28  C   UNL A   1      31.828  27.342  26.509  1.00  0.00     0.117 C 
BRANCH  28  29
ATOM     29  C   UNL A   1      31.515  28.784  26.133  1.00  0.00     0.042 C 
BRANCH  29  30
ATOM     30  C   UNL A   1      32.677  29.636  25.631  1.00  0.00     0.118 C 
BRANCH  30  31
ATOM     31  N   UNL A   1      32.596  30.986  26.163  1.00  0.00    -0.352 N 
ATOM     32  C   UNL A   1      33.297  31.630  27.156  1.00  0.00     0.251 C 
ATOM     33  H   UNL A   1      31.910  31.546  25.732  1.00  0.00     0.163 HD
ATOM     34  O   UNL A   1      32.778  32.644  27.628  1.00  0.00    -0.269 OA
BRANCH  32  35
ATOM     35  C   UNL A   1      34.624  31.193  27.684  1.00  0.00     0.039 A 
ATOM     36  C   UNL A   1      34.761  29.841  28.046  1.00  0.00     0.014 A 
ATOM     37  C   UNL A   1      35.682  32.057  27.972  1.00  0.00     0.014 A 
ATOM     38  C   UNL A   1      35.917  29.370  28.687  1.00  0.00     0.010 A 
ATOM     39  C   UNL A   1      36.868  31.573  28.557  1.00  0.00     0.010 A 
ATOM     40  C   UNL A   1      36.990  30.231  28.955  1.00  0.00    -0.014 A 
BRANCH  40  41
ATOM     41  C   UNL A   1      38.198  29.756  29.699  1.00  0.00     0.031 A 
ATOM     42  C   UNL A   1      38.508  30.291  31.081  1.00  0.00     0.074 A 
ATOM     43  C   UNL A   1      39.049  28.869  29.140  1.00  0.00     0.049 A 
ATOM     44  N   UNL A   1      39.534  30.043  31.857  1.00  0.00    -0.248 NA
ATOM     45  C   UNL A   1      37.544  31.240  31.660  1.00  0.00     0.031 C 
ATOM     46  C   UNL A   1      38.907  28.291  27.803  1.00  0.00     0.029 A 
ATOM     47  N   UNL A   1      40.217  28.318  29.616  1.00  0.00    -0.354 N 
ATOM     48  C   UNL A   1      39.366  30.836  32.988  1.00  0.00     0.074 A 
ATOM     49  C   UNL A   1      38.144  31.587  32.791  1.00  0.00     0.031 C 
ATOM     50  C   UNL A   1      39.949  27.477  27.564  1.00  0.00     0.029 A 
ATOM     51  C   UNL A   1      40.853  27.497  28.711  1.00  0.00     0.049 A 
ATOM     52  H   UNL A   1      40.566  28.494  30.520  1.00  0.00     0.167 HD
ATOM     53  C   UNL A   1      40.137  30.921  34.100  1.00  0.00     0.034 A 
ATOM     54  C   UNL A   1      42.036  26.851  28.782  1.00  0.00     0.034 A 
ATOM     55  C   UNL A   1      41.324  30.141  34.330  1.00  0.00     0.049 A 
ATOM     56  C   UNL A   1      42.866  26.949  30.038  1.00  0.00     0.074 A 
ATOM     57  C   UNL A   1      42.122  30.104  35.462  1.00  0.00     0.029 A 
ATOM     58  N   UNL A   1      41.890  29.267  33.416  1.00  0.00    -0.354 N 
ATOM     59  N   UNL A   1      42.612  27.599  31.147  1.00  0.00    -0.248 NA
ATOM     60  C   UNL A   1      44.131  26.196  30.063  1.00  0.00     0.031 C 
ATOM     61  C   UNL A   1      43.186  29.230  35.222  1.00  0.00     0.029 A 
ATOM     62  C   UNL A   1      43.031  28.694  33.954  1.00  0.00     0.049 A 
ATOM     63  H   UNL A   1      41.534  29.081  32.517  1.00  0.00     0.167 HD
ATOM     64  C   UNL A   1      43.658  27.298  32.014  1.00  0.00     0.074 A 
ATOM     65  C   UNL A   1      44.542  26.397  31.308  1.00  0.00     0.031 C 
ATOM     66  C   UNL A   1      43.872  27.742  33.277  1.00  0.00     0.034 A 
BRANCH  53  67
ATOM     67  C   UNL A   1      39.705  31.867  35.193  1.00  0.00     0.023 A 
ATOM     68  C   UNL A   1      40.004  33.241  35.085  1.00  0.00     0.012 A 
ATOM     69  C   UNL A   1      38.926  31.415  36.277  1.00  0.00     0.148 A 
ATOM     70  C   UNL A   1      39.566  34.142  36.055  1.00  0.00     0.002 A 
ATOM     71  C   UNL A   1      38.453  32.326  37.215  1.00  0.00     0.091 A 
ATOM     72  F   UNL A   1      38.659  30.104  36.369  1.00  0.00    -0.205 F 
ATOM     73  C   UNL A   1      38.783  33.688  37.113  1.00  0.00     0.022 A 
BRANCH  71  74
ATOM     74  S   UNL A   1      37.368  31.856  38.568  1.00  0.00     0.127 S 
ATOM     75  O   UNL A   1      38.227  32.087  39.729  1.00  0.00    -0.237 OA
ATOM     76  O   UNL A   1      36.268  32.809  38.426  1.00  0.00    -0.237 OA
ATOM     77  O   UNL A   1      37.005  30.466  38.329  1.00  0.00    -0.744 OA
ENDBRANCH  71  74
ENDBRANCH  53  67
BRANCH  54  78
ATOM     78  C   UNL A   1      42.501  26.012  27.639  1.00  0.00     0.023 A 
ATOM     79  C   UNL A   1      43.385  26.561  26.688  1.00  0.00     0.012 A 
ATOM     80  C   UNL A   1      42.074  24.679  27.486  1.00  0.00     0.148 A 
ATOM     81  C   UNL A   1      43.804  25.813  25.588  1.00  0.00     0.002 A 
ATOM     82  C   UNL A   1      42.540  23.919  26.418  1.00  0.00     0.091 A 
ATOM     83  F   UNL A   1      41.219  24.179  28.389  1.00  0.00    -0.205 F 
ATOM     84  C   UNL A   1      43.389  24.491  25.458  1.00  0.00     0.022 A 
BRANCH  82  85
ATOM     85  S   UNL A   1      42.162  22.173  26.238  1.00  0.00     0.127 S 
ATOM     86  O   UNL A   1      40.709  22.195  26.089  1.00  0.00    -0.237 OA
ATOM     87  O   UNL A   1      42.902  21.830  25.022  1.00  0.00    -0.237 OA
ATOM     88  O   UNL A   1      42.665  21.537  27.448  1.00  0.00    -0.744 OA
ENDBRANCH  82  85
ENDBRANCH  54  78
BRANCH  66  89
ATOM     89  C   UNL A   1      45.074  27.221  34.021  1.00  0.00     0.023 A 
ATOM     90  C   UNL A   1      46.286  27.941  34.000  1.00  0.00     0.012 A 
ATOM     91  C   UNL A   1      44.973  26.065  34.820  1.00  0.00     0.148 A 
ATOM     92  C   UNL A   1      47.384  27.501  34.740  1.00  0.00     0.002 A 
ATOM     93  C   UNL A   1      46.055  25.661  35.594  1.00  0.00     0.091 A 
ATOM     94  F   UNL A   1      43.817  25.384  34.815  1.00  0.00    -0.205 F 
ATOM     95  C   UNL A   1      47.265  26.371  35.547  1.00  0.00     0.022 A 
BRANCH  93  96
ATOM     96  S   UNL A   1      45.962  24.277  36.737  1.00  0.00     0.127 S 
ATOM     97  O   UNL A   1      45.177  23.310  35.972  1.00  0.00    -0.237 OA
ATOM     98  O   UNL A   1      47.371  23.921  36.906  1.00  0.00    -0.237 OA
ATOM     99  O   UNL A   1      45.319  24.789  37.940  1.00  0.00    -0.744 OA
ENDBRANCH  93  96
ENDBRANCH  66  89
ENDBRANCH  40  41
ENDBRANCH  32  35
ENDBRANCH  30  31
ENDBRANCH  29  30
ENDBRANCH  28  29
ENDBRANCH   3  28
TORSDOF 19
ENDMDL
MODEL 2
REMARK VINA RESULT:     -11.7      5.712      8.475
REMARK SMILES COc1cccc(CSc2nc3ccccc3c(=O)n2CCC(=O)NCCCNC(=O)c2ccc(-c3c4nc(c(-c5cccc(S(=O)(=O)[O-])c5F)c5ccc([nH]5)c(-c5cccc(S(=O)(=O)[O-])c5F)c5nc(c(-c6cccc(S(=O)(=O)[O-])c6F)c6ccc3[nH]6)C=C5)C=C4)cc2)c1
REMARK SMILES IDX 23 1 24 2 25 3 22 5 21 6 20 7 10 8 11 9 12 10 18 11 13 12
REMARK SMILES IDX 17 13 19 14 14 15 16 16 15 17 9 18 8 19 7 20 3 21 4 22 95 23
REMARK SMILES IDX 5 24 6 25 2 26 1 27 26 28 27 29 28 30 29 31 30 32 31 34
REMARK SMILES IDX 32 35 33 36 94 37 34 38 93 39 35 40 36 41 37 42 87 43 38 44
REMARK SMILES IDX 92 45 86 46 88 47 39 48 91 49 85 50 84 51 40 53 72 54 52 55
REMARK SMILES IDX 71 56 53 57 56 58 70 59 89 60 54 61 55 62 69 64 90 65 57 66
REMARK SMILES IDX 41 67 42 68 50 69 43 70 45 71 51 72 44 73 46 74 47 75 48 76
REMARK SMILES IDX 49 77 73 78 74 79 82 80 75 81 77 82 83 83 76 84 78 85 79 86
REMARK SMILES IDX 80 87 81 88 58 89 59 90 67 91 60 92 62 93 68 94 61 95 63 96
REMARK SMILES IDX 64 97 65 98 66 99
REMARK H PARENT 25 4 29 33 88 52 56 63
REMARK Flexibility Score: inf
ROOT
ATOM      1  C   UNL A   1      36.929  23.362  25.037  1.00  0.00     0.221 C 
ATOM      2  O   UNL A   1      37.344  24.314  25.702  1.00  0.00    -0.275 OA
ATOM      3  N   UNL A   1      37.682  22.226  25.000  1.00  0.00    -0.356 N 
ATOM      4  H   UNL A   1      38.533  22.277  25.494  1.00  0.00     0.163 HD
ENDROOT
BRANCH   1   5
ATOM      5  C   UNL A   1      35.602  23.457  24.307  1.00  0.00     0.122 C 
BRANCH   5   6
ATOM      6  C   UNL A   1      34.414  23.547  25.274  1.00  0.00     0.138 C 
BRANCH   6   7
ATOM      7  N   UNL A   1      33.426  22.488  25.085  1.00  0.00    -0.287 N 
ATOM      8  C   UNL A   1      32.245  22.585  24.371  1.00  0.00     0.171 A 
ATOM      9  N   UNL A   1      31.732  21.547  23.776  1.00  0.00    -0.224 NA
ATOM     10  C   UNL A   1      32.415  20.324  23.831  1.00  0.00     0.079 A 
ATOM     11  C   UNL A   1      33.826  21.232  25.584  1.00  0.00     0.262 A 
ATOM     12  C   UNL A   1      32.241  19.367  22.825  1.00  0.00     0.029 A 
ATOM     13  C   UNL A   1      33.344  20.065  24.823  1.00  0.00     0.066 A 
ATOM     14  O   UNL A   1      34.628  21.072  26.484  1.00  0.00    -0.269 OA
ATOM     15  C   UNL A   1      32.946  18.158  22.853  1.00  0.00     0.002 A 
ATOM     16  C   UNL A   1      33.988  18.824  24.922  1.00  0.00     0.016 A 
ATOM     17  C   UNL A   1      33.785  17.867  23.929  1.00  0.00     0.001 A 
BRANCH   8  18
ATOM     18  S   UNL A   1      31.408  24.071  23.944  1.00  0.00    -0.083 SA
BRANCH  18  19
ATOM     19  C   UNL A   1      30.906  25.071  25.346  1.00  0.00     0.113 C 
BRANCH  19  20
ATOM     20  C   UNL A   1      31.570  26.411  25.474  1.00  0.00    -0.034 A 
ATOM     21  C   UNL A   1      33.210  28.012  24.662  1.00  0.00     0.119 A 
ATOM     22  C   UNL A   1      33.046  28.746  25.836  1.00  0.00     0.046 A 
ATOM     23  C   UNL A   1      32.419  26.886  24.458  1.00  0.00     0.051 A 
ATOM     24  C   UNL A   1      32.104  28.361  26.792  1.00  0.00     0.004 A 
ATOM     25  C   UNL A   1      31.372  27.191  26.615  1.00  0.00     0.005 A 
BRANCH  21  26
ATOM     26  O   UNL A   1      34.174  28.472  23.809  1.00  0.00    -0.497 OA
ATOM     27  C   UNL A   1      33.903  28.386  22.414  1.00  0.00     0.278 C 
ENDBRANCH  21  26
ENDBRANCH  19  20
ENDBRANCH  18  19
ENDBRANCH   8  18
ENDBRANCH   6   7
ENDBRANCH   5   6
ENDBRANCH   1   5
BRANCH   3  28
ATOM     28  C   UNL A   1      37.428  20.946  24.346  1.00  0.00     0.117 C 
BRANCH  28  29
ATOM     29  C   UNL A   1      38.199  19.802  24.990  1.00  0.00     0.042 C 
BRANCH  29  30
ATOM     30  C   UNL A   1      39.181  20.168  26.100  1.00  0.00     0.118 C 
BRANCH  30  31
ATOM     31  N   UNL A   1      40.281  19.220  26.151  1.00  0.00    -0.352 N 
ATOM     32  C   UNL A   1      41.643  19.382  26.058  1.00  0.00     0.251 C 
ATOM     33  H   UNL A   1      39.997  18.285  26.276  1.00  0.00     0.163 HD
ATOM     34  O   UNL A   1      42.300  18.375  25.781  1.00  0.00    -0.269 OA
BRANCH  32  35
ATOM     35  C   UNL A   1      42.366  20.671  26.275  1.00  0.00     0.039 A 
ATOM     36  C   UNL A   1      42.500  21.120  27.601  1.00  0.00     0.014 A 
ATOM     37  C   UNL A   1      42.786  21.521  25.250  1.00  0.00     0.014 A 
ATOM     38  C   UNL A   1      43.030  22.386  27.893  1.00  0.00     0.010 A 
ATOM     39  C   UNL A   1      43.377  22.765  25.545  1.00  0.00     0.010 A 
ATOM     40  C   UNL A   1      43.476  23.231  26.867  1.00  0.00    -0.014 A 
BRANCH  40  41
ATOM     41  C   UNL A   1      43.978  24.610  27.161  1.00  0.00     0.031 A 
ATOM     42  C   UNL A   1      43.046  25.663  27.719  1.00  0.00     0.074 A 
ATOM     43  C   UNL A   1      45.260  24.947  26.904  1.00  0.00     0.049 A 
ATOM     44  N   UNL A   1      43.282  26.925  27.985  1.00  0.00    -0.248 NA
ATOM     45  C   UNL A   1      41.663  25.247  28.003  1.00  0.00     0.031 C 
ATOM     46  C   UNL A   1      46.269  24.055  26.331  1.00  0.00     0.029 A 
ATOM     47  N   UNL A   1      45.927  26.140  27.065  1.00  0.00    -0.354 N 
ATOM     48  C   UNL A   1      42.073  27.462  28.420  1.00  0.00     0.074 A 
ATOM     49  C   UNL A   1      41.100  26.391  28.367  1.00  0.00     0.031 C 
ATOM     50  C   UNL A   1      47.420  24.732  26.182  1.00  0.00     0.029 A 
ATOM     51  C   UNL A   1      47.228  26.114  26.614  1.00  0.00     0.049 A 
ATOM     52  H   UNL A   1      45.513  26.937  27.467  1.00  0.00     0.167 HD
ATOM     53  C   UNL A   1      41.796  28.719  28.845  1.00  0.00     0.034 A 
ATOM     54  C   UNL A   1      48.157  27.090  26.533  1.00  0.00     0.034 A 
ATOM     55  C   UNL A   1      42.767  29.776  28.951  1.00  0.00     0.049 A 
ATOM     56  C   UNL A   1      47.826  28.476  27.030  1.00  0.00     0.074 A 
ATOM     57  C   UNL A   1      42.591  31.057  29.449  1.00  0.00     0.029 A 
ATOM     58  N   UNL A   1      44.090  29.683  28.552  1.00  0.00    -0.354 N 
ATOM     59  N   UNL A   1      46.716  28.920  27.564  1.00  0.00    -0.248 NA
ATOM     60  C   UNL A   1      48.892  29.488  26.942  1.00  0.00     0.031 C 
ATOM     61  C   UNL A   1      43.799  31.747  29.323  1.00  0.00     0.029 A 
ATOM     62  C   UNL A   1      44.739  30.885  28.782  1.00  0.00     0.049 A 
ATOM     63  H   UNL A   1      44.507  28.881  28.162  1.00  0.00     0.167 HD
ATOM     64  C   UNL A   1      46.962  30.243  27.916  1.00  0.00     0.074 A 
ATOM     65  C   UNL A   1      48.332  30.527  27.548  1.00  0.00     0.031 C 
ATOM     66  C   UNL A   1      46.122  31.145  28.481  1.00  0.00     0.034 A 
BRANCH  53  67
ATOM     67  C   UNL A   1      40.383  29.027  29.276  1.00  0.00     0.023 A 
ATOM     68  C   UNL A   1      39.422  29.389  28.310  1.00  0.00     0.012 A 
ATOM     69  C   UNL A   1      39.985  28.869  30.619  1.00  0.00     0.148 A 
ATOM     70  C   UNL A   1      38.098  29.624  28.678  1.00  0.00     0.002 A 
ATOM     71  C   UNL A   1      38.653  29.059  30.971  1.00  0.00     0.091 A 
ATOM     72  F   UNL A   1      40.913  28.534  31.526  1.00  0.00    -0.205 F 
ATOM     73  C   UNL A   1      37.711  29.449  30.004  1.00  0.00     0.022 A 
BRANCH  71  74
ATOM     74  S   UNL A   1      38.036  28.778  32.635  1.00  0.00     0.127 S 
ATOM     75  O   UNL A   1      36.675  29.306  32.539  1.00  0.00    -0.237 OA
ATOM     76  O   UNL A   1      38.116  27.322  32.750  1.00  0.00    -0.237 OA
ATOM     77  O   UNL A   1      38.926  29.510  33.524  1.00  0.00    -0.744 OA
ENDBRANCH  71  74
ENDBRANCH  53  67
BRANCH  54  78
ATOM     78  C   UNL A   1      49.515  26.791  25.992  1.00  0.00     0.023 A 
ATOM     79  C   UNL A   1      50.439  26.083  26.787  1.00  0.00     0.012 A 
ATOM     80  C   UNL A   1      49.898  27.204  24.702  1.00  0.00     0.148 A 
ATOM     81  C   UNL A   1      51.729  25.825  26.322  1.00  0.00     0.002 A 
ATOM     82  C   UNL A   1      51.165  26.894  24.222  1.00  0.00     0.091 A 
ATOM     83  F   UNL A   1      49.013  27.892  23.967  1.00  0.00    -0.205 F 
ATOM     84  C   UNL A   1      52.089  26.222  25.037  1.00  0.00     0.022 A 
BRANCH  82  85
ATOM     85  S   UNL A   1      51.673  27.252  22.537  1.00  0.00     0.127 S 
ATOM     86  O   UNL A   1      52.963  26.569  22.462  1.00  0.00    -0.237 OA
ATOM     87  O   UNL A   1      50.600  26.628  21.761  1.00  0.00    -0.237 OA
ATOM     88  O   UNL A   1      51.718  28.704  22.442  1.00  0.00    -0.744 OA
ENDBRANCH  82  85
ENDBRANCH  54  78
BRANCH  66  89
ATOM     89  C   UNL A   1      46.660  32.515  28.803  1.00  0.00     0.023 A 
ATOM     90  C   UNL A   1      47.262  32.763  30.053  1.00  0.00     0.012 A 
ATOM     91  C   UNL A   1      46.654  33.531  27.827  1.00  0.00     0.148 A 
ATOM     92  C   UNL A   1      47.823  34.009  30.335  1.00  0.00     0.002 A 
ATOM     93  C   UNL A   1      47.260  34.754  28.096  1.00  0.00     0.091 A 
ATOM     94  F   UNL A   1      46.063  33.283  26.650  1.00  0.00    -0.205 F 
ATOM     95  C   UNL A   1      47.834  34.998  29.354  1.00  0.00     0.022 A 
BRANCH  93  96
ATOM     96  S   UNL A   1      47.410  36.051  26.862  1.00  0.00     0.127 S 
ATOM     97  O   UNL A   1      48.193  37.056  27.579  1.00  0.00    -0.237 OA
ATOM     98  O   UNL A   1      48.131  35.371  25.785  1.00  0.00    -0.237 OA
ATOM     99  O   UNL A   1      46.050  36.446  26.523  1.00  0.00    -0.744 OA
ENDBRANCH  93  96
ENDBRANCH  66  89
ENDBRANCH  40  41
ENDBRANCH  32  35
ENDBRANCH  30  31
ENDBRANCH  29  30
ENDBRANCH  28  29
ENDBRANCH   3  28
TORSDOF 19
ENDMDL
MODEL 3
REMARK VINA RESULT:     -11.6      4.892      9.856
REMARK SMILES COc1cccc(CSc2nc3ccccc3c(=O)n2CCC(=O)NCCCNC(=O)c2ccc(-c3c4nc(c(-c5cccc(S(=O)(=O)[O-])c5F)c5ccc([nH]5)c(-c5cccc(S(=O)(=O)[O-])c5F)c5nc(c(-c6cccc(S(=O)(=O)[O-])c6F)c6ccc3[nH]6)C=C5)C=C4)cc2)c1
REMARK SMILES IDX 23 1 24 2 25 3 22 5 21 6 20 7 10 8 11 9 12 10 18 11 13 12
REMARK SMILES IDX 17 13 19 14 14 15 16 16 15 17 9 18 8 19 7 20 3 21 4 22 95 23
REMARK SMILES IDX 5 24 6 25 2 26 1 27 26 28 27 29 28 30 29 31 30 32 31 34
REMARK SMILES IDX 32 35 33 36 94 37 34 38 93 39 35 40 36 41 37 42 87 43 38 44
REMARK SMILES IDX 92 45 86 46 88 47 39 48 91 49 85 50 84 51 40 53 72 54 52 55
REMARK SMILES IDX 71 56 53 57 56 58 70 59 89 60 54 61 55 62 69 64 90 65 57 66
REMARK SMILES IDX 41 67 42 68 50 69 43 70 45 71 51 72 44 73 46 74 47 75 48 76
REMARK SMILES IDX 49 77 73 78 74 79 82 80 75 81 77 82 83 83 76 84 78 85 79 86
REMARK SMILES IDX 80 87 81 88 58 89 59 90 67 91 60 92 62 93 68 94 61 95 63 96
REMARK SMILES IDX 64 97 65 98 66 99
REMARK H PARENT 25 4 29 33 88 52 56 63
REMARK Flexibility Score: inf
ROOT
ATOM      1  C   UNL A   1      33.679  24.068  22.231  1.00  0.00     0.221 C 
ATOM      2  O   UNL A   1      33.391  23.557  21.146  1.00  0.00    -0.275 OA
ATOM      3  N   UNL A   1      34.588  23.430  23.022  1.00  0.00    -0.356 N 
ATOM      4  H   UNL A   1      34.919  22.574  22.664  1.00  0.00     0.163 HD
ENDROOT
BRANCH   1   5
ATOM      5  C   UNL A   1      33.052  25.385  22.649  1.00  0.00     0.122 C 
BRANCH   5   6
ATOM      6  C   UNL A   1      31.546  25.253  22.911  1.00  0.00     0.138 C 
BRANCH   6   7
ATOM      7  N   UNL A   1      31.110  25.901  24.145  1.00  0.00    -0.287 N 
ATOM      8  C   UNL A   1      31.085  25.333  25.406  1.00  0.00     0.171 A 
ATOM      9  N   UNL A   1      31.245  26.060  26.475  1.00  0.00    -0.224 NA
ATOM     10  C   UNL A   1      31.488  27.433  26.334  1.00  0.00     0.079 A 
ATOM     11  C   UNL A   1      30.824  27.275  24.005  1.00  0.00     0.262 A 
ATOM     12  C   UNL A   1      32.182  28.137  27.323  1.00  0.00     0.029 A 
ATOM     13  C   UNL A   1      31.134  28.110  25.180  1.00  0.00     0.066 A 
ATOM     14  O   UNL A   1      30.486  27.805  22.963  1.00  0.00    -0.269 OA
ATOM     15  C   UNL A   1      32.460  29.501  27.174  1.00  0.00     0.002 A 
ATOM     16  C   UNL A   1      31.317  29.493  25.052  1.00  0.00     0.016 A 
ATOM     17  C   UNL A   1      31.985  30.190  26.058  1.00  0.00     0.001 A 
BRANCH   8  18
ATOM     18  S   UNL A   1      31.089  23.614  25.771  1.00  0.00    -0.083 SA
BRANCH  18  19
ATOM     19  C   UNL A   1      31.240  22.548  24.337  1.00  0.00     0.113 C 
BRANCH  19  20
ATOM     20  C   UNL A   1      32.182  21.388  24.470  1.00  0.00    -0.034 A 
ATOM     21  C   UNL A   1      32.912  19.195  23.712  1.00  0.00     0.119 A 
ATOM     22  C   UNL A   1      33.698  19.083  24.857  1.00  0.00     0.046 A 
ATOM     23  C   UNL A   1      32.212  20.378  23.492  1.00  0.00     0.051 A 
ATOM     24  C   UNL A   1      33.787  20.137  25.768  1.00  0.00     0.004 A 
ATOM     25  C   UNL A   1      33.025  21.285  25.579  1.00  0.00     0.005 A 
BRANCH  21  26
ATOM     26  O   UNL A   1      32.886  18.094  22.903  1.00  0.00    -0.497 OA
ATOM     27  C   UNL A   1      33.712  16.996  23.274  1.00  0.00     0.278 C 
ENDBRANCH  21  26
ENDBRANCH  19  20
ENDBRANCH  18  19
ENDBRANCH   8  18
ENDBRANCH   6   7
ENDBRANCH   5   6
ENDBRANCH   1   5
BRANCH   3  28
ATOM     28  C   UNL A   1      35.148  23.813  24.314  1.00  0.00     0.117 C 
BRANCH  28  29
ATOM     29  C   UNL A   1      36.440  23.072  24.629  1.00  0.00     0.042 C 
BRANCH  29  30
ATOM     30  C   UNL A   1      36.900  23.071  26.084  1.00  0.00     0.118 C 
BRANCH  30  31
ATOM     31  N   UNL A   1      38.059  22.213  26.260  1.00  0.00    -0.352 N 
ATOM     32  C   UNL A   1      39.403  22.488  26.365  1.00  0.00     0.251 C 
ATOM     33  H   UNL A   1      37.842  21.254  26.315  1.00  0.00     0.163 HD
ATOM     34  O   UNL A   1      40.175  21.551  26.151  1.00  0.00    -0.269 OA
BRANCH  32  35
ATOM     35  C   UNL A   1      39.975  23.821  26.722  1.00  0.00     0.039 A 
ATOM     36  C   UNL A   1      40.406  24.004  28.048  1.00  0.00     0.014 A 
ATOM     37  C   UNL A   1      39.979  24.930  25.873  1.00  0.00     0.014 A 
ATOM     38  C   UNL A   1      40.819  25.261  28.514  1.00  0.00     0.010 A 
ATOM     39  C   UNL A   1      40.454  26.177  26.323  1.00  0.00     0.010 A 
ATOM     40  C   UNL A   1      40.848  26.370  27.658  1.00  0.00    -0.014 A 
BRANCH  40  41
ATOM     41  C   UNL A   1      41.220  27.729  28.161  1.00  0.00     0.031 A 
ATOM     42  C   UNL A   1      42.670  28.160  28.207  1.00  0.00     0.074 A 
ATOM     43  C   UNL A   1      40.275  28.580  28.614  1.00  0.00     0.049 A 
ATOM     44  N   UNL A   1      43.192  29.273  28.661  1.00  0.00    -0.248 NA
ATOM     45  C   UNL A   1      43.665  27.209  27.686  1.00  0.00     0.031 C 
ATOM     46  C   UNL A   1      38.840  28.297  28.669  1.00  0.00     0.029 A 
ATOM     47  N   UNL A   1      40.381  29.848  29.138  1.00  0.00    -0.354 N 
ATOM     48  C   UNL A   1      44.571  29.138  28.526  1.00  0.00     0.074 A 
ATOM     49  C   UNL A   1      44.806  27.826  27.961  1.00  0.00     0.031 C 
ATOM     50  C   UNL A   1      38.204  29.352  29.204  1.00  0.00     0.029 A 
ATOM     51  C   UNL A   1      39.182  30.376  29.563  1.00  0.00     0.049 A 
ATOM     52  H   UNL A   1      41.235  30.334  29.203  1.00  0.00     0.167 HD
ATOM     53  C   UNL A   1      45.553  30.025  28.821  1.00  0.00     0.034 A 
ATOM     54  C   UNL A   1      38.898  31.538  30.189  1.00  0.00     0.034 A 
ATOM     55  C   UNL A   1      45.328  31.350  29.333  1.00  0.00     0.049 A 
ATOM     56  C   UNL A   1      40.009  32.513  30.490  1.00  0.00     0.074 A 
ATOM     57  C   UNL A   1      46.260  32.344  29.583  1.00  0.00     0.029 A 
ATOM     58  N   UNL A   1      44.091  31.869  29.679  1.00  0.00    -0.354 N 
ATOM     59  N   UNL A   1      41.288  32.417  30.224  1.00  0.00    -0.248 NA
ATOM     60  C   UNL A   1      39.629  33.775  31.146  1.00  0.00     0.031 C 
ATOM     61  C   UNL A   1      45.590  33.453  30.108  1.00  0.00     0.029 A 
ATOM     62  C   UNL A   1      44.236  33.163  30.150  1.00  0.00     0.049 A 
ATOM     63  H   UNL A   1      43.235  31.388  29.602  1.00  0.00     0.167 HD
ATOM     64  C   UNL A   1      41.857  33.617  30.639  1.00  0.00     0.074 A 
ATOM     65  C   UNL A   1      40.782  34.432  31.160  1.00  0.00     0.031 C 
ATOM     66  C   UNL A   1      43.157  34.001  30.602  1.00  0.00     0.034 A 
BRANCH  53  67
ATOM     67  C   UNL A   1      46.981  29.614  28.558  1.00  0.00     0.023 A 
ATOM     68  C   UNL A   1      47.591  29.953  27.332  1.00  0.00     0.012 A 
ATOM     69  C   UNL A   1      47.747  28.975  29.554  1.00  0.00     0.148 A 
ATOM     70  C   UNL A   1      48.926  29.633  27.089  1.00  0.00     0.002 A 
ATOM     71  C   UNL A   1      49.090  28.700  29.322  1.00  0.00     0.091 A 
ATOM     72  F   UNL A   1      47.149  28.650  30.709  1.00  0.00    -0.205 F 
ATOM     73  C   UNL A   1      49.678  29.017  28.086  1.00  0.00     0.022 A 
BRANCH  71  74
ATOM     74  S   UNL A   1      50.167  27.986  30.571  1.00  0.00     0.127 S 
ATOM     75  O   UNL A   1      50.074  28.976  31.642  1.00  0.00    -0.237 OA
ATOM     76  O   UNL A   1      49.503  26.714  30.858  1.00  0.00    -0.237 OA
ATOM     77  O   UNL A   1      51.478  27.861  29.949  1.00  0.00    -0.744 OA
ENDBRANCH  71  74
ENDBRANCH  53  67
BRANCH  54  78
ATOM     78  C   UNL A   1      37.488  31.872  30.547  1.00  0.00     0.023 A 
ATOM     79  C   UNL A   1      36.987  31.505  31.812  1.00  0.00     0.012 A 
ATOM     80  C   UNL A   1      36.643  32.546  29.646  1.00  0.00     0.148 A 
ATOM     81  C   UNL A   1      35.661  31.769  32.158  1.00  0.00     0.002 A 
ATOM     82  C   UNL A   1      35.340  32.858  30.017  1.00  0.00     0.091 A 
ATOM     83  F   UNL A   1      37.131  32.871  28.440  1.00  0.00    -0.205 F 
ATOM     84  C   UNL A   1      34.841  32.452  31.265  1.00  0.00     0.022 A 
BRANCH  82  85
ATOM     85  S   UNL A   1      34.252  33.845  28.985  1.00  0.00     0.127 S 
ATOM     86  O   UNL A   1      35.202  34.703  28.282  1.00  0.00    -0.237 OA
ATOM     87  O   UNL A   1      33.615  32.821  28.155  1.00  0.00    -0.237 OA
ATOM     88  O   UNL A   1      33.347  34.522  29.904  1.00  0.00    -0.744 OA
ENDBRANCH  82  85
ENDBRANCH  54  78
BRANCH  66  89
ATOM     89  C   UNL A   1      43.503  35.388  31.079  1.00  0.00     0.023 A 
ATOM     90  C   UNL A   1      43.903  35.598  32.414  1.00  0.00     0.012 A 
ATOM     91  C   UNL A   1      43.522  36.469  30.175  1.00  0.00     0.148 A 
ATOM     92  C   UNL A   1      44.290  36.867  32.846  1.00  0.00     0.002 A 
ATOM     93  C   UNL A   1      43.956  37.719  30.600  1.00  0.00     0.091 A 
ATOM     94  F   UNL A   1      43.122  36.254  28.913  1.00  0.00    -0.205 F 
ATOM     95  C   UNL A   1      44.330  37.923  31.938  1.00  0.00     0.022 A 
BRANCH  93  96
ATOM     96  S   UNL A   1      44.136  39.113  29.479  1.00  0.00     0.127 S 
ATOM     97  O   UNL A   1      44.549  40.178  30.392  1.00  0.00    -0.237 OA
ATOM     98  O   UNL A   1      45.184  38.647  28.571  1.00  0.00    -0.237 OA
ATOM     99  O   UNL A   1      42.833  39.300  28.856  1.00  0.00    -0.744 OA
ENDBRANCH  93  96
ENDBRANCH  66  89
ENDBRANCH  40  41
ENDBRANCH  32  35
ENDBRANCH  30  31
ENDBRANCH  29  30
ENDBRANCH  28  29
ENDBRANCH   3  28
TORSDOF 19
ENDMDL
