MODEL 1
REMARK VINA RESULT:     -12.4      0.000      0.000
REMARK SMILES CN(C)c1ccc(-c2nnc([C@H]3CC[N@@H+](Cc4ccc(C(=O)NCCCNC(=O)c5ccc(-c6c7nc(c(-c8cccc(S(=O)(=O)[O-])c8F)c8ccc([nH]8)c(-c8cccc(S(=O)(=O)[O-])c8F)c8nc(c(-c9cccc(S(=O)(=O)[O-])c9F)c9ccc6[nH]9)C=C8)C=C7)cc5)cc4)C3)o2)cc1
REMARK SMILES IDX 24 1 23 2 21 3 22 4 20 6 17 7 18 8 94 9 19 10 93 11 16 12
REMARK SMILES IDX 15 13 12 14 13 15 95 16 14 17 11 19 8 20 9 21 96 22 10 23
REMARK SMILES IDX 7 24 4 25 5 26 98 27 6 28 97 29 2 30 1 31 3 32 25 33 26 34
REMARK SMILES IDX 27 35 28 36 29 38 30 39 31 40 92 41 32 42 91 43 33 44 34 45
REMARK SMILES IDX 35 46 85 47 36 48 90 49 84 50 86 51 37 52 89 53 83 54 82 55
REMARK SMILES IDX 38 57 70 58 50 59 69 60 51 61 54 62 68 63 87 64 52 65 53 66
REMARK SMILES IDX 67 68 88 69 55 70 39 71 40 72 48 73 41 74 43 75 49 76 42 77
REMARK SMILES IDX 44 78 45 79 46 80 47 81 71 82 72 83 80 84 73 85 75 86 81 87
REMARK SMILES IDX 74 88 76 89 77 90 78 91 79 92 56 93 57 94 65 95 58 96 60 97
REMARK SMILES IDX 66 98 59 99 61 100 62 101 63 102 64 103
REMARK H PARENT 23 5 15 18 27 37 86 56 54 67
REMARK Flexibility Score: inf
ROOT
ATOM      1  C   UNL A   1      31.759  27.718  26.710  1.00  0.00     0.118 C 
ENDROOT
BRANCH   1   2
ATOM      2  N   UNL A   1      30.545  26.930  26.558  1.00  0.00    -0.352 N 
ATOM      3  C   UNL A   1      30.323  25.575  26.515  1.00  0.00     0.251 C 
ATOM      4  O   UNL A   1      29.153  25.188  26.516  1.00  0.00    -0.269 OA
ATOM      5  H   UNL A   1      29.728  27.471  26.469  1.00  0.00     0.163 HD
BRANCH   3   6
ATOM      6  C   UNL A   1      31.408  24.553  26.526  1.00  0.00     0.039 A 
ATOM      7  C   UNL A   1      33.334  22.468  26.518  1.00  0.00     0.006 A 
ATOM      8  C   UNL A   1      32.036  22.244  26.042  1.00  0.00     0.010 A 
ATOM      9  C   UNL A   1      33.677  23.772  26.904  1.00  0.00     0.010 A 
ATOM     10  C   UNL A   1      31.087  23.272  26.048  1.00  0.00     0.014 A 
ATOM     11  C   UNL A   1      32.726  24.807  26.903  1.00  0.00     0.014 A 
BRANCH   7  12
ATOM     12  C   UNL A   1      34.324  21.324  26.616  1.00  0.00     0.299 C 
BRANCH  12  13
ATOM     13  N   UNL A   1      35.403  21.267  25.613  1.00  0.00    -0.330 N 
ATOM     14  C   UNL A   1      35.432  22.593  23.590  1.00  0.00     0.138 C 
ATOM     15  C   UNL A   1      36.038  23.383  24.741  1.00  0.00     0.081 C 
ATOM     16  C   UNL A   1      34.935  21.289  24.218  1.00  0.00     0.276 C 
ATOM     17  C   UNL A   1      36.429  22.306  25.730  1.00  0.00     0.263 C 
ATOM     18  H   UNL A   1      35.819  20.362  25.834  1.00  0.00     0.348 HD
BRANCH  14  19
ATOM     19  C   UNL A   1      34.416  23.393  22.884  1.00  0.00     0.225 A 
ATOM     20  C   UNL A   1      32.918  24.842  22.601  1.00  0.00     0.247 A 
ATOM     21  N   UNL A   1      33.089  24.256  21.434  1.00  0.00    -0.108 NA
ATOM     22  O   UNL A   1      33.722  24.341  23.579  1.00  0.00    -0.420 OA
ATOM     23  N   UNL A   1      34.067  23.316  21.617  1.00  0.00    -0.112 NA
BRANCH  20  24
ATOM     24  C   UNL A   1      32.063  25.952  22.930  1.00  0.00     0.039 A 
ATOM     25  C   UNL A   1      30.233  28.035  23.076  1.00  0.00     0.036 A 
ATOM     26  C   UNL A   1      29.805  26.710  23.207  1.00  0.00     0.027 A 
ATOM     27  C   UNL A   1      31.595  28.317  22.954  1.00  0.00     0.027 A 
ATOM     28  C   UNL A   1      30.712  25.674  23.137  1.00  0.00     0.016 A 
ATOM     29  C   UNL A   1      32.513  27.278  22.894  1.00  0.00     0.016 A 
BRANCH  25  30
ATOM     30  N   UNL A   1      29.266  29.028  23.077  1.00  0.00    -0.378 N 
ATOM     31  C   UNL A   1      27.887  28.612  22.822  1.00  0.00     0.143 C 
ATOM     32  C   UNL A   1      29.812  30.289  22.581  1.00  0.00     0.143 C 
ENDBRANCH  25  30
ENDBRANCH  20  24
ENDBRANCH  14  19
ENDBRANCH  12  13
ENDBRANCH   7  12
ENDBRANCH   3   6
ENDBRANCH   1   2
BRANCH   1  33
ATOM     33  C   UNL A   1      31.443  29.203  26.878  1.00  0.00     0.042 C 
BRANCH  33  34
ATOM     34  C   UNL A   1      32.133  30.163  25.906  1.00  0.00     0.118 C 
BRANCH  34  35
ATOM     35  N   UNL A   1      32.188  31.541  26.387  1.00  0.00    -0.352 N 
ATOM     36  C   UNL A   1      33.041  32.197  27.253  1.00  0.00     0.251 C 
ATOM     37  H   UNL A   1      31.477  32.116  26.023  1.00  0.00     0.163 HD
ATOM     38  O   UNL A   1      32.752  33.355  27.564  1.00  0.00    -0.269 OA
BRANCH  36  39
ATOM     39  C   UNL A   1      34.264  31.579  27.850  1.00  0.00     0.039 A 
ATOM     40  C   UNL A   1      35.331  32.419  28.215  1.00  0.00     0.014 A 
ATOM     41  C   UNL A   1      34.427  30.207  28.026  1.00  0.00     0.014 A 
ATOM     42  C   UNL A   1      36.476  31.910  28.860  1.00  0.00     0.010 A 
ATOM     43  C   UNL A   1      35.538  29.704  28.725  1.00  0.00     0.010 A 
ATOM     44  C   UNL A   1      36.565  30.552  29.185  1.00  0.00    -0.014 A 
BRANCH  44  45
ATOM     45  C   UNL A   1      37.736  29.981  29.933  1.00  0.00     0.031 A 
ATOM     46  C   UNL A   1      37.981  30.437  31.330  1.00  0.00     0.074 A 
ATOM     47  C   UNL A   1      38.647  29.153  29.371  1.00  0.00     0.049 A 
ATOM     48  N   UNL A   1      39.006  30.186  32.094  1.00  0.00    -0.248 NA
ATOM     49  C   UNL A   1      36.978  31.336  31.921  1.00  0.00     0.031 C 
ATOM     50  C   UNL A   1      38.600  28.745  27.991  1.00  0.00     0.029 A 
ATOM     51  N   UNL A   1      39.800  28.545  29.813  1.00  0.00    -0.354 N 
ATOM     52  C   UNL A   1      38.808  30.944  33.233  1.00  0.00     0.074 A 
ATOM     53  C   UNL A   1      37.577  31.682  33.051  1.00  0.00     0.031 C 
ATOM     54  C   UNL A   1      39.618  27.944  27.666  1.00  0.00     0.029 A 
ATOM     55  C   UNL A   1      40.469  27.830  28.829  1.00  0.00     0.049 A 
ATOM     56  H   UNL A   1      40.120  28.610  30.741  1.00  0.00     0.167 HD
ATOM     57  C   UNL A   1      39.583  31.002  34.338  1.00  0.00     0.034 A 
ATOM     58  C   UNL A   1      41.656  27.195  28.821  1.00  0.00     0.034 A 
ATOM     59  C   UNL A   1      40.788  30.241  34.517  1.00  0.00     0.049 A 
ATOM     60  C   UNL A   1      42.464  27.233  30.077  1.00  0.00     0.074 A 
ATOM     61  C   UNL A   1      41.582  30.156  35.645  1.00  0.00     0.029 A 
ATOM     62  N   UNL A   1      41.383  29.449  33.545  1.00  0.00    -0.354 N 
ATOM     63  N   UNL A   1      42.185  27.855  31.194  1.00  0.00    -0.248 NA
ATOM     64  C   UNL A   1      43.727  26.487  30.090  1.00  0.00     0.031 C 
ATOM     65  C   UNL A   1      42.674  29.335  35.348  1.00  0.00     0.029 A 
ATOM     66  C   UNL A   1      42.538  28.874  34.048  1.00  0.00     0.049 A 
ATOM     67  H   UNL A   1      41.037  29.316  32.634  1.00  0.00     0.167 HD
ATOM     68  C   UNL A   1      43.223  27.554  32.059  1.00  0.00     0.074 A 
ATOM     69  C   UNL A   1      44.126  26.678  31.339  1.00  0.00     0.031 C 
ATOM     70  C   UNL A   1      43.407  27.976  33.331  1.00  0.00     0.034 A 
BRANCH  57  71
ATOM     71  C   UNL A   1      39.122  31.908  35.441  1.00  0.00     0.023 A 
ATOM     72  C   UNL A   1      39.403  33.288  35.379  1.00  0.00     0.012 A 
ATOM     73  C   UNL A   1      38.396  31.394  36.530  1.00  0.00     0.148 A 
ATOM     74  C   UNL A   1      39.004  34.138  36.408  1.00  0.00     0.002 A 
ATOM     75  C   UNL A   1      37.953  32.255  37.522  1.00  0.00     0.091 A 
ATOM     76  F   UNL A   1      38.170  30.073  36.581  1.00  0.00    -0.205 F 
ATOM     77  C   UNL A   1      38.269  33.623  37.472  1.00  0.00     0.022 A 
BRANCH  75  78
ATOM     78  S   UNL A   1      36.927  31.711  38.890  1.00  0.00     0.127 S 
ATOM     79  O   UNL A   1      36.638  30.331  38.514  1.00  0.00    -0.237 OA
ATOM     80  O   UNL A   1      37.831  31.864  40.026  1.00  0.00    -0.237 OA
ATOM     81  O   UNL A   1      35.771  32.606  38.906  1.00  0.00    -0.744 OA
ENDBRANCH  75  78
ENDBRANCH  57  71
BRANCH  58  82
ATOM     82  C   UNL A   1      42.140  26.467  27.605  1.00  0.00     0.023 A 
ATOM     83  C   UNL A   1      42.875  27.163  26.624  1.00  0.00     0.012 A 
ATOM     84  C   UNL A   1      41.909  25.088  27.428  1.00  0.00     0.148 A 
ATOM     85  C   UNL A   1      43.341  26.510  25.480  1.00  0.00     0.002 A 
ATOM     86  C   UNL A   1      42.428  24.429  26.317  1.00  0.00     0.091 A 
ATOM     87  F   UNL A   1      41.199  24.438  28.360  1.00  0.00    -0.205 F 
ATOM     88  C   UNL A   1      43.128  25.142  25.332  1.00  0.00     0.022 A 
BRANCH  86  89
ATOM     89  S   UNL A   1      42.332  22.645  26.121  1.00  0.00     0.127 S 
ATOM     90  O   UNL A   1      40.890  22.419  26.122  1.00  0.00    -0.237 OA
ATOM     91  O   UNL A   1      42.990  22.444  24.830  1.00  0.00    -0.237 OA
ATOM     92  O   UNL A   1      43.063  22.090  27.256  1.00  0.00    -0.744 OA
ENDBRANCH  86  89
ENDBRANCH  58  82
BRANCH  70  93
ATOM     93  C   UNL A   1      44.609  27.442  34.052  1.00  0.00     0.023 A 
ATOM     94  C   UNL A   1      45.825  28.148  34.027  1.00  0.00     0.012 A 
ATOM     95  C   UNL A   1      44.502  26.258  34.804  1.00  0.00     0.148 A 
ATOM     96  C   UNL A   1      46.932  27.666  34.722  1.00  0.00     0.002 A 
ATOM     97  C   UNL A   1      45.589  25.814  35.539  1.00  0.00     0.091 A 
ATOM     98  F   UNL A   1      43.338  25.592  34.784  1.00  0.00    -0.205 F 
ATOM     99  C   UNL A   1      46.809  26.508  35.488  1.00  0.00     0.022 A 
BRANCH  97 100
ATOM    100  S   UNL A   1      45.491  24.394  36.631  1.00  0.00     0.127 S 
ATOM    101  O   UNL A   1      44.675  24.917  37.726  1.00  0.00    -0.237 OA
ATOM    102  O   UNL A   1      44.822  23.404  35.787  1.00  0.00    -0.237 OA
ATOM    103  O   UNL A   1      46.865  24.060  36.984  1.00  0.00    -0.744 OA
ENDBRANCH  97 100
ENDBRANCH  70  93
ENDBRANCH  44  45
ENDBRANCH  36  39
ENDBRANCH  34  35
ENDBRANCH  33  34
ENDBRANCH   1  33
TORSDOF 18
ENDMDL
MODEL 2
REMARK VINA RESULT:     -12.3      2.015      2.646
REMARK SMILES CN(C)c1ccc(-c2nnc([C@H]3CC[N@@H+](Cc4ccc(C(=O)NCCCNC(=O)c5ccc(-c6c7nc(c(-c8cccc(S(=O)(=O)[O-])c8F)c8ccc([nH]8)c(-c8cccc(S(=O)(=O)[O-])c8F)c8nc(c(-c9cccc(S(=O)(=O)[O-])c9F)c9ccc6[nH]9)C=C8)C=C7)cc5)cc4)C3)o2)cc1
REMARK SMILES IDX 24 1 23 2 21 3 22 4 20 6 17 7 18 8 94 9 19 10 93 11 16 12
REMARK SMILES IDX 15 13 12 14 13 15 95 16 14 17 11 19 8 20 9 21 96 22 10 23
REMARK SMILES IDX 7 24 4 25 5 26 98 27 6 28 97 29 2 30 1 31 3 32 25 33 26 34
REMARK SMILES IDX 27 35 28 36 29 38 30 39 31 40 92 41 32 42 91 43 33 44 34 45
REMARK SMILES IDX 35 46 85 47 36 48 90 49 84 50 86 51 37 52 89 53 83 54 82 55
REMARK SMILES IDX 38 57 70 58 50 59 69 60 51 61 54 62 68 63 87 64 52 65 53 66
REMARK SMILES IDX 67 68 88 69 55 70 39 71 40 72 48 73 41 74 43 75 49 76 42 77
REMARK SMILES IDX 44 78 45 79 46 80 47 81 71 82 72 83 80 84 73 85 75 86 81 87
REMARK SMILES IDX 74 88 76 89 77 90 78 91 79 92 56 93 57 94 65 95 58 96 60 97
REMARK SMILES IDX 66 98 59 99 61 100 62 101 63 102 64 103
REMARK H PARENT 23 5 15 18 27 37 86 56 54 67
REMARK Flexibility Score: inf
ROOT
ATOM      1  C   UNL A   1      33.617  28.484  25.459  1.00  0.00     0.118 C 
ENDROOT
BRANCH   1   2
ATOM      2  N   UNL A   1      32.248  28.289  25.913  1.00  0.00    -0.352 N 
ATOM      3  C   UNL A   1      31.583  27.190  26.400  1.00  0.00     0.251 C 
ATOM      4  O   UNL A   1      30.446  27.360  26.843  1.00  0.00    -0.269 OA
ATOM      5  H   UNL A   1      31.693  29.101  25.863  1.00  0.00     0.163 HD
BRANCH   3   6
ATOM      6  C   UNL A   1      32.178  25.825  26.475  1.00  0.00     0.039 A 
ATOM      7  C   UNL A   1      33.143  23.167  26.713  1.00  0.00     0.006 A 
ATOM      8  C   UNL A   1      31.791  23.458  26.931  1.00  0.00     0.010 A 
ATOM      9  C   UNL A   1      33.979  24.206  26.280  1.00  0.00     0.010 A 
ATOM     10  C   UNL A   1      31.316  24.769  26.816  1.00  0.00     0.014 A 
ATOM     11  C   UNL A   1      33.501  25.523  26.156  1.00  0.00     0.014 A 
BRANCH   7  12
ATOM     12  C   UNL A   1      33.675  21.766  26.951  1.00  0.00     0.299 C 
BRANCH  12  13
ATOM     13  N   UNL A   1      33.741  20.855  25.794  1.00  0.00    -0.330 N 
ATOM     14  C   UNL A   1      33.672  21.596  23.492  1.00  0.00     0.138 C 
ATOM     15  C   UNL A   1      35.102  21.639  24.011  1.00  0.00     0.081 C 
ATOM     16  C   UNL A   1      32.820  21.198  24.699  1.00  0.00     0.276 C 
ATOM     17  C   UNL A   1      35.068  20.694  25.193  1.00  0.00     0.263 C 
ATOM     18  H   UNL A   1      33.465  19.975  26.230  1.00  0.00     0.348 HD
BRANCH  14  19
ATOM     19  C   UNL A   1      33.312  22.869  22.844  1.00  0.00     0.225 A 
ATOM     20  C   UNL A   1      32.327  24.705  22.552  1.00  0.00     0.247 A 
ATOM     21  N   UNL A   1      33.157  24.567  21.539  1.00  0.00    -0.108 NA
ATOM     22  O   UNL A   1      32.361  23.659  23.424  1.00  0.00    -0.420 OA
ATOM     23  N   UNL A   1      33.801  23.374  21.731  1.00  0.00    -0.112 NA
BRANCH  20  24
ATOM     24  C   UNL A   1      31.475  25.821  22.867  1.00  0.00     0.039 A 
ATOM     25  C   UNL A   1      29.558  27.820  23.054  1.00  0.00     0.036 A 
ATOM     26  C   UNL A   1      29.271  26.526  23.498  1.00  0.00     0.027 A 
ATOM     27  C   UNL A   1      30.838  28.130  22.592  1.00  0.00     0.027 A 
ATOM     28  C   UNL A   1      30.222  25.532  23.409  1.00  0.00     0.016 A 
ATOM     29  C   UNL A   1      31.803  27.136  22.510  1.00  0.00     0.016 A 
BRANCH  25  30
ATOM     30  N   UNL A   1      28.537  28.757  23.098  1.00  0.00    -0.378 N 
ATOM     31  C   UNL A   1      27.206  28.273  23.462  1.00  0.00     0.143 C 
ATOM     32  C   UNL A   1      28.748  29.806  22.103  1.00  0.00     0.143 C 
ENDBRANCH  25  30
ENDBRANCH  20  24
ENDBRANCH  14  19
ENDBRANCH  12  13
ENDBRANCH   7  12
ENDBRANCH   3   6
ENDBRANCH   1   2
BRANCH   1  33
ATOM     33  C   UNL A   1      34.392  29.405  26.398  1.00  0.00     0.042 C 
BRANCH  33  34
ATOM     34  C   UNL A   1      33.600  30.033  27.547  1.00  0.00     0.118 C 
BRANCH  34  35
ATOM     35  N   UNL A   1      33.816  31.471  27.689  1.00  0.00    -0.352 N 
ATOM     36  C   UNL A   1      34.821  32.213  28.278  1.00  0.00     0.251 C 
ATOM     37  H   UNL A   1      33.106  32.019  27.285  1.00  0.00     0.163 HD
ATOM     38  O   UNL A   1      34.659  33.434  28.346  1.00  0.00    -0.269 OA
BRANCH  36  39
ATOM     39  C   UNL A   1      36.066  31.623  28.860  1.00  0.00     0.039 A 
ATOM     40  C   UNL A   1      35.943  30.533  29.741  1.00  0.00     0.014 A 
ATOM     41  C   UNL A   1      37.343  32.121  28.614  1.00  0.00     0.014 A 
ATOM     42  C   UNL A   1      37.079  29.877  30.255  1.00  0.00     0.010 A 
ATOM     43  C   UNL A   1      38.477  31.431  29.074  1.00  0.00     0.010 A 
ATOM     44  C   UNL A   1      38.365  30.278  29.875  1.00  0.00    -0.014 A 
BRANCH  44  45
ATOM     45  C   UNL A   1      39.600  29.563  30.346  1.00  0.00     0.031 A 
ATOM     46  C   UNL A   1      40.351  30.123  31.505  1.00  0.00     0.074 A 
ATOM     47  C   UNL A   1      40.131  28.495  29.707  1.00  0.00     0.049 A 
ATOM     48  N   UNL A   1      41.508  29.752  31.974  1.00  0.00    -0.248 NA
ATOM     49  C   UNL A   1      39.755  31.284  32.183  1.00  0.00     0.031 C 
ATOM     50  C   UNL A   1      39.579  27.939  28.499  1.00  0.00     0.029 A 
ATOM     51  N   UNL A   1      41.245  27.710  29.903  1.00  0.00    -0.354 N 
ATOM     52  C   UNL A   1      41.814  30.669  32.962  1.00  0.00     0.074 A 
ATOM     53  C   UNL A   1      40.732  31.628  33.009  1.00  0.00     0.031 C 
ATOM     54  C   UNL A   1      40.289  26.904  28.048  1.00  0.00     0.029 A 
ATOM     55  C   UNL A   1      41.435  26.752  28.917  1.00  0.00     0.049 A 
ATOM     56  H   UNL A   1      41.850  27.818  30.671  1.00  0.00     0.167 HD
ATOM     57  C   UNL A   1      42.898  30.693  33.766  1.00  0.00     0.034 A 
ATOM     58  C   UNL A   1      42.433  25.878  28.684  1.00  0.00     0.034 A 
ATOM     59  C   UNL A   1      43.952  29.716  33.728  1.00  0.00     0.049 A 
ATOM     60  C   UNL A   1      43.593  25.894  29.625  1.00  0.00     0.074 A 
ATOM     61  C   UNL A   1      45.037  29.600  34.575  1.00  0.00     0.029 A 
ATOM     62  N   UNL A   1      44.064  28.701  32.789  1.00  0.00    -0.354 N 
ATOM     63  N   UNL A   1      43.793  26.694  30.641  1.00  0.00    -0.248 NA
ATOM     64  C   UNL A   1      44.649  24.899  29.411  1.00  0.00     0.031 C 
ATOM     65  C   UNL A   1      45.822  28.532  34.132  1.00  0.00     0.029 A 
ATOM     66  C   UNL A   1      45.204  27.954  33.034  1.00  0.00     0.049 A 
ATOM     67  H   UNL A   1      43.428  28.535  32.056  1.00  0.00     0.167 HD
ATOM     68  C   UNL A   1      44.986  26.283  31.210  1.00  0.00     0.074 A 
ATOM     69  C   UNL A   1      45.452  25.150  30.435  1.00  0.00     0.031 C 
ATOM     70  C   UNL A   1      45.635  26.808  32.275  1.00  0.00     0.034 A 
BRANCH  57  71
ATOM     71  C   UNL A   1      42.973  31.805  34.769  1.00  0.00     0.023 A 
ATOM     72  C   UNL A   1      43.645  33.001  34.442  1.00  0.00     0.012 A 
ATOM     73  C   UNL A   1      42.362  31.673  36.029  1.00  0.00     0.148 A 
ATOM     74  C   UNL A   1      43.745  34.033  35.372  1.00  0.00     0.002 A 
ATOM     75  C   UNL A   1      42.416  32.727  36.928  1.00  0.00     0.091 A 
ATOM     76  F   UNL A   1      41.756  30.514  36.327  1.00  0.00    -0.205 F 
ATOM     77  C   UNL A   1      43.120  33.900  36.609  1.00  0.00     0.022 A 
BRANCH  75  78
ATOM     78  S   UNL A   1      41.575  32.693  38.512  1.00  0.00     0.127 S 
ATOM     79  O   UNL A   1      40.207  32.373  38.115  1.00  0.00    -0.237 OA
ATOM     80  O   UNL A   1      42.281  31.623  39.209  1.00  0.00    -0.237 OA
ATOM     81  O   UNL A   1      41.757  34.023  39.092  1.00  0.00    -0.744 OA
ENDBRANCH  75  78
ENDBRANCH  57  71
BRANCH  58  82
ATOM     82  C   UNL A   1      42.373  24.919  27.536  1.00  0.00     0.023 A 
ATOM     83  C   UNL A   1      43.094  25.198  26.358  1.00  0.00     0.012 A 
ATOM     84  C   UNL A   1      41.639  23.718  27.612  1.00  0.00     0.148 A 
ATOM     85  C   UNL A   1      43.060  24.320  25.271  1.00  0.00     0.002 A 
ATOM     86  C   UNL A   1      41.659  22.818  26.551  1.00  0.00     0.091 A 
ATOM     87  F   UNL A   1      40.948  23.466  28.733  1.00  0.00    -0.205 F 
ATOM     88  C   UNL A   1      42.353  23.126  25.371  1.00  0.00     0.022 A 
BRANCH  86  89
ATOM     89  S   UNL A   1      40.901  21.191  26.651  1.00  0.00     0.127 S 
ATOM     90  O   UNL A   1      39.646  21.398  25.935  1.00  0.00    -0.237 OA
ATOM     91  O   UNL A   1      41.880  20.355  25.956  1.00  0.00    -0.237 OA
ATOM     92  O   UNL A   1      40.779  20.906  28.077  1.00  0.00    -0.744 OA
ENDBRANCH  86  89
ENDBRANCH  58  82
BRANCH  70  93
ATOM     93  C   UNL A   1      46.896  26.119  32.705  1.00  0.00     0.023 A 
ATOM     94  C   UNL A   1      48.145  26.567  32.240  1.00  0.00     0.012 A 
ATOM     95  C   UNL A   1      46.831  25.056  33.624  1.00  0.00     0.148 A 
ATOM     96  C   UNL A   1      49.317  25.944  32.664  1.00  0.00     0.002 A 
ATOM     97  C   UNL A   1      48.002  24.478  34.085  1.00  0.00     0.091 A 
ATOM     98  F   UNL A   1      45.623  24.633  34.026  1.00  0.00    -0.205 F 
ATOM     99  C   UNL A   1      49.246  24.911  33.596  1.00  0.00     0.022 A 
BRANCH  97 100
ATOM    100  S   UNL A   1      48.010  23.215  35.359  1.00  0.00     0.127 S 
ATOM    101  O   UNL A   1      49.441  22.961  35.517  1.00  0.00    -0.237 OA
ATOM    102  O   UNL A   1      47.383  23.909  36.483  1.00  0.00    -0.237 OA
ATOM    103  O   UNL A   1      47.237  22.099  34.827  1.00  0.00    -0.744 OA
ENDBRANCH  97 100
ENDBRANCH  70  93
ENDBRANCH  44  45
ENDBRANCH  36  39
ENDBRANCH  34  35
ENDBRANCH  33  34
ENDBRANCH   1  33
TORSDOF 18
ENDMDL
MODEL 3
REMARK VINA RESULT:     -11.9      5.567      8.874
REMARK SMILES CN(C)c1ccc(-c2nnc([C@H]3CC[N@@H+](Cc4ccc(C(=O)NCCCNC(=O)c5ccc(-c6c7nc(c(-c8cccc(S(=O)(=O)[O-])c8F)c8ccc([nH]8)c(-c8cccc(S(=O)(=O)[O-])c8F)c8nc(c(-c9cccc(S(=O)(=O)[O-])c9F)c9ccc6[nH]9)C=C8)C=C7)cc5)cc4)C3)o2)cc1
REMARK SMILES IDX 24 1 23 2 21 3 22 4 20 6 17 7 18 8 94 9 19 10 93 11 16 12
REMARK SMILES IDX 15 13 12 14 13 15 95 16 14 17 11 19 8 20 9 21 96 22 10 23
REMARK SMILES IDX 7 24 4 25 5 26 98 27 6 28 97 29 2 30 1 31 3 32 25 33 26 34
REMARK SMILES IDX 27 35 28 36 29 38 30 39 31 40 92 41 32 42 91 43 33 44 34 45
REMARK SMILES IDX 35 46 85 47 36 48 90 49 84 50 86 51 37 52 89 53 83 54 82 55
REMARK SMILES IDX 38 57 70 58 50 59 69 60 51 61 54 62 68 63 87 64 52 65 53 66
REMARK SMILES IDX 67 68 88 69 55 70 39 71 40 72 48 73 41 74 43 75 49 76 42 77
REMARK SMILES IDX 44 78 45 79 46 80 47 81 71 82 72 83 80 84 73 85 75 86 81 87
REMARK SMILES IDX 74 88 76 89 77 90 78 91 79 92 56 93 57 94 65 95 58 96 60 97
REMARK SMILES IDX 66 98 59 99 61 100 62 101 63 102 64 103
REMARK H PARENT 23 5 15 18 27 37 86 56 54 67
REMARK Flexibility Score: inf
ROOT
ATOM      1  C   UNL A   1      37.783  21.676  25.132  1.00  0.00     0.118 C 
ENDROOT
BRANCH   1   2
ATOM      2  N   UNL A   1      36.985  20.480  24.911  1.00  0.00    -0.352 N 
ATOM      3  C   UNL A   1      35.637  20.236  25.013  1.00  0.00     0.251 C 
ATOM      4  O   UNL A   1      35.224  19.142  24.624  1.00  0.00    -0.269 OA
ATOM      5  H   UNL A   1      37.512  19.696  24.635  1.00  0.00     0.163 HD
BRANCH   3   6
ATOM      6  C   UNL A   1      34.646  21.233  25.510  1.00  0.00     0.039 A 
ATOM      7  C   UNL A   1      32.616  23.002  26.406  1.00  0.00     0.006 A 
ATOM      8  C   UNL A   1      32.330  21.655  26.154  1.00  0.00     0.010 A 
ATOM      9  C   UNL A   1      33.950  23.423  26.297  1.00  0.00     0.010 A 
ATOM     10  C   UNL A   1      33.331  20.784  25.710  1.00  0.00     0.014 A 
ATOM     11  C   UNL A   1      34.958  22.546  25.860  1.00  0.00     0.014 A 
BRANCH   7  12
ATOM     12  C   UNL A   1      31.506  23.967  26.776  1.00  0.00     0.299 C 
BRANCH  12  13
ATOM     13  N   UNL A   1      30.437  24.190  25.786  1.00  0.00    -0.330 N 
ATOM     14  C   UNL A   1      30.284  26.161  24.390  1.00  0.00     0.138 C 
ATOM     15  C   UNL A   1      31.186  25.125  23.734  1.00  0.00     0.081 C 
ATOM     16  C   UNL A   1      29.919  25.568  25.753  1.00  0.00     0.276 C 
ATOM     17  C   UNL A   1      30.771  23.833  24.405  1.00  0.00     0.263 C 
ATOM     18  H   UNL A   1      29.722  23.550  26.132  1.00  0.00     0.348 HD
BRANCH  14  19
ATOM     19  C   UNL A   1      30.938  27.481  24.420  1.00  0.00     0.225 A 
ATOM     20  C   UNL A   1      31.840  29.198  25.232  1.00  0.00     0.247 A 
ATOM     21  N   UNL A   1      31.843  29.364  23.926  1.00  0.00    -0.108 NA
ATOM     22  O   UNL A   1      31.273  28.025  25.626  1.00  0.00    -0.420 OA
ATOM     23  N   UNL A   1      31.260  28.244  23.396  1.00  0.00    -0.112 NA
BRANCH  20  24
ATOM     24  C   UNL A   1      32.408  30.050  26.244  1.00  0.00     0.039 A 
ATOM     25  C   UNL A   1      33.663  31.983  27.792  1.00  0.00     0.036 A 
ATOM     26  C   UNL A   1      32.400  32.229  27.244  1.00  0.00     0.027 A 
ATOM     27  C   UNL A   1      34.260  30.731  27.629  1.00  0.00     0.027 A 
ATOM     28  C   UNL A   1      31.774  31.270  26.478  1.00  0.00     0.016 A 
ATOM     29  C   UNL A   1      33.629  29.758  26.868  1.00  0.00     0.016 A 
BRANCH  25  30
ATOM     30  N   UNL A   1      34.276  33.012  28.488  1.00  0.00    -0.378 N 
ATOM     31  C   UNL A   1      35.103  32.638  29.635  1.00  0.00     0.143 C 
ATOM     32  C   UNL A   1      33.451  34.217  28.473  1.00  0.00     0.143 C 
ENDBRANCH  25  30
ENDBRANCH  20  24
ENDBRANCH  14  19
ENDBRANCH  12  13
ENDBRANCH   7  12
ENDBRANCH   3   6
ENDBRANCH   1   2
BRANCH   1  33
ATOM     33  C   UNL A   1      39.173  21.331  25.661  1.00  0.00     0.042 C 
BRANCH  33  34
ATOM     34  C   UNL A   1      39.287  20.058  26.503  1.00  0.00     0.118 C 
BRANCH  34  35
ATOM     35  N   UNL A   1      40.414  19.207  26.125  1.00  0.00    -0.352 N 
ATOM     36  C   UNL A   1      41.769  19.446  26.008  1.00  0.00     0.251 C 
ATOM     37  H   UNL A   1      40.156  18.282  25.911  1.00  0.00     0.163 HD
ATOM     38  O   UNL A   1      42.465  18.541  25.540  1.00  0.00    -0.269 OA
BRANCH  36  39
ATOM     39  C   UNL A   1      42.427  20.735  26.384  1.00  0.00     0.039 A 
ATOM     40  C   UNL A   1      42.953  21.543  25.360  1.00  0.00     0.014 A 
ATOM     41  C   UNL A   1      42.590  21.162  27.699  1.00  0.00     0.014 A 
ATOM     42  C   UNL A   1      43.508  22.808  25.639  1.00  0.00     0.010 A 
ATOM     43  C   UNL A   1      43.085  22.448  27.975  1.00  0.00     0.010 A 
ATOM     44  C   UNL A   1      43.521  23.307  26.946  1.00  0.00    -0.014 A 
BRANCH  44  45
ATOM     45  C   UNL A   1      44.041  24.677  27.277  1.00  0.00     0.031 A 
ATOM     46  C   UNL A   1      43.095  25.683  27.838  1.00  0.00     0.074 A 
ATOM     47  C   UNL A   1      45.300  25.084  26.992  1.00  0.00     0.049 A 
ATOM     48  N   UNL A   1      43.299  26.952  28.052  1.00  0.00    -0.248 NA
ATOM     49  C   UNL A   1      41.733  25.218  28.139  1.00  0.00     0.031 C 
ATOM     50  C   UNL A   1      46.270  24.253  26.328  1.00  0.00     0.029 A 
ATOM     51  N   UNL A   1      45.989  26.266  27.147  1.00  0.00    -0.354 N 
ATOM     52  C   UNL A   1      42.076  27.456  28.453  1.00  0.00     0.074 A 
ATOM     53  C   UNL A   1      41.130  26.361  28.430  1.00  0.00     0.031 C 
ATOM     54  C   UNL A   1      47.431  24.883  26.140  1.00  0.00     0.029 A 
ATOM     55  C   UNL A   1      47.272  26.239  26.618  1.00  0.00     0.049 A 
ATOM     56  H   UNL A   1      45.608  27.056  27.592  1.00  0.00     0.167 HD
ATOM     57  C   UNL A   1      41.779  28.721  28.822  1.00  0.00     0.034 A 
ATOM     58  C   UNL A   1      48.211  27.193  26.470  1.00  0.00     0.034 A 
ATOM     59  C   UNL A   1      42.735  29.792  28.868  1.00  0.00     0.049 A 
ATOM     60  C   UNL A   1      47.869  28.570  26.938  1.00  0.00     0.074 A 
ATOM     61  C   UNL A   1      42.549  31.081  29.330  1.00  0.00     0.029 A 
ATOM     62  N   UNL A   1      44.048  29.709  28.425  1.00  0.00    -0.354 N 
ATOM     63  N   UNL A   1      46.737  28.991  27.442  1.00  0.00    -0.248 NA
ATOM     64  C   UNL A   1      48.914  29.595  26.838  1.00  0.00     0.031 C 
ATOM     65  C   UNL A   1      43.741  31.787  29.140  1.00  0.00     0.029 A 
ATOM     66  C   UNL A   1      44.683  30.927  28.600  1.00  0.00     0.049 A 
ATOM     67  H   UNL A   1      44.466  28.904  28.043  1.00  0.00     0.167 HD
ATOM     68  C   UNL A   1      46.937  30.325  27.748  1.00  0.00     0.074 A 
ATOM     69  C   UNL A   1      48.307  30.637  27.390  1.00  0.00     0.031 C 
ATOM     70  C   UNL A   1      46.057  31.210  28.271  1.00  0.00     0.034 A 
BRANCH  57  71
ATOM     71  C   UNL A   1      40.361  28.992  29.226  1.00  0.00     0.023 A 
ATOM     72  C   UNL A   1      39.408  29.346  28.249  1.00  0.00     0.012 A 
ATOM     73  C   UNL A   1      39.968  28.882  30.572  1.00  0.00     0.148 A 
ATOM     74  C   UNL A   1      38.093  29.626  28.612  1.00  0.00     0.002 A 
ATOM     75  C   UNL A   1      38.645  29.107  30.918  1.00  0.00     0.091 A 
ATOM     76  F   UNL A   1      40.901  28.576  31.487  1.00  0.00    -0.205 F 
ATOM     77  C   UNL A   1      37.710  29.495  29.944  1.00  0.00     0.022 A 
BRANCH  75  78
ATOM     78  S   UNL A   1      38.028  28.881  32.588  1.00  0.00     0.127 S 
ATOM     79  O   UNL A   1      38.914  29.754  33.351  1.00  0.00    -0.237 OA
ATOM     80  O   UNL A   1      36.651  29.353  32.469  1.00  0.00    -0.237 OA
ATOM     81  O   UNL A   1      38.162  27.455  32.877  1.00  0.00    -0.744 OA
ENDBRANCH  75  78
ENDBRANCH  57  71
BRANCH  58  82
ATOM     82  C   UNL A   1      49.548  26.881  25.874  1.00  0.00     0.023 A 
ATOM     83  C   UNL A   1      50.497  26.165  26.629  1.00  0.00     0.012 A 
ATOM     84  C   UNL A   1      49.875  27.256  24.554  1.00  0.00     0.148 A 
ATOM     85  C   UNL A   1      51.752  25.857  26.098  1.00  0.00     0.002 A 
ATOM     86  C   UNL A   1      51.103  26.893  24.009  1.00  0.00     0.091 A 
ATOM     87  F   UNL A   1      48.969  27.946  23.847  1.00  0.00    -0.205 F 
ATOM     88  C   UNL A   1      52.051  26.211  24.785  1.00  0.00     0.022 A 
BRANCH  86  89
ATOM     89  S   UNL A   1      51.511  27.174  22.281  1.00  0.00     0.127 S 
ATOM     90  O   UNL A   1      52.697  26.340  22.112  1.00  0.00    -0.237 OA
ATOM     91  O   UNL A   1      50.310  26.689  21.601  1.00  0.00    -0.237 OA
ATOM     92  O   UNL A   1      51.724  28.613  22.160  1.00  0.00    -0.744 OA
ENDBRANCH  86  89
ENDBRANCH  58  82
BRANCH  70  93
ATOM     93  C   UNL A   1      46.571  32.591  28.548  1.00  0.00     0.023 A 
ATOM     94  C   UNL A   1      47.088  32.917  29.816  1.00  0.00     0.012 A 
ATOM     95  C   UNL A   1      46.589  33.548  27.518  1.00  0.00     0.148 A 
ATOM     96  C   UNL A   1      47.592  34.192  30.062  1.00  0.00     0.002 A 
ATOM     97  C   UNL A   1      47.143  34.796  27.753  1.00  0.00     0.091 A 
ATOM     98  F   UNL A   1      46.063  33.217  26.329  1.00  0.00    -0.205 F 
ATOM     99  C   UNL A   1      47.632  35.125  29.028  1.00  0.00     0.022 A 
BRANCH  97 100
ATOM    100  S   UNL A   1      47.330  36.020  26.455  1.00  0.00     0.127 S 
ATOM    101  O   UNL A   1      47.918  35.225  25.378  1.00  0.00    -0.237 OA
ATOM    102  O   UNL A   1      45.947  36.435  26.224  1.00  0.00    -0.237 OA
ATOM    103  O   UNL A   1      48.192  37.060  27.002  1.00  0.00    -0.744 OA
ENDBRANCH  97 100
ENDBRANCH  70  93
ENDBRANCH  44  45
ENDBRANCH  36  39
ENDBRANCH  34  35
ENDBRANCH  33  34
ENDBRANCH   1  33
TORSDOF 18
ENDMDL
