MODEL 1
REMARK VINA RESULT:      -9.4      0.000      0.000
REMARK SMILES CSCC[NH2+]CC(C)(C)C(=O)NCCCNC(=O)c1ccc(-c2c3nc(c(-c4cccc(S(=O)(=O)[O-])c4F)c4ccc([nH]4)c(-c4cccc(S(=O)(=O)[O-])c4F)c4nc(c(-c5cccc(S(=O)(=O)[O-])c5F)c5ccc2[nH]5)C=C4)C=C3)cc1
REMARK SMILES IDX 13 1 12 2 10 3 11 4 7 6 8 7 9 8 6 9 5 10 4 13 3 14 2 15 1 16
REMARK SMILES IDX 14 17 15 18 16 19 17 20 18 22 19 23 20 24 81 25 21 26 80 27
REMARK SMILES IDX 22 28 23 29 24 30 74 31 25 32 79 33 73 34 75 35 26 36 78 37
REMARK SMILES IDX 72 38 71 39 27 41 59 42 39 43 58 44 40 45 43 46 57 47 76 48
REMARK SMILES IDX 41 49 42 50 56 52 77 53 44 54 28 55 29 56 37 57 30 58 32 59
REMARK SMILES IDX 38 60 31 61 33 62 34 63 35 64 36 65 60 66 61 67 69 68 62 69
REMARK SMILES IDX 64 70 70 71 63 72 65 73 66 74 67 75 68 76 45 77 46 78 54 79
REMARK SMILES IDX 47 80 49 81 55 82 48 83 50 84 51 85 52 86 53 87
REMARK H PARENT 12 5 5 11 5 12 16 21 75 40 43 51
REMARK Flexibility Score: inf
ROOT
ATOM      1  C   UNL A   1      33.192  35.398  30.287  1.00  0.00     0.117 C 
ENDROOT
BRANCH   1   2
ATOM      2  N   UNL A   1      33.749  36.241  31.327  1.00  0.00    -0.355 N 
ATOM      3  C   UNL A   1      34.423  35.956  32.466  1.00  0.00     0.231 C 
ATOM      4  O   UNL A   1      34.372  36.834  33.335  1.00  0.00    -0.274 OA
ATOM      5  H   UNL A   1      33.610  37.204  31.176  1.00  0.00     0.163 HD
BRANCH   3   6
ATOM      6  C   UNL A   1      35.188  34.637  32.687  1.00  0.00     0.092 C 
ATOM      7  C   UNL A   1      34.613  33.444  31.901  1.00  0.00     0.027 C 
ATOM      8  C   UNL A   1      35.166  34.330  34.196  1.00  0.00     0.027 C 
BRANCH   6   9
ATOM      9  C   UNL A   1      36.685  34.845  32.258  1.00  0.00     0.276 C 
BRANCH   9  10
ATOM     10  N   UNL A   1      37.045  34.585  30.846  1.00  0.00    -0.345 N 
ATOM     11  H   UNL A   1      36.856  33.604  30.639  1.00  0.00     0.346 HD
ATOM     12  H   UNL A   1      36.484  35.211  30.270  1.00  0.00     0.346 HD
BRANCH  10  13
ATOM     13  C   UNL A   1      38.455  34.861  30.550  1.00  0.00     0.271 C 
BRANCH  13  14
ATOM     14  C   UNL A   1      39.430  34.152  31.501  1.00  0.00     0.130 C 
BRANCH  14  15
ATOM     15  S   UNL A   1      41.164  34.090  30.906  1.00  0.00    -0.160 SA
ATOM     16  C   UNL A   1      41.769  32.632  31.783  1.00  0.00     0.085 C 
ENDBRANCH  14  15
ENDBRANCH  13  14
ENDBRANCH  10  13
ENDBRANCH   9  10
ENDBRANCH   6   9
ENDBRANCH   3   6
ENDBRANCH   1   2
BRANCH   1  17
ATOM     17  C   UNL A   1      33.674  35.842  28.912  1.00  0.00     0.042 C 
BRANCH  17  18
ATOM     18  C   UNL A   1      34.299  34.721  28.091  1.00  0.00     0.118 C 
BRANCH  18  19
ATOM     19  N   UNL A   1      33.312  33.758  27.613  1.00  0.00    -0.352 N 
ATOM     20  C   UNL A   1      33.441  32.397  27.468  1.00  0.00     0.251 C 
ATOM     21  H   UNL A   1      32.437  34.133  27.362  1.00  0.00     0.163 HD
ATOM     22  O   UNL A   1      32.580  31.748  26.881  1.00  0.00    -0.269 OA
BRANCH  20  23
ATOM     23  C   UNL A   1      34.642  31.731  28.010  1.00  0.00     0.039 A 
ATOM     24  C   UNL A   1      35.825  32.458  28.160  1.00  0.00     0.014 A 
ATOM     25  C   UNL A   1      34.570  30.397  28.418  1.00  0.00     0.014 A 
ATOM     26  C   UNL A   1      36.920  31.867  28.793  1.00  0.00     0.010 A 
ATOM     27  C   UNL A   1      35.629  29.841  29.122  1.00  0.00     0.010 A 
ATOM     28  C   UNL A   1      36.816  30.566  29.313  1.00  0.00    -0.014 A 
BRANCH  28  29
ATOM     29  C   UNL A   1      37.920  29.914  30.058  1.00  0.00     0.031 A 
ATOM     30  C   UNL A   1      38.202  30.342  31.472  1.00  0.00     0.074 A 
ATOM     31  C   UNL A   1      38.758  29.072  29.423  1.00  0.00     0.049 A 
ATOM     32  N   UNL A   1      39.232  30.073  32.228  1.00  0.00    -0.248 NA
ATOM     33  C   UNL A   1      37.209  31.231  32.100  1.00  0.00     0.031 C 
ATOM     34  C   UNL A   1      38.633  28.645  28.029  1.00  0.00     0.029 A 
ATOM     35  N   UNL A   1      39.914  28.469  29.854  1.00  0.00    -0.354 N 
ATOM     36  C   UNL A   1      39.048  30.810  33.390  1.00  0.00     0.074 A 
ATOM     37  C   UNL A   1      37.819  31.555  33.231  1.00  0.00     0.031 C 
ATOM     38  C   UNL A   1      39.683  27.868  27.712  1.00  0.00     0.029 A 
ATOM     39  C   UNL A   1      40.570  27.771  28.867  1.00  0.00     0.049 A 
ATOM     40  H   UNL A   1      40.241  28.529  30.781  1.00  0.00     0.167 HD
ATOM     41  C   UNL A   1      39.819  30.846  34.502  1.00  0.00     0.034 A 
ATOM     42  C   UNL A   1      41.764  27.145  28.882  1.00  0.00     0.034 A 
ATOM     43  C   UNL A   1      41.000  30.048  34.681  1.00  0.00     0.049 A 
ATOM     44  C   UNL A   1      42.564  27.128  30.155  1.00  0.00     0.074 A 
ATOM     45  C   UNL A   1      41.793  29.924  35.806  1.00  0.00     0.029 A 
ATOM     46  N   UNL A   1      41.556  29.234  33.705  1.00  0.00    -0.354 N 
ATOM     47  N   UNL A   1      42.300  27.710  31.300  1.00  0.00    -0.248 NA
ATOM     48  C   UNL A   1      43.807  26.343  30.156  1.00  0.00     0.031 C 
ATOM     49  C   UNL A   1      42.835  29.038  35.509  1.00  0.00     0.029 A 
ATOM     50  C   UNL A   1      42.680  28.601  34.202  1.00  0.00     0.049 A 
ATOM     51  H   UNL A   1      41.202  29.124  32.794  1.00  0.00     0.167 HD
ATOM     52  C   UNL A   1      43.319  27.332  32.167  1.00  0.00     0.074 A 
ATOM     53  C   UNL A   1      44.202  26.463  31.417  1.00  0.00     0.031 C 
ATOM     54  C   UNL A   1      43.511  27.684  33.462  1.00  0.00     0.034 A 
BRANCH  41  55
ATOM     55  C   UNL A   1      39.369  31.735  35.631  1.00  0.00     0.023 A 
ATOM     56  C   UNL A   1      38.484  31.228  36.605  1.00  0.00     0.012 A 
ATOM     57  C   UNL A   1      39.829  33.061  35.742  1.00  0.00     0.148 A 
ATOM     58  C   UNL A   1      38.028  32.038  37.643  1.00  0.00     0.002 A 
ATOM     59  C   UNL A   1      39.404  33.849  36.807  1.00  0.00     0.091 A 
ATOM     60  F   UNL A   1      40.648  33.540  34.794  1.00  0.00    -0.205 F 
ATOM     61  C   UNL A   1      38.495  33.345  37.749  1.00  0.00     0.022 A 
BRANCH  59  62
ATOM     62  S   UNL A   1      40.022  35.517  37.063  1.00  0.00     0.127 S 
ATOM     63  O   UNL A   1      39.516  36.206  35.878  1.00  0.00    -0.237 OA
ATOM     64  O   UNL A   1      39.372  35.904  38.316  1.00  0.00    -0.237 OA
ATOM     65  O   UNL A   1      41.469  35.388  37.154  1.00  0.00    -0.744 OA
ENDBRANCH  59  62
ENDBRANCH  41  55
BRANCH  42  66
ATOM     66  C   UNL A   1      42.227  26.429  27.661  1.00  0.00     0.023 A 
ATOM     67  C   UNL A   1      43.019  27.115  26.720  1.00  0.00     0.012 A 
ATOM     68  C   UNL A   1      41.959  25.059  27.466  1.00  0.00     0.148 A 
ATOM     69  C   UNL A   1      43.521  26.456  25.598  1.00  0.00     0.002 A 
ATOM     70  C   UNL A   1      42.506  24.396  26.373  1.00  0.00     0.091 A 
ATOM     71  F   UNL A   1      41.198  24.426  28.370  1.00  0.00    -0.205 F 
ATOM     72  C   UNL A   1      43.276  25.095  25.431  1.00  0.00     0.022 A 
BRANCH  70  73
ATOM     73  S   UNL A   1      42.362  22.619  26.148  1.00  0.00     0.127 S 
ATOM     74  O   UNL A   1      40.922  22.456  25.970  1.00  0.00    -0.237 OA
ATOM     75  O   UNL A   1      43.160  22.403  24.940  1.00  0.00    -0.237 OA
ATOM     76  O   UNL A   1      42.922  22.021  27.352  1.00  0.00    -0.744 OA
ENDBRANCH  70  73
ENDBRANCH  42  66
BRANCH  54  77
ATOM     77  C   UNL A   1      44.695  27.102  34.185  1.00  0.00     0.023 A 
ATOM     78  C   UNL A   1      45.921  27.793  34.186  1.00  0.00     0.012 A 
ATOM     79  C   UNL A   1      44.552  25.937  34.965  1.00  0.00     0.148 A 
ATOM     80  C   UNL A   1      46.994  27.325  34.944  1.00  0.00     0.002 A 
ATOM     81  C   UNL A   1      45.611  25.501  35.751  1.00  0.00     0.091 A 
ATOM     82  F   UNL A   1      43.379  25.287  34.933  1.00  0.00    -0.205 F 
ATOM     83  C   UNL A   1      46.835  26.190  35.737  1.00  0.00     0.022 A 
BRANCH  81  84
ATOM     84  S   UNL A   1      45.467  24.107  36.875  1.00  0.00     0.127 S 
ATOM     85  O   UNL A   1      46.841  23.971  37.358  1.00  0.00    -0.237 OA
ATOM     86  O   UNL A   1      44.517  24.606  37.868  1.00  0.00    -0.237 OA
ATOM     87  O   UNL A   1      44.975  22.994  36.074  1.00  0.00    -0.744 OA
ENDBRANCH  81  84
ENDBRANCH  54  77
ENDBRANCH  28  29
ENDBRANCH  20  23
ENDBRANCH  18  19
ENDBRANCH  17  18
ENDBRANCH   1  17
TORSDOF 18
ENDMDL
MODEL 2
REMARK VINA RESULT:      -8.9      3.066      9.410
REMARK SMILES CSCC[NH2+]CC(C)(C)C(=O)NCCCNC(=O)c1ccc(-c2c3nc(c(-c4cccc(S(=O)(=O)[O-])c4F)c4ccc([nH]4)c(-c4cccc(S(=O)(=O)[O-])c4F)c4nc(c(-c5cccc(S(=O)(=O)[O-])c5F)c5ccc2[nH]5)C=C4)C=C3)cc1
REMARK SMILES IDX 13 1 12 2 10 3 11 4 7 6 8 7 9 8 6 9 5 10 4 13 3 14 2 15 1 16
REMARK SMILES IDX 14 17 15 18 16 19 17 20 18 22 19 23 20 24 81 25 21 26 80 27
REMARK SMILES IDX 22 28 23 29 24 30 74 31 25 32 79 33 73 34 75 35 26 36 78 37
REMARK SMILES IDX 72 38 71 39 27 41 59 42 39 43 58 44 40 45 43 46 57 47 76 48
REMARK SMILES IDX 41 49 42 50 56 52 77 53 44 54 28 55 29 56 37 57 30 58 32 59
REMARK SMILES IDX 38 60 31 61 33 62 34 63 35 64 36 65 60 66 61 67 69 68 62 69
REMARK SMILES IDX 64 70 70 71 63 72 65 73 66 74 67 75 68 76 45 77 46 78 54 79
REMARK SMILES IDX 47 80 49 81 55 82 48 83 50 84 51 85 52 86 53 87
REMARK H PARENT 12 5 5 11 5 12 16 21 75 40 43 51
REMARK Flexibility Score: inf
ROOT
ATOM      1  C   UNL A   1      31.405  30.853  25.637  1.00  0.00     0.117 C 
ENDROOT
BRANCH   1   2
ATOM      2  N   UNL A   1      32.700  30.209  25.538  1.00  0.00    -0.355 N 
ATOM      3  C   UNL A   1      33.145  28.992  25.933  1.00  0.00     0.231 C 
ATOM      4  O   UNL A   1      34.366  28.915  26.104  1.00  0.00    -0.274 OA
ATOM      5  H   UNL A   1      33.387  30.762  25.100  1.00  0.00     0.163 HD
BRANCH   3   6
ATOM      6  C   UNL A   1      32.211  27.789  26.170  1.00  0.00     0.092 C 
ATOM      7  C   UNL A   1      31.126  27.619  25.092  1.00  0.00     0.027 C 
ATOM      8  C   UNL A   1      31.554  27.973  27.551  1.00  0.00     0.027 C 
BRANCH   6   9
ATOM      9  C   UNL A   1      33.079  26.480  26.220  1.00  0.00     0.276 C 
BRANCH   9  10
ATOM     10  N   UNL A   1      33.974  26.198  25.074  1.00  0.00    -0.345 N 
ATOM     11  H   UNL A   1      33.424  26.239  24.216  1.00  0.00     0.346 HD
ATOM     12  H   UNL A   1      34.714  26.899  25.088  1.00  0.00     0.346 HD
BRANCH  10  13
ATOM     13  C   UNL A   1      34.616  24.882  25.155  1.00  0.00     0.271 C 
BRANCH  13  14
ATOM     14  C   UNL A   1      33.948  23.937  26.165  1.00  0.00     0.130 C 
BRANCH  14  15
ATOM     15  S   UNL A   1      33.017  22.549  25.409  1.00  0.00    -0.160 SA
ATOM     16  C   UNL A   1      34.217  21.961  24.194  1.00  0.00     0.085 C 
ENDBRANCH  14  15
ENDBRANCH  13  14
ENDBRANCH  10  13
ENDBRANCH   9  10
ENDBRANCH   6   9
ENDBRANCH   3   6
ENDBRANCH   1   2
BRANCH   1  17
ATOM     17  C   UNL A   1      31.365  31.816  26.816  1.00  0.00     0.042 C 
BRANCH  17  18
ATOM     18  C   UNL A   1      32.672  32.567  27.039  1.00  0.00     0.118 C 
BRANCH  18  19
ATOM     19  N   UNL A   1      32.466  33.892  27.614  1.00  0.00    -0.352 N 
ATOM     20  C   UNL A   1      33.158  34.504  28.632  1.00  0.00     0.251 C 
ATOM     21  H   UNL A   1      31.733  34.420  27.219  1.00  0.00     0.163 HD
ATOM     22  O   UNL A   1      32.747  35.550  29.125  1.00  0.00    -0.269 OA
BRANCH  20  23
ATOM     23  C   UNL A   1      34.391  33.871  29.139  1.00  0.00     0.039 A 
ATOM     24  C   UNL A   1      35.634  34.373  28.747  1.00  0.00     0.014 A 
ATOM     25  C   UNL A   1      34.306  32.812  30.046  1.00  0.00     0.014 A 
ATOM     26  C   UNL A   1      36.797  33.861  29.328  1.00  0.00     0.010 A 
ATOM     27  C   UNL A   1      35.454  32.364  30.683  1.00  0.00     0.010 A 
ATOM     28  C   UNL A   1      36.711  32.879  30.328  1.00  0.00    -0.014 A 
BRANCH  28  29
ATOM     29  C   UNL A   1      37.906  32.350  31.031  1.00  0.00     0.031 A 
ATOM     30  C   UNL A   1      38.667  31.205  30.422  1.00  0.00     0.074 A 
ATOM     31  C   UNL A   1      38.204  32.781  32.272  1.00  0.00     0.049 A 
ATOM     32  N   UNL A   1      39.593  30.452  30.952  1.00  0.00    -0.248 NA
ATOM     33  C   UNL A   1      38.300  30.831  29.045  1.00  0.00     0.031 C 
ATOM     34  C   UNL A   1      37.488  33.830  32.999  1.00  0.00     0.029 A 
ATOM     35  N   UNL A   1      39.154  32.347  33.163  1.00  0.00    -0.354 N 
ATOM     36  C   UNL A   1      39.871  29.476  30.005  1.00  0.00     0.074 A 
ATOM     37  C   UNL A   1      39.000  29.718  28.876  1.00  0.00     0.031 C 
ATOM     38  C   UNL A   1      38.009  33.943  34.232  1.00  0.00     0.029 A 
ATOM     39  C   UNL A   1      39.069  32.953  34.395  1.00  0.00     0.049 A 
ATOM     40  H   UNL A   1      39.832  31.668  32.941  1.00  0.00     0.167 HD
ATOM     41  C   UNL A   1      40.787  28.480  30.057  1.00  0.00     0.034 A 
ATOM     42  C   UNL A   1      39.750  32.721  35.535  1.00  0.00     0.034 A 
ATOM     43  C   UNL A   1      41.697  28.290  31.152  1.00  0.00     0.049 A 
ATOM     44  C   UNL A   1      40.821  31.665  35.545  1.00  0.00     0.074 A 
ATOM     45  C   UNL A   1      42.736  27.384  31.261  1.00  0.00     0.029 A 
ATOM     46  N   UNL A   1      41.679  29.024  32.328  1.00  0.00    -0.354 N 
ATOM     47  N   UNL A   1      41.177  30.847  34.584  1.00  0.00    -0.248 NA
ATOM     48  C   UNL A   1      41.611  31.522  36.776  1.00  0.00     0.031 C 
ATOM     49  C   UNL A   1      43.343  27.566  32.508  1.00  0.00     0.029 A 
ATOM     50  C   UNL A   1      42.689  28.595  33.170  1.00  0.00     0.049 A 
ATOM     51  H   UNL A   1      41.040  29.744  32.535  1.00  0.00     0.167 HD
ATOM     52  C   UNL A   1      42.252  30.119  35.079  1.00  0.00     0.074 A 
ATOM     53  C   UNL A   1      42.496  30.599  36.423  1.00  0.00     0.031 C 
ATOM     54  C   UNL A   1      42.962  29.132  34.479  1.00  0.00     0.034 A 
BRANCH  41  55
ATOM     55  C   UNL A   1      40.883  27.562  28.868  1.00  0.00     0.023 A 
ATOM     56  C   UNL A   1      40.023  26.449  28.777  1.00  0.00     0.012 A 
ATOM     57  C   UNL A   1      41.806  27.806  27.834  1.00  0.00     0.148 A 
ATOM     58  C   UNL A   1      40.110  25.567  27.701  1.00  0.00     0.002 A 
ATOM     59  C   UNL A   1      41.857  26.946  26.741  1.00  0.00     0.091 A 
ATOM     60  F   UNL A   1      42.638  28.852  27.945  1.00  0.00    -0.205 F 
ATOM     61  C   UNL A   1      41.021  25.820  26.679  1.00  0.00     0.022 A 
BRANCH  59  62
ATOM     62  S   UNL A   1      42.944  27.246  25.342  1.00  0.00     0.127 S 
ATOM     63  O   UNL A   1      42.869  25.973  24.629  1.00  0.00    -0.237 OA
ATOM     64  O   UNL A   1      42.285  28.364  24.664  1.00  0.00    -0.237 OA
ATOM     65  O   UNL A   1      44.240  27.577  25.918  1.00  0.00    -0.744 OA
ENDBRANCH  59  62
ENDBRANCH  41  55
BRANCH  42  66
ATOM     66  C   UNL A   1      39.474  33.561  36.734  1.00  0.00     0.023 A 
ATOM     67  C   UNL A   1      38.479  33.154  37.644  1.00  0.00     0.012 A 
ATOM     68  C   UNL A   1      40.238  34.710  37.019  1.00  0.00     0.148 A 
ATOM     69  C   UNL A   1      38.239  33.884  38.808  1.00  0.00     0.002 A 
ATOM     70  C   UNL A   1      40.029  35.403  38.206  1.00  0.00     0.091 A 
ATOM     71  F   UNL A   1      41.176  35.083  36.137  1.00  0.00    -0.205 F 
ATOM     72  C   UNL A   1      39.021  35.000  39.095  1.00  0.00     0.022 A 
BRANCH  70  73
ATOM     73  S   UNL A   1      41.077  36.766  38.729  1.00  0.00     0.127 S 
ATOM     74  O   UNL A   1      40.102  37.835  38.923  1.00  0.00    -0.237 OA
ATOM     75  O   UNL A   1      41.666  36.238  39.961  1.00  0.00    -0.237 OA
ATOM     76  O   UNL A   1      42.031  36.969  37.648  1.00  0.00    -0.744 OA
ENDBRANCH  70  73
ENDBRANCH  42  66
BRANCH  54  77
ATOM     77  C   UNL A   1      44.110  28.524  35.238  1.00  0.00     0.023 A 
ATOM     78  C   UNL A   1      45.406  29.051  35.084  1.00  0.00     0.012 A 
ATOM     79  C   UNL A   1      43.879  27.518  36.196  1.00  0.00     0.148 A 
ATOM     80  C   UNL A   1      46.460  28.575  35.863  1.00  0.00     0.002 A 
ATOM     81  C   UNL A   1      44.923  27.079  37.000  1.00  0.00     0.091 A 
ATOM     82  F   UNL A   1      42.638  27.020  36.312  1.00  0.00    -0.205 F 
ATOM     83  C   UNL A   1      46.216  27.601  36.831  1.00  0.00     0.022 A 
BRANCH  81  84
ATOM     84  S   UNL A   1      44.683  25.899  38.334  1.00  0.00     0.127 S 
ATOM     85  O   UNL A   1      45.956  25.994  39.048  1.00  0.00    -0.237 OA
ATOM     86  O   UNL A   1      43.539  26.466  39.047  1.00  0.00    -0.237 OA
ATOM     87  O   UNL A   1      44.422  24.617  37.695  1.00  0.00    -0.744 OA
ENDBRANCH  81  84
ENDBRANCH  54  77
ENDBRANCH  28  29
ENDBRANCH  20  23
ENDBRANCH  18  19
ENDBRANCH  17  18
ENDBRANCH   1  17
TORSDOF 18
ENDMDL
MODEL 3
REMARK VINA RESULT:      -8.8      3.610      9.725
REMARK SMILES CSCC[NH2+]CC(C)(C)C(=O)NCCCNC(=O)c1ccc(-c2c3nc(c(-c4cccc(S(=O)(=O)[O-])c4F)c4ccc([nH]4)c(-c4cccc(S(=O)(=O)[O-])c4F)c4nc(c(-c5cccc(S(=O)(=O)[O-])c5F)c5ccc2[nH]5)C=C4)C=C3)cc1
REMARK SMILES IDX 13 1 12 2 10 3 11 4 7 6 8 7 9 8 6 9 5 10 4 13 3 14 2 15 1 16
REMARK SMILES IDX 14 17 15 18 16 19 17 20 18 22 19 23 20 24 81 25 21 26 80 27
REMARK SMILES IDX 22 28 23 29 24 30 74 31 25 32 79 33 73 34 75 35 26 36 78 37
REMARK SMILES IDX 72 38 71 39 27 41 59 42 39 43 58 44 40 45 43 46 57 47 76 48
REMARK SMILES IDX 41 49 42 50 56 52 77 53 44 54 28 55 29 56 37 57 30 58 32 59
REMARK SMILES IDX 38 60 31 61 33 62 34 63 35 64 36 65 60 66 61 67 69 68 62 69
REMARK SMILES IDX 64 70 70 71 63 72 65 73 66 74 67 75 68 76 45 77 46 78 54 79
REMARK SMILES IDX 47 80 49 81 55 82 48 83 50 84 51 85 52 86 53 87
REMARK H PARENT 12 5 5 11 5 12 16 21 75 40 43 51
REMARK Flexibility Score: inf
ROOT
ATOM      1  C   UNL A   1      32.358  30.096  25.631  1.00  0.00     0.117 C 
ENDROOT
BRANCH   1   2
ATOM      2  N   UNL A   1      31.288  29.586  24.796  1.00  0.00    -0.355 N 
ATOM      3  C   UNL A   1      31.008  28.346  24.332  1.00  0.00     0.231 C 
ATOM      4  O   UNL A   1      30.305  28.317  23.315  1.00  0.00    -0.274 OA
ATOM      5  H   UNL A   1      30.641  30.273  24.514  1.00  0.00     0.163 HD
BRANCH   3   6
ATOM      6  C   UNL A   1      31.530  27.058  24.998  1.00  0.00     0.092 C 
ATOM      7  C   UNL A   1      31.443  27.071  26.534  1.00  0.00     0.027 C 
ATOM      8  C   UNL A   1      32.992  26.863  24.556  1.00  0.00     0.027 C 
BRANCH   6   9
ATOM      9  C   UNL A   1      30.697  25.839  24.458  1.00  0.00     0.276 C 
BRANCH   9  10
ATOM     10  N   UNL A   1      30.398  24.735  25.398  1.00  0.00    -0.345 N 
ATOM     11  H   UNL A   1      30.874  24.921  26.280  1.00  0.00     0.346 HD
ATOM     12  H   UNL A   1      29.385  24.699  25.511  1.00  0.00     0.346 HD
BRANCH  10  13
ATOM     13  C   UNL A   1      30.830  23.423  24.902  1.00  0.00     0.271 C 
BRANCH  13  14
ATOM     14  C   UNL A   1      32.011  22.833  25.686  1.00  0.00     0.130 C 
BRANCH  14  15
ATOM     15  S   UNL A   1      32.772  21.352  24.915  1.00  0.00    -0.160 SA
ATOM     16  C   UNL A   1      32.259  21.566  23.197  1.00  0.00     0.085 C 
ENDBRANCH  14  15
ENDBRANCH  13  14
ENDBRANCH  10  13
ENDBRANCH   9  10
ENDBRANCH   6   9
ENDBRANCH   3   6
ENDBRANCH   1   2
BRANCH   1  17
ATOM     17  C   UNL A   1      31.837  31.149  26.600  1.00  0.00     0.042 C 
BRANCH  17  18
ATOM     18  C   UNL A   1      32.938  31.937  27.298  1.00  0.00     0.118 C 
BRANCH  18  19
ATOM     19  N   UNL A   1      32.608  33.351  27.447  1.00  0.00    -0.352 N 
ATOM     20  C   UNL A   1      33.125  34.265  28.334  1.00  0.00     0.251 C 
ATOM     21  H   UNL A   1      31.923  33.696  26.829  1.00  0.00     0.163 HD
ATOM     22  O   UNL A   1      32.614  35.374  28.457  1.00  0.00    -0.269 OA
BRANCH  20  23
ATOM     23  C   UNL A   1      34.293  33.885  29.152  1.00  0.00     0.039 A 
ATOM     24  C   UNL A   1      34.132  32.981  30.206  1.00  0.00     0.014 A 
ATOM     25  C   UNL A   1      35.557  34.387  28.834  1.00  0.00     0.014 A 
ATOM     26  C   UNL A   1      35.256  32.520  30.895  1.00  0.00     0.010 A 
ATOM     27  C   UNL A   1      36.678  33.864  29.463  1.00  0.00     0.010 A 
ATOM     28  C   UNL A   1      36.540  32.930  30.502  1.00  0.00    -0.014 A 
BRANCH  28  29
ATOM     29  C   UNL A   1      37.773  32.419  31.149  1.00  0.00     0.031 A 
ATOM     30  C   UNL A   1      38.516  31.278  30.510  1.00  0.00     0.074 A 
ATOM     31  C   UNL A   1      38.127  32.860  32.372  1.00  0.00     0.049 A 
ATOM     32  N   UNL A   1      39.475  30.539  30.999  1.00  0.00    -0.248 NA
ATOM     33  C   UNL A   1      38.086  30.891  29.155  1.00  0.00     0.031 C 
ATOM     34  C   UNL A   1      37.436  33.907  33.127  1.00  0.00     0.029 A 
ATOM     35  N   UNL A   1      39.124  32.442  33.217  1.00  0.00    -0.354 N 
ATOM     36  C   UNL A   1      39.717  29.559  30.045  1.00  0.00     0.074 A 
ATOM     37  C   UNL A   1      38.789  29.785  28.958  1.00  0.00     0.031 C 
ATOM     38  C   UNL A   1      38.016  34.033  34.332  1.00  0.00     0.029 A 
ATOM     39  C   UNL A   1      39.093  33.056  34.448  1.00  0.00     0.049 A 
ATOM     40  H   UNL A   1      39.798  31.770  32.967  1.00  0.00     0.167 HD
ATOM     41  C   UNL A   1      40.645  28.573  30.058  1.00  0.00     0.034 A 
ATOM     42  C   UNL A   1      39.831  32.838  35.555  1.00  0.00     0.034 A 
ATOM     43  C   UNL A   1      41.610  28.400  31.108  1.00  0.00     0.049 A 
ATOM     44  C   UNL A   1      40.914  31.794  35.518  1.00  0.00     0.074 A 
ATOM     45  C   UNL A   1      42.663  27.506  31.170  1.00  0.00     0.029 A 
ATOM     46  N   UNL A   1      41.641  29.141  32.279  1.00  0.00    -0.354 N 
ATOM     47  N   UNL A   1      41.230  30.973  34.546  1.00  0.00    -0.248 NA
ATOM     48  C   UNL A   1      41.764  31.667  36.710  1.00  0.00     0.031 C 
ATOM     49  C   UNL A   1      43.328  27.702  32.385  1.00  0.00     0.029 A 
ATOM     50  C   UNL A   1      42.696  28.729  33.072  1.00  0.00     0.049 A 
ATOM     51  H   UNL A   1      41.006  29.856  32.512  1.00  0.00     0.167 HD
ATOM     52  C   UNL A   1      42.336  30.259  34.992  1.00  0.00     0.074 A 
ATOM     53  C   UNL A   1      42.642  30.751  36.319  1.00  0.00     0.031 C 
ATOM     54  C   UNL A   1      43.028  29.277  34.363  1.00  0.00     0.034 A 
BRANCH  41  55
ATOM     55  C   UNL A   1      40.693  27.649  28.870  1.00  0.00     0.023 A 
ATOM     56  C   UNL A   1      39.746  26.610  28.759  1.00  0.00     0.012 A 
ATOM     57  C   UNL A   1      41.657  27.814  27.858  1.00  0.00     0.148 A 
ATOM     58  C   UNL A   1      39.786  25.723  27.685  1.00  0.00     0.002 A 
ATOM     59  C   UNL A   1      41.662  26.952  26.766  1.00  0.00     0.091 A 
ATOM     60  F   UNL A   1      42.570  28.788  27.990  1.00  0.00    -0.205 F 
ATOM     61  C   UNL A   1      40.737  25.899  26.684  1.00  0.00     0.022 A 
BRANCH  59  62
ATOM     62  S   UNL A   1      42.803  27.159  25.393  1.00  0.00     0.127 S 
ATOM     63  O   UNL A   1      44.083  27.281  26.087  1.00  0.00    -0.237 OA
ATOM     64  O   UNL A   1      42.629  25.911  24.648  1.00  0.00    -0.237 OA
ATOM     65  O   UNL A   1      42.348  28.348  24.684  1.00  0.00    -0.744 OA
ENDBRANCH  59  62
ENDBRANCH  41  55
BRANCH  42  66
ATOM     66  C   UNL A   1      39.605  33.683  36.761  1.00  0.00     0.023 A 
ATOM     67  C   UNL A   1      39.974  35.042  36.727  1.00  0.00     0.012 A 
ATOM     68  C   UNL A   1      38.959  33.174  37.905  1.00  0.00     0.148 A 
ATOM     69  C   UNL A   1      39.719  35.875  37.816  1.00  0.00     0.002 A 
ATOM     70  C   UNL A   1      38.661  34.022  38.966  1.00  0.00     0.091 A 
ATOM     71  F   UNL A   1      38.622  31.876  37.919  1.00  0.00    -0.205 F 
ATOM     72  C   UNL A   1      39.051  35.369  38.929  1.00  0.00     0.022 A 
BRANCH  70  73
ATOM     73  S   UNL A   1      37.683  33.497  40.379  1.00  0.00     0.127 S 
ATOM     74  O   UNL A   1      36.453  33.039  39.738  1.00  0.00    -0.237 OA
ATOM     75  O   UNL A   1      38.516  32.434  40.944  1.00  0.00    -0.237 OA
ATOM     76  O   UNL A   1      37.553  34.673  41.229  1.00  0.00    -0.744 OA
ENDBRANCH  70  73
ENDBRANCH  42  66
BRANCH  54  77
ATOM     77  C   UNL A   1      44.218  28.686  35.069  1.00  0.00     0.023 A 
ATOM     78  C   UNL A   1      45.494  29.247  34.874  1.00  0.00     0.012 A 
ATOM     79  C   UNL A   1      44.048  27.660  36.019  1.00  0.00     0.148 A 
ATOM     80  C   UNL A   1      46.588  28.785  35.605  1.00  0.00     0.002 A 
ATOM     81  C   UNL A   1      45.132  27.235  36.776  1.00  0.00     0.091 A 
ATOM     82  F   UNL A   1      42.825  27.130  36.174  1.00  0.00    -0.205 F 
ATOM     83  C   UNL A   1      46.405  27.791  36.565  1.00  0.00     0.022 A 
BRANCH  81  84
ATOM     84  S   UNL A   1      44.972  26.030  38.098  1.00  0.00     0.127 S 
ATOM     85  O   UNL A   1      44.567  24.833  37.363  1.00  0.00    -0.237 OA
ATOM     86  O   UNL A   1      46.329  25.983  38.641  1.00  0.00    -0.237 OA
ATOM     87  O   UNL A   1      43.974  26.567  39.013  1.00  0.00    -0.744 OA
ENDBRANCH  81  84
ENDBRANCH  54  77
ENDBRANCH  28  29
ENDBRANCH  20  23
ENDBRANCH  18  19
ENDBRANCH  17  18
ENDBRANCH   1  17
TORSDOF 18
ENDMDL
