MODEL 1
REMARK VINA RESULT:     -12.6      0.000      0.000
REMARK SMILES CCOC(=O)C1CCN(c2cc(NCC(=O)NCCCNC(=O)c3ccc(-c4c5nc(c(-c6cccc(S(=O)(=O)[O-])c6F)c6ccc([nH]6)c(-c6cccc(S(=O)(=O)[O-])c6F)c6nc(c(-c7cccc(S(=O)(=O)[O-])c7F)c7ccc4[nH]7)C=C6)C=C5)cc3)c3c4c(onc24)-c2ccccc2C3=O)CC1
REMARK SMILES IDX 15 1 16 2 17 3 14 5 13 6 12 8 10 9 11 10 92 11 88 12 91 13
REMARK SMILES IDX 87 14 89 15 90 16 99 17 93 18 98 19 100 20 94 21 97 22 95 23
REMARK SMILES IDX 96 24 9 25 6 26 7 27 102 28 8 29 101 30 4 31 5 32 3 33 2 34
REMARK SMILES IDX 1 35 18 36 19 37 20 38 21 39 22 40 23 42 24 43 25 44 86 45
REMARK SMILES IDX 26 46 85 47 27 48 28 49 29 50 79 51 30 52 84 53 78 54 80 55
REMARK SMILES IDX 31 56 83 57 77 58 76 59 32 61 64 62 44 63 63 64 45 65 48 66
REMARK SMILES IDX 62 67 81 68 46 69 47 70 61 72 82 73 49 74 33 75 34 76 42 77
REMARK SMILES IDX 35 78 37 79 43 80 36 81 38 82 39 83 40 84 41 85 65 86 66 87
REMARK SMILES IDX 74 88 67 89 69 90 75 91 68 92 70 93 71 94 72 95 73 96 50 97
REMARK SMILES IDX 51 98 59 99 52 100 54 101 60 102 53 103 55 104 56 105 57 106
REMARK SMILES IDX 58 107
REMARK H PARENT 17 4 13 7 21 41 80 60 48 71
REMARK Flexibility Score: inf
ROOT
ATOM      1  C   UNL A   1      39.612  22.112  26.462  1.00  0.00     0.239 C 
ATOM      2  O   UNL A   1      39.735  20.958  26.040  1.00  0.00    -0.273 OA
ATOM      3  N   UNL A   1      40.629  22.636  27.207  1.00  0.00    -0.355 N 
ATOM      4  H   UNL A   1      41.438  22.078  27.269  1.00  0.00     0.163 HD
ENDROOT
BRANCH   1   5
ATOM      5  C   UNL A   1      38.402  22.974  26.097  1.00  0.00     0.213 C 
BRANCH   5   6
ATOM      6  N   UNL A   1      37.617  22.389  25.023  1.00  0.00    -0.375 N 
ATOM      7  H   UNL A   1      38.115  21.859  24.361  1.00  0.00     0.161 HD
BRANCH   6   8
ATOM      8  C   UNL A   1      36.246  22.490  24.819  1.00  0.00     0.049 A 
ATOM      9  C   UNL A   1      34.168  24.006  24.616  1.00  0.00     0.069 A 
ATOM     10  C   UNL A   1      35.580  23.779  24.731  1.00  0.00     0.054 A 
ATOM     11  C   UNL A   1      33.454  22.792  24.461  1.00  0.00     0.138 A 
ATOM     12  C   UNL A   1      34.148  21.569  24.544  1.00  0.00     0.065 A 
ATOM     13  N   UNL A   1      32.159  22.510  24.198  1.00  0.00    -0.077 NA
ATOM     14  C   UNL A   1      35.481  21.302  24.746  1.00  0.00     0.059 A 
ATOM     15  C   UNL A   1      33.254  20.572  24.369  1.00  0.00     0.176 A 
ATOM     16  O   UNL A   1      32.034  21.115  24.164  1.00  0.00    -0.355 OA
ATOM     17  C   UNL A   1      35.918  19.879  24.838  1.00  0.00     0.196 C 
ATOM     18  C   UNL A   1      33.528  19.164  24.354  1.00  0.00     0.032 A 
ATOM     19  C   UNL A   1      34.871  18.801  24.621  1.00  0.00     0.034 A 
ATOM     20  O   UNL A   1      37.086  19.602  25.057  1.00  0.00    -0.288 OA
ATOM     21  C   UNL A   1      32.575  18.188  24.077  1.00  0.00     0.013 A 
ATOM     22  C   UNL A   1      35.235  17.455  24.646  1.00  0.00     0.013 A 
ATOM     23  C   UNL A   1      32.952  16.843  24.084  1.00  0.00     0.001 A 
ATOM     24  C   UNL A   1      34.272  16.478  24.377  1.00  0.00     0.001 A 
BRANCH   9  25
ATOM     25  N   UNL A   1      33.607  25.255  24.752  1.00  0.00    -0.370 N 
ATOM     26  C   UNL A   1      33.528  28.111  24.821  1.00  0.00     0.103 C 
ATOM     27  C   UNL A   1      33.851  27.360  23.525  1.00  0.00     0.037 C 
ATOM     28  C   UNL A   1      33.966  27.278  26.036  1.00  0.00     0.037 C 
ATOM     29  C   UNL A   1      33.248  25.962  23.517  1.00  0.00     0.117 C 
ATOM     30  C   UNL A   1      33.346  25.877  26.029  1.00  0.00     0.117 C 
BRANCH  26  31
ATOM     31  C   UNL A   1      32.051  28.471  24.893  1.00  0.00     0.309 C 
ATOM     32  O   UNL A   1      31.347  28.417  25.885  1.00  0.00    -0.252 OA
BRANCH  31  33
ATOM     33  O   UNL A   1      31.598  28.866  23.662  1.00  0.00    -0.466 OA
BRANCH  33  34
ATOM     34  C   UNL A   1      30.276  29.424  23.667  1.00  0.00     0.229 C 
ATOM     35  C   UNL A   1      29.367  28.684  22.703  1.00  0.00     0.049 C 
ENDBRANCH  33  34
ENDBRANCH  31  33
ENDBRANCH  26  31
ENDBRANCH   9  25
ENDBRANCH   6   8
ENDBRANCH   5   6
ENDBRANCH   1   5
BRANCH   3  36
ATOM     36  C   UNL A   1      40.690  23.903  27.926  1.00  0.00     0.117 C 
BRANCH  36  37
ATOM     37  C   UNL A   1      41.565  24.920  27.199  1.00  0.00     0.042 C 
BRANCH  37  38
ATOM     38  C   UNL A   1      40.834  25.570  26.029  1.00  0.00     0.118 C 
BRANCH  38  39
ATOM     39  N   UNL A   1      41.646  26.541  25.310  1.00  0.00    -0.352 N 
ATOM     40  C   UNL A   1      41.773  27.894  25.519  1.00  0.00     0.251 C 
ATOM     41  H   UNL A   1      42.181  26.176  24.569  1.00  0.00     0.163 HD
ATOM     42  O   UNL A   1      42.445  28.572  24.749  1.00  0.00    -0.269 OA
BRANCH  40  43
ATOM     43  C   UNL A   1      41.081  28.516  26.665  1.00  0.00     0.039 A 
ATOM     44  C   UNL A   1      41.749  28.684  27.883  1.00  0.00     0.014 A 
ATOM     45  C   UNL A   1      39.756  28.924  26.519  1.00  0.00     0.014 A 
ATOM     46  C   UNL A   1      41.060  29.149  28.997  1.00  0.00     0.010 A 
ATOM     47  C   UNL A   1      39.080  29.435  27.625  1.00  0.00     0.010 A 
ATOM     48  C   UNL A   1      39.723  29.528  28.874  1.00  0.00    -0.014 A 
BRANCH  48  49
ATOM     49  C   UNL A   1      39.084  30.136  30.059  1.00  0.00     0.031 A 
ATOM     50  C   UNL A   1      39.575  29.534  31.331  1.00  0.00     0.074 A 
ATOM     51  C   UNL A   1      38.799  31.456  30.125  1.00  0.00     0.049 A 
ATOM     52  N   UNL A   1      40.720  29.902  31.811  1.00  0.00    -0.248 NA
ATOM     53  C   UNL A   1      39.026  28.341  31.966  1.00  0.00     0.031 C 
ATOM     54  C   UNL A   1      39.525  32.468  29.346  1.00  0.00     0.029 A 
ATOM     55  N   UNL A   1      38.084  32.186  31.059  1.00  0.00    -0.354 N 
ATOM     56  C   UNL A   1      41.107  28.965  32.743  1.00  0.00     0.074 A 
ATOM     57  C   UNL A   1      40.002  28.035  32.841  1.00  0.00     0.031 C 
ATOM     58  C   UNL A   1      39.390  33.654  29.966  1.00  0.00     0.029 A 
ATOM     59  C   UNL A   1      38.433  33.530  31.056  1.00  0.00     0.049 A 
ATOM     60  H   UNL A   1      37.407  31.797  31.658  1.00  0.00     0.167 HD
ATOM     61  C   UNL A   1      42.318  29.037  33.360  1.00  0.00     0.034 A 
ATOM     62  C   UNL A   1      38.257  34.427  32.062  1.00  0.00     0.034 A 
ATOM     63  C   UNL A   1      43.194  30.139  33.007  1.00  0.00     0.049 A 
ATOM     64  C   UNL A   1      39.572  34.337  32.791  1.00  0.00     0.074 A 
ATOM     65  C   UNL A   1      44.550  30.392  32.917  1.00  0.00     0.029 A 
ATOM     66  N   UNL A   1      42.600  31.310  32.618  1.00  0.00    -0.354 N 
ATOM     67  N   UNL A   1      40.721  34.819  32.385  1.00  0.00    -0.248 NA
ATOM     68  C   UNL A   1      39.669  33.369  33.897  1.00  0.00     0.031 C 
ATOM     69  C   UNL A   1      44.714  31.790  32.625  1.00  0.00     0.029 A 
ATOM     70  C   UNL A   1      43.459  32.372  32.607  1.00  0.00     0.049 A 
ATOM     71  H   UNL A   1      41.650  31.379  32.370  1.00  0.00     0.167 HD
ATOM     72  C   UNL A   1      41.663  33.962  32.942  1.00  0.00     0.074 A 
ATOM     73  C   UNL A   1      40.985  33.210  33.978  1.00  0.00     0.031 C 
ATOM     74  C   UNL A   1      42.870  33.669  32.377  1.00  0.00     0.034 A 
BRANCH  61  75
ATOM     75  C   UNL A   1      42.615  28.226  34.568  1.00  0.00     0.023 A 
ATOM     76  C   UNL A   1      42.614  28.939  35.786  1.00  0.00     0.012 A 
ATOM     77  C   UNL A   1      43.022  26.883  34.554  1.00  0.00     0.148 A 
ATOM     78  C   UNL A   1      43.026  28.338  36.971  1.00  0.00     0.002 A 
ATOM     79  C   UNL A   1      43.435  26.285  35.746  1.00  0.00     0.091 A 
ATOM     80  F   UNL A   1      43.026  26.224  33.386  1.00  0.00    -0.205 F 
ATOM     81  C   UNL A   1      43.441  27.013  36.950  1.00  0.00     0.022 A 
BRANCH  79  82
ATOM     82  S   UNL A   1      44.010  24.585  35.857  1.00  0.00     0.127 S 
ATOM     83  O   UNL A   1      45.153  24.589  34.945  1.00  0.00    -0.237 OA
ATOM     84  O   UNL A   1      44.362  24.478  37.274  1.00  0.00    -0.237 OA
ATOM     85  O   UNL A   1      42.888  23.753  35.446  1.00  0.00    -0.744 OA
ENDBRANCH  79  82
ENDBRANCH  61  75
BRANCH  62  86
ATOM     86  C   UNL A   1      36.919  34.507  32.731  1.00  0.00     0.023 A 
ATOM     87  C   UNL A   1      36.861  34.203  34.115  1.00  0.00     0.012 A 
ATOM     88  C   UNL A   1      35.701  34.781  32.081  1.00  0.00     0.148 A 
ATOM     89  C   UNL A   1      35.667  34.267  34.838  1.00  0.00     0.002 A 
ATOM     90  C   UNL A   1      34.521  34.903  32.815  1.00  0.00     0.091 A 
ATOM     91  F   UNL A   1      35.693  34.916  30.750  1.00  0.00    -0.205 F 
ATOM     92  C   UNL A   1      34.499  34.645  34.192  1.00  0.00     0.022 A 
BRANCH  90  93
ATOM     93  S   UNL A   1      32.977  35.450  32.073  1.00  0.00     0.127 S 
ATOM     94  O   UNL A   1      33.132  36.904  32.078  1.00  0.00    -0.237 OA
ATOM     95  O   UNL A   1      33.058  34.825  30.755  1.00  0.00    -0.237 OA
ATOM     96  O   UNL A   1      31.923  34.944  32.941  1.00  0.00    -0.744 OA
ENDBRANCH  90  93
ENDBRANCH  62  86
BRANCH  74  97
ATOM     97  C   UNL A   1      43.479  34.658  31.447  1.00  0.00     0.023 A 
ATOM     98  C   UNL A   1      44.217  35.719  32.009  1.00  0.00     0.012 A 
ATOM     99  C   UNL A   1      43.451  34.509  30.050  1.00  0.00     0.148 A 
ATOM    100  C   UNL A   1      44.923  36.609  31.204  1.00  0.00     0.002 A 
ATOM    101  C   UNL A   1      44.185  35.383  29.252  1.00  0.00     0.091 A 
ATOM    102  F   UNL A   1      42.738  33.506  29.512  1.00  0.00    -0.205 F 
ATOM    103  C   UNL A   1      44.913  36.438  29.824  1.00  0.00     0.022 A 
BRANCH 101 104
ATOM    104  S   UNL A   1      44.276  35.159  27.474  1.00  0.00     0.127 S 
ATOM    105  O   UNL A   1      45.134  36.268  27.049  1.00  0.00    -0.237 OA
ATOM    106  O   UNL A   1      44.909  33.848  27.361  1.00  0.00    -0.237 OA
ATOM    107  O   UNL A   1      42.897  35.244  27.010  1.00  0.00    -0.744 OA
ENDBRANCH 101 104
ENDBRANCH  74  97
ENDBRANCH  48  49
ENDBRANCH  40  43
ENDBRANCH  38  39
ENDBRANCH  37  38
ENDBRANCH  36  37
ENDBRANCH   3  36
TORSDOF 19
ENDMDL
MODEL 2
REMARK VINA RESULT:     -12.5      4.547      6.802
REMARK SMILES CCOC(=O)C1CCN(c2cc(NCC(=O)NCCCNC(=O)c3ccc(-c4c5nc(c(-c6cccc(S(=O)(=O)[O-])c6F)c6ccc([nH]6)c(-c6cccc(S(=O)(=O)[O-])c6F)c6nc(c(-c7cccc(S(=O)(=O)[O-])c7F)c7ccc4[nH]7)C=C6)C=C5)cc3)c3c4c(onc24)-c2ccccc2C3=O)CC1
REMARK SMILES IDX 15 1 16 2 17 3 14 5 13 6 12 8 10 9 11 10 92 11 88 12 91 13
REMARK SMILES IDX 87 14 89 15 90 16 99 17 93 18 98 19 100 20 94 21 97 22 95 23
REMARK SMILES IDX 96 24 9 25 6 26 7 27 102 28 8 29 101 30 4 31 5 32 3 33 2 34
REMARK SMILES IDX 1 35 18 36 19 37 20 38 21 39 22 40 23 42 24 43 25 44 86 45
REMARK SMILES IDX 26 46 85 47 27 48 28 49 29 50 79 51 30 52 84 53 78 54 80 55
REMARK SMILES IDX 31 56 83 57 77 58 76 59 32 61 64 62 44 63 63 64 45 65 48 66
REMARK SMILES IDX 62 67 81 68 46 69 47 70 61 72 82 73 49 74 33 75 34 76 42 77
REMARK SMILES IDX 35 78 37 79 43 80 36 81 38 82 39 83 40 84 41 85 65 86 66 87
REMARK SMILES IDX 74 88 67 89 69 90 75 91 68 92 70 93 71 94 72 95 73 96 50 97
REMARK SMILES IDX 51 98 59 99 52 100 54 101 60 102 53 103 55 104 56 105 57 106
REMARK SMILES IDX 58 107
REMARK H PARENT 17 4 13 7 21 41 80 60 48 71
REMARK Flexibility Score: inf
ROOT
ATOM      1  C   UNL A   1      38.444  23.782  26.433  1.00  0.00     0.239 C 
ATOM      2  O   UNL A   1      38.569  24.773  27.159  1.00  0.00    -0.273 OA
ATOM      3  N   UNL A   1      39.184  22.672  26.726  1.00  0.00    -0.355 N 
ATOM      4  H   UNL A   1      39.696  22.716  27.565  1.00  0.00     0.163 HD
ENDROOT
BRANCH   1   5
ATOM      5  C   UNL A   1      37.430  23.751  25.288  1.00  0.00     0.213 C 
BRANCH   5   6
ATOM      6  N   UNL A   1      36.066  23.611  25.768  1.00  0.00    -0.375 N 
ATOM      7  H   UNL A   1      35.954  23.546  26.743  1.00  0.00     0.161 HD
BRANCH   6   8
ATOM      8  C   UNL A   1      34.900  23.560  25.014  1.00  0.00     0.049 A 
ATOM      9  C   UNL A   1      32.948  24.835  23.908  1.00  0.00     0.069 A 
ATOM     10  C   UNL A   1      34.201  24.767  24.604  1.00  0.00     0.054 A 
ATOM     11  C   UNL A   1      32.492  23.550  23.525  1.00  0.00     0.138 A 
ATOM     12  C   UNL A   1      33.211  22.411  23.939  1.00  0.00     0.065 A 
ATOM     13  N   UNL A   1      31.459  23.127  22.765  1.00  0.00    -0.077 NA
ATOM     14  C   UNL A   1      34.360  22.294  24.683  1.00  0.00     0.059 A 
ATOM     15  C   UNL A   1      32.577  21.322  23.455  1.00  0.00     0.176 A 
ATOM     16  O   UNL A   1      31.503  21.727  22.742  1.00  0.00    -0.355 OA
ATOM     17  C   UNL A   1      34.864  20.928  25.008  1.00  0.00     0.196 C 
ATOM     18  C   UNL A   1      32.976  19.953  23.614  1.00  0.00     0.032 A 
ATOM     19  C   UNL A   1      34.117  19.742  24.426  1.00  0.00     0.034 A 
ATOM     20  O   UNL A   1      35.857  20.782  25.701  1.00  0.00    -0.288 OA
ATOM     21  C   UNL A   1      32.329  18.878  23.012  1.00  0.00     0.013 A 
ATOM     22  C   UNL A   1      34.574  18.444  24.657  1.00  0.00     0.013 A 
ATOM     23  C   UNL A   1      32.805  17.584  23.231  1.00  0.00     0.001 A 
ATOM     24  C   UNL A   1      33.915  17.367  24.057  1.00  0.00     0.001 A 
BRANCH   9  25
ATOM     25  N   UNL A   1      32.257  26.014  23.747  1.00  0.00    -0.370 N 
ATOM     26  C   UNL A   1      31.625  28.771  24.155  1.00  0.00     0.103 C 
ATOM     27  C   UNL A   1      32.938  28.352  23.487  1.00  0.00     0.037 C 
ATOM     28  C   UNL A   1      31.151  27.674  25.122  1.00  0.00     0.037 C 
ATOM     29  C   UNL A   1      32.819  26.993  22.809  1.00  0.00     0.117 C 
ATOM     30  C   UNL A   1      31.021  26.313  24.431  1.00  0.00     0.117 C 
BRANCH  26  31
ATOM     31  C   UNL A   1      30.561  29.098  23.116  1.00  0.00     0.309 C 
ATOM     32  O   UNL A   1      30.366  28.497  22.075  1.00  0.00    -0.252 OA
BRANCH  31  33
ATOM     33  O   UNL A   1      29.835  30.192  23.507  1.00  0.00    -0.466 OA
BRANCH  33  34
ATOM     34  C   UNL A   1      28.437  30.120  23.193  1.00  0.00     0.229 C 
ATOM     35  C   UNL A   1      27.727  31.409  23.565  1.00  0.00     0.049 C 
ENDBRANCH  33  34
ENDBRANCH  31  33
ENDBRANCH  26  31
ENDBRANCH   9  25
ENDBRANCH   6   8
ENDBRANCH   5   6
ENDBRANCH   1   5
BRANCH   3  36
ATOM     36  C   UNL A   1      39.326  21.432  25.973  1.00  0.00     0.117 C 
BRANCH  36  37
ATOM     37  C   UNL A   1      40.488  20.589  26.493  1.00  0.00     0.042 C 
BRANCH  37  38
ATOM     38  C   UNL A   1      41.730  21.433  26.764  1.00  0.00     0.118 C 
BRANCH  38  39
ATOM     39  N   UNL A   1      42.796  21.216  25.799  1.00  0.00    -0.352 N 
ATOM     40  C   UNL A   1      43.672  22.123  25.250  1.00  0.00     0.251 C 
ATOM     41  H   UNL A   1      42.907  20.286  25.496  1.00  0.00     0.163 HD
ATOM     42  O   UNL A   1      44.456  21.766  24.378  1.00  0.00    -0.269 OA
BRANCH  40  43
ATOM     43  C   UNL A   1      43.644  23.524  25.713  1.00  0.00     0.039 A 
ATOM     44  C   UNL A   1      42.933  24.490  24.991  1.00  0.00     0.014 A 
ATOM     45  C   UNL A   1      44.340  23.872  26.870  1.00  0.00     0.014 A 
ATOM     46  C   UNL A   1      43.015  25.829  25.353  1.00  0.00     0.010 A 
ATOM     47  C   UNL A   1      44.381  25.209  27.259  1.00  0.00     0.010 A 
ATOM     48  C   UNL A   1      43.738  26.196  26.489  1.00  0.00    -0.014 A 
BRANCH  48  49
ATOM     49  C   UNL A   1      43.678  27.615  26.895  1.00  0.00     0.031 A 
ATOM     50  C   UNL A   1      43.264  27.774  28.316  1.00  0.00     0.074 A 
ATOM     51  C   UNL A   1      44.575  28.528  26.456  1.00  0.00     0.049 A 
ATOM     52  N   UNL A   1      44.131  27.584  29.260  1.00  0.00    -0.248 NA
ATOM     53  C   UNL A   1      41.886  27.847  28.790  1.00  0.00     0.031 C 
ATOM     54  C   UNL A   1      45.929  28.166  26.018  1.00  0.00     0.029 A 
ATOM     55  N   UNL A   1      44.612  29.904  26.592  1.00  0.00    -0.354 N 
ATOM     56  C   UNL A   1      43.440  27.421  30.440  1.00  0.00     0.074 A 
ATOM     57  C   UNL A   1      42.048  27.637  30.109  1.00  0.00     0.031 C 
ATOM     58  C   UNL A   1      46.713  29.253  26.130  1.00  0.00     0.029 A 
ATOM     59  C   UNL A   1      45.897  30.413  26.459  1.00  0.00     0.049 A 
ATOM     60  H   UNL A   1      43.818  30.460  26.765  1.00  0.00     0.167 HD
ATOM     61  C   UNL A   1      44.084  27.117  31.601  1.00  0.00     0.034 A 
ATOM     62  C   UNL A   1      46.362  31.604  26.921  1.00  0.00     0.034 A 
ATOM     63  C   UNL A   1      45.527  26.973  31.559  1.00  0.00     0.049 A 
ATOM     64  C   UNL A   1      46.914  31.220  28.268  1.00  0.00     0.074 A 
ATOM     65  C   UNL A   1      46.512  26.252  32.206  1.00  0.00     0.029 A 
ATOM     66  N   UNL A   1      46.202  27.713  30.624  1.00  0.00    -0.354 N 
ATOM     67  N   UNL A   1      48.018  30.552  28.494  1.00  0.00    -0.248 NA
ATOM     68  C   UNL A   1      46.007  31.317  29.424  1.00  0.00     0.031 C 
ATOM     69  C   UNL A   1      47.783  26.724  31.729  1.00  0.00     0.029 A 
ATOM     70  C   UNL A   1      47.548  27.765  30.848  1.00  0.00     0.049 A 
ATOM     71  H   UNL A   1      45.761  28.161  29.867  1.00  0.00     0.167 HD
ATOM     72  C   UNL A   1      47.766  29.876  29.683  1.00  0.00     0.074 A 
ATOM     73  C   UNL A   1      46.608  30.503  30.285  1.00  0.00     0.031 C 
ATOM     74  C   UNL A   1      48.303  28.665  30.010  1.00  0.00     0.034 A 
BRANCH  61  75
ATOM     75  C   UNL A   1      43.400  27.241  32.914  1.00  0.00     0.023 A 
ATOM     76  C   UNL A   1      43.013  28.551  33.269  1.00  0.00     0.012 A 
ATOM     77  C   UNL A   1      43.254  26.201  33.845  1.00  0.00     0.148 A 
ATOM     78  C   UNL A   1      42.504  28.832  34.532  1.00  0.00     0.002 A 
ATOM     79  C   UNL A   1      42.744  26.489  35.111  1.00  0.00     0.091 A 
ATOM     80  F   UNL A   1      43.637  24.965  33.493  1.00  0.00    -0.205 F 
ATOM     81  C   UNL A   1      42.375  27.803  35.455  1.00  0.00     0.022 A 
BRANCH  79  82
ATOM     82  S   UNL A   1      42.539  25.256  36.403  1.00  0.00     0.127 S 
ATOM     83  O   UNL A   1      41.906  26.033  37.469  1.00  0.00    -0.237 OA
ATOM     84  O   UNL A   1      41.658  24.283  35.755  1.00  0.00    -0.237 OA
ATOM     85  O   UNL A   1      43.875  24.761  36.703  1.00  0.00    -0.744 OA
ENDBRANCH  79  82
ENDBRANCH  61  75
BRANCH  62  86
ATOM     86  C   UNL A   1      45.562  32.843  26.651  1.00  0.00     0.023 A 
ATOM     87  C   UNL A   1      44.502  32.746  25.715  1.00  0.00     0.012 A 
ATOM     88  C   UNL A   1      45.829  34.115  27.191  1.00  0.00     0.148 A 
ATOM     89  C   UNL A   1      43.683  33.835  25.407  1.00  0.00     0.002 A 
ATOM     90  C   UNL A   1      44.975  35.186  26.929  1.00  0.00     0.091 A 
ATOM     91  F   UNL A   1      46.916  34.280  27.953  1.00  0.00    -0.205 F 
ATOM     92  C   UNL A   1      43.903  35.051  26.037  1.00  0.00     0.022 A 
BRANCH  90  93
ATOM     93  S   UNL A   1      45.146  36.777  27.749  1.00  0.00     0.127 S 
ATOM     94  O   UNL A   1      44.108  37.573  27.095  1.00  0.00    -0.237 OA
ATOM     95  O   UNL A   1      44.862  36.414  29.136  1.00  0.00    -0.237 OA
ATOM     96  O   UNL A   1      46.509  37.213  27.483  1.00  0.00    -0.744 OA
ENDBRANCH  90  93
ENDBRANCH  62  86
BRANCH  74  97
ATOM     97  C   UNL A   1      49.597  28.269  29.392  1.00  0.00     0.023 A 
ATOM     98  C   UNL A   1      50.777  28.813  29.936  1.00  0.00     0.012 A 
ATOM     99  C   UNL A   1      49.694  27.295  28.383  1.00  0.00     0.148 A 
ATOM    100  C   UNL A   1      52.030  28.393  29.498  1.00  0.00     0.002 A 
ATOM    101  C   UNL A   1      50.950  26.856  27.972  1.00  0.00     0.091 A 
ATOM    102  F   UNL A   1      48.570  26.785  27.855  1.00  0.00    -0.205 F 
ATOM    103  C   UNL A   1      52.118  27.409  28.520  1.00  0.00     0.022 A 
BRANCH 101 104
ATOM    104  S   UNL A   1      51.123  25.530  26.775  1.00  0.00     0.127 S 
ATOM    105  O   UNL A   1      50.529  26.104  25.566  1.00  0.00    -0.237 OA
ATOM    106  O   UNL A   1      52.573  25.369  26.702  1.00  0.00    -0.237 OA
ATOM    107  O   UNL A   1      50.384  24.409  27.344  1.00  0.00    -0.744 OA
ENDBRANCH 101 104
ENDBRANCH  74  97
ENDBRANCH  48  49
ENDBRANCH  40  43
ENDBRANCH  38  39
ENDBRANCH  37  38
ENDBRANCH  36  37
ENDBRANCH   3  36
TORSDOF 19
ENDMDL
MODEL 3
REMARK VINA RESULT:     -12.4      2.659      7.402
REMARK SMILES CCOC(=O)C1CCN(c2cc(NCC(=O)NCCCNC(=O)c3ccc(-c4c5nc(c(-c6cccc(S(=O)(=O)[O-])c6F)c6ccc([nH]6)c(-c6cccc(S(=O)(=O)[O-])c6F)c6nc(c(-c7cccc(S(=O)(=O)[O-])c7F)c7ccc4[nH]7)C=C6)C=C5)cc3)c3c4c(onc24)-c2ccccc2C3=O)CC1
REMARK SMILES IDX 15 1 16 2 17 3 14 5 13 6 12 8 10 9 11 10 92 11 88 12 91 13
REMARK SMILES IDX 87 14 89 15 90 16 99 17 93 18 98 19 100 20 94 21 97 22 95 23
REMARK SMILES IDX 96 24 9 25 6 26 7 27 102 28 8 29 101 30 4 31 5 32 3 33 2 34
REMARK SMILES IDX 1 35 18 36 19 37 20 38 21 39 22 40 23 42 24 43 25 44 86 45
REMARK SMILES IDX 26 46 85 47 27 48 28 49 29 50 79 51 30 52 84 53 78 54 80 55
REMARK SMILES IDX 31 56 83 57 77 58 76 59 32 61 64 62 44 63 63 64 45 65 48 66
REMARK SMILES IDX 62 67 81 68 46 69 47 70 61 72 82 73 49 74 33 75 34 76 42 77
REMARK SMILES IDX 35 78 37 79 43 80 36 81 38 82 39 83 40 84 41 85 65 86 66 87
REMARK SMILES IDX 74 88 67 89 69 90 75 91 68 92 70 93 71 94 72 95 73 96 50 97
REMARK SMILES IDX 51 98 59 99 52 100 54 101 60 102 53 103 55 104 56 105 57 106
REMARK SMILES IDX 58 107
REMARK H PARENT 17 4 13 7 21 41 80 60 48 71
REMARK Flexibility Score: inf
ROOT
ATOM      1  C   UNL A   1      38.470  23.948  26.527  1.00  0.00     0.239 C 
ATOM      2  O   UNL A   1      38.494  24.985  27.196  1.00  0.00    -0.273 OA
ATOM      3  N   UNL A   1      39.348  22.954  26.850  1.00  0.00    -0.355 N 
ATOM      4  H   UNL A   1      39.874  23.105  27.668  1.00  0.00     0.163 HD
ENDROOT
BRANCH   1   5
ATOM      5  C   UNL A   1      37.435  23.732  25.421  1.00  0.00     0.213 C 
BRANCH   5   6
ATOM      6  N   UNL A   1      36.088  23.599  25.951  1.00  0.00    -0.375 N 
ATOM      7  H   UNL A   1      36.011  23.531  26.929  1.00  0.00     0.161 HD
BRANCH   6   8
ATOM      8  C   UNL A   1      34.895  23.555  25.239  1.00  0.00     0.049 A 
ATOM      9  C   UNL A   1      32.869  24.833  24.279  1.00  0.00     0.069 A 
ATOM     10  C   UNL A   1      34.150  24.762  24.922  1.00  0.00     0.054 A 
ATOM     11  C   UNL A   1      32.432  23.558  23.843  1.00  0.00     0.138 A 
ATOM     12  C   UNL A   1      33.197  22.420  24.166  1.00  0.00     0.065 A 
ATOM     13  N   UNL A   1      31.382  23.148  23.099  1.00  0.00    -0.077 NA
ATOM     14  C   UNL A   1      34.376  22.295  24.859  1.00  0.00     0.059 A 
ATOM     15  C   UNL A   1      32.573  21.340  23.646  1.00  0.00     0.176 A 
ATOM     16  O   UNL A   1      31.461  21.753  22.998  1.00  0.00    -0.355 OA
ATOM     17  C   UNL A   1      34.928  20.928  25.089  1.00  0.00     0.196 C 
ATOM     18  C   UNL A   1      33.013  19.977  23.715  1.00  0.00     0.032 A 
ATOM     19  C   UNL A   1      34.191  19.754  24.470  1.00  0.00     0.034 A 
ATOM     20  O   UNL A   1      35.951  20.772  25.735  1.00  0.00    -0.288 OA
ATOM     21  C   UNL A   1      32.372  18.918  23.078  1.00  0.00     0.013 A 
ATOM     22  C   UNL A   1      34.690  18.459  24.612  1.00  0.00     0.013 A 
ATOM     23  C   UNL A   1      32.890  17.628  23.208  1.00  0.00     0.001 A 
ATOM     24  C   UNL A   1      34.036  17.398  23.978  1.00  0.00     0.001 A 
BRANCH   9  25
ATOM     25  N   UNL A   1      32.142  25.999  24.209  1.00  0.00    -0.370 N 
ATOM     26  C   UNL A   1      31.666  28.815  24.315  1.00  0.00     0.103 C 
ATOM     27  C   UNL A   1      32.573  28.206  23.240  1.00  0.00     0.037 C 
ATOM     28  C   UNL A   1      31.691  27.944  25.581  1.00  0.00     0.037 C 
ATOM     29  C   UNL A   1      32.213  26.754  22.953  1.00  0.00     0.117 C 
ATOM     30  C   UNL A   1      31.315  26.488  25.287  1.00  0.00     0.117 C 
BRANCH  26  31
ATOM     31  C   UNL A   1      30.248  29.004  23.794  1.00  0.00     0.309 C 
ATOM     32  O   UNL A   1      29.538  28.137  23.318  1.00  0.00    -0.252 OA
BRANCH  31  33
ATOM     33  O   UNL A   1      29.865  30.312  23.922  1.00  0.00    -0.466 OA
BRANCH  33  34
ATOM     34  C   UNL A   1      28.951  30.765  22.913  1.00  0.00     0.229 C 
ATOM     35  C   UNL A   1      27.769  31.488  23.532  1.00  0.00     0.049 C 
ENDBRANCH  33  34
ENDBRANCH  31  33
ENDBRANCH  26  31
ENDBRANCH   9  25
ENDBRANCH   6   8
ENDBRANCH   5   6
ENDBRANCH   1   5
BRANCH   3  36
ATOM     36  C   UNL A   1      39.619  21.700  26.158  1.00  0.00     0.117 C 
BRANCH  36  37
ATOM     37  C   UNL A   1      41.112  21.387  26.126  1.00  0.00     0.042 C 
BRANCH  37  38
ATOM     38  C   UNL A   1      41.945  22.510  26.735  1.00  0.00     0.118 C 
BRANCH  38  39
ATOM     39  N   UNL A   1      42.424  22.210  28.075  1.00  0.00    -0.352 N 
ATOM     40  C   UNL A   1      42.908  23.064  29.038  1.00  0.00     0.251 C 
ATOM     41  H   UNL A   1      42.398  21.259  28.329  1.00  0.00     0.163 HD
ATOM     42  O   UNL A   1      43.352  22.614  30.089  1.00  0.00    -0.269 OA
BRANCH  40  43
ATOM     43  C   UNL A   1      42.900  24.518  28.784  1.00  0.00     0.039 A 
ATOM     44  C   UNL A   1      41.784  25.287  29.135  1.00  0.00     0.014 A 
ATOM     45  C   UNL A   1      44.011  25.110  28.186  1.00  0.00     0.014 A 
ATOM     46  C   UNL A   1      41.724  26.629  28.778  1.00  0.00     0.010 A 
ATOM     47  C   UNL A   1      43.968  26.467  27.872  1.00  0.00     0.010 A 
ATOM     48  C   UNL A   1      42.815  27.226  28.146  1.00  0.00    -0.014 A 
BRANCH  48  49
ATOM     49  C   UNL A   1      42.742  28.683  27.911  1.00  0.00     0.031 A 
ATOM     50  C   UNL A   1      41.341  29.151  27.721  1.00  0.00     0.074 A 
ATOM     51  C   UNL A   1      43.553  29.557  28.549  1.00  0.00     0.049 A 
ATOM     52  N   UNL A   1      40.579  29.321  28.755  1.00  0.00    -0.248 NA
ATOM     53  C   UNL A   1      40.623  29.169  26.452  1.00  0.00     0.031 C 
ATOM     54  C   UNL A   1      44.167  29.268  29.852  1.00  0.00     0.029 A 
ATOM     55  N   UNL A   1      43.747  30.915  28.370  1.00  0.00    -0.354 N 
ATOM     56  C   UNL A   1      39.276  29.383  28.312  1.00  0.00     0.074 A 
ATOM     57  C   UNL A   1      39.353  29.330  26.868  1.00  0.00     0.031 C 
ATOM     58  C   UNL A   1      44.471  30.436  30.444  1.00  0.00     0.029 A 
ATOM     59  C   UNL A   1      44.256  31.529  29.507  1.00  0.00     0.049 A 
ATOM     60  H   UNL A   1      43.547  31.392  27.533  1.00  0.00     0.167 HD
ATOM     61  C   UNL A   1      38.235  29.472  29.185  1.00  0.00     0.034 A 
ATOM     62  C   UNL A   1      44.186  32.848  29.829  1.00  0.00     0.034 A 
ATOM     63  C   UNL A   1      38.540  29.504  30.604  1.00  0.00     0.049 A 
ATOM     64  C   UNL A   1      42.930  32.898  30.659  1.00  0.00     0.074 A 
ATOM     65  C   UNL A   1      37.962  29.105  31.793  1.00  0.00     0.029 A 
ATOM     66  N   UNL A   1      39.737  30.057  30.973  1.00  0.00    -0.354 N 
ATOM     67  N   UNL A   1      42.790  32.455  31.884  1.00  0.00    -0.248 NA
ATOM     68  C   UNL A   1      41.665  33.175  29.958  1.00  0.00     0.031 C 
ATOM     69  C   UNL A   1      38.786  29.593  32.865  1.00  0.00     0.029 A 
ATOM     70  C   UNL A   1      39.814  30.334  32.308  1.00  0.00     0.049 A 
ATOM     71  H   UNL A   1      40.470  30.235  30.339  1.00  0.00     0.167 HD
ATOM     72  C   UNL A   1      41.452  32.083  31.958  1.00  0.00     0.074 A 
ATOM     73  C   UNL A   1      40.784  32.693  30.827  1.00  0.00     0.031 C 
ATOM     74  C   UNL A   1      40.974  31.074  32.743  1.00  0.00     0.034 A 
BRANCH  61  75
ATOM     75  C   UNL A   1      36.874  29.844  28.722  1.00  0.00     0.023 A 
ATOM     76  C   UNL A   1      36.205  28.855  27.968  1.00  0.00     0.012 A 
ATOM     77  C   UNL A   1      36.298  31.116  28.859  1.00  0.00     0.148 A 
ATOM     78  C   UNL A   1      34.992  29.126  27.344  1.00  0.00     0.002 A 
ATOM     79  C   UNL A   1      35.080  31.382  28.229  1.00  0.00     0.091 A 
ATOM     80  F   UNL A   1      36.952  32.046  29.570  1.00  0.00    -0.205 F 
ATOM     81  C   UNL A   1      34.433  30.390  27.470  1.00  0.00     0.022 A 
BRANCH  79  82
ATOM     82  S   UNL A   1      34.255  32.978  28.298  1.00  0.00     0.127 S 
ATOM     83  O   UNL A   1      35.217  33.849  27.624  1.00  0.00    -0.237 OA
ATOM     84  O   UNL A   1      33.032  32.718  27.536  1.00  0.00    -0.237 OA
ATOM     85  O   UNL A   1      34.042  33.260  29.711  1.00  0.00    -0.744 OA
ENDBRANCH  79  82
ENDBRANCH  61  75
BRANCH  62  86
ATOM     86  C   UNL A   1      44.561  33.865  28.794  1.00  0.00     0.023 A 
ATOM     87  C   UNL A   1      43.525  34.367  27.967  1.00  0.00     0.012 A 
ATOM     88  C   UNL A   1      45.871  34.302  28.523  1.00  0.00     0.148 A 
ATOM     89  C   UNL A   1      43.764  35.332  26.984  1.00  0.00     0.002 A 
ATOM     90  C   UNL A   1      46.099  35.308  27.583  1.00  0.00     0.091 A 
ATOM     91  F   UNL A   1      46.892  33.733  29.173  1.00  0.00    -0.205 F 
ATOM     92  C   UNL A   1      45.049  35.825  26.812  1.00  0.00     0.022 A 
BRANCH  90  93
ATOM     93  S   UNL A   1      47.719  36.049  27.339  1.00  0.00     0.127 S 
ATOM     94  O   UNL A   1      48.587  34.874  27.266  1.00  0.00    -0.237 OA
ATOM     95  O   UNL A   1      47.522  36.750  26.072  1.00  0.00    -0.237 OA
ATOM     96  O   UNL A   1      47.939  36.902  28.498  1.00  0.00    -0.744 OA
ENDBRANCH  90  93
ENDBRANCH  62  86
BRANCH  74  97
ATOM     97  C   UNL A   1      41.738  30.698  33.962  1.00  0.00     0.023 A 
ATOM     98  C   UNL A   1      41.565  31.490  35.116  1.00  0.00     0.012 A 
ATOM     99  C   UNL A   1      42.518  29.532  34.045  1.00  0.00     0.148 A 
ATOM    100  C   UNL A   1      42.143  31.128  36.329  1.00  0.00     0.002 A 
ATOM    101  C   UNL A   1      43.068  29.159  35.269  1.00  0.00     0.091 A 
ATOM    102  F   UNL A   1      42.695  28.783  32.944  1.00  0.00    -0.205 F 
ATOM    103  C   UNL A   1      42.890  29.959  36.409  1.00  0.00     0.022 A 
BRANCH 101 104
ATOM    104  S   UNL A   1      43.969  27.618  35.449  1.00  0.00     0.127 S 
ATOM    105  O   UNL A   1      44.988  27.712  34.402  1.00  0.00    -0.237 OA
ATOM    106  O   UNL A   1      44.503  27.730  36.804  1.00  0.00    -0.237 OA
ATOM    107  O   UNL A   1      42.975  26.572  35.240  1.00  0.00    -0.744 OA
ENDBRANCH 101 104
ENDBRANCH  74  97
ENDBRANCH  48  49
ENDBRANCH  40  43
ENDBRANCH  38  39
ENDBRANCH  37  38
ENDBRANCH  36  37
ENDBRANCH   3  36
TORSDOF 19
ENDMDL
