MODEL 1
REMARK VINA RESULT:     -12.4      0.000      0.000
REMARK SMILES Cc1nc(C(=O)NCCCNC(=O)c2ccc(-c3c4nc(c(-c5cccc(S(=O)(=O)[O-])c5F)c5ccc([nH]5)c(-c5cccc(S(=O)(=O)[O-])c5F)c5nc(c(-c6cccc(S(=O)(=O)[O-])c6F)c6ccc3[nH]6)C=C5)C=C4)cc2)nn1-c1cccc(C(F)(F)F)c1
REMARK SMILES IDX 9 1 8 2 7 3 5 4 6 5 4 7 1 8 2 9 3 10 78 11 77 12 79 13 80 14
REMARK SMILES IDX 88 15 81 16 83 17 82 18 84 19 85 20 86 21 87 22 10 23 11 24
REMARK SMILES IDX 12 25 13 27 14 28 15 29 76 30 16 31 75 32 17 33 18 34 19 35
REMARK SMILES IDX 69 36 20 37 74 38 68 39 70 40 21 41 73 42 67 43 66 44 22 46
REMARK SMILES IDX 54 47 34 48 53 49 35 50 38 51 52 52 71 53 36 54 37 55 51 57
REMARK SMILES IDX 72 58 39 59 23 60 24 61 32 62 25 63 27 64 33 65 26 66 28 67
REMARK SMILES IDX 29 68 30 69 31 70 55 71 56 72 64 73 57 74 59 75 65 76 58 77
REMARK SMILES IDX 60 78 61 79 62 80 63 81 40 82 41 83 49 84 42 85 44 86 50 87
REMARK SMILES IDX 43 88 45 89 46 90 47 91 48 92
REMARK H PARENT 7 6 11 26 70 45 38 56
REMARK Flexibility Score: inf
ROOT
ATOM      1  C   UNL A   1      37.798  19.750  24.930  1.00  0.00     0.042 C 
ENDROOT
BRANCH   1   2
ATOM      2  C   UNL A   1      36.661  20.772  25.028  1.00  0.00     0.118 C 
BRANCH   2   3
ATOM      3  N   UNL A   1      35.356  20.168  25.263  1.00  0.00    -0.349 N 
ATOM      4  C   UNL A   1      34.076  20.681  25.129  1.00  0.00     0.290 C 
ATOM      5  O   UNL A   1      33.137  19.924  25.374  1.00  0.00    -0.266 OA
ATOM      6  H   UNL A   1      35.390  19.234  25.571  1.00  0.00     0.163 HD
BRANCH   4   7
ATOM      7  C   UNL A   1      33.860  22.091  24.736  1.00  0.00     0.239 A 
ATOM      8  C   UNL A   1      33.298  24.742  22.401  1.00  0.00     0.090 C 
ATOM      9  C   UNL A   1      33.391  23.780  23.523  1.00  0.00     0.130 A 
ATOM     10  N   UNL A   1      33.699  22.503  23.426  1.00  0.00    -0.207 NA
ATOM     11  N   UNL A   1      33.292  24.108  24.858  1.00  0.00    -0.217 N 
ATOM     12  N   UNL A   1      33.817  23.118  25.599  1.00  0.00    -0.140 NA
BRANCH  11  13
ATOM     13  C   UNL A   1      32.652  25.183  25.519  1.00  0.00     0.067 A 
ATOM     14  C   UNL A   1      31.252  25.180  25.612  1.00  0.00     0.028 A 
ATOM     15  C   UNL A   1      33.378  26.304  25.933  1.00  0.00     0.041 A 
ATOM     16  C   UNL A   1      30.582  26.276  26.148  1.00  0.00     0.003 A 
ATOM     17  C   UNL A   1      32.703  27.432  26.430  1.00  0.00     0.058 A 
ATOM     18  C   UNL A   1      31.303  27.398  26.553  1.00  0.00     0.013 A 
BRANCH  17  19
ATOM     19  C   UNL A   1      33.451  28.694  26.787  1.00  0.00     0.416 C 
ATOM     20  F   UNL A   1      33.779  29.434  25.693  1.00  0.00    -0.166 F 
ATOM     21  F   UNL A   1      32.721  29.517  27.590  1.00  0.00    -0.166 F 
ATOM     22  F   UNL A   1      34.618  28.465  27.450  1.00  0.00    -0.166 F 
ENDBRANCH  17  19
ENDBRANCH  11  13
ENDBRANCH   4   7
ENDBRANCH   2   3
ENDBRANCH   1   2
BRANCH   1  23
ATOM     23  C   UNL A   1      39.027  20.205  25.703  1.00  0.00     0.118 C 
BRANCH  23  24
ATOM     24  N   UNL A   1      40.085  19.184  25.720  1.00  0.00    -0.352 N 
ATOM     25  C   UNL A   1      41.432  19.342  25.971  1.00  0.00     0.251 C 
ATOM     26  H   UNL A   1      39.792  18.264  25.526  1.00  0.00     0.163 HD
ATOM     27  O   UNL A   1      42.232  18.454  25.683  1.00  0.00    -0.269 OA
BRANCH  25  28
ATOM     28  C   UNL A   1      41.898  20.605  26.564  1.00  0.00     0.039 A 
ATOM     29  C   UNL A   1      42.325  21.664  25.759  1.00  0.00     0.014 A 
ATOM     30  C   UNL A   1      41.814  20.745  27.945  1.00  0.00     0.014 A 
ATOM     31  C   UNL A   1      42.560  22.906  26.348  1.00  0.00     0.010 A 
ATOM     32  C   UNL A   1      41.890  22.001  28.495  1.00  0.00     0.010 A 
ATOM     33  C   UNL A   1      42.307  23.080  27.716  1.00  0.00    -0.014 A 
BRANCH  33  34
ATOM     34  C   UNL A   1      42.381  24.403  28.333  1.00  0.00     0.031 A 
ATOM     35  C   UNL A   1      41.207  25.301  28.133  1.00  0.00     0.074 A 
ATOM     36  C   UNL A   1      43.332  24.725  29.236  1.00  0.00     0.049 A 
ATOM     37  N   UNL A   1      41.191  26.451  27.543  1.00  0.00    -0.248 NA
ATOM     38  C   UNL A   1      39.880  24.843  28.572  1.00  0.00     0.031 C 
ATOM     39  C   UNL A   1      44.389  23.863  29.784  1.00  0.00     0.029 A 
ATOM     40  N   UNL A   1      43.443  25.852  29.992  1.00  0.00    -0.354 N 
ATOM     41  C   UNL A   1      39.903  26.959  27.709  1.00  0.00     0.074 A 
ATOM     42  C   UNL A   1      39.105  25.868  28.208  1.00  0.00     0.031 C 
ATOM     43  C   UNL A   1      44.821  24.376  30.954  1.00  0.00     0.029 A 
ATOM     44  C   UNL A   1      44.220  25.683  31.132  1.00  0.00     0.049 A 
ATOM     45  H   UNL A   1      43.012  26.705  29.754  1.00  0.00     0.167 HD
ATOM     46  C   UNL A   1      39.638  28.293  27.613  1.00  0.00     0.034 A 
ATOM     47  C   UNL A   1      44.339  26.540  32.172  1.00  0.00     0.034 A 
ATOM     48  C   UNL A   1      40.758  29.020  27.076  1.00  0.00     0.049 A 
ATOM     49  C   UNL A   1      43.938  27.877  31.683  1.00  0.00     0.074 A 
ATOM     50  C   UNL A   1      41.483  28.984  25.903  1.00  0.00     0.029 A 
ATOM     51  N   UNL A   1      41.521  29.730  27.972  1.00  0.00    -0.354 N 
ATOM     52  N   UNL A   1      44.622  28.551  30.800  1.00  0.00    -0.248 NA
ATOM     53  C   UNL A   1      42.561  28.305  31.866  1.00  0.00     0.031 C 
ATOM     54  C   UNL A   1      42.827  29.246  26.298  1.00  0.00     0.029 A 
ATOM     55  C   UNL A   1      42.833  29.475  27.676  1.00  0.00     0.049 A 
ATOM     56  H   UNL A   1      41.188  30.314  28.691  1.00  0.00     0.167 HD
ATOM     57  C   UNL A   1      43.656  29.149  30.002  1.00  0.00     0.074 A 
ATOM     58  C   UNL A   1      42.426  29.081  30.787  1.00  0.00     0.031 C 
ATOM     59  C   UNL A   1      43.879  29.367  28.670  1.00  0.00     0.034 A 
BRANCH  46  60
ATOM     60  C   UNL A   1      38.502  29.032  28.282  1.00  0.00     0.023 A 
ATOM     61  C   UNL A   1      37.683  29.846  27.465  1.00  0.00     0.012 A 
ATOM     62  C   UNL A   1      38.365  29.186  29.679  1.00  0.00     0.148 A 
ATOM     63  C   UNL A   1      36.813  30.799  28.005  1.00  0.00     0.002 A 
ATOM     64  C   UNL A   1      37.439  30.077  30.214  1.00  0.00     0.091 A 
ATOM     65  F   UNL A   1      39.222  28.574  30.503  1.00  0.00    -0.205 F 
ATOM     66  C   UNL A   1      36.683  30.908  29.383  1.00  0.00     0.022 A 
BRANCH  64  67
ATOM     67  S   UNL A   1      37.187  30.213  31.986  1.00  0.00     0.127 S 
ATOM     68  O   UNL A   1      38.416  30.880  32.408  1.00  0.00    -0.237 OA
ATOM     69  O   UNL A   1      35.979  31.036  32.059  1.00  0.00    -0.237 OA
ATOM     70  O   UNL A   1      37.003  28.844  32.452  1.00  0.00    -0.744 OA
ENDBRANCH  64  67
ENDBRANCH  46  60
BRANCH  47  71
ATOM     71  C   UNL A   1      44.641  26.262  33.590  1.00  0.00     0.023 A 
ATOM     72  C   UNL A   1      45.976  26.264  34.033  1.00  0.00     0.012 A 
ATOM     73  C   UNL A   1      43.613  26.240  34.559  1.00  0.00     0.148 A 
ATOM     74  C   UNL A   1      46.281  26.274  35.400  1.00  0.00     0.002 A 
ATOM     75  C   UNL A   1      43.920  26.244  35.916  1.00  0.00     0.091 A 
ATOM     76  F   UNL A   1      42.339  26.308  34.150  1.00  0.00    -0.205 F 
ATOM     77  C   UNL A   1      45.254  26.272  36.341  1.00  0.00     0.022 A 
BRANCH  75  78
ATOM     78  S   UNL A   1      42.646  26.265  37.185  1.00  0.00     0.127 S 
ATOM     79  O   UNL A   1      43.440  26.301  38.414  1.00  0.00    -0.237 OA
ATOM     80  O   UNL A   1      41.937  27.504  36.877  1.00  0.00    -0.237 OA
ATOM     81  O   UNL A   1      41.888  25.035  36.999  1.00  0.00    -0.744 OA
ENDBRANCH  75  78
ENDBRANCH  47  71
BRANCH  59  82
ATOM     82  C   UNL A   1      45.279  29.177  28.138  1.00  0.00     0.023 A 
ATOM     83  C   UNL A   1      46.264  30.180  28.253  1.00  0.00     0.012 A 
ATOM     84  C   UNL A   1      45.667  27.901  27.694  1.00  0.00     0.148 A 
ATOM     85  C   UNL A   1      47.594  29.930  27.909  1.00  0.00     0.002 A 
ATOM     86  C   UNL A   1      47.001  27.640  27.400  1.00  0.00     0.091 A 
ATOM     87  F   UNL A   1      44.725  26.949  27.596  1.00  0.00    -0.205 F 
ATOM     88  C   UNL A   1      47.965  28.654  27.496  1.00  0.00     0.022 A 
BRANCH  86  89
ATOM     89  S   UNL A   1      47.564  25.983  27.003  1.00  0.00     0.127 S 
ATOM     90  O   UNL A   1      48.979  26.201  26.712  1.00  0.00    -0.237 OA
ATOM     91  O   UNL A   1      47.301  25.251  28.244  1.00  0.00    -0.237 OA
ATOM     92  O   UNL A   1      46.747  25.546  25.876  1.00  0.00    -0.744 OA
ENDBRANCH  86  89
ENDBRANCH  59  82
ENDBRANCH  33  34
ENDBRANCH  25  28
ENDBRANCH  23  24
ENDBRANCH   1  23
TORSDOF 15
ENDMDL
MODEL 2
REMARK VINA RESULT:     -12.2      4.263      9.536
REMARK SMILES Cc1nc(C(=O)NCCCNC(=O)c2ccc(-c3c4nc(c(-c5cccc(S(=O)(=O)[O-])c5F)c5ccc([nH]5)c(-c5cccc(S(=O)(=O)[O-])c5F)c5nc(c(-c6cccc(S(=O)(=O)[O-])c6F)c6ccc3[nH]6)C=C5)C=C4)cc2)nn1-c1cccc(C(F)(F)F)c1
REMARK SMILES IDX 9 1 8 2 7 3 5 4 6 5 4 7 1 8 2 9 3 10 78 11 77 12 79 13 80 14
REMARK SMILES IDX 88 15 81 16 83 17 82 18 84 19 85 20 86 21 87 22 10 23 11 24
REMARK SMILES IDX 12 25 13 27 14 28 15 29 76 30 16 31 75 32 17 33 18 34 19 35
REMARK SMILES IDX 69 36 20 37 74 38 68 39 70 40 21 41 73 42 67 43 66 44 22 46
REMARK SMILES IDX 54 47 34 48 53 49 35 50 38 51 52 52 71 53 36 54 37 55 51 57
REMARK SMILES IDX 72 58 39 59 23 60 24 61 32 62 25 63 27 64 33 65 26 66 28 67
REMARK SMILES IDX 29 68 30 69 31 70 55 71 56 72 64 73 57 74 59 75 65 76 58 77
REMARK SMILES IDX 60 78 61 79 62 80 63 81 40 82 41 83 49 84 42 85 44 86 50 87
REMARK SMILES IDX 43 88 45 89 46 90 47 91 48 92
REMARK H PARENT 7 6 11 26 70 45 38 56
REMARK Flexibility Score: inf
ROOT
ATOM      1  C   UNL A   1      31.395  31.813  26.508  1.00  0.00     0.042 C 
ENDROOT
BRANCH   1   2
ATOM      2  C   UNL A   1      31.758  30.435  25.946  1.00  0.00     0.118 C 
BRANCH   2   3
ATOM      3  N   UNL A   1      31.131  30.147  24.663  1.00  0.00    -0.349 N 
ATOM      4  C   UNL A   1      30.927  28.950  23.995  1.00  0.00     0.290 C 
ATOM      5  O   UNL A   1      30.333  29.000  22.918  1.00  0.00    -0.266 OA
ATOM      6  H   UNL A   1      30.793  30.941  24.188  1.00  0.00     0.163 HD
BRANCH   4   7
ATOM      7  C   UNL A   1      31.433  27.676  24.550  1.00  0.00     0.239 A 
ATOM      8  C   UNL A   1      31.157  24.613  26.377  1.00  0.00     0.090 C 
ATOM      9  C   UNL A   1      31.431  25.756  25.476  1.00  0.00     0.130 A 
ATOM     10  N   UNL A   1      30.666  26.816  25.314  1.00  0.00    -0.207 NA
ATOM     11  N   UNL A   1      32.596  25.940  24.762  1.00  0.00    -0.217 N 
ATOM     12  N   UNL A   1      32.689  27.228  24.389  1.00  0.00    -0.140 NA
BRANCH  11  13
ATOM     13  C   UNL A   1      33.565  25.026  24.286  1.00  0.00     0.067 A 
ATOM     14  C   UNL A   1      33.261  24.248  23.159  1.00  0.00     0.028 A 
ATOM     15  C   UNL A   1      34.736  24.782  25.010  1.00  0.00     0.041 A 
ATOM     16  C   UNL A   1      34.140  23.254  22.734  1.00  0.00     0.003 A 
ATOM     17  C   UNL A   1      35.602  23.748  24.614  1.00  0.00     0.058 A 
ATOM     18  C   UNL A   1      35.303  23.004  23.460  1.00  0.00     0.013 A 
BRANCH  17  19
ATOM     19  C   UNL A   1      36.820  23.394  25.434  1.00  0.00     0.416 C 
ATOM     20  F   UNL A   1      37.883  24.199  25.163  1.00  0.00    -0.166 F 
ATOM     21  F   UNL A   1      36.593  23.512  26.771  1.00  0.00    -0.166 F 
ATOM     22  F   UNL A   1      37.254  22.119  25.240  1.00  0.00    -0.166 F 
ENDBRANCH  17  19
ENDBRANCH  11  13
ENDBRANCH   4   7
ENDBRANCH   2   3
ENDBRANCH   1   2
BRANCH   1  23
ATOM     23  C   UNL A   1      32.570  32.446  27.240  1.00  0.00     0.118 C 
BRANCH  23  24
ATOM     24  N   UNL A   1      32.291  33.830  27.651  1.00  0.00    -0.352 N 
ATOM     25  C   UNL A   1      32.972  34.614  28.558  1.00  0.00     0.251 C 
ATOM     26  H   UNL A   1      31.514  34.253  27.219  1.00  0.00     0.163 HD
ATOM     27  O   UNL A   1      32.468  35.644  29.000  1.00  0.00    -0.269 OA
BRANCH  25  28
ATOM     28  C   UNL A   1      34.303  34.179  29.010  1.00  0.00     0.039 A 
ATOM     29  C   UNL A   1      34.459  33.443  30.187  1.00  0.00     0.014 A 
ATOM     30  C   UNL A   1      35.390  34.445  28.184  1.00  0.00     0.014 A 
ATOM     31  C   UNL A   1      35.702  32.877  30.468  1.00  0.00     0.010 A 
ATOM     32  C   UNL A   1      36.562  33.758  28.380  1.00  0.00     0.010 A 
ATOM     33  C   UNL A   1      36.746  33.008  29.542  1.00  0.00    -0.014 A 
BRANCH  33  34
ATOM     34  C   UNL A   1      38.008  32.293  29.723  1.00  0.00     0.031 A 
ATOM     35  C   UNL A   1      38.069  30.901  29.189  1.00  0.00     0.074 A 
ATOM     36  C   UNL A   1      39.139  32.914  30.122  1.00  0.00     0.049 A 
ATOM     37  N   UNL A   1      38.274  29.814  29.858  1.00  0.00    -0.248 NA
ATOM     38  C   UNL A   1      37.802  30.676  27.761  1.00  0.00     0.031 C 
ATOM     39  C   UNL A   1      39.337  34.344  30.396  1.00  0.00     0.029 A 
ATOM     40  N   UNL A   1      40.404  32.416  30.195  1.00  0.00    -0.354 N 
ATOM     41  C   UNL A   1      38.363  28.787  28.919  1.00  0.00     0.074 A 
ATOM     42  C   UNL A   1      37.912  29.348  27.671  1.00  0.00     0.031 C 
ATOM     43  C   UNL A   1      40.651  34.637  30.310  1.00  0.00     0.029 A 
ATOM     44  C   UNL A   1      41.389  33.397  30.174  1.00  0.00     0.049 A 
ATOM     45  H   UNL A   1      40.602  31.454  30.257  1.00  0.00     0.167 HD
ATOM     46  C   UNL A   1      38.991  27.609  29.198  1.00  0.00     0.034 A 
ATOM     47  C   UNL A   1      42.720  33.211  30.019  1.00  0.00     0.034 A 
ATOM     48  C   UNL A   1      39.286  27.484  30.602  1.00  0.00     0.049 A 
ATOM     49  C   UNL A   1      43.011  31.810  30.393  1.00  0.00     0.074 A 
ATOM     50  C   UNL A   1      38.543  27.472  31.765  1.00  0.00     0.029 A 
ATOM     51  N   UNL A   1      40.586  27.709  30.984  1.00  0.00    -0.354 N 
ATOM     52  N   UNL A   1      42.894  31.355  31.609  1.00  0.00    -0.248 NA
ATOM     53  C   UNL A   1      43.045  30.801  29.348  1.00  0.00     0.031 C 
ATOM     54  C   UNL A   1      39.347  28.165  32.717  1.00  0.00     0.029 A 
ATOM     55  C   UNL A   1      40.548  28.512  32.092  1.00  0.00     0.049 A 
ATOM     56  H   UNL A   1      41.394  27.359  30.544  1.00  0.00     0.167 HD
ATOM     57  C   UNL A   1      42.372  30.078  31.448  1.00  0.00     0.074 A 
ATOM     58  C   UNL A   1      42.624  29.744  30.048  1.00  0.00     0.031 C 
ATOM     59  C   UNL A   1      41.525  29.540  32.378  1.00  0.00     0.034 A 
BRANCH  46  60
ATOM     60  C   UNL A   1      39.643  26.682  28.199  1.00  0.00     0.023 A 
ATOM     61  C   UNL A   1      39.314  25.308  28.274  1.00  0.00     0.012 A 
ATOM     62  C   UNL A   1      40.744  27.032  27.388  1.00  0.00     0.148 A 
ATOM     63  C   UNL A   1      40.070  24.330  27.619  1.00  0.00     0.002 A 
ATOM     64  C   UNL A   1      41.444  26.064  26.674  1.00  0.00     0.091 A 
ATOM     65  F   UNL A   1      41.213  28.284  27.406  1.00  0.00    -0.205 F 
ATOM     66  C   UNL A   1      41.132  24.709  26.810  1.00  0.00     0.022 A 
BRANCH  64  67
ATOM     67  S   UNL A   1      42.786  26.505  25.565  1.00  0.00     0.127 S 
ATOM     68  O   UNL A   1      43.797  26.986  26.503  1.00  0.00    -0.237 OA
ATOM     69  O   UNL A   1      43.090  25.223  24.930  1.00  0.00    -0.237 OA
ATOM     70  O   UNL A   1      42.221  27.498  24.659  1.00  0.00    -0.744 OA
ENDBRANCH  64  67
ENDBRANCH  46  60
BRANCH  47  71
ATOM     71  C   UNL A   1      43.735  34.115  29.442  1.00  0.00     0.023 A 
ATOM     72  C   UNL A   1      44.424  35.015  30.276  1.00  0.00     0.012 A 
ATOM     73  C   UNL A   1      44.207  33.927  28.124  1.00  0.00     0.148 A 
ATOM     74  C   UNL A   1      45.566  35.685  29.822  1.00  0.00     0.002 A 
ATOM     75  C   UNL A   1      45.339  34.600  27.674  1.00  0.00     0.091 A 
ATOM     76  F   UNL A   1      43.600  33.021  27.344  1.00  0.00    -0.205 F 
ATOM     77  C   UNL A   1      46.028  35.473  28.525  1.00  0.00     0.022 A 
BRANCH  75  78
ATOM     78  S   UNL A   1      46.004  34.356  26.022  1.00  0.00     0.127 S 
ATOM     79  O   UNL A   1      44.833  34.606  25.182  1.00  0.00    -0.237 OA
ATOM     80  O   UNL A   1      47.035  35.389  25.959  1.00  0.00    -0.237 OA
ATOM     81  O   UNL A   1      46.480  32.980  25.991  1.00  0.00    -0.744 OA
ENDBRANCH  75  78
ENDBRANCH  47  71
BRANCH  59  82
ATOM     82  C   UNL A   1      41.365  30.255  33.698  1.00  0.00     0.023 A 
ATOM     83  C   UNL A   1      42.294  30.102  34.747  1.00  0.00     0.012 A 
ATOM     84  C   UNL A   1      40.375  31.246  33.815  1.00  0.00     0.148 A 
ATOM     85  C   UNL A   1      42.225  30.894  35.895  1.00  0.00     0.002 A 
ATOM     86  C   UNL A   1      40.339  32.068  34.937  1.00  0.00     0.091 A 
ATOM     87  F   UNL A   1      39.499  31.391  32.808  1.00  0.00    -0.205 F 
ATOM     88  C   UNL A   1      41.255  31.888  35.984  1.00  0.00     0.022 A 
BRANCH  86  89
ATOM     89  S   UNL A   1      39.206  33.455  35.043  1.00  0.00     0.127 S 
ATOM     90  O   UNL A   1      39.547  34.031  36.342  1.00  0.00    -0.237 OA
ATOM     91  O   UNL A   1      39.595  34.273  33.892  1.00  0.00    -0.237 OA
ATOM     92  O   UNL A   1      37.868  32.885  34.937  1.00  0.00    -0.744 OA
ENDBRANCH  86  89
ENDBRANCH  59  82
ENDBRANCH  33  34
ENDBRANCH  25  28
ENDBRANCH  23  24
ENDBRANCH   1  23
TORSDOF 15
ENDMDL
MODEL 3
REMARK VINA RESULT:     -12.0      4.156      9.150
REMARK SMILES Cc1nc(C(=O)NCCCNC(=O)c2ccc(-c3c4nc(c(-c5cccc(S(=O)(=O)[O-])c5F)c5ccc([nH]5)c(-c5cccc(S(=O)(=O)[O-])c5F)c5nc(c(-c6cccc(S(=O)(=O)[O-])c6F)c6ccc3[nH]6)C=C5)C=C4)cc2)nn1-c1cccc(C(F)(F)F)c1
REMARK SMILES IDX 9 1 8 2 7 3 5 4 6 5 4 7 1 8 2 9 3 10 78 11 77 12 79 13 80 14
REMARK SMILES IDX 88 15 81 16 83 17 82 18 84 19 85 20 86 21 87 22 10 23 11 24
REMARK SMILES IDX 12 25 13 27 14 28 15 29 76 30 16 31 75 32 17 33 18 34 19 35
REMARK SMILES IDX 69 36 20 37 74 38 68 39 70 40 21 41 73 42 67 43 66 44 22 46
REMARK SMILES IDX 54 47 34 48 53 49 35 50 38 51 52 52 71 53 36 54 37 55 51 57
REMARK SMILES IDX 72 58 39 59 23 60 24 61 32 62 25 63 27 64 33 65 26 66 28 67
REMARK SMILES IDX 29 68 30 69 31 70 55 71 56 72 64 73 57 74 59 75 65 76 58 77
REMARK SMILES IDX 60 78 61 79 62 80 63 81 40 82 41 83 49 84 42 85 44 86 50 87
REMARK SMILES IDX 43 88 45 89 46 90 47 91 48 92
REMARK H PARENT 7 6 11 26 70 45 38 56
REMARK Flexibility Score: inf
ROOT
ATOM      1  C   UNL A   1      42.284  19.096  27.267  1.00  0.00     0.042 C 
ENDROOT
BRANCH   1   2
ATOM      2  C   UNL A   1      42.540  19.034  25.757  1.00  0.00     0.118 C 
BRANCH   2   3
ATOM      3  N   UNL A   1      43.918  18.705  25.415  1.00  0.00    -0.349 N 
ATOM      4  C   UNL A   1      45.007  19.515  25.136  1.00  0.00     0.290 C 
ATOM      5  O   UNL A   1      46.079  18.957  24.903  1.00  0.00    -0.266 OA
ATOM      6  H   UNL A   1      44.108  17.740  25.375  1.00  0.00     0.163 HD
BRANCH   4   7
ATOM      7  C   UNL A   1      44.867  20.987  25.094  1.00  0.00     0.239 A 
ATOM      8  C   UNL A   1      43.028  24.054  25.000  1.00  0.00     0.090 C 
ATOM      9  C   UNL A   1      43.956  22.912  25.172  1.00  0.00     0.130 A 
ATOM     10  N   UNL A   1      43.648  21.638  25.051  1.00  0.00    -0.207 NA
ATOM     11  N   UNL A   1      45.316  23.020  25.365  1.00  0.00    -0.217 N 
ATOM     12  N   UNL A   1      45.900  21.844  25.076  1.00  0.00    -0.140 NA
BRANCH  11  13
ATOM     13  C   UNL A   1      46.113  24.057  25.904  1.00  0.00     0.067 A 
ATOM     14  C   UNL A   1      46.347  24.078  27.287  1.00  0.00     0.028 A 
ATOM     15  C   UNL A   1      46.529  25.129  25.108  1.00  0.00     0.041 A 
ATOM     16  C   UNL A   1      47.024  25.146  27.869  1.00  0.00     0.003 A 
ATOM     17  C   UNL A   1      47.170  26.233  25.698  1.00  0.00     0.058 A 
ATOM     18  C   UNL A   1      47.431  26.220  27.078  1.00  0.00     0.013 A 
BRANCH  17  19
ATOM     19  C   UNL A   1      47.537  27.448  24.881  1.00  0.00     0.416 C 
ATOM     20  F   UNL A   1      47.876  27.134  23.600  1.00  0.00    -0.166 F 
ATOM     21  F   UNL A   1      46.510  28.337  24.788  1.00  0.00    -0.166 F 
ATOM     22  F   UNL A   1      48.590  28.147  25.388  1.00  0.00    -0.166 F 
ENDBRANCH  17  19
ENDBRANCH  11  13
ENDBRANCH   4   7
ENDBRANCH   2   3
ENDBRANCH   1   2
BRANCH   1  23
ATOM     23  C   UNL A   1      41.264  20.170  27.617  1.00  0.00     0.118 C 
BRANCH  23  24
ATOM     24  N   UNL A   1      40.433  20.547  26.464  1.00  0.00    -0.352 N 
ATOM     25  C   UNL A   1      39.736  21.717  26.249  1.00  0.00     0.251 C 
ATOM     26  H   UNL A   1      40.366  19.873  25.750  1.00  0.00     0.163 HD
ATOM     27  O   UNL A   1      38.873  21.782  25.376  1.00  0.00    -0.269 OA
BRANCH  25  28
ATOM     28  C   UNL A   1      40.025  22.879  27.103  1.00  0.00     0.039 A 
ATOM     29  C   UNL A   1      41.191  22.936  27.872  1.00  0.00     0.014 A 
ATOM     30  C   UNL A   1      39.149  23.958  27.054  1.00  0.00     0.014 A 
ATOM     31  C   UNL A   1      41.525  24.135  28.501  1.00  0.00     0.010 A 
ATOM     32  C   UNL A   1      39.559  25.175  27.539  1.00  0.00     0.010 A 
ATOM     33  C   UNL A   1      40.722  25.266  28.304  1.00  0.00    -0.014 A 
BRANCH  33  34
ATOM     34  C   UNL A   1      41.128  26.576  28.810  1.00  0.00     0.031 A 
ATOM     35  C   UNL A   1      42.373  27.159  28.231  1.00  0.00     0.074 A 
ATOM     36  C   UNL A   1      40.314  27.340  29.570  1.00  0.00     0.049 A 
ATOM     37  N   UNL A   1      43.462  27.462  28.859  1.00  0.00    -0.248 NA
ATOM     38  C   UNL A   1      42.451  27.365  26.777  1.00  0.00     0.031 C 
ATOM     39  C   UNL A   1      38.932  27.056  29.983  1.00  0.00     0.029 A 
ATOM     40  N   UNL A   1      40.495  28.622  29.989  1.00  0.00    -0.354 N 
ATOM     41  C   UNL A   1      44.292  28.082  27.927  1.00  0.00     0.074 A 
ATOM     42  C   UNL A   1      43.686  27.855  26.639  1.00  0.00     0.031 C 
ATOM     43  C   UNL A   1      38.320  28.211  30.316  1.00  0.00     0.029 A 
ATOM     44  C   UNL A   1      39.312  29.268  30.329  1.00  0.00     0.049 A 
ATOM     45  H   UNL A   1      41.379  29.051  30.046  1.00  0.00     0.167 HD
ATOM     46  C   UNL A   1      45.309  28.908  28.306  1.00  0.00     0.034 A 
ATOM     47  C   UNL A   1      39.145  30.588  30.571  1.00  0.00     0.034 A 
ATOM     48  C   UNL A   1      45.558  28.829  29.722  1.00  0.00     0.049 A 
ATOM     49  C   UNL A   1      40.472  31.138  30.924  1.00  0.00     0.074 A 
ATOM     50  C   UNL A   1      45.914  27.830  30.603  1.00  0.00     0.029 A 
ATOM     51  N   UNL A   1      45.080  29.862  30.491  1.00  0.00    -0.354 N 
ATOM     52  N   UNL A   1      41.110  30.821  32.017  1.00  0.00    -0.248 NA
ATOM     53  C   UNL A   1      41.284  31.731  29.875  1.00  0.00     0.031 C 
ATOM     54  C   UNL A   1      45.189  28.121  31.796  1.00  0.00     0.029 A 
ATOM     55  C   UNL A   1      44.476  29.304  31.586  1.00  0.00     0.049 A 
ATOM     56  H   UNL A   1      45.158  30.823  30.294  1.00  0.00     0.167 HD
ATOM     57  C   UNL A   1      42.439  30.734  31.624  1.00  0.00     0.074 A 
ATOM     58  C   UNL A   1      42.500  31.440  30.347  1.00  0.00     0.031 C 
ATOM     59  C   UNL A   1      43.292  29.846  32.219  1.00  0.00     0.034 A 
BRANCH  46  60
ATOM     60  C   UNL A   1      45.899  30.036  27.492  1.00  0.00     0.023 A 
ATOM     61  C   UNL A   1      47.306  30.186  27.511  1.00  0.00     0.012 A 
ATOM     62  C   UNL A   1      45.150  31.099  26.944  1.00  0.00     0.148 A 
ATOM     63  C   UNL A   1      47.931  31.353  27.057  1.00  0.00     0.002 A 
ATOM     64  C   UNL A   1      45.781  32.224  26.419  1.00  0.00     0.091 A 
ATOM     65  F   UNL A   1      43.817  31.097  27.048  1.00  0.00    -0.205 F 
ATOM     66  C   UNL A   1      47.168  32.370  26.501  1.00  0.00     0.022 A 
BRANCH  64  67
ATOM     67  S   UNL A   1      44.845  33.540  25.634  1.00  0.00     0.127 S 
ATOM     68  O   UNL A   1      44.137  34.118  26.772  1.00  0.00    -0.237 OA
ATOM     69  O   UNL A   1      45.909  34.378  25.077  1.00  0.00    -0.237 OA
ATOM     70  O   UNL A   1      44.023  32.878  24.629  1.00  0.00    -0.744 OA
ENDBRANCH  64  67
ENDBRANCH  46  60
BRANCH  47  71
ATOM     71  C   UNL A   1      37.949  31.435  30.387  1.00  0.00     0.023 A 
ATOM     72  C   UNL A   1      37.215  31.356  29.189  1.00  0.00     0.012 A 
ATOM     73  C   UNL A   1      37.384  32.138  31.474  1.00  0.00     0.148 A 
ATOM     74  C   UNL A   1      35.943  31.932  29.086  1.00  0.00     0.002 A 
ATOM     75  C   UNL A   1      36.123  32.715  31.365  1.00  0.00     0.091 A 
ATOM     76  F   UNL A   1      38.044  32.161  32.641  1.00  0.00    -0.205 F 
ATOM     77  C   UNL A   1      35.394  32.604  30.175  1.00  0.00     0.022 A 
BRANCH  75  78
ATOM     78  S   UNL A   1      35.343  33.577  32.737  1.00  0.00     0.127 S 
ATOM     79  O   UNL A   1      35.599  32.667  33.854  1.00  0.00    -0.237 OA
ATOM     80  O   UNL A   1      36.100  34.825  32.776  1.00  0.00    -0.237 OA
ATOM     81  O   UNL A   1      33.937  33.697  32.374  1.00  0.00    -0.744 OA
ENDBRANCH  75  78
ENDBRANCH  47  71
BRANCH  59  82
ATOM     82  C   UNL A   1      42.833  29.141  33.473  1.00  0.00     0.023 A 
ATOM     83  C   UNL A   1      41.824  28.156  33.447  1.00  0.00     0.012 A 
ATOM     84  C   UNL A   1      43.561  29.327  34.660  1.00  0.00     0.148 A 
ATOM     85  C   UNL A   1      41.527  27.396  34.580  1.00  0.00     0.002 A 
ATOM     86  C   UNL A   1      43.298  28.535  35.772  1.00  0.00     0.091 A 
ATOM     87  F   UNL A   1      44.526  30.261  34.673  1.00  0.00    -0.205 F 
ATOM     88  C   UNL A   1      42.275  27.576  35.739  1.00  0.00     0.022 A 
BRANCH  86  89
ATOM     89  S   UNL A   1      44.321  28.620  37.244  1.00  0.00     0.127 S 
ATOM     90  O   UNL A   1      45.669  28.536  36.686  1.00  0.00    -0.237 OA
ATOM     91  O   UNL A   1      43.970  29.929  37.800  1.00  0.00    -0.237 OA
ATOM     92  O   UNL A   1      43.912  27.495  38.078  1.00  0.00    -0.744 OA
ENDBRANCH  86  89
ENDBRANCH  59  82
ENDBRANCH  33  34
ENDBRANCH  25  28
ENDBRANCH  23  24
ENDBRANCH   1  23
TORSDOF 15
ENDMDL
