MODEL 1
REMARK VINA RESULT:     -11.1      0.000      0.000
REMARK SMILES CCN1C(=O)N/C(=C/c2cc(Cl)c(OCc3cccc(C(=O)NCCCNC(=O)c4ccc(-c5c6nc(c(-c7cccc(S(=O)(=O)[O-])c7F)c7ccc([nH]7)c(-c7cccc(S(=O)(=O)[O-])c7F)c7nc(c(-c8cccc(S(=O)(=O)[O-])c8F)c8ccc5[nH]8)C=C7)C=C6)cc4)c3)c(OC)c2)C1=O
REMARK SMILES IDX 24 1 23 2 21 3 22 4 20 6 16 7 17 8 93 9 18 10 19 11 15 12
REMARK SMILES IDX 14 13 13 14 9 15 10 16 97 17 11 18 94 19 12 20 8 21 3 22
REMARK SMILES IDX 4 23 98 24 5 25 6 26 7 27 99 28 2 30 1 31 95 32 96 33 25 34
REMARK SMILES IDX 26 35 27 36 28 37 29 39 30 40 31 41 92 42 32 43 91 44 33 45
REMARK SMILES IDX 34 46 35 47 85 48 36 49 90 50 84 51 86 52 37 53 89 54 83 55
REMARK SMILES IDX 82 56 38 58 70 59 50 60 69 61 51 62 54 63 68 64 87 65 52 66
REMARK SMILES IDX 53 67 67 69 88 70 55 71 39 72 40 73 48 74 41 75 43 76 49 77
REMARK SMILES IDX 42 78 44 79 45 80 46 81 47 82 71 83 72 84 80 85 73 86 75 87
REMARK SMILES IDX 81 88 74 89 76 90 77 91 78 92 79 93 56 94 57 95 65 96 58 97
REMARK SMILES IDX 60 98 66 99 59 100 61 101 62 102 63 103 64 104
REMARK H PARENT 23 5 6 29 27 38 86 57 54 68
REMARK Flexibility Score: inf
ROOT
ATOM      1  C   UNL A   1      33.700  30.235  27.042  1.00  0.00     0.118 C 
ENDROOT
BRANCH   1   2
ATOM      2  N   UNL A   1      32.859  29.297  27.761  1.00  0.00    -0.352 N 
ATOM      3  C   UNL A   1      31.923  28.362  27.398  1.00  0.00     0.251 C 
ATOM      4  O   UNL A   1      31.470  27.671  28.315  1.00  0.00    -0.269 OA
ATOM      5  H   UNL A   1      32.990  29.341  28.735  1.00  0.00     0.163 HD
BRANCH   3   6
ATOM      6  C   UNL A   1      31.425  28.124  26.007  1.00  0.00     0.040 A 
ATOM      7  C   UNL A   1      30.442  26.762  24.211  1.00  0.00    -0.010 A 
ATOM      8  C   UNL A   1      30.553  27.837  23.329  1.00  0.00     0.007 A 
ATOM      9  C   UNL A   1      30.921  26.917  25.527  1.00  0.00     0.021 A 
ATOM     10  C   UNL A   1      31.077  29.051  23.777  1.00  0.00     0.001 A 
ATOM     11  C   UNL A   1      31.498  29.195  25.103  1.00  0.00     0.014 A 
BRANCH   7  12
ATOM     12  C   UNL A   1      29.911  25.388  23.842  1.00  0.00     0.265 C 
BRANCH  12  13
ATOM     13  O   UNL A   1      30.725  24.491  23.102  1.00  0.00    -0.483 OA
BRANCH  13  14
ATOM     14  C   UNL A   1      31.817  23.866  23.633  1.00  0.00     0.180 A 
ATOM     15  C   UNL A   1      34.185  22.489  24.260  1.00  0.00    -0.018 A 
ATOM     16  C   UNL A   1      33.105  22.484  25.149  1.00  0.00     0.033 A 
ATOM     17  C   UNL A   1      34.130  23.279  23.111  1.00  0.00     0.058 A 
ATOM     18  C   UNL A   1      31.925  23.173  24.844  1.00  0.00     0.087 A 
ATOM     19  C   UNL A   1      32.958  23.971  22.801  1.00  0.00     0.162 A 
ATOM     20  Cl  UNL A   1      30.705  23.131  26.068  1.00  0.00    -0.080 Cl
BRANCH  15  21
ATOM     21  C   UNL A   1      35.329  21.599  24.467  1.00  0.00     0.040 C 
ATOM     22  N   UNL A   1      38.115  23.286  25.977  1.00  0.00    -0.259 N 
ATOM     23  C   UNL A   1      38.576  21.996  25.835  1.00  0.00     0.328 C 
ATOM     24  C   UNL A   1      36.835  23.408  25.490  1.00  0.00     0.278 C 
ATOM     25  O   UNL A   1      39.678  21.557  26.119  1.00  0.00    -0.248 OA
ATOM     26  N   UNL A   1      37.559  21.240  25.270  1.00  0.00    -0.303 N 
ATOM     27  C   UNL A   1      36.470  22.023  25.023  1.00  0.00     0.109 C 
ATOM     28  O   UNL A   1      36.153  24.407  25.424  1.00  0.00    -0.267 OA
ATOM     29  H   UNL A   1      37.615  20.277  25.073  1.00  0.00     0.172 HD
BRANCH  22  30
ATOM     30  C   UNL A   1      38.927  24.404  26.420  1.00  0.00     0.127 C 
ATOM     31  C   UNL A   1      38.864  24.650  27.920  1.00  0.00     0.028 C 
ENDBRANCH  22  30
ENDBRANCH  15  21
BRANCH  19  32
ATOM     32  O   UNL A   1      32.796  24.730  21.665  1.00  0.00    -0.493 OA
ATOM     33  C   UNL A   1      33.241  26.076  21.695  1.00  0.00     0.278 C 
ENDBRANCH  19  32
ENDBRANCH  13  14
ENDBRANCH  12  13
ENDBRANCH   7  12
ENDBRANCH   3   6
ENDBRANCH   1   2
BRANCH   1  34
ATOM     34  C   UNL A   1      33.239  31.680  27.223  1.00  0.00     0.042 C 
BRANCH  34  35
ATOM     35  C   UNL A   1      34.327  32.576  27.817  1.00  0.00     0.118 C 
BRANCH  35  36
ATOM     36  N   UNL A   1      33.758  33.662  28.612  1.00  0.00    -0.352 N 
ATOM     37  C   UNL A   1      33.986  34.047  29.906  1.00  0.00     0.251 C 
ATOM     38  H   UNL A   1      33.096  34.212  28.135  1.00  0.00     0.163 HD
ATOM     39  O   UNL A   1      33.180  34.793  30.456  1.00  0.00    -0.269 OA
BRANCH  37  40
ATOM     40  C   UNL A   1      35.192  33.598  30.630  1.00  0.00     0.039 A 
ATOM     41  C   UNL A   1      35.113  32.456  31.431  1.00  0.00     0.014 A 
ATOM     42  C   UNL A   1      36.376  34.338  30.581  1.00  0.00     0.014 A 
ATOM     43  C   UNL A   1      36.232  32.040  32.153  1.00  0.00     0.010 A 
ATOM     44  C   UNL A   1      37.517  33.866  31.218  1.00  0.00     0.010 A 
ATOM     45  C   UNL A   1      37.451  32.728  32.032  1.00  0.00    -0.014 A 
BRANCH  45  46
ATOM     46  C   UNL A   1      38.659  32.276  32.763  1.00  0.00     0.031 A 
ATOM     47  C   UNL A   1      38.923  32.749  34.167  1.00  0.00     0.074 A 
ATOM     48  C   UNL A   1      39.548  31.483  32.133  1.00  0.00     0.049 A 
ATOM     49  N   UNL A   1      39.924  32.461  34.958  1.00  0.00    -0.248 NA
ATOM     50  C   UNL A   1      37.954  33.694  34.752  1.00  0.00     0.031 C 
ATOM     51  C   UNL A   1      39.441  31.030  30.744  1.00  0.00     0.029 A 
ATOM     52  N   UNL A   1      40.722  30.928  32.574  1.00  0.00    -0.354 N 
ATOM     53  C   UNL A   1      39.723  33.208  36.114  1.00  0.00     0.074 A 
ATOM     54  C   UNL A   1      38.534  34.001  35.902  1.00  0.00     0.031 C 
ATOM     55  C   UNL A   1      40.490  30.245  30.455  1.00  0.00     0.029 A 
ATOM     56  C   UNL A   1      41.360  30.165  31.624  1.00  0.00     0.049 A 
ATOM     57  H   UNL A   1      41.073  31.060  33.483  1.00  0.00     0.167 HD
ATOM     58  C   UNL A   1      40.443  33.209  37.260  1.00  0.00     0.034 A 
ATOM     59  C   UNL A   1      42.515  29.477  31.690  1.00  0.00     0.034 A 
ATOM     60  C   UNL A   1      41.608  32.392  37.472  1.00  0.00     0.049 A 
ATOM     61  C   UNL A   1      43.276  29.464  32.987  1.00  0.00     0.074 A 
ATOM     62  C   UNL A   1      42.369  32.257  38.619  1.00  0.00     0.029 A 
ATOM     63  N   UNL A   1      42.186  31.577  36.510  1.00  0.00    -0.354 N 
ATOM     64  N   UNL A   1      42.989  30.059  34.119  1.00  0.00    -0.248 NA
ATOM     65  C   UNL A   1      44.497  28.648  33.028  1.00  0.00     0.031 C 
ATOM     66  C   UNL A   1      43.428  31.386  38.340  1.00  0.00     0.029 A 
ATOM     67  C   UNL A   1      43.299  30.944  37.033  1.00  0.00     0.049 A 
ATOM     68  H   UNL A   1      41.854  31.467  35.590  1.00  0.00     0.167 HD
ATOM     69  C   UNL A   1      43.967  29.657  35.020  1.00  0.00     0.074 A 
ATOM     70  C   UNL A   1      44.843  28.751  34.304  1.00  0.00     0.031 C 
ATOM     71  C   UNL A   1      44.133  30.010  36.319  1.00  0.00     0.034 A 
BRANCH  58  72
ATOM     72  C   UNL A   1      39.962  34.087  38.388  1.00  0.00     0.023 A 
ATOM     73  C   UNL A   1      40.335  35.448  38.423  1.00  0.00     0.012 A 
ATOM     74  C   UNL A   1      39.109  33.583  39.390  1.00  0.00     0.148 A 
ATOM     75  C   UNL A   1      39.906  36.278  39.458  1.00  0.00     0.002 A 
ATOM     76  C   UNL A   1      38.644  34.430  40.390  1.00  0.00     0.091 A 
ATOM     77  F   UNL A   1      38.780  32.284  39.355  1.00  0.00    -0.205 F 
ATOM     78  C   UNL A   1      39.054  35.773  40.434  1.00  0.00     0.022 A 
BRANCH  76  79
ATOM     79  S   UNL A   1      37.475  33.898  41.645  1.00  0.00     0.127 S 
ATOM     80  O   UNL A   1      36.435  33.269  40.832  1.00  0.00    -0.237 OA
ATOM     81  O   UNL A   1      38.277  32.965  42.436  1.00  0.00    -0.237 OA
ATOM     82  O   UNL A   1      37.068  35.103  42.352  1.00  0.00    -0.744 OA
ENDBRANCH  76  79
ENDBRANCH  58  72
BRANCH  59  83
ATOM     83  C   UNL A   1      42.978  28.682  30.517  1.00  0.00     0.023 A 
ATOM     84  C   UNL A   1      42.618  27.324  30.414  1.00  0.00     0.012 A 
ATOM     85  C   UNL A   1      43.747  29.269  29.494  1.00  0.00     0.148 A 
ATOM     86  C   UNL A   1      43.048  26.555  29.334  1.00  0.00     0.002 A 
ATOM     87  C   UNL A   1      44.124  28.511  28.391  1.00  0.00     0.091 A 
ATOM     88  F   UNL A   1      44.081  30.562  29.613  1.00  0.00    -0.205 F 
ATOM     89  C   UNL A   1      43.793  27.149  28.319  1.00  0.00     0.022 A 
BRANCH  87  90
ATOM     90  S   UNL A   1      44.971  29.223  26.977  1.00  0.00     0.127 S 
ATOM     91  O   UNL A   1      45.455  28.029  26.287  1.00  0.00    -0.237 OA
ATOM     92  O   UNL A   1      43.882  29.928  26.300  1.00  0.00    -0.237 OA
ATOM     93  O   UNL A   1      46.000  30.093  27.530  1.00  0.00    -0.744 OA
ENDBRANCH  87  90
ENDBRANCH  59  83
BRANCH  71  94
ATOM     94  C   UNL A   1      45.273  29.374  37.071  1.00  0.00     0.023 A 
ATOM     95  C   UNL A   1      46.536  29.998  37.107  1.00  0.00     0.012 A 
ATOM     96  C   UNL A   1      45.073  28.177  37.786  1.00  0.00     0.148 A 
ATOM     97  C   UNL A   1      47.593  29.416  37.804  1.00  0.00     0.002 A 
ATOM     98  C   UNL A   1      46.115  27.632  38.525  1.00  0.00     0.091 A 
ATOM     99  F   UNL A   1      43.869  27.588  37.724  1.00  0.00    -0.205 F 
ATOM    100  C   UNL A   1      47.380  28.240  38.521  1.00  0.00     0.022 A 
BRANCH  98 101
ATOM    101  S   UNL A   1      45.902  26.181  39.560  1.00  0.00     0.127 S 
ATOM    102  O   UNL A   1      44.966  26.670  40.571  1.00  0.00    -0.237 OA
ATOM    103  O   UNL A   1      45.335  25.212  38.621  1.00  0.00    -0.237 OA
ATOM    104  O   UNL A   1      47.230  25.838  40.051  1.00  0.00    -0.744 OA
ENDBRANCH  98 101
ENDBRANCH  71  94
ENDBRANCH  45  46
ENDBRANCH  37  40
ENDBRANCH  35  36
ENDBRANCH  34  35
ENDBRANCH   1  34
TORSDOF 19
ENDMDL
MODEL 2
REMARK VINA RESULT:     -11.0      3.823      5.410
REMARK SMILES CCN1C(=O)N/C(=C/c2cc(Cl)c(OCc3cccc(C(=O)NCCCNC(=O)c4ccc(-c5c6nc(c(-c7cccc(S(=O)(=O)[O-])c7F)c7ccc([nH]7)c(-c7cccc(S(=O)(=O)[O-])c7F)c7nc(c(-c8cccc(S(=O)(=O)[O-])c8F)c8ccc5[nH]8)C=C7)C=C6)cc4)c3)c(OC)c2)C1=O
REMARK SMILES IDX 24 1 23 2 21 3 22 4 20 6 16 7 17 8 93 9 18 10 19 11 15 12
REMARK SMILES IDX 14 13 13 14 9 15 10 16 97 17 11 18 94 19 12 20 8 21 3 22
REMARK SMILES IDX 4 23 98 24 5 25 6 26 7 27 99 28 2 30 1 31 95 32 96 33 25 34
REMARK SMILES IDX 26 35 27 36 28 37 29 39 30 40 31 41 92 42 32 43 91 44 33 45
REMARK SMILES IDX 34 46 35 47 85 48 36 49 90 50 84 51 86 52 37 53 89 54 83 55
REMARK SMILES IDX 82 56 38 58 70 59 50 60 69 61 51 62 54 63 68 64 87 65 52 66
REMARK SMILES IDX 53 67 67 69 88 70 55 71 39 72 40 73 48 74 41 75 43 76 49 77
REMARK SMILES IDX 42 78 44 79 45 80 46 81 47 82 71 83 72 84 80 85 73 86 75 87
REMARK SMILES IDX 81 88 74 89 76 90 77 91 78 92 79 93 56 94 57 95 65 96 58 97
REMARK SMILES IDX 60 98 66 99 59 100 61 101 62 102 63 103 64 104
REMARK H PARENT 23 5 6 29 27 38 86 57 54 68
REMARK Flexibility Score: inf
ROOT
ATOM      1  C   UNL A   1      33.686  28.710  25.116  1.00  0.00     0.118 C 
ENDROOT
BRANCH   1   2
ATOM      2  N   UNL A   1      32.581  29.590  24.787  1.00  0.00    -0.352 N 
ATOM      3  C   UNL A   1      31.243  29.412  24.545  1.00  0.00     0.251 C 
ATOM      4  O   UNL A   1      30.584  30.444  24.383  1.00  0.00    -0.269 OA
ATOM      5  H   UNL A   1      32.854  30.533  24.724  1.00  0.00     0.163 HD
BRANCH   3   6
ATOM      6  C   UNL A   1      30.540  28.094  24.465  1.00  0.00     0.040 A 
ATOM      7  C   UNL A   1      30.284  25.691  24.923  1.00  0.00    -0.010 A 
ATOM      8  C   UNL A   1      29.097  25.673  24.190  1.00  0.00     0.007 A 
ATOM      9  C   UNL A   1      31.005  26.899  25.011  1.00  0.00     0.021 A 
ATOM     10  C   UNL A   1      28.620  26.851  23.612  1.00  0.00     0.001 A 
ATOM     11  C   UNL A   1      29.329  28.049  23.757  1.00  0.00     0.014 A 
BRANCH   7  12
ATOM     12  C   UNL A   1      30.916  24.478  25.581  1.00  0.00     0.265 C 
BRANCH  12  13
ATOM     13  O   UNL A   1      32.237  24.559  26.094  1.00  0.00    -0.483 OA
BRANCH  13  14
ATOM     14  C   UNL A   1      33.141  23.541  25.987  1.00  0.00     0.180 A 
ATOM     15  C   UNL A   1      34.806  21.377  25.322  1.00  0.00    -0.018 A 
ATOM     16  C   UNL A   1      34.469  21.629  26.655  1.00  0.00     0.033 A 
ATOM     17  C   UNL A   1      34.411  22.274  24.329  1.00  0.00     0.058 A 
ATOM     18  C   UNL A   1      33.643  22.709  26.993  1.00  0.00     0.087 A 
ATOM     19  C   UNL A   1      33.590  23.355  24.657  1.00  0.00     0.162 A 
ATOM     20  Cl  UNL A   1      33.370  22.932  28.685  1.00  0.00    -0.080 Cl
BRANCH  15  21
ATOM     21  C   UNL A   1      35.480  20.134  24.942  1.00  0.00     0.040 C 
ATOM     22  N   UNL A   1      33.215  17.354  24.756  1.00  0.00    -0.259 N 
ATOM     23  C   UNL A   1      34.423  16.792  24.407  1.00  0.00     0.328 C 
ATOM     24  C   UNL A   1      33.359  18.692  25.038  1.00  0.00     0.278 C 
ATOM     25  O   UNL A   1      34.659  15.625  24.143  1.00  0.00    -0.248 OA
ATOM     26  N   UNL A   1      35.382  17.795  24.428  1.00  0.00    -0.303 N 
ATOM     27  C   UNL A   1      34.820  18.978  24.807  1.00  0.00     0.109 C 
ATOM     28  O   UNL A   1      32.510  19.472  25.414  1.00  0.00    -0.267 OA
ATOM     29  H   UNL A   1      36.332  17.671  24.202  1.00  0.00     0.172 HD
BRANCH  22  30
ATOM     30  C   UNL A   1      31.991  16.606  24.966  1.00  0.00     0.127 C 
ATOM     31  C   UNL A   1      32.132  15.470  25.968  1.00  0.00     0.028 C 
ENDBRANCH  22  30
ENDBRANCH  15  21
BRANCH  19  32
ATOM     32  O   UNL A   1      33.111  24.258  23.737  1.00  0.00    -0.493 OA
ATOM     33  C   UNL A   1      34.024  24.802  22.799  1.00  0.00     0.278 C 
ENDBRANCH  19  32
ENDBRANCH  13  14
ENDBRANCH  12  13
ENDBRANCH   7  12
ENDBRANCH   3   6
ENDBRANCH   1   2
BRANCH   1  34
ATOM     34  C   UNL A   1      34.496  29.221  26.306  1.00  0.00     0.042 C 
BRANCH  34  35
ATOM     35  C   UNL A   1      33.612  29.727  27.448  1.00  0.00     0.118 C 
BRANCH  35  36
ATOM     36  N   UNL A   1      33.780  31.161  27.667  1.00  0.00    -0.352 N 
ATOM     37  C   UNL A   1      34.684  31.858  28.424  1.00  0.00     0.251 C 
ATOM     38  H   UNL A   1      33.132  31.725  27.188  1.00  0.00     0.163 HD
ATOM     39  O   UNL A   1      34.451  33.032  28.698  1.00  0.00    -0.269 OA
BRANCH  37  40
ATOM     40  C   UNL A   1      35.934  31.223  28.887  1.00  0.00     0.039 A 
ATOM     41  C   UNL A   1      35.856  30.108  29.724  1.00  0.00     0.014 A 
ATOM     42  C   UNL A   1      37.179  31.767  28.561  1.00  0.00     0.014 A 
ATOM     43  C   UNL A   1      37.027  29.520  30.203  1.00  0.00     0.010 A 
ATOM     44  C   UNL A   1      38.345  31.120  28.953  1.00  0.00     0.010 A 
ATOM     45  C   UNL A   1      38.282  30.007  29.800  1.00  0.00    -0.014 A 
BRANCH  45  46
ATOM     46  C   UNL A   1      39.535  29.369  30.270  1.00  0.00     0.031 A 
ATOM     47  C   UNL A   1      40.234  29.877  31.503  1.00  0.00     0.074 A 
ATOM     48  C   UNL A   1      40.072  28.367  29.547  1.00  0.00     0.049 A 
ATOM     49  N   UNL A   1      41.336  29.446  32.060  1.00  0.00    -0.248 NA
ATOM     50  C   UNL A   1      39.637  31.039  32.184  1.00  0.00     0.031 C 
ATOM     51  C   UNL A   1      39.530  27.849  28.288  1.00  0.00     0.029 A 
ATOM     52  N   UNL A   1      41.199  27.615  29.757  1.00  0.00    -0.354 N 
ATOM     53  C   UNL A   1      41.580  30.299  33.131  1.00  0.00     0.074 A 
ATOM     54  C   UNL A   1      40.540  31.302  33.117  1.00  0.00     0.031 C 
ATOM     55  C   UNL A   1      40.309  26.846  27.853  1.00  0.00     0.029 A 
ATOM     56  C   UNL A   1      41.421  26.673  28.782  1.00  0.00     0.049 A 
ATOM     57  H   UNL A   1      41.792  27.737  30.533  1.00  0.00     0.167 HD
ATOM     58  C   UNL A   1      42.559  30.233  34.064  1.00  0.00     0.034 A 
ATOM     59  C   UNL A   1      42.410  25.768  28.652  1.00  0.00     0.034 A 
ATOM     60  C   UNL A   1      43.571  29.211  34.087  1.00  0.00     0.049 A 
ATOM     61  C   UNL A   1      43.464  25.691  29.721  1.00  0.00     0.074 A 
ATOM     62  C   UNL A   1      44.565  29.005  35.027  1.00  0.00     0.029 A 
ATOM     63  N   UNL A   1      43.724  28.228  33.121  1.00  0.00    -0.354 N 
ATOM     64  N   UNL A   1      43.592  26.411  30.809  1.00  0.00    -0.248 NA
ATOM     65  C   UNL A   1      44.486  24.647  29.567  1.00  0.00     0.031 C 
ATOM     66  C   UNL A   1      45.340  27.917  34.609  1.00  0.00     0.029 A 
ATOM     67  C   UNL A   1      44.800  27.418  33.435  1.00  0.00     0.049 A 
ATOM     68  H   UNL A   1      43.151  28.123  32.327  1.00  0.00     0.167 HD
ATOM     69  C   UNL A   1      44.681  25.881  31.491  1.00  0.00     0.074 A 
ATOM     70  C   UNL A   1      45.163  24.766  30.700  1.00  0.00     0.031 C 
ATOM     71  C   UNL A   1      45.237  26.285  32.660  1.00  0.00     0.034 A 
BRANCH  58  72
ATOM     72  C   UNL A   1      42.553  31.269  35.159  1.00  0.00     0.023 A 
ATOM     73  C   UNL A   1      41.903  30.994  36.381  1.00  0.00     0.012 A 
ATOM     74  C   UNL A   1      43.224  32.499  35.000  1.00  0.00     0.148 A 
ATOM     75  C   UNL A   1      41.881  31.939  37.406  1.00  0.00     0.002 A 
ATOM     76  C   UNL A   1      43.242  33.415  36.045  1.00  0.00     0.091 A 
ATOM     77  F   UNL A   1      43.820  32.754  33.827  1.00  0.00    -0.205 F 
ATOM     78  C   UNL A   1      42.558  33.144  37.242  1.00  0.00     0.022 A 
BRANCH  76  79
ATOM     79  S   UNL A   1      44.156  34.958  35.968  1.00  0.00     0.127 S 
ATOM     80  O   UNL A   1      43.465  35.656  34.884  1.00  0.00    -0.237 OA
ATOM     81  O   UNL A   1      43.924  35.519  37.299  1.00  0.00    -0.237 OA
ATOM     82  O   UNL A   1      45.538  34.595  35.692  1.00  0.00    -0.744 OA
ENDBRANCH  76  79
ENDBRANCH  58  72
BRANCH  59  83
ATOM     83  C   UNL A   1      42.402  24.814  27.507  1.00  0.00     0.023 A 
ATOM     84  C   UNL A   1      43.201  25.079  26.377  1.00  0.00     0.012 A 
ATOM     85  C   UNL A   1      41.632  23.635  27.542  1.00  0.00     0.148 A 
ATOM     86  C   UNL A   1      43.203  24.208  25.288  1.00  0.00     0.002 A 
ATOM     87  C   UNL A   1      41.683  22.743  26.478  1.00  0.00     0.091 A 
ATOM     88  F   UNL A   1      40.877  23.403  28.626  1.00  0.00    -0.205 F 
ATOM     89  C   UNL A   1      42.452  23.037  25.341  1.00  0.00     0.022 A 
BRANCH  87  90
ATOM     90  S   UNL A   1      40.853  21.152  26.513  1.00  0.00     0.127 S 
ATOM     91  O   UNL A   1      40.861  20.842  27.941  1.00  0.00    -0.237 OA
ATOM     92  O   UNL A   1      39.538  21.488  25.963  1.00  0.00    -0.237 OA
ATOM     93  O   UNL A   1      41.650  20.271  25.671  1.00  0.00    -0.744 OA
ENDBRANCH  87  90
ENDBRANCH  59  83
BRANCH  71  94
ATOM     94  C   UNL A   1      46.399  25.482  33.188  1.00  0.00     0.023 A 
ATOM     95  C   UNL A   1      47.722  25.896  32.935  1.00  0.00     0.012 A 
ATOM     96  C   UNL A   1      46.171  24.341  33.982  1.00  0.00     0.148 A 
ATOM     97  C   UNL A   1      48.799  25.161  33.425  1.00  0.00     0.002 A 
ATOM     98  C   UNL A   1      47.249  23.646  34.514  1.00  0.00     0.091 A 
ATOM     99  F   UNL A   1      44.906  23.952  34.197  1.00  0.00    -0.205 F 
ATOM    100  C   UNL A   1      48.564  24.043  34.223  1.00  0.00     0.022 A 
BRANCH  98 101
ATOM    101  S   UNL A   1      47.038  22.259  35.635  1.00  0.00     0.127 S 
ATOM    102  O   UNL A   1      48.423  21.934  35.972  1.00  0.00    -0.237 OA
ATOM    103  O   UNL A   1      46.269  22.858  36.726  1.00  0.00    -0.237 OA
ATOM    104  O   UNL A   1      46.322  21.238  34.882  1.00  0.00    -0.744 OA
ENDBRANCH  98 101
ENDBRANCH  71  94
ENDBRANCH  45  46
ENDBRANCH  37  40
ENDBRANCH  35  36
ENDBRANCH  34  35
ENDBRANCH   1  34
TORSDOF 19
ENDMDL
MODEL 3
REMARK VINA RESULT:     -10.7      4.584      9.032
REMARK SMILES CCN1C(=O)N/C(=C/c2cc(Cl)c(OCc3cccc(C(=O)NCCCNC(=O)c4ccc(-c5c6nc(c(-c7cccc(S(=O)(=O)[O-])c7F)c7ccc([nH]7)c(-c7cccc(S(=O)(=O)[O-])c7F)c7nc(c(-c8cccc(S(=O)(=O)[O-])c8F)c8ccc5[nH]8)C=C7)C=C6)cc4)c3)c(OC)c2)C1=O
REMARK SMILES IDX 24 1 23 2 21 3 22 4 20 6 16 7 17 8 93 9 18 10 19 11 15 12
REMARK SMILES IDX 14 13 13 14 9 15 10 16 97 17 11 18 94 19 12 20 8 21 3 22
REMARK SMILES IDX 4 23 98 24 5 25 6 26 7 27 99 28 2 30 1 31 95 32 96 33 25 34
REMARK SMILES IDX 26 35 27 36 28 37 29 39 30 40 31 41 92 42 32 43 91 44 33 45
REMARK SMILES IDX 34 46 35 47 85 48 36 49 90 50 84 51 86 52 37 53 89 54 83 55
REMARK SMILES IDX 82 56 38 58 70 59 50 60 69 61 51 62 54 63 68 64 87 65 52 66
REMARK SMILES IDX 53 67 67 69 88 70 55 71 39 72 40 73 48 74 41 75 43 76 49 77
REMARK SMILES IDX 42 78 44 79 45 80 46 81 47 82 71 83 72 84 80 85 73 86 75 87
REMARK SMILES IDX 81 88 74 89 76 90 77 91 78 92 79 93 56 94 57 95 65 96 58 97
REMARK SMILES IDX 60 98 66 99 59 100 61 101 62 102 63 103 64 104
REMARK H PARENT 23 5 6 29 27 38 86 57 54 68
REMARK Flexibility Score: inf
ROOT
ATOM      1  C   UNL A   1      34.657  32.884  29.243  1.00  0.00     0.118 C 
ENDROOT
BRANCH   1   2
ATOM      2  N   UNL A   1      34.388  31.920  28.192  1.00  0.00    -0.352 N 
ATOM      3  C   UNL A   1      34.906  30.699  27.844  1.00  0.00     0.251 C 
ATOM      4  O   UNL A   1      34.340  30.121  26.912  1.00  0.00    -0.269 OA
ATOM      5  H   UNL A   1      33.666  32.209  27.590  1.00  0.00     0.163 HD
BRANCH   3   6
ATOM      6  C   UNL A   1      36.078  30.034  28.496  1.00  0.00     0.040 A 
ATOM      7  C   UNL A   1      37.365  29.206  30.421  1.00  0.00    -0.010 A 
ATOM      8  C   UNL A   1      38.379  28.778  29.565  1.00  0.00     0.007 A 
ATOM      9  C   UNL A   1      36.249  29.866  29.868  1.00  0.00     0.021 A 
ATOM     10  C   UNL A   1      38.245  28.954  28.186  1.00  0.00     0.001 A 
ATOM     11  C   UNL A   1      37.102  29.566  27.658  1.00  0.00     0.014 A 
BRANCH   7  12
ATOM     12  C   UNL A   1      37.400  29.091  31.934  1.00  0.00     0.265 C 
BRANCH  12  13
ATOM     13  O   UNL A   1      36.750  30.068  32.733  1.00  0.00    -0.483 OA
BRANCH  13  14
ATOM     14  C   UNL A   1      37.425  31.044  33.410  1.00  0.00     0.180 A 
ATOM     15  C   UNL A   1      38.571  33.362  34.509  1.00  0.00    -0.018 A 
ATOM     16  C   UNL A   1      39.276  32.155  34.508  1.00  0.00     0.033 A 
ATOM     17  C   UNL A   1      37.246  33.389  34.072  1.00  0.00     0.058 A 
ATOM     18  C   UNL A   1      38.708  30.995  33.966  1.00  0.00     0.087 A 
ATOM     19  C   UNL A   1      36.671  32.236  33.532  1.00  0.00     0.162 A 
ATOM     20  Cl  UNL A   1      39.673  29.566  34.095  1.00  0.00    -0.080 Cl
BRANCH  15  21
ATOM     21  C   UNL A   1      39.234  34.617  34.869  1.00  0.00     0.040 C 
ATOM     22  N   UNL A   1      39.274  35.172  38.416  1.00  0.00    -0.259 N 
ATOM     23  C   UNL A   1      39.937  36.274  37.924  1.00  0.00     0.328 C 
ATOM     24  C   UNL A   1      38.868  34.346  37.395  1.00  0.00     0.278 C 
ATOM     25  O   UNL A   1      40.386  37.221  38.548  1.00  0.00    -0.248 OA
ATOM     26  N   UNL A   1      39.997  36.154  36.543  1.00  0.00    -0.303 N 
ATOM     27  C   UNL A   1      39.366  35.014  36.141  1.00  0.00     0.109 C 
ATOM     28  O   UNL A   1      38.229  33.318  37.474  1.00  0.00    -0.267 OA
ATOM     29  H   UNL A   1      40.432  36.799  35.939  1.00  0.00     0.172 HD
BRANCH  22  30
ATOM     30  C   UNL A   1      38.903  34.989  39.807  1.00  0.00     0.127 C 
ATOM     31  C   UNL A   1      39.963  34.278  40.635  1.00  0.00     0.028 C 
ENDBRANCH  22  30
ENDBRANCH  15  21
BRANCH  19  32
ATOM     32  O   UNL A   1      35.392  32.184  33.029  1.00  0.00    -0.493 OA
ATOM     33  C   UNL A   1      34.645  33.388  32.982  1.00  0.00     0.278 C 
ENDBRANCH  19  32
ENDBRANCH  13  14
ENDBRANCH  12  13
ENDBRANCH   7  12
ENDBRANCH   3   6
ENDBRANCH   1   2
BRANCH   1  34
ATOM     34  C   UNL A   1      35.725  33.898  28.836  1.00  0.00     0.042 C 
BRANCH  34  35
ATOM     35  C   UNL A   1      37.056  33.673  29.558  1.00  0.00     0.118 C 
BRANCH  35  36
ATOM     36  N   UNL A   1      38.076  34.620  29.116  1.00  0.00    -0.352 N 
ATOM     37  C   UNL A   1      39.421  34.678  29.367  1.00  0.00     0.251 C 
ATOM     38  H   UNL A   1      37.740  35.342  28.538  1.00  0.00     0.163 HD
ATOM     39  O   UNL A   1      40.024  35.725  29.142  1.00  0.00    -0.269 OA
BRANCH  37  40
ATOM     40  C   UNL A   1      40.149  33.499  29.876  1.00  0.00     0.039 A 
ATOM     41  C   UNL A   1      39.431  32.483  30.510  1.00  0.00     0.014 A 
ATOM     42  C   UNL A   1      41.542  33.426  29.797  1.00  0.00     0.014 A 
ATOM     43  C   UNL A   1      40.107  31.381  31.033  1.00  0.00     0.010 A 
ATOM     44  C   UNL A   1      42.204  32.281  30.225  1.00  0.00     0.010 A 
ATOM     45  C   UNL A   1      41.497  31.259  30.871  1.00  0.00    -0.014 A 
BRANCH  45  46
ATOM     46  C   UNL A   1      42.225  30.075  31.387  1.00  0.00     0.031 A 
ATOM     47  C   UNL A   1      42.917  30.126  32.723  1.00  0.00     0.074 A 
ATOM     48  C   UNL A   1      42.311  28.971  30.618  1.00  0.00     0.049 A 
ATOM     49  N   UNL A   1      43.600  29.192  33.332  1.00  0.00    -0.248 NA
ATOM     50  C   UNL A   1      42.861  31.401  33.460  1.00  0.00     0.031 C 
ATOM     51  C   UNL A   1      41.754  28.836  29.269  1.00  0.00     0.029 A 
ATOM     52  N   UNL A   1      42.908  27.760  30.853  1.00  0.00    -0.354 N 
ATOM     53  C   UNL A   1      44.079  29.772  34.502  1.00  0.00     0.074 A 
ATOM     54  C   UNL A   1      43.652  31.153  34.493  1.00  0.00     0.031 C 
ATOM     55  C   UNL A   1      42.012  27.602  28.809  1.00  0.00     0.029 A 
ATOM     56  C   UNL A   1      42.779  26.872  29.812  1.00  0.00     0.049 A 
ATOM     57  H   UNL A   1      43.382  27.546  31.689  1.00  0.00     0.167 HD
ATOM     58  C   UNL A   1      44.780  29.200  35.508  1.00  0.00     0.034 A 
ATOM     59  C   UNL A   1      43.227  25.609  29.682  1.00  0.00     0.034 A 
ATOM     60  C   UNL A   1      45.174  27.817  35.521  1.00  0.00     0.049 A 
ATOM     61  C   UNL A   1      43.971  24.984  30.830  1.00  0.00     0.074 A 
ATOM     62  C   UNL A   1      45.821  27.114  36.522  1.00  0.00     0.029 A 
ATOM     63  N   UNL A   1      44.965  26.927  34.478  1.00  0.00    -0.354 N 
ATOM     64  N   UNL A   1      44.285  25.504  31.992  1.00  0.00    -0.248 NA
ATOM     65  C   UNL A   1      44.385  23.585  30.666  1.00  0.00     0.031 C 
ATOM     66  C   UNL A   1      46.033  25.807  36.069  1.00  0.00     0.029 A 
ATOM     67  C   UNL A   1      45.477  25.684  34.806  1.00  0.00     0.049 A 
ATOM     68  H   UNL A   1      44.518  27.147  33.629  1.00  0.00     0.167 HD
ATOM     69  C   UNL A   1      44.893  24.484  32.714  1.00  0.00     0.074 A 
ATOM     70  C   UNL A   1      44.885  23.312  31.862  1.00  0.00     0.031 C 
ATOM     71  C   UNL A   1      45.419  24.516  33.964  1.00  0.00     0.034 A 
BRANCH  58  72
ATOM     72  C   UNL A   1      45.127  30.061  36.697  1.00  0.00     0.023 A 
ATOM     73  C   UNL A   1      46.463  30.467  36.902  1.00  0.00     0.012 A 
ATOM     74  C   UNL A   1      44.130  30.504  37.589  1.00  0.00     0.148 A 
ATOM     75  C   UNL A   1      46.808  31.259  37.997  1.00  0.00     0.002 A 
ATOM     76  C   UNL A   1      44.473  31.336  38.648  1.00  0.00     0.091 A 
ATOM     77  F   UNL A   1      42.869  30.094  37.393  1.00  0.00    -0.205 F 
ATOM     78  C   UNL A   1      45.813  31.701  38.863  1.00  0.00     0.022 A 
BRANCH  76  79
ATOM     79  S   UNL A   1      43.256  32.030  39.771  1.00  0.00     0.127 S 
ATOM     80  O   UNL A   1      43.751  33.397  39.935  1.00  0.00    -0.237 OA
ATOM     81  O   UNL A   1      42.022  31.919  38.992  1.00  0.00    -0.237 OA
ATOM     82  O   UNL A   1      43.296  31.205  40.969  1.00  0.00    -0.744 OA
ENDBRANCH  76  79
ENDBRANCH  58  72
BRANCH  59  83
ATOM     83  C   UNL A   1      42.914  24.829  28.452  1.00  0.00     0.023 A 
ATOM     84  C   UNL A   1      41.601  24.366  28.238  1.00  0.00     0.012 A 
ATOM     85  C   UNL A   1      43.901  24.566  27.482  1.00  0.00     0.148 A 
ATOM     86  C   UNL A   1      41.284  23.624  27.101  1.00  0.00     0.002 A 
ATOM     87  C   UNL A   1      43.565  23.875  26.324  1.00  0.00     0.091 A 
ATOM     88  F   UNL A   1      45.145  25.013  27.706  1.00  0.00    -0.205 F 
ATOM     89  C   UNL A   1      42.263  23.386  26.140  1.00  0.00     0.022 A 
BRANCH  87  90
ATOM     90  S   UNL A   1      44.726  23.635  24.975  1.00  0.00     0.127 S 
ATOM     91  O   UNL A   1      45.076  25.012  24.632  1.00  0.00    -0.237 OA
ATOM     92  O   UNL A   1      45.791  22.872  25.628  1.00  0.00    -0.237 OA
ATOM     93  O   UNL A   1      43.997  22.897  23.953  1.00  0.00    -0.744 OA
ENDBRANCH  87  90
ENDBRANCH  59  83
BRANCH  71  94
ATOM     94  C   UNL A   1      45.982  23.230  34.512  1.00  0.00     0.023 A 
ATOM     95  C   UNL A   1      45.121  22.249  35.044  1.00  0.00     0.012 A 
ATOM     96  C   UNL A   1      47.366  22.977  34.452  1.00  0.00     0.148 A 
ATOM     97  C   UNL A   1      45.635  21.056  35.549  1.00  0.00     0.002 A 
ATOM     98  C   UNL A   1      47.865  21.762  34.905  1.00  0.00     0.091 A 
ATOM     99  F   UNL A   1      48.171  23.930  33.959  1.00  0.00    -0.205 F 
ATOM    100  C   UNL A   1      47.004  20.808  35.469  1.00  0.00     0.022 A 
BRANCH  98 101
ATOM    101  S   UNL A   1      49.596  21.317  34.746  1.00  0.00     0.127 S 
ATOM    102  O   UNL A   1      49.801  21.424  33.302  1.00  0.00    -0.237 OA
ATOM    103  O   UNL A   1      50.257  22.358  35.534  1.00  0.00    -0.237 OA
ATOM    104  O   UNL A   1      49.719  19.973  35.296  1.00  0.00    -0.744 OA
ENDBRANCH  98 101
ENDBRANCH  71  94
ENDBRANCH  45  46
ENDBRANCH  37  40
ENDBRANCH  35  36
ENDBRANCH  34  35
ENDBRANCH   1  34
TORSDOF 19
ENDMDL
