MODEL 1
REMARK VINA RESULT:     -11.2      0.000      0.000
REMARK SMILES CCC[C@]1(C(=O)NCCCNC(=O)c2ccc(-c3c4nc(c(-c5cccc(S(=O)(=O)[O-])c5F)c5ccc([nH]5)c(-c5cccc(S(=O)(=O)[O-])c5F)c5nc(c(-c6cccc(S(=O)(=O)[O-])c6F)c6ccc3[nH]6)C=C5)C=C4)cc2)CCN(C(=O)N[C@H]2CCOC2)C1
REMARK SMILES IDX 9 1 8 2 7 3 5 4 6 5 4 7 77 8 88 9 78 10 79 11 3 12 2 13 1 14
REMARK SMILES IDX 80 15 81 16 82 17 83 19 84 20 87 21 85 22 86 23 10 24 11 25
REMARK SMILES IDX 12 26 13 28 14 29 15 30 76 31 16 32 75 33 17 34 18 35 19 36
REMARK SMILES IDX 69 37 20 38 74 39 68 40 70 41 21 42 73 43 67 44 66 45 22 47
REMARK SMILES IDX 54 48 34 49 53 50 35 51 38 52 52 53 71 54 36 55 37 56 51 58
REMARK SMILES IDX 72 59 39 60 23 61 24 62 32 63 25 64 27 65 33 66 26 67 28 68
REMARK SMILES IDX 29 69 30 70 31 71 55 72 56 73 64 74 57 75 59 76 65 77 58 78
REMARK SMILES IDX 60 79 61 80 62 81 63 82 40 83 41 84 49 85 42 86 44 87 50 88
REMARK SMILES IDX 43 89 45 90 46 91 47 92 48 93
REMARK H PARENT 7 6 82 18 11 27 70 46 38 57
REMARK Flexibility Score: inf
ROOT
ATOM      1  C   UNL A   1      31.360  32.107  26.514  1.00  0.00     0.042 C 
ENDROOT
BRANCH   1   2
ATOM      2  C   UNL A   1      31.363  30.606  26.264  1.00  0.00     0.117 C 
BRANCH   2   3
ATOM      3  N   UNL A   1      32.085  30.235  25.061  1.00  0.00    -0.355 N 
ATOM      4  C   UNL A   1      32.644  29.080  24.626  1.00  0.00     0.228 C 
ATOM      5  O   UNL A   1      32.985  29.095  23.438  1.00  0.00    -0.274 OA
ATOM      6  H   UNL A   1      32.191  30.980  24.426  1.00  0.00     0.163 HD
BRANCH   4   7
ATOM      7  C   UNL A   1      32.788  27.810  25.484  1.00  0.00     0.068 C 
ATOM      8  C   UNL A   1      31.500  26.998  25.773  1.00  0.00     0.040 C 
ATOM      9  C   UNL A   1      33.654  26.791  24.676  1.00  0.00     0.138 C 
ATOM     10  C   UNL A   1      31.999  25.562  25.761  1.00  0.00     0.122 C 
ATOM     11  N   UNL A   1      32.859  25.562  24.617  1.00  0.00    -0.324 N 
BRANCH   7  12
ATOM     12  C   UNL A   1      33.480  28.148  26.848  1.00  0.00     0.018 C 
BRANCH  12  13
ATOM     13  C   UNL A   1      34.821  28.917  26.854  1.00  0.00    -0.002 C 
ATOM     14  C   UNL A   1      34.994  30.049  27.855  1.00  0.00     0.004 C 
ENDBRANCH  12  13
ENDBRANCH   7  12
BRANCH  11  15
ATOM     15  C   UNL A   1      33.031  24.686  23.608  1.00  0.00     0.317 C 
ATOM     16  O   UNL A   1      32.243  24.683  22.652  1.00  0.00    -0.249 OA
ATOM     17  N   UNL A   1      33.991  23.761  23.531  1.00  0.00    -0.333 N 
ATOM     18  H   UNL A   1      34.039  23.455  22.596  1.00  0.00     0.165 HD
BRANCH  17  19
ATOM     19  C   UNL A   1      35.009  23.019  24.297  1.00  0.00     0.112 C 
ATOM     20  C   UNL A   1      34.883  21.555  24.632  1.00  0.00     0.056 C 
ATOM     21  C   UNL A   1      36.358  23.027  23.561  1.00  0.00     0.185 C 
ATOM     22  C   UNL A   1      36.310  21.116  24.874  1.00  0.00     0.162 C 
ATOM     23  O   UNL A   1      37.125  21.907  24.011  1.00  0.00    -0.379 OA
ENDBRANCH  17  19
ENDBRANCH  11  15
ENDBRANCH   4   7
ENDBRANCH   2   3
ENDBRANCH   1   2
BRANCH   1  24
ATOM     24  C   UNL A   1      32.669  32.663  27.063  1.00  0.00     0.118 C 
BRANCH  24  25
ATOM     25  N   UNL A   1      32.525  33.984  27.658  1.00  0.00    -0.352 N 
ATOM     26  C   UNL A   1      33.210  34.562  28.699  1.00  0.00     0.251 C 
ATOM     27  H   UNL A   1      31.829  34.550  27.252  1.00  0.00     0.163 HD
ATOM     28  O   UNL A   1      32.824  35.631  29.162  1.00  0.00    -0.269 OA
BRANCH  26  29
ATOM     29  C   UNL A   1      34.395  33.890  29.274  1.00  0.00     0.039 A 
ATOM     30  C   UNL A   1      35.668  34.350  28.925  1.00  0.00     0.014 A 
ATOM     31  C   UNL A   1      34.256  32.811  30.151  1.00  0.00     0.014 A 
ATOM     32  C   UNL A   1      36.797  33.773  29.510  1.00  0.00     0.010 A 
ATOM     33  C   UNL A   1      35.376  32.297  30.796  1.00  0.00     0.010 A 
ATOM     34  C   UNL A   1      36.659  32.768  30.481  1.00  0.00    -0.014 A 
BRANCH  34  35
ATOM     35  C   UNL A   1      37.838  32.203  31.187  1.00  0.00     0.031 A 
ATOM     36  C   UNL A   1      38.616  31.068  30.575  1.00  0.00     0.074 A 
ATOM     37  C   UNL A   1      38.146  32.641  32.426  1.00  0.00     0.049 A 
ATOM     38  N   UNL A   1      39.611  30.385  31.080  1.00  0.00    -0.248 NA
ATOM     39  C   UNL A   1      38.204  30.621  29.234  1.00  0.00     0.031 C 
ATOM     40  C   UNL A   1      37.420  33.679  33.161  1.00  0.00     0.029 A 
ATOM     41  N   UNL A   1      39.126  32.241  33.300  1.00  0.00    -0.354 N 
ATOM     42  C   UNL A   1      39.912  29.403  30.143  1.00  0.00     0.074 A 
ATOM     43  C   UNL A   1      38.980  29.562  29.049  1.00  0.00     0.031 C 
ATOM     44  C   UNL A   1      37.973  33.827  34.376  1.00  0.00     0.029 A 
ATOM     45  C   UNL A   1      39.066  32.873  34.522  1.00  0.00     0.049 A 
ATOM     46  H   UNL A   1      39.807  31.566  33.076  1.00  0.00     0.167 HD
ATOM     47  C   UNL A   1      40.888  28.467  30.181  1.00  0.00     0.034 A 
ATOM     48  C   UNL A   1      39.794  32.690  35.642  1.00  0.00     0.034 A 
ATOM     49  C   UNL A   1      41.845  28.343  31.248  1.00  0.00     0.049 A 
ATOM     50  C   UNL A   1      40.904  31.674  35.636  1.00  0.00     0.074 A 
ATOM     51  C   UNL A   1      42.937  27.498  31.325  1.00  0.00     0.029 A 
ATOM     52  N   UNL A   1      41.814  29.070  32.426  1.00  0.00    -0.354 N 
ATOM     53  N   UNL A   1      41.281  30.870  34.671  1.00  0.00    -0.248 NA
ATOM     54  C   UNL A   1      41.713  31.563  36.859  1.00  0.00     0.031 C 
ATOM     55  C   UNL A   1      43.547  27.688  32.569  1.00  0.00     0.029 A 
ATOM     56  C   UNL A   1      42.859  28.681  33.246  1.00  0.00     0.049 A 
ATOM     57  H   UNL A   1      41.149  29.761  32.648  1.00  0.00     0.167 HD
ATOM     58  C   UNL A   1      42.390  30.186  35.156  1.00  0.00     0.074 A 
ATOM     59  C   UNL A   1      42.638  30.685  36.493  1.00  0.00     0.031 C 
ATOM     60  C   UNL A   1      43.129  29.223  34.553  1.00  0.00     0.034 A 
BRANCH  47  61
ATOM     61  C   UNL A   1      41.006  27.518  29.017  1.00  0.00     0.023 A 
ATOM     62  C   UNL A   1      40.156  26.397  28.937  1.00  0.00     0.012 A 
ATOM     63  C   UNL A   1      41.901  27.784  27.961  1.00  0.00     0.148 A 
ATOM     64  C   UNL A   1      40.212  25.540  27.837  1.00  0.00     0.002 A 
ATOM     65  C   UNL A   1      41.918  26.952  26.847  1.00  0.00     0.091 A 
ATOM     66  F   UNL A   1      42.715  28.844  28.065  1.00  0.00    -0.205 F 
ATOM     67  C   UNL A   1      41.083  25.824  26.790  1.00  0.00     0.022 A 
BRANCH  65  68
ATOM     68  S   UNL A   1      42.941  27.280  25.407  1.00  0.00     0.127 S 
ATOM     69  O   UNL A   1      42.858  26.008  24.692  1.00  0.00    -0.237 OA
ATOM     70  O   UNL A   1      42.227  28.386  24.770  1.00  0.00    -0.237 OA
ATOM     71  O   UNL A   1      44.261  27.619  25.919  1.00  0.00    -0.744 OA
ENDBRANCH  65  68
ENDBRANCH  47  61
BRANCH  48  72
ATOM     72  C   UNL A   1      39.521  33.515  36.854  1.00  0.00     0.023 A 
ATOM     73  C   UNL A   1      39.985  34.843  36.912  1.00  0.00     0.012 A 
ATOM     74  C   UNL A   1      38.798  32.992  37.944  1.00  0.00     0.148 A 
ATOM     75  C   UNL A   1      39.770  35.623  38.049  1.00  0.00     0.002 A 
ATOM     76  C   UNL A   1      38.537  33.792  39.050  1.00  0.00     0.091 A 
ATOM     77  F   UNL A   1      38.374  31.722  37.875  1.00  0.00    -0.205 F 
ATOM     78  C   UNL A   1      39.037  35.101  39.113  1.00  0.00     0.022 A 
BRANCH  76  79
ATOM     79  S   UNL A   1      37.498  33.243  40.409  1.00  0.00     0.127 S 
ATOM     80  O   UNL A   1      38.279  32.135  40.954  1.00  0.00    -0.237 OA
ATOM     81  O   UNL A   1      37.448  34.436  41.255  1.00  0.00    -0.237 OA
ATOM     82  O   UNL A   1      36.220  32.882  39.808  1.00  0.00    -0.744 OA
ENDBRANCH  76  79
ENDBRANCH  48  72
BRANCH  60  83
ATOM     83  C   UNL A   1      44.311  28.668  35.305  1.00  0.00     0.023 A 
ATOM     84  C   UNL A   1      45.590  29.231  35.122  1.00  0.00     0.012 A 
ATOM     85  C   UNL A   1      44.134  27.646  36.257  1.00  0.00     0.148 A 
ATOM     86  C   UNL A   1      46.680  28.762  35.854  1.00  0.00     0.002 A 
ATOM     87  C   UNL A   1      45.213  27.221  37.022  1.00  0.00     0.091 A 
ATOM     88  F   UNL A   1      42.912  27.114  36.404  1.00  0.00    -0.205 F 
ATOM     89  C   UNL A   1      46.490  27.769  36.811  1.00  0.00     0.022 A 
BRANCH  87  90
ATOM     90  S   UNL A   1      45.043  26.021  38.346  1.00  0.00     0.127 S 
ATOM     91  O   UNL A   1      44.615  24.829  37.615  1.00  0.00    -0.237 OA
ATOM     92  O   UNL A   1      46.405  25.952  38.877  1.00  0.00    -0.237 OA
ATOM     93  O   UNL A   1      44.060  26.572  39.268  1.00  0.00    -0.744 OA
ENDBRANCH  87  90
ENDBRANCH  60  83
ENDBRANCH  34  35
ENDBRANCH  26  29
ENDBRANCH  24  25
ENDBRANCH   1  24
TORSDOF 17
ENDMDL
MODEL 2
REMARK VINA RESULT:     -11.1      6.191     11.491
REMARK SMILES CCC[C@]1(C(=O)NCCCNC(=O)c2ccc(-c3c4nc(c(-c5cccc(S(=O)(=O)[O-])c5F)c5ccc([nH]5)c(-c5cccc(S(=O)(=O)[O-])c5F)c5nc(c(-c6cccc(S(=O)(=O)[O-])c6F)c6ccc3[nH]6)C=C5)C=C4)cc2)CCN(C(=O)N[C@H]2CCOC2)C1
REMARK SMILES IDX 9 1 8 2 7 3 5 4 6 5 4 7 77 8 88 9 78 10 79 11 3 12 2 13 1 14
REMARK SMILES IDX 80 15 81 16 82 17 83 19 84 20 87 21 85 22 86 23 10 24 11 25
REMARK SMILES IDX 12 26 13 28 14 29 15 30 76 31 16 32 75 33 17 34 18 35 19 36
REMARK SMILES IDX 69 37 20 38 74 39 68 40 70 41 21 42 73 43 67 44 66 45 22 47
REMARK SMILES IDX 54 48 34 49 53 50 35 51 38 52 52 53 71 54 36 55 37 56 51 58
REMARK SMILES IDX 72 59 39 60 23 61 24 62 32 63 25 64 27 65 33 66 26 67 28 68
REMARK SMILES IDX 29 69 30 70 31 71 55 72 56 73 64 74 57 75 59 76 65 77 58 78
REMARK SMILES IDX 60 79 61 80 62 81 63 82 40 83 41 84 49 85 42 86 44 87 50 88
REMARK SMILES IDX 43 89 45 90 46 91 47 92 48 93
REMARK H PARENT 7 6 82 18 11 27 70 46 38 57
REMARK Flexibility Score: inf
ROOT
ATOM      1  C   UNL A   1      37.704  19.428  24.999  1.00  0.00     0.042 C 
ENDROOT
BRANCH   1   2
ATOM      2  C   UNL A   1      36.519  20.302  24.615  1.00  0.00     0.117 C 
BRANCH   2   3
ATOM      3  N   UNL A   1      35.604  20.529  25.719  1.00  0.00    -0.355 N 
ATOM      4  C   UNL A   1      34.782  21.553  26.054  1.00  0.00     0.228 C 
ATOM      5  O   UNL A   1      33.983  21.288  26.959  1.00  0.00    -0.274 OA
ATOM      6  H   UNL A   1      35.572  19.782  26.358  1.00  0.00     0.163 HD
BRANCH   4   7
ATOM      7  C   UNL A   1      34.761  22.917  25.341  1.00  0.00     0.068 C 
ATOM      8  C   UNL A   1      34.853  22.912  23.794  1.00  0.00     0.040 C 
ATOM      9  C   UNL A   1      33.359  23.560  25.594  1.00  0.00     0.138 C 
ATOM     10  C   UNL A   1      33.956  24.075  23.401  1.00  0.00     0.122 C 
ATOM     11  N   UNL A   1      32.831  23.881  24.265  1.00  0.00    -0.324 N 
BRANCH   7  12
ATOM     12  C   UNL A   1      35.892  23.844  25.903  1.00  0.00     0.018 C 
BRANCH  12  13
ATOM     13  C   UNL A   1      37.333  23.703  25.363  1.00  0.00    -0.002 C 
ATOM     14  C   UNL A   1      38.481  23.746  26.360  1.00  0.00     0.004 C 
ENDBRANCH  12  13
ENDBRANCH   7  12
BRANCH  11  15
ATOM     15  C   UNL A   1      31.502  23.951  24.059  1.00  0.00     0.317 C 
ATOM     16  O   UNL A   1      30.949  23.136  23.307  1.00  0.00    -0.249 OA
ATOM     17  N   UNL A   1      30.677  24.861  24.583  1.00  0.00    -0.333 N 
ATOM     18  H   UNL A   1      29.757  24.523  24.485  1.00  0.00     0.165 HD
BRANCH  17  19
ATOM     19  C   UNL A   1      30.604  26.172  25.253  1.00  0.00     0.112 C 
ATOM     20  C   UNL A   1      31.651  26.663  26.220  1.00  0.00     0.056 C 
ATOM     21  C   UNL A   1      30.614  27.312  24.221  1.00  0.00     0.185 C 
ATOM     22  C   UNL A   1      31.494  28.167  26.189  1.00  0.00     0.162 C 
ATOM     23  O   UNL A   1      31.080  28.500  24.865  1.00  0.00    -0.379 OA
ENDBRANCH  17  19
ENDBRANCH  11  15
ENDBRANCH   4   7
ENDBRANCH   2   3
ENDBRANCH   1   2
BRANCH   1  24
ATOM     24  C   UNL A   1      38.831  20.164  25.714  1.00  0.00     0.118 C 
BRANCH  24  25
ATOM     25  N   UNL A   1      40.004  19.332  25.942  1.00  0.00    -0.352 N 
ATOM     26  C   UNL A   1      41.290  19.689  26.269  1.00  0.00     0.251 C 
ATOM     27  H   UNL A   1      39.852  18.364  25.848  1.00  0.00     0.163 HD
ATOM     28  O   UNL A   1      42.178  18.844  26.255  1.00  0.00    -0.269 OA
BRANCH  26  29
ATOM     29  C   UNL A   1      41.607  21.092  26.615  1.00  0.00     0.039 A 
ATOM     30  C   UNL A   1      41.956  21.399  27.933  1.00  0.00     0.014 A 
ATOM     31  C   UNL A   1      41.559  22.100  25.650  1.00  0.00     0.014 A 
ATOM     32  C   UNL A   1      42.324  22.705  28.266  1.00  0.00     0.010 A 
ATOM     33  C   UNL A   1      42.009  23.378  25.963  1.00  0.00     0.010 A 
ATOM     34  C   UNL A   1      42.392  23.697  27.275  1.00  0.00    -0.014 A 
BRANCH  34  35
ATOM     35  C   UNL A   1      42.872  25.070  27.581  1.00  0.00     0.031 A 
ATOM     36  C   UNL A   1      41.940  26.077  28.202  1.00  0.00     0.074 A 
ATOM     37  C   UNL A   1      44.114  25.441  27.207  1.00  0.00     0.049 A 
ATOM     38  N   UNL A   1      42.147  27.343  28.456  1.00  0.00    -0.248 NA
ATOM     39  C   UNL A   1      40.589  25.609  28.556  1.00  0.00     0.031 C 
ATOM     40  C   UNL A   1      45.085  24.583  26.525  1.00  0.00     0.029 A 
ATOM     41  N   UNL A   1      44.758  26.650  27.313  1.00  0.00    -0.354 N 
ATOM     42  C   UNL A   1      40.944  27.833  28.952  1.00  0.00     0.074 A 
ATOM     43  C   UNL A   1      40.004  26.733  28.944  1.00  0.00     0.031 C 
ATOM     44  C   UNL A   1      46.195  25.292  26.266  1.00  0.00     0.029 A 
ATOM     45  C   UNL A   1      46.004  26.662  26.728  1.00  0.00     0.049 A 
ATOM     46  H   UNL A   1      44.367  27.432  27.763  1.00  0.00     0.167 HD
ATOM     47  C   UNL A   1      40.654  29.078  29.396  1.00  0.00     0.034 A 
ATOM     48  C   UNL A   1      46.886  27.668  26.560  1.00  0.00     0.034 A 
ATOM     49  C   UNL A   1      41.606  30.156  29.449  1.00  0.00     0.049 A 
ATOM     50  C   UNL A   1      46.554  29.031  27.107  1.00  0.00     0.074 A 
ATOM     51  C   UNL A   1      41.438  31.421  29.982  1.00  0.00     0.029 A 
ATOM     52  N   UNL A   1      42.892  30.101  28.939  1.00  0.00    -0.354 N 
ATOM     53  N   UNL A   1      45.471  29.428  27.729  1.00  0.00    -0.248 NA
ATOM     54  C   UNL A   1      47.578  30.076  26.961  1.00  0.00     0.031 C 
ATOM     55  C   UNL A   1      42.613  32.145  29.761  1.00  0.00     0.029 A 
ATOM     56  C   UNL A   1      43.525  31.318  29.129  1.00  0.00     0.049 A 
ATOM     57  H   UNL A   1      43.297  29.315  28.507  1.00  0.00     0.167 HD
ATOM     58  C   UNL A   1      45.697  30.754  28.080  1.00  0.00     0.074 A 
ATOM     59  C   UNL A   1      47.029  31.087  27.620  1.00  0.00     0.031 C 
ATOM     60  C   UNL A   1      44.871  31.621  28.715  1.00  0.00     0.034 A 
BRANCH  47  61
ATOM     61  C   UNL A   1      39.261  29.345  29.899  1.00  0.00     0.023 A 
ATOM     62  C   UNL A   1      38.904  28.970  31.210  1.00  0.00     0.012 A 
ATOM     63  C   UNL A   1      38.332  30.046  29.104  1.00  0.00     0.148 A 
ATOM     64  C   UNL A   1      37.636  29.262  31.712  1.00  0.00     0.002 A 
ATOM     65  C   UNL A   1      37.086  30.375  29.628  1.00  0.00     0.091 A 
ATOM     66  F   UNL A   1      38.682  30.377  27.853  1.00  0.00    -0.205 F 
ATOM     67  C   UNL A   1      36.733  29.973  30.927  1.00  0.00     0.022 A 
BRANCH  65  68
ATOM     68  S   UNL A   1      35.885  31.362  28.729  1.00  0.00     0.127 S 
ATOM     69  O   UNL A   1      36.697  32.504  28.311  1.00  0.00    -0.237 OA
ATOM     70  O   UNL A   1      35.497  30.460  27.645  1.00  0.00    -0.237 OA
ATOM     71  O   UNL A   1      34.823  31.669  29.677  1.00  0.00    -0.744 OA
ENDBRANCH  65  68
ENDBRANCH  47  61
BRANCH  48  72
ATOM     72  C   UNL A   1      48.187  27.417  25.876  1.00  0.00     0.023 A 
ATOM     73  C   UNL A   1      49.306  27.018  26.631  1.00  0.00     0.012 A 
ATOM     74  C   UNL A   1      48.317  27.564  24.481  1.00  0.00     0.148 A 
ATOM     75  C   UNL A   1      50.541  26.809  26.016  1.00  0.00     0.002 A 
ATOM     76  C   UNL A   1      49.535  27.299  23.867  1.00  0.00     0.091 A 
ATOM     77  F   UNL A   1      47.243  27.956  23.780  1.00  0.00    -0.205 F 
ATOM     78  C   UNL A   1      50.653  26.939  24.634  1.00  0.00     0.022 A 
BRANCH  76  79
ATOM     79  S   UNL A   1      49.737  27.321  22.082  1.00  0.00     0.127 S 
ATOM     80  O   UNL A   1      48.722  26.361  21.654  1.00  0.00    -0.237 OA
ATOM     81  O   UNL A   1      49.438  28.718  21.760  1.00  0.00    -0.237 OA
ATOM     82  O   UNL A   1      51.119  26.934  21.836  1.00  0.00    -0.744 OA
ENDBRANCH  76  79
ENDBRANCH  48  72
BRANCH  60  83
ATOM     83  C   UNL A   1      45.390  33.007  29.001  1.00  0.00     0.023 A 
ATOM     84  C   UNL A   1      46.133  33.254  30.172  1.00  0.00     0.012 A 
ATOM     85  C   UNL A   1      45.212  34.041  28.062  1.00  0.00     0.148 A 
ATOM     86  C   UNL A   1      46.665  34.519  30.418  1.00  0.00     0.002 A 
ATOM     87  C   UNL A   1      45.790  35.284  28.288  1.00  0.00     0.091 A 
ATOM     88  F   UNL A   1      44.487  33.789  26.963  1.00  0.00    -0.205 F 
ATOM     89  C   UNL A   1      46.506  35.528  29.472  1.00  0.00     0.022 A 
BRANCH  87  90
ATOM     90  S   UNL A   1      45.724  36.612  27.081  1.00  0.00     0.127 S 
ATOM     91  O   UNL A   1      46.362  35.993  25.920  1.00  0.00    -0.237 OA
ATOM     92  O   UNL A   1      44.283  36.830  26.941  1.00  0.00    -0.237 OA
ATOM     93  O   UNL A   1      46.451  37.729  27.669  1.00  0.00    -0.744 OA
ENDBRANCH  87  90
ENDBRANCH  60  83
ENDBRANCH  34  35
ENDBRANCH  26  29
ENDBRANCH  24  25
ENDBRANCH   1  24
TORSDOF 17
ENDMDL
MODEL 3
REMARK VINA RESULT:     -11.1      3.351      8.843
REMARK SMILES CCC[C@]1(C(=O)NCCCNC(=O)c2ccc(-c3c4nc(c(-c5cccc(S(=O)(=O)[O-])c5F)c5ccc([nH]5)c(-c5cccc(S(=O)(=O)[O-])c5F)c5nc(c(-c6cccc(S(=O)(=O)[O-])c6F)c6ccc3[nH]6)C=C5)C=C4)cc2)CCN(C(=O)N[C@H]2CCOC2)C1
REMARK SMILES IDX 9 1 8 2 7 3 5 4 6 5 4 7 77 8 88 9 78 10 79 11 3 12 2 13 1 14
REMARK SMILES IDX 80 15 81 16 82 17 83 19 84 20 87 21 85 22 86 23 10 24 11 25
REMARK SMILES IDX 12 26 13 28 14 29 15 30 76 31 16 32 75 33 17 34 18 35 19 36
REMARK SMILES IDX 69 37 20 38 74 39 68 40 70 41 21 42 73 43 67 44 66 45 22 47
REMARK SMILES IDX 54 48 34 49 53 50 35 51 38 52 52 53 71 54 36 55 37 56 51 58
REMARK SMILES IDX 72 59 39 60 23 61 24 62 32 63 25 64 27 65 33 66 26 67 28 68
REMARK SMILES IDX 29 69 30 70 31 71 55 72 56 73 64 74 57 75 59 76 65 77 58 78
REMARK SMILES IDX 60 79 61 80 62 81 63 82 40 83 41 84 49 85 42 86 44 87 50 88
REMARK SMILES IDX 43 89 45 90 46 91 47 92 48 93
REMARK H PARENT 7 6 82 18 11 27 70 46 38 57
REMARK Flexibility Score: inf
ROOT
ATOM      1  C   UNL A   1      34.066  28.195  24.755  1.00  0.00     0.042 C 
ENDROOT
BRANCH   1   2
ATOM      2  C   UNL A   1      32.887  27.301  24.402  1.00  0.00     0.117 C 
BRANCH   2   3
ATOM      3  N   UNL A   1      32.595  26.319  25.431  1.00  0.00    -0.355 N 
ATOM      4  C   UNL A   1      32.744  24.975  25.506  1.00  0.00     0.228 C 
ATOM      5  O   UNL A   1      32.586  24.508  26.640  1.00  0.00    -0.274 OA
ATOM      6  H   UNL A   1      32.209  26.713  26.246  1.00  0.00     0.163 HD
BRANCH   4   7
ATOM      7  C   UNL A   1      33.152  24.080  24.322  1.00  0.00     0.068 C 
ATOM      8  C   UNL A   1      34.572  24.281  23.734  1.00  0.00     0.040 C 
ATOM      9  C   UNL A   1      33.209  22.607  24.841  1.00  0.00     0.138 C 
ATOM     10  C   UNL A   1      34.981  22.868  23.351  1.00  0.00     0.122 C 
ATOM     11  N   UNL A   1      34.546  22.119  24.491  1.00  0.00    -0.324 N 
BRANCH   7  12
ATOM     12  C   UNL A   1      32.111  24.205  23.159  1.00  0.00     0.018 C 
BRANCH  12  13
ATOM     13  C   UNL A   1      30.601  24.088  23.470  1.00  0.00    -0.002 C 
ATOM     14  C   UNL A   1      29.797  25.370  23.619  1.00  0.00     0.004 C 
ENDBRANCH  12  13
ENDBRANCH   7  12
BRANCH  11  15
ATOM     15  C   UNL A   1      35.120  21.133  25.206  1.00  0.00     0.317 C 
ATOM     16  O   UNL A   1      36.122  21.372  25.894  1.00  0.00    -0.249 OA
ATOM     17  N   UNL A   1      34.723  19.858  25.239  1.00  0.00    -0.333 N 
ATOM     18  H   UNL A   1      35.141  19.434  26.024  1.00  0.00     0.165 HD
BRANCH  17  19
ATOM     19  C   UNL A   1      33.902  18.838  24.562  1.00  0.00     0.112 C 
ATOM     20  C   UNL A   1      34.468  17.547  24.027  1.00  0.00     0.056 C 
ATOM     21  C   UNL A   1      32.813  18.301  25.505  1.00  0.00     0.185 C 
ATOM     22  C   UNL A   1      33.270  16.624  23.970  1.00  0.00     0.162 C 
ATOM     23  O   UNL A   1      32.419  17.005  25.048  1.00  0.00    -0.379 OA
ENDBRANCH  17  19
ENDBRANCH  11  15
ENDBRANCH   4   7
ENDBRANCH   2   3
ENDBRANCH   1   2
BRANCH   1  24
ATOM     24  C   UNL A   1      34.242  28.457  26.246  1.00  0.00     0.118 C 
BRANCH  24  25
ATOM     25  N   UNL A   1      33.943  29.830  26.625  1.00  0.00    -0.352 N 
ATOM     26  C   UNL A   1      34.591  30.664  27.505  1.00  0.00     0.251 C 
ATOM     27  H   UNL A   1      33.155  30.223  26.183  1.00  0.00     0.163 HD
ATOM     28  O   UNL A   1      34.082  31.737  27.812  1.00  0.00    -0.269 OA
BRANCH  26  29
ATOM     29  C   UNL A   1      35.885  30.262  28.095  1.00  0.00     0.039 A 
ATOM     30  C   UNL A   1      35.896  29.672  29.362  1.00  0.00     0.014 A 
ATOM     31  C   UNL A   1      37.084  30.465  27.407  1.00  0.00     0.014 A 
ATOM     32  C   UNL A   1      37.101  29.223  29.907  1.00  0.00     0.010 A 
ATOM     33  C   UNL A   1      38.269  29.940  27.914  1.00  0.00     0.010 A 
ATOM     34  C   UNL A   1      38.292  29.317  29.171  1.00  0.00    -0.014 A 
BRANCH  34  35
ATOM     35  C   UNL A   1      39.571  28.762  29.686  1.00  0.00     0.031 A 
ATOM     36  C   UNL A   1      40.301  29.457  30.805  1.00  0.00     0.074 A 
ATOM     37  C   UNL A   1      40.126  27.694  29.079  1.00  0.00     0.049 A 
ATOM     38  N   UNL A   1      41.469  29.178  31.325  1.00  0.00    -0.248 NA
ATOM     39  C   UNL A   1      39.649  30.636  31.400  1.00  0.00     0.031 C 
ATOM     40  C   UNL A   1      39.559  26.980  27.933  1.00  0.00     0.029 A 
ATOM     41  N   UNL A   1      41.313  27.044  29.317  1.00  0.00    -0.354 N 
ATOM     42  C   UNL A   1      41.712  30.170  32.268  1.00  0.00     0.074 A 
ATOM     43  C   UNL A   1      40.581  31.071  32.236  1.00  0.00     0.031 C 
ATOM     44  C   UNL A   1      40.398  26.001  27.563  1.00  0.00     0.029 A 
ATOM     45  C   UNL A   1      41.580  26.036  28.418  1.00  0.00     0.049 A 
ATOM     46  H   UNL A   1      41.916  27.276  30.059  1.00  0.00     0.167 HD
ATOM     47  C   UNL A   1      42.770  30.306  33.101  1.00  0.00     0.034 A 
ATOM     48  C   UNL A   1      42.662  25.245  28.280  1.00  0.00     0.034 A 
ATOM     49  C   UNL A   1      43.869  29.381  33.165  1.00  0.00     0.049 A 
ATOM     50  C   UNL A   1      43.803  25.390  29.253  1.00  0.00     0.074 A 
ATOM     51  C   UNL A   1      44.932  29.373  34.049  1.00  0.00     0.029 A 
ATOM     52  N   UNL A   1      44.054  28.312  32.304  1.00  0.00    -0.354 N 
ATOM     53  N   UNL A   1      43.934  26.229  30.251  1.00  0.00    -0.248 NA
ATOM     54  C   UNL A   1      44.929  24.456  29.103  1.00  0.00     0.031 C 
ATOM     55  C   UNL A   1      45.782  28.320  33.699  1.00  0.00     0.029 A 
ATOM     56  C   UNL A   1      45.226  27.648  32.624  1.00  0.00     0.049 A 
ATOM     57  H   UNL A   1      43.445  28.061  31.573  1.00  0.00     0.167 HD
ATOM     58  C   UNL A   1      45.135  25.903  30.869  1.00  0.00     0.074 A 
ATOM     59  C   UNL A   1      45.684  24.774  30.147  1.00  0.00     0.031 C 
ATOM     60  C   UNL A   1      45.735  26.492  31.932  1.00  0.00     0.034 A 
BRANCH  47  61
ATOM     61  C   UNL A   1      42.782  31.478  34.046  1.00  0.00     0.023 A 
ATOM     62  C   UNL A   1      43.351  32.702  33.639  1.00  0.00     0.012 A 
ATOM     63  C   UNL A   1      42.153  31.393  35.304  1.00  0.00     0.148 A 
ATOM     64  C   UNL A   1      43.319  33.814  34.481  1.00  0.00     0.002 A 
ATOM     65  C   UNL A   1      42.084  32.519  36.118  1.00  0.00     0.091 A 
ATOM     66  F   UNL A   1      41.635  30.216  35.682  1.00  0.00    -0.205 F 
ATOM     67  C   UNL A   1      42.676  33.726  35.712  1.00  0.00     0.022 A 
BRANCH  65  68
ATOM     68  S   UNL A   1      41.203  32.533  37.683  1.00  0.00     0.127 S 
ATOM     69  O   UNL A   1      42.015  31.619  38.486  1.00  0.00    -0.237 OA
ATOM     70  O   UNL A   1      41.300  33.939  38.075  1.00  0.00    -0.237 OA
ATOM     71  O   UNL A   1      39.853  32.071  37.392  1.00  0.00    -0.744 OA
ENDBRANCH  65  68
ENDBRANCH  47  61
BRANCH  48  72
ATOM     72  C   UNL A   1      42.705  24.217  27.201  1.00  0.00     0.023 A 
ATOM     73  C   UNL A   1      43.387  24.495  26.001  1.00  0.00     0.012 A 
ATOM     74  C   UNL A   1      42.081  22.965  27.362  1.00  0.00     0.148 A 
ATOM     75  C   UNL A   1      43.412  23.561  24.964  1.00  0.00     0.002 A 
ATOM     76  C   UNL A   1      42.159  22.016  26.349  1.00  0.00     0.091 A 
ATOM     77  F   UNL A   1      41.427  22.723  28.507  1.00  0.00    -0.205 F 
ATOM     78  C   UNL A   1      42.808  22.319  25.142  1.00  0.00     0.022 A 
BRANCH  76  79
ATOM     79  S   UNL A   1      41.516  20.350  26.542  1.00  0.00     0.127 S 
ATOM     80  O   UNL A   1      40.074  20.579  26.505  1.00  0.00    -0.237 OA
ATOM     81  O   UNL A   1      42.062  19.675  25.363  1.00  0.00    -0.237 OA
ATOM     82  O   UNL A   1      42.048  19.866  27.809  1.00  0.00    -0.744 OA
ENDBRANCH  76  79
ENDBRANCH  48  72
BRANCH  60  83
ATOM     83  C   UNL A   1      47.035  25.906  32.421  1.00  0.00     0.023 A 
ATOM     84  C   UNL A   1      48.259  26.386  31.914  1.00  0.00     0.012 A 
ATOM     85  C   UNL A   1      47.040  24.942  33.448  1.00  0.00     0.148 A 
ATOM     86  C   UNL A   1      49.468  25.891  32.401  1.00  0.00     0.002 A 
ATOM     87  C   UNL A   1      48.248  24.493  33.966  1.00  0.00     0.091 A 
ATOM     88  F   UNL A   1      45.864  24.488  33.904  1.00  0.00    -0.205 F 
ATOM     89  C   UNL A   1      49.464  24.957  33.433  1.00  0.00     0.022 A 
BRANCH  87  90
ATOM     90  S   UNL A   1      48.341  23.368  35.362  1.00  0.00     0.127 S 
ATOM     91  O   UNL A   1      47.954  22.099  34.748  1.00  0.00    -0.237 OA
ATOM     92  O   UNL A   1      49.752  23.458  35.738  1.00  0.00    -0.237 OA
ATOM     93  O   UNL A   1      47.413  23.885  36.359  1.00  0.00    -0.744 OA
ENDBRANCH  87  90
ENDBRANCH  60  83
ENDBRANCH  34  35
ENDBRANCH  26  29
ENDBRANCH  24  25
ENDBRANCH   1  24
TORSDOF 17
ENDMDL
