MODEL 1
REMARK VINA RESULT:     -12.5      0.000      0.000
REMARK SMILES Cc1cc(F)cc(N[C@H](C(=O)NCCCNC(=O)c2ccc(-c3c4nc(c(-c5cccc(S(=O)(=O)[O-])c5F)c5ccc([nH]5)c(-c5cccc(S(=O)(=O)[O-])c5F)c5nc(c(-c6cccc(S(=O)(=O)[O-])c6F)c6ccc3[nH]6)C=C5)C=C4)cc2)c2cc(Br)cs2)c1
REMARK SMILES IDX 14 1 13 2 12 3 10 4 11 5 9 7 8 8 7 10 1 11 2 12 3 13 88 14
REMARK SMILES IDX 4 15 5 16 6 17 82 18 83 19 87 20 84 21 86 22 85 23 15 24
REMARK SMILES IDX 16 25 17 26 18 28 19 29 20 30 81 31 21 32 80 33 22 34 23 35
REMARK SMILES IDX 24 36 74 37 25 38 79 39 73 40 75 41 26 42 78 43 72 44 71 45
REMARK SMILES IDX 27 47 59 48 39 49 58 50 40 51 43 52 57 53 76 54 41 55 42 56
REMARK SMILES IDX 56 58 77 59 44 60 28 61 29 62 37 63 30 64 32 65 38 66 31 67
REMARK SMILES IDX 33 68 34 69 35 70 36 71 60 72 61 73 69 74 62 75 64 76 70 77
REMARK SMILES IDX 63 78 65 79 66 80 67 81 68 82 45 83 46 84 54 85 47 86 49 87
REMARK SMILES IDX 55 88 48 89 50 90 51 91 52 92 53 93
REMARK H PARENT 12 6 8 9 16 27 75 46 43 57
REMARK Flexibility Score: inf
ROOT
ATOM      1  C   UNL A   1      31.744  31.685  26.517  1.00  0.00     0.042 C 
ENDROOT
BRANCH   1   2
ATOM      2  C   UNL A   1      32.009  30.219  26.221  1.00  0.00     0.117 C 
BRANCH   2   3
ATOM      3  N   UNL A   1      32.969  29.993  25.156  1.00  0.00    -0.354 N 
ATOM      4  C   UNL A   1      32.961  29.075  24.135  1.00  0.00     0.247 C 
ATOM      5  O   UNL A   1      33.894  29.207  23.332  1.00  0.00    -0.272 OA
ATOM      6  H   UNL A   1      33.749  30.594  25.167  1.00  0.00     0.163 HD
BRANCH   4   7
ATOM      7  C   UNL A   1      31.932  27.877  24.061  1.00  0.00     0.210 C 
BRANCH   7   8
ATOM      8  N   UNL A   1      30.976  28.021  22.948  1.00  0.00    -0.369 N 
ATOM      9  H   UNL A   1      31.223  27.590  22.099  1.00  0.00     0.161 HD
BRANCH   8  10
ATOM     10  C   UNL A   1      29.769  28.696  22.966  1.00  0.00     0.038 A 
ATOM     11  C   UNL A   1      28.615  32.272  22.258  1.00  0.00     0.044 C 
ATOM     12  C   UNL A   1      28.585  30.817  22.616  1.00  0.00    -0.046 A 
ATOM     13  C   UNL A   1      27.381  30.197  22.950  1.00  0.00     0.042 A 
ATOM     14  C   UNL A   1      29.769  30.065  22.654  1.00  0.00     0.029 A 
ATOM     15  C   UNL A   1      27.368  28.839  23.234  1.00  0.00     0.125 A 
ATOM     16  F   UNL A   1      26.209  28.240  23.539  1.00  0.00    -0.207 F 
ATOM     17  C   UNL A   1      28.537  28.086  23.209  1.00  0.00     0.065 A 
ENDBRANCH   8  10
ENDBRANCH   7   8
BRANCH   7  18
ATOM     18  C   UNL A   1      32.612  26.499  24.122  1.00  0.00     0.038 A 
ATOM     19  C   UNL A   1      33.598  26.001  24.961  1.00  0.00     0.033 A 
ATOM     20  S   UNL A   1      32.130  25.256  23.002  1.00  0.00    -0.145 S 
ATOM     21  C   UNL A   1      34.139  24.781  24.480  1.00  0.00     0.029 A 
ATOM     22  C   UNL A   1      33.493  24.300  23.373  1.00  0.00     0.080 A 
ATOM     23  Br  UNL A   1      35.639  23.969  25.281  1.00  0.00    -0.050 Br
ENDBRANCH   7  18
ENDBRANCH   4   7
ENDBRANCH   2   3
ENDBRANCH   1   2
BRANCH   1  24
ATOM     24  C   UNL A   1      32.841  32.381  27.306  1.00  0.00     0.118 C 
BRANCH  24  25
ATOM     25  N   UNL A   1      32.553  33.779  27.604  1.00  0.00    -0.352 N 
ATOM     26  C   UNL A   1      33.108  34.643  28.525  1.00  0.00     0.251 C 
ATOM     27  H   UNL A   1      31.838  34.174  27.055  1.00  0.00     0.163 HD
ATOM     28  O   UNL A   1      32.608  35.748  28.693  1.00  0.00    -0.269 OA
BRANCH  26  29
ATOM     29  C   UNL A   1      34.278  34.232  29.337  1.00  0.00     0.039 A 
ATOM     30  C   UNL A   1      34.066  33.630  30.582  1.00  0.00     0.014 A 
ATOM     31  C   UNL A   1      35.581  34.432  28.884  1.00  0.00     0.014 A 
ATOM     32  C   UNL A   1      35.153  33.146  31.317  1.00  0.00     0.010 A 
ATOM     33  C   UNL A   1      36.647  33.838  29.552  1.00  0.00     0.010 A 
ATOM     34  C   UNL A   1      36.450  33.197  30.783  1.00  0.00    -0.014 A 
BRANCH  34  35
ATOM     35  C   UNL A   1      37.616  32.596  31.486  1.00  0.00     0.031 A 
ATOM     36  C   UNL A   1      38.376  31.458  30.852  1.00  0.00     0.074 A 
ATOM     37  C   UNL A   1      37.928  33.000  32.736  1.00  0.00     0.049 A 
ATOM     38  N   UNL A   1      39.357  30.747  31.343  1.00  0.00    -0.248 NA
ATOM     39  C   UNL A   1      37.957  31.038  29.503  1.00  0.00     0.031 C 
ATOM     40  C   UNL A   1      37.221  34.035  33.496  1.00  0.00     0.029 A 
ATOM     41  N   UNL A   1      38.903  32.568  33.602  1.00  0.00    -0.354 N 
ATOM     42  C   UNL A   1      39.631  29.767  30.394  1.00  0.00     0.074 A 
ATOM     43  C   UNL A   1      38.696  29.955  29.310  1.00  0.00     0.031 C 
ATOM     44  C   UNL A   1      37.794  34.167  34.704  1.00  0.00     0.029 A 
ATOM     45  C   UNL A   1      38.881  33.201  34.824  1.00  0.00     0.049 A 
ATOM     46  H   UNL A   1      39.557  31.870  33.370  1.00  0.00     0.167 HD
ATOM     47  C   UNL A   1      40.592  28.814  30.411  1.00  0.00     0.034 A 
ATOM     48  C   UNL A   1      39.640  33.017  35.922  1.00  0.00     0.034 A 
ATOM     49  C   UNL A   1      41.564  28.673  31.459  1.00  0.00     0.049 A 
ATOM     50  C   UNL A   1      40.731  31.980  35.888  1.00  0.00     0.074 A 
ATOM     51  C   UNL A   1      42.650  27.818  31.511  1.00  0.00     0.029 A 
ATOM     52  N   UNL A   1      41.563  29.394  32.642  1.00  0.00    -0.354 N 
ATOM     53  N   UNL A   1      41.084  31.183  34.909  1.00  0.00    -0.248 NA
ATOM     54  C   UNL A   1      41.553  31.838  37.099  1.00  0.00     0.031 C 
ATOM     55  C   UNL A   1      43.285  27.994  32.744  1.00  0.00     0.029 A 
ATOM     56  C   UNL A   1      42.618  28.989  33.440  1.00  0.00     0.049 A 
ATOM     57  H   UNL A   1      40.909  30.090  32.879  1.00  0.00     0.167 HD
ATOM     58  C   UNL A   1      42.194  30.484  35.367  1.00  0.00     0.074 A 
ATOM     59  C   UNL A   1      42.467  30.963  36.706  1.00  0.00     0.031 C 
ATOM     60  C   UNL A   1      42.916  29.521  34.743  1.00  0.00     0.034 A 
BRANCH  47  61
ATOM     61  C   UNL A   1      40.676  27.867  29.242  1.00  0.00     0.023 A 
ATOM     62  C   UNL A   1      39.803  26.764  29.167  1.00  0.00     0.012 A 
ATOM     63  C   UNL A   1      41.557  28.127  28.174  1.00  0.00     0.148 A 
ATOM     64  C   UNL A   1      39.825  25.917  28.060  1.00  0.00     0.002 A 
ATOM     65  C   UNL A   1      41.537  27.308  27.052  1.00  0.00     0.091 A 
ATOM     66  F   UNL A   1      42.393  29.171  28.274  1.00  0.00    -0.205 F 
ATOM     67  C   UNL A   1      40.680  26.196  26.999  1.00  0.00     0.022 A 
BRANCH  65  68
ATOM     68  S   UNL A   1      42.537  27.633  25.595  1.00  0.00     0.127 S 
ATOM     69  O   UNL A   1      43.882  27.696  26.169  1.00  0.00    -0.237 OA
ATOM     70  O   UNL A   1      42.278  26.448  24.778  1.00  0.00    -0.237 OA
ATOM     71  O   UNL A   1      42.043  28.883  25.036  1.00  0.00    -0.744 OA
ENDBRANCH  65  68
ENDBRANCH  47  61
BRANCH  48  72
ATOM     72  C   UNL A   1      39.444  33.866  37.135  1.00  0.00     0.023 A 
ATOM     73  C   UNL A   1      39.933  35.187  37.139  1.00  0.00     0.012 A 
ATOM     74  C   UNL A   1      38.796  33.373  38.283  1.00  0.00     0.148 A 
ATOM     75  C   UNL A   1      39.825  35.985  38.279  1.00  0.00     0.002 A 
ATOM     76  C   UNL A   1      38.639  34.192  39.395  1.00  0.00     0.091 A 
ATOM     77  F   UNL A   1      38.346  32.110  38.267  1.00  0.00    -0.205 F 
ATOM     78  C   UNL A   1      39.172  35.490  39.404  1.00  0.00     0.022 A 
BRANCH  76  79
ATOM     79  S   UNL A   1      37.699  33.683  40.839  1.00  0.00     0.127 S 
ATOM     80  O   UNL A   1      38.628  32.767  41.494  1.00  0.00    -0.237 OA
ATOM     81  O   UNL A   1      37.495  34.956  41.533  1.00  0.00    -0.237 OA
ATOM     82  O   UNL A   1      36.477  33.086  40.318  1.00  0.00    -0.744 OA
ENDBRANCH  76  79
ENDBRANCH  48  72
BRANCH  60  83
ATOM     83  C   UNL A   1      44.110  28.957  35.468  1.00  0.00     0.023 A 
ATOM     84  C   UNL A   1      45.378  29.548  35.308  1.00  0.00     0.012 A 
ATOM     85  C   UNL A   1      43.953  27.888  36.372  1.00  0.00     0.148 A 
ATOM     86  C   UNL A   1      46.480  29.059  36.010  1.00  0.00     0.002 A 
ATOM     87  C   UNL A   1      45.043  27.443  37.109  1.00  0.00     0.091 A 
ATOM     88  F   UNL A   1      42.740  27.329  36.498  1.00  0.00    -0.205 F 
ATOM     89  C   UNL A   1      46.309  28.017  36.919  1.00  0.00     0.022 A 
BRANCH  87  90
ATOM     90  S   UNL A   1      44.896  26.179  38.377  1.00  0.00     0.127 S 
ATOM     91  O   UNL A   1      44.464  25.022  37.595  1.00  0.00    -0.237 OA
ATOM     92  O   UNL A   1      46.264  26.094  38.888  1.00  0.00    -0.237 OA
ATOM     93  O   UNL A   1      43.923  26.682  39.337  1.00  0.00    -0.744 OA
ENDBRANCH  87  90
ENDBRANCH  60  83
ENDBRANCH  34  35
ENDBRANCH  26  29
ENDBRANCH  24  25
ENDBRANCH   1  24
TORSDOF 16
ENDMDL
MODEL 2
REMARK VINA RESULT:     -12.4      1.877      2.409
REMARK SMILES Cc1cc(F)cc(N[C@H](C(=O)NCCCNC(=O)c2ccc(-c3c4nc(c(-c5cccc(S(=O)(=O)[O-])c5F)c5ccc([nH]5)c(-c5cccc(S(=O)(=O)[O-])c5F)c5nc(c(-c6cccc(S(=O)(=O)[O-])c6F)c6ccc3[nH]6)C=C5)C=C4)cc2)c2cc(Br)cs2)c1
REMARK SMILES IDX 14 1 13 2 12 3 10 4 11 5 9 7 8 8 7 10 1 11 2 12 3 13 88 14
REMARK SMILES IDX 4 15 5 16 6 17 82 18 83 19 87 20 84 21 86 22 85 23 15 24
REMARK SMILES IDX 16 25 17 26 18 28 19 29 20 30 81 31 21 32 80 33 22 34 23 35
REMARK SMILES IDX 24 36 74 37 25 38 79 39 73 40 75 41 26 42 78 43 72 44 71 45
REMARK SMILES IDX 27 47 59 48 39 49 58 50 40 51 43 52 57 53 76 54 41 55 42 56
REMARK SMILES IDX 56 58 77 59 44 60 28 61 29 62 37 63 30 64 32 65 38 66 31 67
REMARK SMILES IDX 33 68 34 69 35 70 36 71 60 72 61 73 69 74 62 75 64 76 70 77
REMARK SMILES IDX 63 78 65 79 66 80 67 81 68 82 45 83 46 84 54 85 47 86 49 87
REMARK SMILES IDX 55 88 48 89 50 90 51 91 52 92 53 93
REMARK H PARENT 12 6 8 9 16 27 75 46 43 57
REMARK Flexibility Score: inf
ROOT
ATOM      1  C   UNL A   1      32.102  30.158  25.408  1.00  0.00     0.042 C 
ENDROOT
BRANCH   1   2
ATOM      2  C   UNL A   1      33.282  29.204  25.360  1.00  0.00     0.117 C 
BRANCH   2   3
ATOM      3  N   UNL A   1      33.845  29.023  24.035  1.00  0.00    -0.354 N 
ATOM      4  C   UNL A   1      33.323  28.404  22.926  1.00  0.00     0.247 C 
ATOM      5  O   UNL A   1      34.029  28.504  21.914  1.00  0.00    -0.272 OA
ATOM      6  H   UNL A   1      34.744  29.405  23.911  1.00  0.00     0.163 HD
BRANCH   4   7
ATOM      7  C   UNL A   1      32.005  27.532  22.967  1.00  0.00     0.210 C 
BRANCH   7   8
ATOM      8  N   UNL A   1      30.968  28.030  22.044  1.00  0.00    -0.369 N 
ATOM      9  H   UNL A   1      31.099  27.830  21.089  1.00  0.00     0.161 HD
BRANCH   8  10
ATOM     10  C   UNL A   1      29.833  28.747  22.372  1.00  0.00     0.038 A 
ATOM     11  C   UNL A   1      28.779  32.421  22.254  1.00  0.00     0.044 C 
ATOM     12  C   UNL A   1      28.734  30.939  22.473  1.00  0.00    -0.046 A 
ATOM     13  C   UNL A   1      27.584  30.336  22.985  1.00  0.00     0.042 A 
ATOM     14  C   UNL A   1      29.853  30.140  22.196  1.00  0.00     0.029 A 
ATOM     15  C   UNL A   1      27.547  28.957  23.137  1.00  0.00     0.125 A 
ATOM     16  F   UNL A   1      26.437  28.377  23.614  1.00  0.00    -0.207 F 
ATOM     17  C   UNL A   1      28.639  28.165  22.803  1.00  0.00     0.065 A 
ENDBRANCH   8  10
ENDBRANCH   7   8
BRANCH   7  18
ATOM     18  C   UNL A   1      32.280  26.025  22.838  1.00  0.00     0.038 A 
ATOM     19  C   UNL A   1      32.274  25.009  23.783  1.00  0.00     0.033 A 
ATOM     20  S   UNL A   1      32.658  25.353  21.276  1.00  0.00    -0.145 S 
ATOM     21  C   UNL A   1      32.870  23.820  23.289  1.00  0.00     0.029 A 
ATOM     22  C   UNL A   1      33.204  23.891  21.963  1.00  0.00     0.080 A 
ATOM     23  Br  UNL A   1      33.206  22.335  24.399  1.00  0.00    -0.050 Br
ENDBRANCH   7  18
ENDBRANCH   4   7
ENDBRANCH   2   3
ENDBRANCH   1   2
BRANCH   1  24
ATOM     24  C   UNL A   1      31.782  30.703  26.791  1.00  0.00     0.118 C 
BRANCH  24  25
ATOM     25  N   UNL A   1      31.823  32.158  26.873  1.00  0.00    -0.352 N 
ATOM     26  C   UNL A   1      32.753  33.009  27.433  1.00  0.00     0.251 C 
ATOM     27  H   UNL A   1      31.055  32.612  26.458  1.00  0.00     0.163 HD
ATOM     28  O   UNL A   1      32.509  34.207  27.504  1.00  0.00    -0.269 OA
BRANCH  26  29
ATOM     29  C   UNL A   1      34.025  32.482  27.983  1.00  0.00     0.039 A 
ATOM     30  C   UNL A   1      35.122  33.342  28.104  1.00  0.00     0.014 A 
ATOM     31  C   UNL A   1      34.148  31.152  28.381  1.00  0.00     0.014 A 
ATOM     32  C   UNL A   1      36.298  32.890  28.712  1.00  0.00     0.010 A 
ATOM     33  C   UNL A   1      35.267  30.742  29.098  1.00  0.00     0.010 A 
ATOM     34  C   UNL A   1      36.362  31.601  29.263  1.00  0.00    -0.014 A 
BRANCH  34  35
ATOM     35  C   UNL A   1      37.557  31.122  30.011  1.00  0.00     0.031 A 
ATOM     36  C   UNL A   1      38.488  30.115  29.383  1.00  0.00     0.074 A 
ATOM     37  C   UNL A   1      37.747  31.508  31.291  1.00  0.00     0.049 A 
ATOM     38  N   UNL A   1      39.524  29.512  29.906  1.00  0.00    -0.248 NA
ATOM     39  C   UNL A   1      38.198  29.702  27.998  1.00  0.00     0.031 C 
ATOM     40  C   UNL A   1      36.875  32.414  32.043  1.00  0.00     0.029 A 
ATOM     41  N   UNL A   1      38.722  31.166  32.196  1.00  0.00    -0.354 N 
ATOM     42  C   UNL A   1      39.971  28.615  28.941  1.00  0.00     0.074 A 
ATOM     43  C   UNL A   1      39.078  28.729  27.811  1.00  0.00     0.031 C 
ATOM     44  C   UNL A   1      37.362  32.566  33.286  1.00  0.00     0.029 A 
ATOM     45  C   UNL A   1      38.554  31.739  33.436  1.00  0.00     0.049 A 
ATOM     46  H   UNL A   1      39.472  30.565  31.978  1.00  0.00     0.167 HD
ATOM     47  C   UNL A   1      41.043  27.790  28.980  1.00  0.00     0.034 A 
ATOM     48  C   UNL A   1      39.272  31.606  34.569  1.00  0.00     0.034 A 
ATOM     49  C   UNL A   1      41.968  27.728  30.077  1.00  0.00     0.049 A 
ATOM     50  C   UNL A   1      40.486  30.716  34.563  1.00  0.00     0.074 A 
ATOM     51  C   UNL A   1      43.150  27.015  30.162  1.00  0.00     0.029 A 
ATOM     52  N   UNL A   1      41.813  28.394  31.282  1.00  0.00    -0.354 N 
ATOM     53  N   UNL A   1      40.989  30.012  33.578  1.00  0.00    -0.248 NA
ATOM     54  C   UNL A   1      41.254  30.628  35.814  1.00  0.00     0.031 C 
ATOM     55  C   UNL A   1      43.691  27.217  31.435  1.00  0.00     0.029 A 
ATOM     56  C   UNL A   1      42.866  28.091  32.126  1.00  0.00     0.049 A 
ATOM     57  H   UNL A   1      41.063  28.992  31.505  1.00  0.00     0.167 HD
ATOM     58  C   UNL A   1      42.153  29.438  34.076  1.00  0.00     0.074 A 
ATOM     59  C   UNL A   1      42.292  29.891  35.444  1.00  0.00     0.031 C 
ATOM     60  C   UNL A   1      43.024  28.600  33.462  1.00  0.00     0.034 A 
BRANCH  47  61
ATOM     61  C   UNL A   1      41.309  26.911  27.786  1.00  0.00     0.023 A 
ATOM     62  C   UNL A   1      41.984  27.434  26.664  1.00  0.00     0.012 A 
ATOM     63  C   UNL A   1      40.973  25.544  27.816  1.00  0.00     0.148 A 
ATOM     64  C   UNL A   1      42.296  26.615  25.580  1.00  0.00     0.002 A 
ATOM     65  C   UNL A   1      41.332  24.724  26.753  1.00  0.00     0.091 A 
ATOM     66  F   UNL A   1      40.314  25.071  28.883  1.00  0.00    -0.205 F 
ATOM     67  C   UNL A   1      41.983  25.260  25.630  1.00  0.00     0.022 A 
BRANCH  65  68
ATOM     68  S   UNL A   1      41.052  22.949  26.758  1.00  0.00     0.127 S 
ATOM     69  O   UNL A   1      39.618  22.877  26.479  1.00  0.00    -0.237 OA
ATOM     70  O   UNL A   1      41.911  22.503  25.662  1.00  0.00    -0.237 OA
ATOM     71  O   UNL A   1      41.450  22.481  28.078  1.00  0.00    -0.744 OA
ENDBRANCH  65  68
ENDBRANCH  47  61
BRANCH  48  72
ATOM     72  C   UNL A   1      38.905  32.372  35.797  1.00  0.00     0.023 A 
ATOM     73  C   UNL A   1      39.302  33.719  35.915  1.00  0.00     0.012 A 
ATOM     74  C   UNL A   1      38.184  31.777  36.850  1.00  0.00     0.148 A 
ATOM     75  C   UNL A   1      39.033  34.443  37.077  1.00  0.00     0.002 A 
ATOM     76  C   UNL A   1      37.869  32.521  37.981  1.00  0.00     0.091 A 
ATOM     77  F   UNL A   1      37.823  30.491  36.727  1.00  0.00    -0.205 F 
ATOM     78  C   UNL A   1      38.310  33.847  38.107  1.00  0.00     0.022 A 
BRANCH  76  79
ATOM     79  S   UNL A   1      36.831  31.876  39.297  1.00  0.00     0.127 S 
ATOM     80  O   UNL A   1      37.369  32.563  40.468  1.00  0.00    -0.237 OA
ATOM     81  O   UNL A   1      35.500  32.318  38.880  1.00  0.00    -0.237 OA
ATOM     82  O   UNL A   1      37.016  30.431  39.267  1.00  0.00    -0.744 OA
ENDBRANCH  76  79
ENDBRANCH  48  72
BRANCH  60  83
ATOM     83  C   UNL A   1      44.240  28.161  34.234  1.00  0.00     0.023 A 
ATOM     84  C   UNL A   1      45.406  28.951  34.228  1.00  0.00     0.012 A 
ATOM     85  C   UNL A   1      44.194  27.001  35.033  1.00  0.00     0.148 A 
ATOM     86  C   UNL A   1      46.520  28.573  34.976  1.00  0.00     0.002 A 
ATOM     87  C   UNL A   1      45.287  26.661  35.819  1.00  0.00     0.091 A 
ATOM     88  F   UNL A   1      43.079  26.254  35.013  1.00  0.00    -0.205 F 
ATOM     89  C   UNL A   1      46.456  27.437  35.781  1.00  0.00     0.022 A 
BRANCH  87  90
ATOM     90  S   UNL A   1      45.257  25.278  36.964  1.00  0.00     0.127 S 
ATOM     91  O   UNL A   1      46.552  25.415  37.629  1.00  0.00    -0.237 OA
ATOM     92  O   UNL A   1      44.102  25.595  37.803  1.00  0.00    -0.237 OA
ATOM     93  O   UNL A   1      45.100  24.082  36.147  1.00  0.00    -0.744 OA
ENDBRANCH  87  90
ENDBRANCH  60  83
ENDBRANCH  34  35
ENDBRANCH  26  29
ENDBRANCH  24  25
ENDBRANCH   1  24
TORSDOF 16
ENDMDL
MODEL 3
REMARK VINA RESULT:     -12.4      2.276      7.897
REMARK SMILES Cc1cc(F)cc(N[C@H](C(=O)NCCCNC(=O)c2ccc(-c3c4nc(c(-c5cccc(S(=O)(=O)[O-])c5F)c5ccc([nH]5)c(-c5cccc(S(=O)(=O)[O-])c5F)c5nc(c(-c6cccc(S(=O)(=O)[O-])c6F)c6ccc3[nH]6)C=C5)C=C4)cc2)c2cc(Br)cs2)c1
REMARK SMILES IDX 14 1 13 2 12 3 10 4 11 5 9 7 8 8 7 10 1 11 2 12 3 13 88 14
REMARK SMILES IDX 4 15 5 16 6 17 82 18 83 19 87 20 84 21 86 22 85 23 15 24
REMARK SMILES IDX 16 25 17 26 18 28 19 29 20 30 81 31 21 32 80 33 22 34 23 35
REMARK SMILES IDX 24 36 74 37 25 38 79 39 73 40 75 41 26 42 78 43 72 44 71 45
REMARK SMILES IDX 27 47 59 48 39 49 58 50 40 51 43 52 57 53 76 54 41 55 42 56
REMARK SMILES IDX 56 58 77 59 44 60 28 61 29 62 37 63 30 64 32 65 38 66 31 67
REMARK SMILES IDX 33 68 34 69 35 70 36 71 60 72 61 73 69 74 62 75 64 76 70 77
REMARK SMILES IDX 63 78 65 79 66 80 67 81 68 82 45 83 46 84 54 85 47 86 49 87
REMARK SMILES IDX 55 88 48 89 50 90 51 91 52 92 53 93
REMARK H PARENT 12 6 8 9 16 27 75 46 43 57
REMARK Flexibility Score: inf
ROOT
ATOM      1  C   UNL A   1      32.238  30.042  25.366  1.00  0.00     0.042 C 
ENDROOT
BRANCH   1   2
ATOM      2  C   UNL A   1      33.552  29.287  25.263  1.00  0.00     0.117 C 
BRANCH   2   3
ATOM      3  N   UNL A   1      34.000  29.057  23.902  1.00  0.00    -0.354 N 
ATOM      4  C   UNL A   1      33.443  28.299  22.901  1.00  0.00     0.247 C 
ATOM      5  O   UNL A   1      34.032  28.388  21.816  1.00  0.00    -0.272 OA
ATOM      6  H   UNL A   1      34.835  29.517  23.657  1.00  0.00     0.163 HD
BRANCH   4   7
ATOM      7  C   UNL A   1      32.239  27.304  23.142  1.00  0.00     0.210 C 
BRANCH   7   8
ATOM      8  N   UNL A   1      31.108  27.553  22.230  1.00  0.00    -0.369 N 
ATOM      9  H   UNL A   1      31.164  27.140  21.338  1.00  0.00     0.161 HD
BRANCH   8  10
ATOM     10  C   UNL A   1      29.976  28.303  22.489  1.00  0.00     0.038 A 
ATOM     11  C   UNL A   1      28.897  31.927  21.920  1.00  0.00     0.044 C 
ATOM     12  C   UNL A   1      28.866  30.486  22.331  1.00  0.00    -0.046 A 
ATOM     13  C   UNL A   1      27.733  29.952  22.945  1.00  0.00     0.042 A 
ATOM     14  C   UNL A   1      29.983  29.662  22.133  1.00  0.00     0.029 A 
ATOM     15  C   UNL A   1      27.707  28.605  23.276  1.00  0.00     0.125 A 
ATOM     16  F   UNL A   1      26.613  28.088  23.853  1.00  0.00    -0.207 F 
ATOM     17  C   UNL A   1      28.796  27.779  23.022  1.00  0.00     0.065 A 
ENDBRANCH   8  10
ENDBRANCH   7   8
BRANCH   7  18
ATOM     18  C   UNL A   1      32.681  25.832  23.196  1.00  0.00     0.038 A 
ATOM     19  C   UNL A   1      32.207  24.709  22.534  1.00  0.00     0.033 A 
ATOM     20  S   UNL A   1      34.015  25.375  24.218  1.00  0.00    -0.145 S 
ATOM     21  C   UNL A   1      32.708  23.508  23.098  1.00  0.00     0.029 A 
ATOM     22  C   UNL A   1      33.638  23.717  24.081  1.00  0.00     0.080 A 
ATOM     23  Br  UNL A   1      32.082  21.813  22.561  1.00  0.00    -0.050 Br
ENDBRANCH   7  18
ENDBRANCH   4   7
ENDBRANCH   2   3
ENDBRANCH   1   2
BRANCH   1  24
ATOM     24  C   UNL A   1      31.923  30.582  26.751  1.00  0.00     0.118 C 
BRANCH  24  25
ATOM     25  N   UNL A   1      32.067  32.029  26.864  1.00  0.00    -0.352 N 
ATOM     26  C   UNL A   1      33.057  32.799  27.436  1.00  0.00     0.251 C 
ATOM     27  H   UNL A   1      31.330  32.544  26.464  1.00  0.00     0.163 HD
ATOM     28  O   UNL A   1      32.899  34.009  27.534  1.00  0.00    -0.269 OA
BRANCH  26  29
ATOM     29  C   UNL A   1      34.292  32.172  27.965  1.00  0.00     0.039 A 
ATOM     30  C   UNL A   1      35.452  32.946  28.082  1.00  0.00     0.014 A 
ATOM     31  C   UNL A   1      34.319  30.832  28.348  1.00  0.00     0.014 A 
ATOM     32  C   UNL A   1      36.597  32.400  28.672  1.00  0.00     0.010 A 
ATOM     33  C   UNL A   1      35.412  30.332  29.048  1.00  0.00     0.010 A 
ATOM     34  C   UNL A   1      36.570  31.104  29.209  1.00  0.00    -0.014 A 
BRANCH  34  35
ATOM     35  C   UNL A   1      37.734  30.529  29.938  1.00  0.00     0.031 A 
ATOM     36  C   UNL A   1      38.032  30.968  31.349  1.00  0.00     0.074 A 
ATOM     37  C   UNL A   1      38.581  29.695  29.299  1.00  0.00     0.049 A 
ATOM     38  N   UNL A   1      39.044  30.652  32.115  1.00  0.00    -0.248 NA
ATOM     39  C   UNL A   1      37.090  31.914  31.974  1.00  0.00     0.031 C 
ATOM     40  C   UNL A   1      38.453  29.255  27.907  1.00  0.00     0.029 A 
ATOM     41  N   UNL A   1      39.737  29.088  29.727  1.00  0.00    -0.354 N 
ATOM     42  C   UNL A   1      38.891  31.399  33.278  1.00  0.00     0.074 A 
ATOM     43  C   UNL A   1      37.705  32.206  33.111  1.00  0.00     0.031 C 
ATOM     44  C   UNL A   1      39.477  28.441  27.603  1.00  0.00     0.029 A 
ATOM     45  C   UNL A   1      40.359  28.331  28.761  1.00  0.00     0.049 A 
ATOM     46  H   UNL A   1      40.089  29.186  30.642  1.00  0.00     0.167 HD
ATOM     47  C   UNL A   1      39.653  31.394  34.397  1.00  0.00     0.034 A 
ATOM     48  C   UNL A   1      41.513  27.637  28.796  1.00  0.00     0.034 A 
ATOM     49  C   UNL A   1      40.793  30.541  34.587  1.00  0.00     0.049 A 
ATOM     50  C   UNL A   1      42.311  27.615  30.073  1.00  0.00     0.074 A 
ATOM     51  C   UNL A   1      41.558  30.375  35.728  1.00  0.00     0.029 A 
ATOM     52  N   UNL A   1      41.339  29.720  33.614  1.00  0.00    -0.354 N 
ATOM     53  N   UNL A   1      42.050  28.193  31.221  1.00  0.00    -0.248 NA
ATOM     54  C   UNL A   1      43.547  26.818  30.072  1.00  0.00     0.031 C 
ATOM     55  C   UNL A   1      42.592  29.482  35.434  1.00  0.00     0.029 A 
ATOM     56  C   UNL A   1      42.444  29.060  34.122  1.00  0.00     0.049 A 
ATOM     57  H   UNL A   1      40.993  29.622  32.698  1.00  0.00     0.167 HD
ATOM     58  C   UNL A   1      43.060  27.791  32.087  1.00  0.00     0.074 A 
ATOM     59  C   UNL A   1      43.928  26.907  31.339  1.00  0.00     0.031 C 
ATOM     60  C   UNL A   1      43.260  28.133  33.384  1.00  0.00     0.034 A 
BRANCH  47  61
ATOM     61  C   UNL A   1      39.263  32.308  35.529  1.00  0.00     0.023 A 
ATOM     62  C   UNL A   1      38.476  31.818  36.590  1.00  0.00     0.012 A 
ATOM     63  C   UNL A   1      39.757  33.627  35.585  1.00  0.00     0.148 A 
ATOM     64  C   UNL A   1      38.162  32.633  37.676  1.00  0.00     0.002 A 
ATOM     65  C   UNL A   1      39.481  34.416  36.695  1.00  0.00     0.091 A 
ATOM     66  F   UNL A   1      40.487  34.080  34.557  1.00  0.00    -0.205 F 
ATOM     67  C   UNL A   1      38.675  33.925  37.735  1.00  0.00     0.022 A 
BRANCH  65  68
ATOM     68  S   UNL A   1      40.167  36.063  36.908  1.00  0.00     0.127 S 
ATOM     69  O   UNL A   1      39.415  36.548  38.065  1.00  0.00    -0.237 OA
ATOM     70  O   UNL A   1      41.576  35.774  37.174  1.00  0.00    -0.237 OA
ATOM     71  O   UNL A   1      39.912  36.772  35.662  1.00  0.00    -0.744 OA
ENDBRANCH  65  68
ENDBRANCH  47  61
BRANCH  48  72
ATOM     72  C   UNL A   1      41.967  26.853  27.610  1.00  0.00     0.023 A 
ATOM     73  C   UNL A   1      42.602  27.521  26.543  1.00  0.00     0.012 A 
ATOM     74  C   UNL A   1      41.763  25.463  27.522  1.00  0.00     0.148 A 
ATOM     75  C   UNL A   1      42.979  26.829  25.391  1.00  0.00     0.002 A 
ATOM     76  C   UNL A   1      42.194  24.770  26.396  1.00  0.00     0.091 A 
ATOM     77  F   UNL A   1      41.148  24.845  28.539  1.00  0.00    -0.205 F 
ATOM     78  C   UNL A   1      42.781  25.453  25.320  1.00  0.00     0.022 A 
BRANCH  76  79
ATOM     79  S   UNL A   1      42.098  22.980  26.275  1.00  0.00     0.127 S 
ATOM     80  O   UNL A   1      42.695  22.736  24.965  1.00  0.00    -0.237 OA
ATOM     81  O   UNL A   1      42.912  22.554  27.414  1.00  0.00    -0.237 OA
ATOM     82  O   UNL A   1      40.683  22.656  26.400  1.00  0.00    -0.744 OA
ENDBRANCH  76  79
ENDBRANCH  48  72
BRANCH  60  83
ATOM     83  C   UNL A   1      44.426  27.508  34.104  1.00  0.00     0.023 A 
ATOM     84  C   UNL A   1      45.679  28.151  34.114  1.00  0.00     0.012 A 
ATOM     85  C   UNL A   1      44.252  26.319  34.839  1.00  0.00     0.148 A 
ATOM     86  C   UNL A   1      46.751  27.600  34.816  1.00  0.00     0.002 A 
ATOM     87  C   UNL A   1      45.308  25.806  35.581  1.00  0.00     0.091 A 
ATOM     88  F   UNL A   1      43.055  25.714  34.803  1.00  0.00    -0.205 F 
ATOM     89  C   UNL A   1      46.562  26.437  35.559  1.00  0.00     0.022 A 
BRANCH  87  90
ATOM     90  S   UNL A   1      45.128  24.374  36.649  1.00  0.00     0.127 S 
ATOM     91  O   UNL A   1      46.491  24.203  37.149  1.00  0.00    -0.237 OA
ATOM     92  O   UNL A   1      44.167  24.848  37.644  1.00  0.00    -0.237 OA
ATOM     93  O   UNL A   1      44.637  23.296  35.800  1.00  0.00    -0.744 OA
ENDBRANCH  87  90
ENDBRANCH  60  83
ENDBRANCH  34  35
ENDBRANCH  26  29
ENDBRANCH  24  25
ENDBRANCH   1  24
TORSDOF 16
ENDMDL
