MODEL 1
REMARK VINA RESULT:     -12.2      0.000      0.000
REMARK SMILES O=C(NCCCNC(=O)c1c(F)cccc1NC(=O)c1ccc[nH]c1=O)c1ccc(-c2c3nc(c(-c4cccc(S(=O)(=O)[O-])c4F)c4ccc([nH]4)c(-c4cccc(S(=O)(=O)[O-])c4F)c4nc(c(-c5cccc(S(=O)(=O)[O-])c5F)c5ccc2[nH]5)C=C4)C=C3)cc1
REMARK SMILES IDX 4 1 3 2 1 3 2 4 27 6 28 7 89 8 29 9 88 10 30 11 31 12 32 13
REMARK SMILES IDX 82 14 33 15 87 16 81 17 83 18 34 19 86 20 80 21 79 22 35 24
REMARK SMILES IDX 67 25 47 26 66 27 48 28 51 29 65 30 84 31 49 32 50 33 64 35
REMARK SMILES IDX 85 36 52 37 36 38 37 39 45 40 38 41 40 42 46 43 39 44 41 45
REMARK SMILES IDX 42 46 43 47 44 48 68 49 69 50 77 51 70 52 72 53 78 54 71 55
REMARK SMILES IDX 73 56 74 57 75 58 76 59 53 60 54 61 62 62 55 63 57 64 63 65
REMARK SMILES IDX 56 66 58 67 59 68 60 69 61 70 5 71 6 72 7 73 8 74 9 76 10 77
REMARK SMILES IDX 11 78 16 79 12 80 13 81 15 82 14 83 17 84 18 85 19 87 20 88
REMARK SMILES IDX 21 89 25 90 22 91 24 92 26 93 23 94
REMARK H PARENT 3 5 83 23 51 34 7 75 17 86 24 95
REMARK Flexibility Score: inf
ROOT
ATOM      1  C   UNL A   1      33.065  29.090  25.433  1.00  0.00     0.118 C 
ENDROOT
BRANCH   1   2
ATOM      2  N   UNL A   1      32.623  30.410  25.863  1.00  0.00    -0.352 N 
ATOM      3  O   UNL A   1      32.454  32.220  27.186  1.00  0.00    -0.269 OA
ATOM      4  C   UNL A   1      33.100  31.226  26.861  1.00  0.00     0.251 C 
ATOM      5  H   UNL A   1      31.862  30.777  25.357  1.00  0.00     0.163 HD
BRANCH   4   6
ATOM      6  C   UNL A   1      34.364  30.897  27.556  1.00  0.00     0.039 A 
ATOM      7  C   UNL A   1      34.591  29.615  28.060  1.00  0.00     0.014 A 
ATOM      8  C   UNL A   1      35.351  31.878  27.686  1.00  0.00     0.014 A 
ATOM      9  C   UNL A   1      35.714  29.362  28.836  1.00  0.00     0.010 A 
ATOM     10  C   UNL A   1      36.534  31.590  28.375  1.00  0.00     0.010 A 
ATOM     11  C   UNL A   1      36.714  30.337  28.981  1.00  0.00    -0.014 A 
BRANCH  11  12
ATOM     12  C   UNL A   1      37.972  29.992  29.691  1.00  0.00     0.031 A 
ATOM     13  C   UNL A   1      38.288  30.557  31.048  1.00  0.00     0.074 A 
ATOM     14  C   UNL A   1      38.835  29.147  29.090  1.00  0.00     0.049 A 
ATOM     15  N   UNL A   1      39.349  30.365  31.788  1.00  0.00    -0.248 NA
ATOM     16  C   UNL A   1      37.290  31.451  31.659  1.00  0.00     0.031 C 
ATOM     17  C   UNL A   1      38.644  28.551  27.764  1.00  0.00     0.029 A 
ATOM     18  N   UNL A   1      40.040  28.642  29.506  1.00  0.00    -0.354 N 
ATOM     19  C   UNL A   1      39.165  31.131  32.932  1.00  0.00     0.074 A 
ATOM     20  C   UNL A   1      37.892  31.803  32.788  1.00  0.00     0.031 C 
ATOM     21  C   UNL A   1      39.672  27.735  27.493  1.00  0.00     0.029 A 
ATOM     22  C   UNL A   1      40.631  27.805  28.587  1.00  0.00     0.049 A 
ATOM     23  H   UNL A   1      40.444  28.855  30.378  1.00  0.00     0.167 HD
ATOM     24  C   UNL A   1      39.977  31.246  34.011  1.00  0.00     0.034 A 
ATOM     25  C   UNL A   1      41.823  27.180  28.607  1.00  0.00     0.034 A 
ATOM     26  C   UNL A   1      41.230  30.552  34.157  1.00  0.00     0.049 A 
ATOM     27  C   UNL A   1      42.709  27.350  29.808  1.00  0.00     0.074 A 
ATOM     28  C   UNL A   1      42.107  30.585  35.227  1.00  0.00     0.029 A 
ATOM     29  N   UNL A   1      41.786  29.704  33.212  1.00  0.00    -0.354 N 
ATOM     30  N   UNL A   1      42.477  28.012  30.915  1.00  0.00    -0.248 NA
ATOM     31  C   UNL A   1      44.010  26.670  29.774  1.00  0.00     0.031 C 
ATOM     32  C   UNL A   1      43.204  29.777  34.920  1.00  0.00     0.029 A 
ATOM     33  C   UNL A   1      42.995  29.212  33.673  1.00  0.00     0.049 A 
ATOM     34  H   UNL A   1      41.381  29.484  32.342  1.00  0.00     0.167 HD
ATOM     35  C   UNL A   1      43.586  27.801  31.723  1.00  0.00     0.074 A 
ATOM     36  C   UNL A   1      44.479  26.930  30.987  1.00  0.00     0.031 C 
ATOM     37  C   UNL A   1      43.849  28.300  32.955  1.00  0.00     0.034 A 
BRANCH  24  38
ATOM     38  C   UNL A   1      39.530  32.116  35.159  1.00  0.00     0.023 A 
ATOM     39  C   UNL A   1      39.685  33.514  35.067  1.00  0.00     0.012 A 
ATOM     40  C   UNL A   1      38.837  31.567  36.258  1.00  0.00     0.148 A 
ATOM     41  C   UNL A   1      39.164  34.353  36.052  1.00  0.00     0.002 A 
ATOM     42  C   UNL A   1      38.284  32.413  37.214  1.00  0.00     0.091 A 
ATOM     43  F   UNL A   1      38.711  30.235  36.333  1.00  0.00    -0.205 F 
ATOM     44  C   UNL A   1      38.453  33.804  37.117  1.00  0.00     0.022 A 
BRANCH  42  45
ATOM     45  S   UNL A   1      37.277  31.817  38.578  1.00  0.00     0.127 S 
ATOM     46  O   UNL A   1      38.164  32.044  39.720  1.00  0.00    -0.237 OA
ATOM     47  O   UNL A   1      36.122  32.711  38.518  1.00  0.00    -0.237 OA
ATOM     48  O   UNL A   1      36.989  30.419  38.290  1.00  0.00    -0.744 OA
ENDBRANCH  42  45
ENDBRANCH  24  38
BRANCH  25  49
ATOM     49  C   UNL A   1      42.223  26.303  27.470  1.00  0.00     0.023 A 
ATOM     50  C   UNL A   1      43.015  26.833  26.434  1.00  0.00     0.012 A 
ATOM     51  C   UNL A   1      41.858  24.942  27.428  1.00  0.00     0.148 A 
ATOM     52  C   UNL A   1      43.413  26.033  25.363  1.00  0.00     0.002 A 
ATOM     53  C   UNL A   1      42.311  24.136  26.392  1.00  0.00     0.091 A 
ATOM     54  F   UNL A   1      41.093  24.459  28.417  1.00  0.00    -0.205 F 
ATOM     55  C   UNL A   1      43.073  24.683  25.348  1.00  0.00     0.022 A 
BRANCH  53  56
ATOM     56  S   UNL A   1      42.044  22.360  26.367  1.00  0.00     0.127 S 
ATOM     57  O   UNL A   1      40.592  22.279  26.222  1.00  0.00    -0.237 OA
ATOM     58  O   UNL A   1      42.806  21.956  25.185  1.00  0.00    -0.237 OA
ATOM     59  O   UNL A   1      42.583  21.865  27.627  1.00  0.00    -0.744 OA
ENDBRANCH  53  56
ENDBRANCH  25  49
BRANCH  37  60
ATOM     60  C   UNL A   1      45.139  27.890  33.617  1.00  0.00     0.023 A 
ATOM     61  C   UNL A   1      46.287  28.693  33.472  1.00  0.00     0.012 A 
ATOM     62  C   UNL A   1      45.184  26.762  34.460  1.00  0.00     0.148 A 
ATOM     63  C   UNL A   1      47.470  28.362  34.131  1.00  0.00     0.002 A 
ATOM     64  C   UNL A   1      46.350  26.470  35.157  1.00  0.00     0.091 A 
ATOM     65  F   UNL A   1      44.084  26.001  34.570  1.00  0.00    -0.205 F 
ATOM     66  C   UNL A   1      47.497  27.261  34.984  1.00  0.00     0.022 A 
BRANCH  64  67
ATOM     67  S   UNL A   1      46.447  25.137  36.358  1.00  0.00     0.127 S 
ATOM     68  O   UNL A   1      46.236  23.961  35.515  1.00  0.00    -0.237 OA
ATOM     69  O   UNL A   1      47.810  25.283  36.870  1.00  0.00    -0.237 OA
ATOM     70  O   UNL A   1      45.401  25.398  37.337  1.00  0.00    -0.744 OA
ENDBRANCH  64  67
ENDBRANCH  37  60
ENDBRANCH  11  12
ENDBRANCH   4   6
ENDBRANCH   1   2
BRANCH   1  71
ATOM     71  C   UNL A   1      33.776  29.120  24.091  1.00  0.00     0.042 C 
BRANCH  71  72
ATOM     72  C   UNL A   1      32.867  28.829  22.909  1.00  0.00     0.118 C 
BRANCH  72  73
ATOM     73  N   UNL A   1      33.287  27.653  22.152  1.00  0.00    -0.352 N 
ATOM     74  C   UNL A   1      33.159  26.321  22.468  1.00  0.00     0.256 C 
ATOM     75  H   UNL A   1      33.723  27.842  21.290  1.00  0.00     0.163 HD
ATOM     76  O   UNL A   1      33.717  25.472  21.778  1.00  0.00    -0.269 OA
BRANCH  74  77
ATOM     77  C   UNL A   1      32.445  25.923  23.695  1.00  0.00     0.099 A 
ATOM     78  C   UNL A   1      31.054  26.054  23.743  1.00  0.00     0.138 A 
ATOM     79  C   UNL A   1      33.146  25.461  24.821  1.00  0.00     0.057 A 
ATOM     80  F   UNL A   1      30.354  26.375  22.643  1.00  0.00    -0.206 F 
ATOM     81  C   UNL A   1      30.364  25.911  24.938  1.00  0.00     0.040 A 
ATOM     82  C   UNL A   1      32.455  25.429  26.040  1.00  0.00     0.027 A 
ATOM     83  C   UNL A   1      31.074  25.646  26.100  1.00  0.00     0.005 A 
BRANCH  79  84
ATOM     84  N   UNL A   1      34.497  25.048  24.687  1.00  0.00    -0.321 N 
ATOM     85  C   UNL A   1      35.112  23.835  24.864  1.00  0.00     0.261 C 
ATOM     86  H   UNL A   1      35.108  25.770  24.415  1.00  0.00     0.170 HD
ATOM     87  O   UNL A   1      36.340  23.755  24.806  1.00  0.00    -0.269 OA
BRANCH  85  88
ATOM     88  C   UNL A   1      34.316  22.618  25.132  1.00  0.00     0.105 A 
ATOM     89  C   UNL A   1      33.787  21.974  24.075  1.00  0.00     0.021 A 
ATOM     90  C   UNL A   1      34.121  22.051  26.500  1.00  0.00     0.260 A 
ATOM     91  C   UNL A   1      33.135  20.694  24.235  1.00  0.00     0.019 A 
ATOM     92  N   UNL A   1      33.545  20.796  26.545  1.00  0.00    -0.328 N 
ATOM     93  O   UNL A   1      34.469  22.624  27.526  1.00  0.00    -0.269 OA
ATOM     94  C   UNL A   1      33.063  20.133  25.448  1.00  0.00     0.086 A 
ATOM     95  H   UNL A   1      33.477  20.351  27.421  1.00  0.00     0.169 HD
ENDBRANCH  85  88
ENDBRANCH  79  84
ENDBRANCH  74  77
ENDBRANCH  72  73
ENDBRANCH  71  72
ENDBRANCH   1  71
TORSDOF 15
ENDMDL
MODEL 2
REMARK VINA RESULT:     -12.2      1.260      7.624
REMARK SMILES O=C(NCCCNC(=O)c1c(F)cccc1NC(=O)c1ccc[nH]c1=O)c1ccc(-c2c3nc(c(-c4cccc(S(=O)(=O)[O-])c4F)c4ccc([nH]4)c(-c4cccc(S(=O)(=O)[O-])c4F)c4nc(c(-c5cccc(S(=O)(=O)[O-])c5F)c5ccc2[nH]5)C=C4)C=C3)cc1
REMARK SMILES IDX 4 1 3 2 1 3 2 4 27 6 28 7 89 8 29 9 88 10 30 11 31 12 32 13
REMARK SMILES IDX 82 14 33 15 87 16 81 17 83 18 34 19 86 20 80 21 79 22 35 24
REMARK SMILES IDX 67 25 47 26 66 27 48 28 51 29 65 30 84 31 49 32 50 33 64 35
REMARK SMILES IDX 85 36 52 37 36 38 37 39 45 40 38 41 40 42 46 43 39 44 41 45
REMARK SMILES IDX 42 46 43 47 44 48 68 49 69 50 77 51 70 52 72 53 78 54 71 55
REMARK SMILES IDX 73 56 74 57 75 58 76 59 53 60 54 61 62 62 55 63 57 64 63 65
REMARK SMILES IDX 56 66 58 67 59 68 60 69 61 70 5 71 6 72 7 73 8 74 9 76 10 77
REMARK SMILES IDX 11 78 16 79 12 80 13 81 15 82 14 83 17 84 18 85 19 87 20 88
REMARK SMILES IDX 21 89 25 90 22 91 24 92 26 93 23 94
REMARK H PARENT 3 5 83 23 51 34 7 75 17 86 24 95
REMARK Flexibility Score: inf
ROOT
ATOM      1  C   UNL A   1      32.923  29.066  25.342  1.00  0.00     0.118 C 
ENDROOT
BRANCH   1   2
ATOM      2  N   UNL A   1      32.489  30.395  25.753  1.00  0.00    -0.352 N 
ATOM      3  O   UNL A   1      32.314  32.215  27.060  1.00  0.00    -0.269 OA
ATOM      4  C   UNL A   1      32.954  31.211  26.756  1.00  0.00     0.251 C 
ATOM      5  H   UNL A   1      31.744  30.767  25.227  1.00  0.00     0.163 HD
BRANCH   4   6
ATOM      6  C   UNL A   1      34.197  30.870  27.482  1.00  0.00     0.039 A 
ATOM      7  C   UNL A   1      34.395  29.589  28.001  1.00  0.00     0.014 A 
ATOM      8  C   UNL A   1      35.194  31.839  27.626  1.00  0.00     0.014 A 
ATOM      9  C   UNL A   1      35.498  29.328  28.803  1.00  0.00     0.010 A 
ATOM     10  C   UNL A   1      36.358  31.541  28.343  1.00  0.00     0.010 A 
ATOM     11  C   UNL A   1      36.507  30.291  28.963  1.00  0.00    -0.014 A 
BRANCH  11  12
ATOM     12  C   UNL A   1      37.744  29.934  29.703  1.00  0.00     0.031 A 
ATOM     13  C   UNL A   1      38.776  29.015  29.110  1.00  0.00     0.074 A 
ATOM     14  C   UNL A   1      37.931  30.461  30.931  1.00  0.00     0.049 A 
ATOM     15  N   UNL A   1      39.898  28.595  29.636  1.00  0.00    -0.248 NA
ATOM     16  C   UNL A   1      38.523  28.496  27.755  1.00  0.00     0.031 C 
ATOM     17  C   UNL A   1      36.989  31.352  31.616  1.00  0.00     0.029 A 
ATOM     18  N   UNL A   1      38.966  30.331  31.820  1.00  0.00    -0.354 N 
ATOM     19  C   UNL A   1      40.470  27.746  28.697  1.00  0.00     0.074 A 
ATOM     20  C   UNL A   1      39.567  27.698  27.568  1.00  0.00     0.031 C 
ATOM     21  C   UNL A   1      37.504  31.715  32.799  1.00  0.00     0.029 A 
ATOM     22  C   UNL A   1      38.776  31.030  32.990  1.00  0.00     0.049 A 
ATOM     23  H   UNL A   1      39.770  29.791  31.640  1.00  0.00     0.167 HD
ATOM     24  C   UNL A   1      41.650  27.083  28.766  1.00  0.00     0.034 A 
ATOM     25  C   UNL A   1      39.525  31.096  34.107  1.00  0.00     0.034 A 
ATOM     26  C   UNL A   1      42.555  27.159  29.883  1.00  0.00     0.049 A 
ATOM     27  C   UNL A   1      40.815  30.328  34.158  1.00  0.00     0.074 A 
ATOM     28  C   UNL A   1      43.787  26.544  30.030  1.00  0.00     0.029 A 
ATOM     29  N   UNL A   1      42.333  27.887  31.041  1.00  0.00    -0.354 N 
ATOM     30  N   UNL A   1      41.376  29.599  33.226  1.00  0.00    -0.248 NA
ATOM     31  C   UNL A   1      41.586  30.410  35.406  1.00  0.00     0.031 C 
ATOM     32  C   UNL A   1      44.297  26.882  31.286  1.00  0.00     0.029 A 
ATOM     33  C   UNL A   1      43.401  27.734  31.908  1.00  0.00     0.049 A 
ATOM     34  H   UNL A   1      41.533  28.434  31.220  1.00  0.00     0.167 HD
ATOM     35  C   UNL A   1      42.581  29.162  33.760  1.00  0.00     0.074 A 
ATOM     36  C   UNL A   1      42.679  29.729  35.089  1.00  0.00     0.031 C 
ATOM     37  C   UNL A   1      43.513  28.350  33.205  1.00  0.00     0.034 A 
BRANCH  24  38
ATOM     38  C   UNL A   1      42.076  26.248  27.585  1.00  0.00     0.023 A 
ATOM     39  C   UNL A   1      42.936  26.808  26.618  1.00  0.00     0.012 A 
ATOM     40  C   UNL A   1      41.743  24.880  27.505  1.00  0.00     0.148 A 
ATOM     41  C   UNL A   1      43.452  26.023  25.587  1.00  0.00     0.002 A 
ATOM     42  C   UNL A   1      42.295  24.095  26.499  1.00  0.00     0.091 A 
ATOM     43  F   UNL A   1      40.914  24.371  28.427  1.00  0.00    -0.205 F 
ATOM     44  C   UNL A   1      43.143  24.666  25.536  1.00  0.00     0.022 A 
BRANCH  42  45
ATOM     45  S   UNL A   1      42.032  22.320  26.391  1.00  0.00     0.127 S 
ATOM     46  O   UNL A   1      42.557  21.866  27.679  1.00  0.00    -0.237 OA
ATOM     47  O   UNL A   1      40.578  22.235  26.263  1.00  0.00    -0.237 OA
ATOM     48  O   UNL A   1      42.779  21.869  25.225  1.00  0.00    -0.744 OA
ENDBRANCH  42  45
ENDBRANCH  24  38
BRANCH  25  49
ATOM     49  C   UNL A   1      39.091  31.954  35.246  1.00  0.00     0.023 A 
ATOM     50  C   UNL A   1      38.194  31.436  36.199  1.00  0.00     0.012 A 
ATOM     51  C   UNL A   1      39.589  33.262  35.411  1.00  0.00     0.148 A 
ATOM     52  C   UNL A   1      37.779  32.213  37.281  1.00  0.00     0.002 A 
ATOM     53  C   UNL A   1      39.221  34.008  36.524  1.00  0.00     0.091 A 
ATOM     54  F   UNL A   1      40.431  33.743  34.486  1.00  0.00    -0.205 F 
ATOM     55  C   UNL A   1      38.301  33.492  37.450  1.00  0.00     0.022 A 
BRANCH  53  56
ATOM     56  S   UNL A   1      39.954  35.604  36.899  1.00  0.00     0.127 S 
ATOM     57  O   UNL A   1      39.279  35.956  38.145  1.00  0.00    -0.237 OA
ATOM     58  O   UNL A   1      41.369  35.261  37.039  1.00  0.00    -0.237 OA
ATOM     59  O   UNL A   1      39.653  36.452  35.753  1.00  0.00    -0.744 OA
ENDBRANCH  53  56
ENDBRANCH  25  49
BRANCH  37  60
ATOM     60  C   UNL A   1      44.749  28.048  34.012  1.00  0.00     0.023 A 
ATOM     61  C   UNL A   1      45.862  28.908  33.939  1.00  0.00     0.012 A 
ATOM     62  C   UNL A   1      44.768  26.965  34.913  1.00  0.00     0.148 A 
ATOM     63  C   UNL A   1      46.988  28.677  34.728  1.00  0.00     0.002 A 
ATOM     64  C   UNL A   1      45.871  26.774  35.737  1.00  0.00     0.091 A 
ATOM     65  F   UNL A   1      43.705  26.148  34.955  1.00  0.00    -0.205 F 
ATOM     66  C   UNL A   1      46.987  27.621  35.636  1.00  0.00     0.022 A 
BRANCH  64  67
ATOM     67  S   UNL A   1      45.917  25.507  37.010  1.00  0.00     0.127 S 
ATOM     68  O   UNL A   1      45.865  24.283  36.213  1.00  0.00    -0.237 OA
ATOM     69  O   UNL A   1      47.207  25.763  37.652  1.00  0.00    -0.237 OA
ATOM     70  O   UNL A   1      44.758  25.746  37.860  1.00  0.00    -0.744 OA
ENDBRANCH  64  67
ENDBRANCH  37  60
ENDBRANCH  11  12
ENDBRANCH   4   6
ENDBRANCH   1   2
BRANCH   1  71
ATOM     71  C   UNL A   1      33.653  29.077  24.009  1.00  0.00     0.042 C 
BRANCH  71  72
ATOM     72  C   UNL A   1      32.845  28.490  22.863  1.00  0.00     0.118 C 
BRANCH  72  73
ATOM     73  N   UNL A   1      33.436  27.268  22.325  1.00  0.00    -0.352 N 
ATOM     74  C   UNL A   1      33.328  25.974  22.779  1.00  0.00     0.256 C 
ATOM     75  H   UNL A   1      33.990  27.388  21.521  1.00  0.00     0.163 HD
ATOM     76  O   UNL A   1      34.028  25.093  22.288  1.00  0.00    -0.269 OA
BRANCH  74  77
ATOM     77  C   UNL A   1      32.453  25.669  23.926  1.00  0.00     0.099 A 
ATOM     78  C   UNL A   1      31.067  25.740  23.760  1.00  0.00     0.138 A 
ATOM     79  C   UNL A   1      32.995  25.356  25.185  1.00  0.00     0.057 A 
ATOM     80  F   UNL A   1      30.527  25.916  22.544  1.00  0.00    -0.206 F 
ATOM     81  C   UNL A   1      30.213  25.686  24.853  1.00  0.00     0.040 A 
ATOM     82  C   UNL A   1      32.133  25.415  26.288  1.00  0.00     0.027 A 
ATOM     83  C   UNL A   1      30.752  25.574  26.126  1.00  0.00     0.005 A 
BRANCH  79  84
ATOM     84  N   UNL A   1      34.362  24.995  25.290  1.00  0.00    -0.321 N 
ATOM     85  C   UNL A   1      34.984  23.789  25.495  1.00  0.00     0.261 C 
ATOM     86  H   UNL A   1      34.983  25.754  25.199  1.00  0.00     0.170 HD
ATOM     87  O   UNL A   1      36.203  23.749  25.675  1.00  0.00    -0.269 OA
BRANCH  85  88
ATOM     88  C   UNL A   1      34.206  22.532  25.509  1.00  0.00     0.105 A 
ATOM     89  C   UNL A   1      33.898  21.977  24.322  1.00  0.00     0.021 A 
ATOM     90  C   UNL A   1      33.800  21.834  26.765  1.00  0.00     0.260 A 
ATOM     91  C   UNL A   1      33.282  20.671  24.251  1.00  0.00     0.019 A 
ATOM     92  N   UNL A   1      33.278  20.566  26.596  1.00  0.00    -0.328 N 
ATOM     93  O   UNL A   1      33.939  22.317  27.883  1.00  0.00    -0.269 OA
ATOM     94  C   UNL A   1      33.023  19.996  25.377  1.00  0.00     0.086 A 
ATOM     95  H   UNL A   1      33.078  20.038  27.404  1.00  0.00     0.169 HD
ENDBRANCH  85  88
ENDBRANCH  79  84
ENDBRANCH  74  77
ENDBRANCH  72  73
ENDBRANCH  71  72
ENDBRANCH   1  71
TORSDOF 15
ENDMDL
MODEL 3
REMARK VINA RESULT:     -12.2      1.312      1.633
REMARK SMILES O=C(NCCCNC(=O)c1c(F)cccc1NC(=O)c1ccc[nH]c1=O)c1ccc(-c2c3nc(c(-c4cccc(S(=O)(=O)[O-])c4F)c4ccc([nH]4)c(-c4cccc(S(=O)(=O)[O-])c4F)c4nc(c(-c5cccc(S(=O)(=O)[O-])c5F)c5ccc2[nH]5)C=C4)C=C3)cc1
REMARK SMILES IDX 4 1 3 2 1 3 2 4 27 6 28 7 89 8 29 9 88 10 30 11 31 12 32 13
REMARK SMILES IDX 82 14 33 15 87 16 81 17 83 18 34 19 86 20 80 21 79 22 35 24
REMARK SMILES IDX 67 25 47 26 66 27 48 28 51 29 65 30 84 31 49 32 50 33 64 35
REMARK SMILES IDX 85 36 52 37 36 38 37 39 45 40 38 41 40 42 46 43 39 44 41 45
REMARK SMILES IDX 42 46 43 47 44 48 68 49 69 50 77 51 70 52 72 53 78 54 71 55
REMARK SMILES IDX 73 56 74 57 75 58 76 59 53 60 54 61 62 62 55 63 57 64 63 65
REMARK SMILES IDX 56 66 58 67 59 68 60 69 61 70 5 71 6 72 7 73 8 74 9 76 10 77
REMARK SMILES IDX 11 78 16 79 12 80 13 81 15 82 14 83 17 84 18 85 19 87 20 88
REMARK SMILES IDX 21 89 25 90 22 91 24 92 26 93 23 94
REMARK H PARENT 3 5 83 23 51 34 7 75 17 86 24 95
REMARK Flexibility Score: inf
ROOT
ATOM      1  C   UNL A   1      33.276  28.960  24.996  1.00  0.00     0.118 C 
ENDROOT
BRANCH   1   2
ATOM      2  N   UNL A   1      32.696  30.189  25.522  1.00  0.00    -0.352 N 
ATOM      3  O   UNL A   1      32.289  31.830  27.004  1.00  0.00    -0.269 OA
ATOM      4  C   UNL A   1      33.037  30.930  26.628  1.00  0.00     0.251 C 
ATOM      5  H   UNL A   1      31.940  30.545  25.001  1.00  0.00     0.163 HD
BRANCH   4   6
ATOM      6  C   UNL A   1      34.278  30.630  27.376  1.00  0.00     0.039 A 
ATOM      7  C   UNL A   1      34.555  29.333  27.813  1.00  0.00     0.014 A 
ATOM      8  C   UNL A   1      35.194  31.656  27.625  1.00  0.00     0.014 A 
ATOM      9  C   UNL A   1      35.647  29.096  28.638  1.00  0.00     0.010 A 
ATOM     10  C   UNL A   1      36.353  31.393  28.364  1.00  0.00     0.010 A 
ATOM     11  C   UNL A   1      36.575  30.116  28.902  1.00  0.00    -0.014 A 
BRANCH  11  12
ATOM     12  C   UNL A   1      37.810  29.798  29.663  1.00  0.00     0.031 A 
ATOM     13  C   UNL A   1      38.059  30.373  31.030  1.00  0.00     0.074 A 
ATOM     14  C   UNL A   1      38.714  28.970  29.100  1.00  0.00     0.049 A 
ATOM     15  N   UNL A   1      39.093  30.205  31.813  1.00  0.00    -0.248 NA
ATOM     16  C   UNL A   1      37.019  31.248  31.597  1.00  0.00     0.031 C 
ATOM     17  C   UNL A   1      38.588  28.366  27.770  1.00  0.00     0.029 A 
ATOM     18  N   UNL A   1      39.911  28.490  29.566  1.00  0.00    -0.354 N 
ATOM     19  C   UNL A   1      38.847  30.970  32.946  1.00  0.00     0.074 A 
ATOM     20  C   UNL A   1      37.567  31.615  32.748  1.00  0.00     0.031 C 
ATOM     21  C   UNL A   1      39.643  27.572  27.543  1.00  0.00     0.029 A 
ATOM     22  C   UNL A   1      40.555  27.664  28.675  1.00  0.00     0.049 A 
ATOM     23  H   UNL A   1      40.274  28.715  30.453  1.00  0.00     0.167 HD
ATOM     24  C   UNL A   1      39.612  31.105  34.056  1.00  0.00     0.034 A 
ATOM     25  C   UNL A   1      41.759  27.064  28.745  1.00  0.00     0.034 A 
ATOM     26  C   UNL A   1      40.873  30.437  34.254  1.00  0.00     0.049 A 
ATOM     27  C   UNL A   1      42.591  27.255  29.980  1.00  0.00     0.074 A 
ATOM     28  C   UNL A   1      41.705  30.491  35.359  1.00  0.00     0.029 A 
ATOM     29  N   UNL A   1      41.484  29.598  33.336  1.00  0.00    -0.354 N 
ATOM     30  N   UNL A   1      42.301  27.915  31.074  1.00  0.00    -0.248 NA
ATOM     31  C   UNL A   1      43.907  26.602  30.001  1.00  0.00     0.031 C 
ATOM     32  C   UNL A   1      42.830  29.704  35.099  1.00  0.00     0.029 A 
ATOM     33  C   UNL A   1      42.683  29.132  33.847  1.00  0.00     0.049 A 
ATOM     34  H   UNL A   1      41.118  29.367  32.451  1.00  0.00     0.167 HD
ATOM     35  C   UNL A   1      43.381  27.729  31.927  1.00  0.00     0.074 A 
ATOM     36  C   UNL A   1      44.321  26.875  31.230  1.00  0.00     0.031 C 
ATOM     37  C   UNL A   1      43.583  28.236  33.167  1.00  0.00     0.034 A 
BRANCH  24  38
ATOM     38  C   UNL A   1      39.101  31.968  35.182  1.00  0.00     0.023 A 
ATOM     39  C   UNL A   1      38.194  31.422  36.113  1.00  0.00     0.012 A 
ATOM     40  C   UNL A   1      39.621  33.261  35.398  1.00  0.00     0.148 A 
ATOM     41  C   UNL A   1      37.805  32.152  37.237  1.00  0.00     0.002 A 
ATOM     42  C   UNL A   1      39.261  33.965  36.543  1.00  0.00     0.091 A 
ATOM     43  F   UNL A   1      40.472  33.766  34.495  1.00  0.00    -0.205 F 
ATOM     44  C   UNL A   1      38.349  33.415  37.458  1.00  0.00     0.022 A 
BRANCH  42  45
ATOM     45  S   UNL A   1      39.967  35.562  36.968  1.00  0.00     0.127 S 
ATOM     46  O   UNL A   1      39.279  35.863  38.224  1.00  0.00    -0.237 OA
ATOM     47  O   UNL A   1      41.385  35.239  37.114  1.00  0.00    -0.237 OA
ATOM     48  O   UNL A   1      39.650  36.454  35.862  1.00  0.00    -0.744 OA
ENDBRANCH  42  45
ENDBRANCH  24  38
BRANCH  25  49
ATOM     49  C   UNL A   1      42.222  26.192  27.628  1.00  0.00     0.023 A 
ATOM     50  C   UNL A   1      43.091  26.720  26.655  1.00  0.00     0.012 A 
ATOM     51  C   UNL A   1      41.840  24.838  27.546  1.00  0.00     0.148 A 
ATOM     52  C   UNL A   1      43.549  25.925  25.604  1.00  0.00     0.002 A 
ATOM     53  C   UNL A   1      42.350  24.035  26.534  1.00  0.00     0.091 A 
ATOM     54  F   UNL A   1      41.002  24.357  28.474  1.00  0.00    -0.205 F 
ATOM     55  C   UNL A   1      43.190  24.581  25.550  1.00  0.00     0.022 A 
BRANCH  53  56
ATOM     56  S   UNL A   1      42.058  22.264  26.470  1.00  0.00     0.127 S 
ATOM     57  O   UNL A   1      42.560  21.833  27.773  1.00  0.00    -0.237 OA
ATOM     58  O   UNL A   1      40.605  22.202  26.318  1.00  0.00    -0.237 OA
ATOM     59  O   UNL A   1      42.804  21.786  25.314  1.00  0.00    -0.744 OA
ENDBRANCH  53  56
ENDBRANCH  25  49
BRANCH  37  60
ATOM     60  C   UNL A   1      44.854  27.855  33.882  1.00  0.00     0.023 A 
ATOM     61  C   UNL A   1      45.987  28.686  33.789  1.00  0.00     0.012 A 
ATOM     62  C   UNL A   1      44.891  26.724  34.721  1.00  0.00     0.148 A 
ATOM     63  C   UNL A   1      47.148  28.382  34.497  1.00  0.00     0.002 A 
ATOM     64  C   UNL A   1      46.033  26.457  35.467  1.00  0.00     0.091 A 
ATOM     65  F   UNL A   1      43.807  25.936  34.781  1.00  0.00    -0.205 F 
ATOM     66  C   UNL A   1      47.167  27.277  35.346  1.00  0.00     0.022 A 
BRANCH  64  67
ATOM     67  S   UNL A   1      46.112  25.121  36.665  1.00  0.00     0.127 S 
ATOM     68  O   UNL A   1      44.919  25.372  37.471  1.00  0.00    -0.237 OA
ATOM     69  O   UNL A   1      46.032  23.936  35.810  1.00  0.00    -0.237 OA
ATOM     70  O   UNL A   1      47.380  25.280  37.364  1.00  0.00    -0.744 OA
ENDBRANCH  64  67
ENDBRANCH  37  60
ENDBRANCH  11  12
ENDBRANCH   4   6
ENDBRANCH   1   2
BRANCH   1  71
ATOM     71  C   UNL A   1      33.341  28.948  23.478  1.00  0.00     0.042 C 
BRANCH  71  72
ATOM     72  C   UNL A   1      32.028  28.570  22.811  1.00  0.00     0.118 C 
BRANCH  72  73
ATOM     73  N   UNL A   1      32.147  27.386  21.966  1.00  0.00    -0.352 N 
ATOM     74  C   UNL A   1      32.217  26.061  22.326  1.00  0.00     0.256 C 
ATOM     75  H   UNL A   1      32.180  27.562  20.998  1.00  0.00     0.163 HD
ATOM     76  O   UNL A   1      32.475  25.209  21.480  1.00  0.00    -0.269 OA
BRANCH  74  77
ATOM     77  C   UNL A   1      32.091  25.677  23.744  1.00  0.00     0.099 A 
ATOM     78  C   UNL A   1      30.866  25.864  24.391  1.00  0.00     0.138 A 
ATOM     79  C   UNL A   1      33.192  25.174  24.458  1.00  0.00     0.057 A 
ATOM     80  F   UNL A   1      29.772  26.225  23.703  1.00  0.00    -0.206 F 
ATOM     81  C   UNL A   1      30.758  25.735  25.769  1.00  0.00     0.040 A 
ATOM     82  C   UNL A   1      33.099  25.157  25.856  1.00  0.00     0.027 A 
ATOM     83  C   UNL A   1      31.891  25.429  26.508  1.00  0.00     0.005 A 
BRANCH  79  84
ATOM     84  N   UNL A   1      34.332  24.709  23.753  1.00  0.00    -0.321 N 
ATOM     85  C   UNL A   1      34.890  23.463  23.623  1.00  0.00     0.261 C 
ATOM     86  H   UNL A   1      34.814  25.415  23.265  1.00  0.00     0.170 HD
ATOM     87  O   UNL A   1      35.972  23.331  23.047  1.00  0.00    -0.269 OA
BRANCH  85  88
ATOM     88  C   UNL A   1      34.210  22.271  24.174  1.00  0.00     0.105 A 
ATOM     89  C   UNL A   1      33.147  21.793  23.501  1.00  0.00     0.021 A 
ATOM     90  C   UNL A   1      34.678  21.553  25.397  1.00  0.00     0.260 A 
ATOM     91  C   UNL A   1      32.527  20.544  23.882  1.00  0.00     0.019 A 
ATOM     92  N   UNL A   1      34.067  20.338  25.642  1.00  0.00    -0.328 N 
ATOM     93  O   UNL A   1      35.563  21.975  26.132  1.00  0.00    -0.269 OA
ATOM     94  C   UNL A   1      33.021  19.844  24.909  1.00  0.00     0.086 A 
ATOM     95  H   UNL A   1      34.406  19.794  26.389  1.00  0.00     0.169 HD
ENDBRANCH  85  88
ENDBRANCH  79  84
ENDBRANCH  74  77
ENDBRANCH  72  73
ENDBRANCH  71  72
ENDBRANCH   1  71
TORSDOF 15
ENDMDL
