MODEL 1
REMARK VINA RESULT:     -11.2      0.000      0.000
REMARK SMILES CC(C)C[N@H+](CC[NH+](C)C)[C@@H]1CCC[C@]([NH3+])(C(=O)NCCCNC(=O)c2ccc(-c3c4nc(c(-c5cccc(S(=O)(=O)[O-])c5F)c5ccc([nH]5)c(-c5cccc(S(=O)(=O)[O-])c5F)c5nc(c(-c6cccc(S(=O)(=O)[O-])c6F)c6ccc3[nH]6)C=C5)C=C4)cc2)C1
REMARK SMILES IDX 20 1 19 2 17 3 18 4 15 6 11 7 12 8 89 9 13 10 14 11 5 12
REMARK SMILES IDX 4 14 2 15 1 16 3 17 6 18 7 19 8 20 9 21 10 22 16 24 21 28
REMARK SMILES IDX 22 29 23 30 24 31 25 33 26 34 27 35 88 36 28 37 87 38 29 39
REMARK SMILES IDX 30 40 31 41 81 42 32 43 86 44 80 45 82 46 33 47 85 48 79 49
REMARK SMILES IDX 78 50 34 52 66 53 46 54 65 55 47 56 50 57 64 58 83 59 48 60
REMARK SMILES IDX 49 61 63 63 84 64 51 65 35 66 36 67 44 68 37 69 39 70 45 71
REMARK SMILES IDX 38 72 40 73 41 74 42 75 43 76 67 77 68 78 76 79 69 80 71 81
REMARK SMILES IDX 77 82 70 83 72 84 73 85 74 86 75 87 52 88 53 89 61 90 54 91
REMARK SMILES IDX 56 92 62 93 55 94 57 95 58 96 59 97 60 98
REMARK H PARENT 19 5 5 13 8 23 16 25 16 26 16 27 23 32 82 51 50 62
REMARK Flexibility Score: inf
ROOT
ATOM      1  C   UNL A   1      31.407  30.762  26.530  1.00  0.00     0.118 C 
ENDROOT
BRANCH   1   2
ATOM      2  N   UNL A   1      32.032  30.171  25.367  1.00  0.00    -0.351 N 
ATOM      3  C   UNL A   1      32.964  29.204  25.189  1.00  0.00     0.281 C 
ATOM      4  O   UNL A   1      33.195  29.001  23.993  1.00  0.00    -0.268 OA
ATOM      5  H   UNL A   1      31.708  30.556  24.520  1.00  0.00     0.163 HD
BRANCH   3   6
ATOM      6  C   UNL A   1      33.544  28.304  26.345  1.00  0.00     0.179 C 
ATOM      7  C   UNL A   1      32.959  25.889  25.399  1.00  0.00     0.191 C 
ATOM      8  C   UNL A   1      31.862  25.874  26.501  1.00  0.00     0.065 C 
ATOM      9  C   UNL A   1      34.032  26.890  25.933  1.00  0.00     0.144 C 
ATOM     10  C   UNL A   1      31.319  27.238  26.921  1.00  0.00     0.013 C 
ATOM     11  C   UNL A   1      32.430  28.176  27.397  1.00  0.00     0.079 C 
BRANCH   7  12
ATOM     12  N   UNL A   1      32.604  26.142  23.997  1.00  0.00    -0.327 N 
ATOM     13  H   UNL A   1      32.708  27.141  24.179  1.00  0.00     0.348 HD
BRANCH  12  14
ATOM     14  C   UNL A   1      31.244  26.114  23.438  1.00  0.00     0.265 C 
BRANCH  14  15
ATOM     15  C   UNL A   1      30.231  27.260  23.598  1.00  0.00     0.038 C 
ATOM     16  C   UNL A   1      30.252  28.201  22.391  1.00  0.00     0.013 C 
ATOM     17  C   UNL A   1      28.815  26.687  23.750  1.00  0.00     0.013 C 
ENDBRANCH  14  15
ENDBRANCH  12  14
BRANCH  12  18
ATOM     18  C   UNL A   1      33.529  25.560  22.982  1.00  0.00     0.324 C 
BRANCH  18  19
ATOM     19  C   UNL A   1      34.452  24.361  23.371  1.00  0.00     0.323 C 
BRANCH  19  20
ATOM     20  N   UNL A   1      33.965  23.013  23.012  1.00  0.00    -0.335 N 
ATOM     21  C   UNL A   1      33.416  22.345  24.200  1.00  0.00     0.332 C 
ATOM     22  C   UNL A   1      32.917  23.066  21.990  1.00  0.00     0.332 C 
ATOM     23  H   UNL A   1      34.760  22.493  22.641  1.00  0.00     0.347 HD
ENDBRANCH  19  20
ENDBRANCH  18  19
ENDBRANCH  12  18
ENDBRANCH   7  12
BRANCH   6  24
ATOM     24  N   UNL A   1      34.726  28.946  26.981  1.00  0.00    -0.345 N 
ATOM     25  H   UNL A   1      34.427  29.772  27.498  1.00  0.00     0.345 HD
ATOM     26  H   UNL A   1      35.393  29.219  26.258  1.00  0.00     0.345 HD
ATOM     27  H   UNL A   1      35.168  28.284  27.620  1.00  0.00     0.345 HD
ENDBRANCH   6  24
ENDBRANCH   3   6
ENDBRANCH   1   2
BRANCH   1  28
ATOM     28  C   UNL A   1      31.532  32.282  26.501  1.00  0.00     0.042 C 
BRANCH  28  29
ATOM     29  C   UNL A   1      32.673  32.814  27.371  1.00  0.00     0.118 C 
BRANCH  29  30
ATOM     30  N   UNL A   1      32.529  34.235  27.669  1.00  0.00    -0.352 N 
ATOM     31  C   UNL A   1      33.102  34.984  28.663  1.00  0.00     0.251 C 
ATOM     32  H   UNL A   1      31.929  34.731  27.065  1.00  0.00     0.163 HD
ATOM     33  O   UNL A   1      32.666  36.106  28.917  1.00  0.00    -0.269 OA
BRANCH  31  34
ATOM     34  C   UNL A   1      34.242  34.439  29.424  1.00  0.00     0.039 A 
ATOM     35  C   UNL A   1      34.015  33.839  30.664  1.00  0.00     0.014 A 
ATOM     36  C   UNL A   1      35.538  34.537  28.911  1.00  0.00     0.014 A 
ATOM     37  C   UNL A   1      35.086  33.280  31.364  1.00  0.00     0.010 A 
ATOM     38  C   UNL A   1      36.588  33.907  29.568  1.00  0.00     0.010 A 
ATOM     39  C   UNL A   1      36.375  33.282  30.807  1.00  0.00    -0.014 A 
BRANCH  39  40
ATOM     40  C   UNL A   1      37.526  32.651  31.501  1.00  0.00     0.031 A 
ATOM     41  C   UNL A   1      38.232  31.483  30.865  1.00  0.00     0.074 A 
ATOM     42  C   UNL A   1      37.873  33.069  32.735  1.00  0.00     0.049 A 
ATOM     43  N   UNL A   1      39.178  30.726  31.355  1.00  0.00    -0.248 NA
ATOM     44  C   UNL A   1      37.799  31.097  29.510  1.00  0.00     0.031 C 
ATOM     45  C   UNL A   1      37.220  34.147  33.482  1.00  0.00     0.029 A 
ATOM     46  N   UNL A   1      38.842  32.614  33.593  1.00  0.00    -0.354 N 
ATOM     47  C   UNL A   1      39.432  29.762  30.386  1.00  0.00     0.074 A 
ATOM     48  C   UNL A   1      38.513  30.001  29.298  1.00  0.00     0.031 C 
ATOM     49  C   UNL A   1      37.806  34.268  34.685  1.00  0.00     0.029 A 
ATOM     50  C   UNL A   1      38.847  33.254  34.812  1.00  0.00     0.049 A 
ATOM     51  H   UNL A   1      39.475  31.897  33.360  1.00  0.00     0.167 HD
ATOM     52  C   UNL A   1      40.373  28.787  30.386  1.00  0.00     0.034 A 
ATOM     53  C   UNL A   1      39.593  33.035  35.911  1.00  0.00     0.034 A 
ATOM     54  C   UNL A   1      41.312  28.580  31.453  1.00  0.00     0.049 A 
ATOM     55  C   UNL A   1      40.640  31.952  35.875  1.00  0.00     0.074 A 
ATOM     56  C   UNL A   1      42.337  27.654  31.527  1.00  0.00     0.029 A 
ATOM     57  N   UNL A   1      41.345  29.310  32.630  1.00  0.00    -0.354 N 
ATOM     58  N   UNL A   1      40.949  31.134  34.898  1.00  0.00    -0.248 NA
ATOM     59  C   UNL A   1      41.467  31.786  37.079  1.00  0.00     0.031 C 
ATOM     60  C   UNL A   1      42.980  27.814  32.758  1.00  0.00     0.029 A 
ATOM     61  C   UNL A   1      42.375  28.860  33.435  1.00  0.00     0.049 A 
ATOM     62  H   UNL A   1      40.726  30.041  32.860  1.00  0.00     0.167 HD
ATOM     63  C   UNL A   1      42.036  30.395  35.349  1.00  0.00     0.074 A 
ATOM     64  C   UNL A   1      42.343  30.872  36.681  1.00  0.00     0.031 C 
ATOM     65  C   UNL A   1      42.713  29.400  34.725  1.00  0.00     0.034 A 
BRANCH  52  66
ATOM     66  C   UNL A   1      40.481  27.912  29.166  1.00  0.00     0.023 A 
ATOM     67  C   UNL A   1      39.583  26.835  29.008  1.00  0.00     0.012 A 
ATOM     68  C   UNL A   1      41.402  28.199  28.140  1.00  0.00     0.148 A 
ATOM     69  C   UNL A   1      39.619  26.043  27.861  1.00  0.00     0.002 A 
ATOM     70  C   UNL A   1      41.400  27.435  26.980  1.00  0.00     0.091 A 
ATOM     71  F   UNL A   1      42.255  29.218  28.316  1.00  0.00    -0.205 F 
ATOM     72  C   UNL A   1      40.517  26.349  26.844  1.00  0.00     0.022 A 
BRANCH  70  73
ATOM     73  S   UNL A   1      42.459  27.793  25.574  1.00  0.00     0.127 S 
ATOM     74  O   UNL A   1      43.774  27.883  26.210  1.00  0.00    -0.237 OA
ATOM     75  O   UNL A   1      42.265  26.609  24.737  1.00  0.00    -0.237 OA
ATOM     76  O   UNL A   1      41.963  29.037  25.001  1.00  0.00    -0.744 OA
ENDBRANCH  70  73
ENDBRANCH  52  66
BRANCH  53  77
ATOM     77  C   UNL A   1      39.420  33.878  37.130  1.00  0.00     0.023 A 
ATOM     78  C   UNL A   1      39.939  35.189  37.147  1.00  0.00     0.012 A 
ATOM     79  C   UNL A   1      38.769  33.387  38.277  1.00  0.00     0.148 A 
ATOM     80  C   UNL A   1      39.864  35.970  38.301  1.00  0.00     0.002 A 
ATOM     81  C   UNL A   1      38.645  34.192  39.404  1.00  0.00     0.091 A 
ATOM     82  F   UNL A   1      38.289  32.134  38.249  1.00  0.00    -0.205 F 
ATOM     83  C   UNL A   1      39.212  35.475  39.426  1.00  0.00     0.022 A 
BRANCH  81  84
ATOM     84  S   UNL A   1      37.709  33.678  40.848  1.00  0.00     0.127 S 
ATOM     85  O   UNL A   1      37.503  34.948  41.539  1.00  0.00    -0.237 OA
ATOM     86  O   UNL A   1      36.506  33.103  40.244  1.00  0.00    -0.237 OA
ATOM     87  O   UNL A   1      38.553  32.709  41.534  1.00  0.00    -0.744 OA
ENDBRANCH  81  84
ENDBRANCH  53  77
BRANCH  65  88
ATOM     88  C   UNL A   1      43.900  28.807  35.435  1.00  0.00     0.023 A 
ATOM     89  C   UNL A   1      45.179  29.373  35.271  1.00  0.00     0.012 A 
ATOM     90  C   UNL A   1      43.726  27.734  36.331  1.00  0.00     0.148 A 
ATOM     91  C   UNL A   1      46.273  28.859  35.965  1.00  0.00     0.002 A 
ATOM     92  C   UNL A   1      44.810  27.262  37.059  1.00  0.00     0.091 A 
ATOM     93  F   UNL A   1      42.502  27.199  36.459  1.00  0.00    -0.205 F 
ATOM     94  C   UNL A   1      46.087  27.814  36.867  1.00  0.00     0.022 A 
BRANCH  92  95
ATOM     95  S   UNL A   1      44.647  25.989  38.316  1.00  0.00     0.127 S 
ATOM     96  O   UNL A   1      46.036  25.805  38.735  1.00  0.00    -0.237 OA
ATOM     97  O   UNL A   1      43.793  26.642  39.307  1.00  0.00    -0.237 OA
ATOM     98  O   UNL A   1      44.040  24.843  37.654  1.00  0.00    -0.744 OA
ENDBRANCH  92  95
ENDBRANCH  65  88
ENDBRANCH  39  40
ENDBRANCH  31  34
ENDBRANCH  29  30
ENDBRANCH  28  29
ENDBRANCH   1  28
TORSDOF 20
ENDMDL
MODEL 2
REMARK VINA RESULT:     -10.9      6.697     11.787
REMARK SMILES CC(C)C[N@H+](CC[NH+](C)C)[C@@H]1CCC[C@]([NH3+])(C(=O)NCCCNC(=O)c2ccc(-c3c4nc(c(-c5cccc(S(=O)(=O)[O-])c5F)c5ccc([nH]5)c(-c5cccc(S(=O)(=O)[O-])c5F)c5nc(c(-c6cccc(S(=O)(=O)[O-])c6F)c6ccc3[nH]6)C=C5)C=C4)cc2)C1
REMARK SMILES IDX 20 1 19 2 17 3 18 4 15 6 11 7 12 8 89 9 13 10 14 11 5 12
REMARK SMILES IDX 4 14 2 15 1 16 3 17 6 18 7 19 8 20 9 21 10 22 16 24 21 28
REMARK SMILES IDX 22 29 23 30 24 31 25 33 26 34 27 35 88 36 28 37 87 38 29 39
REMARK SMILES IDX 30 40 31 41 81 42 32 43 86 44 80 45 82 46 33 47 85 48 79 49
REMARK SMILES IDX 78 50 34 52 66 53 46 54 65 55 47 56 50 57 64 58 83 59 48 60
REMARK SMILES IDX 49 61 63 63 84 64 51 65 35 66 36 67 44 68 37 69 39 70 45 71
REMARK SMILES IDX 38 72 40 73 41 74 42 75 43 76 67 77 68 78 76 79 69 80 71 81
REMARK SMILES IDX 77 82 70 83 72 84 73 85 74 86 75 87 52 88 53 89 61 90 54 91
REMARK SMILES IDX 56 92 62 93 55 94 57 95 58 96 59 97 60 98
REMARK H PARENT 19 5 5 13 8 23 16 25 16 26 16 27 23 32 82 51 50 62
REMARK Flexibility Score: inf
ROOT
ATOM      1  C   UNL A   1      36.631  20.283  25.041  1.00  0.00     0.118 C 
ENDROOT
BRANCH   1   2
ATOM      2  N   UNL A   1      36.380  21.428  24.193  1.00  0.00    -0.351 N 
ATOM      3  C   UNL A   1      35.998  22.707  24.427  1.00  0.00     0.281 C 
ATOM      4  O   UNL A   1      35.920  23.363  23.384  1.00  0.00    -0.268 OA
ATOM      5  H   UNL A   1      36.517  21.235  23.237  1.00  0.00     0.163 HD
BRANCH   3   6
ATOM      6  C   UNL A   1      35.859  23.345  25.861  1.00  0.00     0.179 C 
ATOM      7  C   UNL A   1      33.463  22.424  26.555  1.00  0.00     0.191 C 
ATOM      8  C   UNL A   1      32.984  23.883  26.313  1.00  0.00     0.065 C 
ATOM      9  C   UNL A   1      34.984  22.562  26.877  1.00  0.00     0.144 C 
ATOM     10  C   UNL A   1      33.788  24.690  25.294  1.00  0.00     0.013 C 
ATOM     11  C   UNL A   1      35.273  24.751  25.657  1.00  0.00     0.079 C 
BRANCH   7  12
ATOM     12  N   UNL A   1      33.192  21.377  25.561  1.00  0.00    -0.327 N 
ATOM     13  H   UNL A   1      33.987  21.722  25.021  1.00  0.00     0.348 HD
BRANCH  12  14
ATOM     14  C   UNL A   1      32.138  21.416  24.537  1.00  0.00     0.265 C 
BRANCH  14  15
ATOM     15  C   UNL A   1      32.318  22.053  23.149  1.00  0.00     0.038 C 
ATOM     16  C   UNL A   1      31.952  21.074  22.031  1.00  0.00     0.013 C 
ATOM     17  C   UNL A   1      31.427  23.297  23.026  1.00  0.00     0.013 C 
ENDBRANCH  14  15
ENDBRANCH  12  14
BRANCH  12  18
ATOM     18  C   UNL A   1      33.296  19.975  26.058  1.00  0.00     0.324 C 
BRANCH  18  19
ATOM     19  C   UNL A   1      32.962  18.785  25.102  1.00  0.00     0.323 C 
BRANCH  19  20
ATOM     20  N   UNL A   1      33.733  17.541  25.305  1.00  0.00    -0.335 N 
ATOM     21  C   UNL A   1      32.844  16.472  25.780  1.00  0.00     0.332 C 
ATOM     22  C   UNL A   1      34.374  17.089  24.068  1.00  0.00     0.332 C 
ATOM     23  H   UNL A   1      34.457  17.742  25.996  1.00  0.00     0.347 HD
ENDBRANCH  19  20
ENDBRANCH  18  19
ENDBRANCH  12  18
ENDBRANCH   7  12
BRANCH   6  24
ATOM     24  N   UNL A   1      37.185  23.474  26.521  1.00  0.00    -0.345 N 
ATOM     25  H   UNL A   1      37.055  23.671  27.512  1.00  0.00     0.345 HD
ATOM     26  H   UNL A   1      37.707  24.238  26.088  1.00  0.00     0.345 HD
ATOM     27  H   UNL A   1      37.705  22.603  26.411  1.00  0.00     0.345 HD
ENDBRANCH   6  24
ENDBRANCH   3   6
ENDBRANCH   1   2
BRANCH   1  28
ATOM     28  C   UNL A   1      38.017  19.705  24.778  1.00  0.00     0.042 C 
BRANCH  28  29
ATOM     29  C   UNL A   1      39.078  20.200  25.764  1.00  0.00     0.118 C 
BRANCH  29  30
ATOM     30  N   UNL A   1      40.121  19.207  26.002  1.00  0.00    -0.352 N 
ATOM     31  C   UNL A   1      41.470  19.378  26.174  1.00  0.00     0.251 C 
ATOM     32  H   UNL A   1      39.810  18.274  26.046  1.00  0.00     0.163 HD
ATOM     33  O   UNL A   1      42.227  18.410  26.106  1.00  0.00    -0.269 OA
BRANCH  31  34
ATOM     34  C   UNL A   1      42.008  20.725  26.441  1.00  0.00     0.039 A 
ATOM     35  C   UNL A   1      42.225  21.601  25.375  1.00  0.00     0.014 A 
ATOM     36  C   UNL A   1      42.310  21.113  27.749  1.00  0.00     0.014 A 
ATOM     37  C   UNL A   1      42.689  22.893  25.630  1.00  0.00     0.010 A 
ATOM     38  C   UNL A   1      42.691  22.424  28.008  1.00  0.00     0.010 A 
ATOM     39  C   UNL A   1      42.895  23.324  26.951  1.00  0.00    -0.014 A 
BRANCH  39  40
ATOM     40  C   UNL A   1      43.339  24.707  27.260  1.00  0.00     0.031 A 
ATOM     41  C   UNL A   1      42.373  25.678  27.885  1.00  0.00     0.074 A 
ATOM     42  C   UNL A   1      44.573  25.110  26.896  1.00  0.00     0.049 A 
ATOM     43  N   UNL A   1      42.528  26.953  28.127  1.00  0.00    -0.248 NA
ATOM     44  C   UNL A   1      41.048  25.154  28.263  1.00  0.00     0.031 C 
ATOM     45  C   UNL A   1      45.575  24.279  26.223  1.00  0.00     0.029 A 
ATOM     46  N   UNL A   1      45.184  26.333  27.012  1.00  0.00    -0.354 N 
ATOM     47  C   UNL A   1      41.318  27.388  28.656  1.00  0.00     0.074 A 
ATOM     48  C   UNL A   1      40.423  26.254  28.660  1.00  0.00     0.031 C 
ATOM     49  C   UNL A   1      46.672  25.016  25.986  1.00  0.00     0.029 A 
ATOM     50  C   UNL A   1      46.441  26.378  26.452  1.00  0.00     0.049 A 
ATOM     51  H   UNL A   1      44.765  27.105  27.455  1.00  0.00     0.167 HD
ATOM     52  C   UNL A   1      40.991  28.614  29.131  1.00  0.00     0.034 A 
ATOM     53  C   UNL A   1      47.299  27.407  26.315  1.00  0.00     0.034 A 
ATOM     54  C   UNL A   1      41.897  29.728  29.162  1.00  0.00     0.049 A 
ATOM     55  C   UNL A   1      46.912  28.755  26.865  1.00  0.00     0.074 A 
ATOM     56  C   UNL A   1      41.682  30.997  29.670  1.00  0.00     0.029 A 
ATOM     57  N   UNL A   1      43.193  29.707  28.671  1.00  0.00    -0.354 N 
ATOM     58  N   UNL A   1      45.809  29.112  27.477  1.00  0.00    -0.248 NA
ATOM     59  C   UNL A   1      47.903  29.834  26.739  1.00  0.00     0.031 C 
ATOM     60  C   UNL A   1      42.842  31.749  29.470  1.00  0.00     0.029 A 
ATOM     61  C   UNL A   1      43.791  30.939  28.867  1.00  0.00     0.049 A 
ATOM     62  H   UNL A   1      43.624  28.932  28.244  1.00  0.00     0.167 HD
ATOM     63  C   UNL A   1      45.995  30.437  27.854  1.00  0.00     0.074 A 
ATOM     64  C   UNL A   1      47.322  30.815  27.417  1.00  0.00     0.031 C 
ATOM     65  C   UNL A   1      45.140  31.272  28.493  1.00  0.00     0.034 A 
BRANCH  52  66
ATOM     66  C   UNL A   1      39.618  28.800  29.719  1.00  0.00     0.023 A 
ATOM     67  C   UNL A   1      39.378  28.399  31.050  1.00  0.00     0.012 A 
ATOM     68  C   UNL A   1      38.596  29.445  28.997  1.00  0.00     0.148 A 
ATOM     69  C   UNL A   1      38.134  28.613  31.643  1.00  0.00     0.002 A 
ATOM     70  C   UNL A   1      37.375  29.697  29.610  1.00  0.00     0.091 A 
ATOM     71  F   UNL A   1      38.840  29.805  27.729  1.00  0.00    -0.205 F 
ATOM     72  C   UNL A   1      37.138  29.272  30.928  1.00  0.00     0.022 A 
BRANCH  70  73
ATOM     73  S   UNL A   1      36.051  30.610  28.809  1.00  0.00     0.127 S 
ATOM     74  O   UNL A   1      36.803  31.586  28.018  1.00  0.00    -0.237 OA
ATOM     75  O   UNL A   1      35.392  29.567  28.024  1.00  0.00    -0.237 OA
ATOM     76  O   UNL A   1      35.243  31.174  29.880  1.00  0.00    -0.744 OA
ENDBRANCH  70  73
ENDBRANCH  52  66
BRANCH  53  77
ATOM     77  C   UNL A   1      48.630  27.208  25.668  1.00  0.00     0.023 A 
ATOM     78  C   UNL A   1      49.727  26.798  26.453  1.00  0.00     0.012 A 
ATOM     79  C   UNL A   1      48.822  27.443  24.294  1.00  0.00     0.148 A 
ATOM     80  C   UNL A   1      51.000  26.682  25.891  1.00  0.00     0.002 A 
ATOM     81  C   UNL A   1      50.080  27.269  23.729  1.00  0.00     0.091 A 
ATOM     82  F   UNL A   1      47.770  27.843  23.563  1.00  0.00    -0.205 F 
ATOM     83  C   UNL A   1      51.175  26.912  24.530  1.00  0.00     0.022 A 
BRANCH  81  84
ATOM     84  S   UNL A   1      50.365  27.419  21.962  1.00  0.00     0.127 S 
ATOM     85  O   UNL A   1      50.164  28.849  21.746  1.00  0.00    -0.237 OA
ATOM     86  O   UNL A   1      51.751  26.965  21.837  1.00  0.00    -0.237 OA
ATOM     87  O   UNL A   1      49.390  26.537  21.335  1.00  0.00    -0.744 OA
ENDBRANCH  81  84
ENDBRANCH  53  77
BRANCH  65  88
ATOM     88  C   UNL A   1      45.630  32.655  28.830  1.00  0.00     0.023 A 
ATOM     89  C   UNL A   1      46.361  32.879  30.012  1.00  0.00     0.012 A 
ATOM     90  C   UNL A   1      45.433  33.717  27.925  1.00  0.00     0.148 A 
ATOM     91  C   UNL A   1      46.861  34.147  30.305  1.00  0.00     0.002 A 
ATOM     92  C   UNL A   1      45.979  34.963  28.197  1.00  0.00     0.091 A 
ATOM     93  F   UNL A   1      44.720  33.485  26.813  1.00  0.00    -0.205 F 
ATOM     94  C   UNL A   1      46.681  35.184  29.392  1.00  0.00     0.022 A 
BRANCH  92  95
ATOM     95  S   UNL A   1      45.887  36.331  27.036  1.00  0.00     0.127 S 
ATOM     96  O   UNL A   1      44.443  36.518  26.910  1.00  0.00    -0.237 OA
ATOM     97  O   UNL A   1      46.579  37.397  27.760  1.00  0.00    -0.237 OA
ATOM     98  O   UNL A   1      46.565  35.881  25.828  1.00  0.00    -0.744 OA
ENDBRANCH  92  95
ENDBRANCH  65  88
ENDBRANCH  39  40
ENDBRANCH  31  34
ENDBRANCH  29  30
ENDBRANCH  28  29
ENDBRANCH   1  28
TORSDOF 20
ENDMDL
MODEL 3
REMARK VINA RESULT:     -10.7      3.982      9.225
REMARK SMILES CC(C)C[N@H+](CC[NH+](C)C)[C@@H]1CCC[C@]([NH3+])(C(=O)NCCCNC(=O)c2ccc(-c3c4nc(c(-c5cccc(S(=O)(=O)[O-])c5F)c5ccc([nH]5)c(-c5cccc(S(=O)(=O)[O-])c5F)c5nc(c(-c6cccc(S(=O)(=O)[O-])c6F)c6ccc3[nH]6)C=C5)C=C4)cc2)C1
REMARK SMILES IDX 20 1 19 2 17 3 18 4 15 6 11 7 12 8 89 9 13 10 14 11 5 12
REMARK SMILES IDX 4 14 2 15 1 16 3 17 6 18 7 19 8 20 9 21 10 22 16 24 21 28
REMARK SMILES IDX 22 29 23 30 24 31 25 33 26 34 27 35 88 36 28 37 87 38 29 39
REMARK SMILES IDX 30 40 31 41 81 42 32 43 86 44 80 45 82 46 33 47 85 48 79 49
REMARK SMILES IDX 78 50 34 52 66 53 46 54 65 55 47 56 50 57 64 58 83 59 48 60
REMARK SMILES IDX 49 61 63 63 84 64 51 65 35 66 36 67 44 68 37 69 39 70 45 71
REMARK SMILES IDX 38 72 40 73 41 74 42 75 43 76 67 77 68 78 76 79 69 80 71 81
REMARK SMILES IDX 77 82 70 83 72 84 73 85 74 86 75 87 52 88 53 89 61 90 54 91
REMARK SMILES IDX 56 92 62 93 55 94 57 95 58 96 59 97 60 98
REMARK H PARENT 19 5 5 13 8 23 16 25 16 26 16 27 23 32 82 51 50 62
REMARK Flexibility Score: inf
ROOT
ATOM      1  C   UNL A   1      31.575  27.501  26.542  1.00  0.00     0.118 C 
ENDROOT
BRANCH   1   2
ATOM      2  N   UNL A   1      31.455  26.071  26.725  1.00  0.00    -0.351 N 
ATOM      3  C   UNL A   1      31.111  25.044  25.911  1.00  0.00     0.281 C 
ATOM      4  O   UNL A   1      31.159  23.957  26.495  1.00  0.00    -0.268 OA
ATOM      5  H   UNL A   1      31.671  25.781  27.641  1.00  0.00     0.163 HD
BRANCH   3   6
ATOM      6  C   UNL A   1      30.869  25.181  24.360  1.00  0.00     0.179 C 
ATOM      7  C   UNL A   1      32.467  23.255  23.463  1.00  0.00     0.191 C 
ATOM      8  C   UNL A   1      33.387  24.420  23.003  1.00  0.00     0.065 C 
ATOM      9  C   UNL A   1      31.040  23.885  23.523  1.00  0.00     0.144 C 
ATOM     10  C   UNL A   1      33.286  25.711  23.814  1.00  0.00     0.013 C 
ATOM     11  C   UNL A   1      31.854  26.249  23.859  1.00  0.00     0.079 C 
BRANCH   7  12
ATOM     12  N   UNL A   1      32.791  22.482  24.670  1.00  0.00    -0.327 N 
ATOM     13  H   UNL A   1      32.313  23.195  25.222  1.00  0.00     0.348 HD
BRANCH  12  14
ATOM     14  C   UNL A   1      34.096  22.454  25.346  1.00  0.00     0.265 C 
BRANCH  14  15
ATOM     15  C   UNL A   1      35.437  22.672  24.626  1.00  0.00     0.038 C 
ATOM     16  C   UNL A   1      36.242  23.803  25.269  1.00  0.00     0.013 C 
ATOM     17  C   UNL A   1      36.271  21.384  24.674  1.00  0.00     0.013 C 
ENDBRANCH  14  15
ENDBRANCH  12  14
BRANCH  12  18
ATOM     18  C   UNL A   1      32.213  21.109  24.730  1.00  0.00     0.324 C 
BRANCH  18  19
ATOM     19  C   UNL A   1      33.044  19.943  25.355  1.00  0.00     0.323 C 
BRANCH  19  20
ATOM     20  N   UNL A   1      33.008  18.651  24.638  1.00  0.00    -0.335 N 
ATOM     21  C   UNL A   1      32.366  18.822  23.328  1.00  0.00     0.332 C 
ATOM     22  C   UNL A   1      34.352  18.110  24.424  1.00  0.00     0.332 C 
ATOM     23  H   UNL A   1      32.480  17.999  25.218  1.00  0.00     0.347 HD
ENDBRANCH  19  20
ENDBRANCH  18  19
ENDBRANCH  12  18
ENDBRANCH   7  12
BRANCH   6  24
ATOM     24  N   UNL A   1      29.484  25.639  24.073  1.00  0.00    -0.345 N 
ATOM     25  H   UNL A   1      29.467  26.132  23.180  1.00  0.00     0.345 HD
ATOM     26  H   UNL A   1      29.174  26.268  24.815  1.00  0.00     0.345 HD
ATOM     27  H   UNL A   1      28.861  24.832  24.029  1.00  0.00     0.345 HD
ENDBRANCH   6  24
ENDBRANCH   3   6
ENDBRANCH   1   2
BRANCH   1  28
ATOM     28  C   UNL A   1      32.756  28.053  27.333  1.00  0.00     0.042 C 
BRANCH  28  29
ATOM     29  C   UNL A   1      33.756  28.827  26.470  1.00  0.00     0.118 C 
BRANCH  29  30
ATOM     30  N   UNL A   1      33.780  30.251  26.790  1.00  0.00    -0.352 N 
ATOM     31  C   UNL A   1      34.631  30.951  27.604  1.00  0.00     0.251 C 
ATOM     32  H   UNL A   1      33.080  30.790  26.355  1.00  0.00     0.163 HD
ATOM     33  O   UNL A   1      34.344  32.094  27.956  1.00  0.00    -0.269 OA
BRANCH  31  34
ATOM     34  C   UNL A   1      35.889  30.328  28.055  1.00  0.00     0.039 A 
ATOM     35  C   UNL A   1      37.021  30.398  27.240  1.00  0.00     0.014 A 
ATOM     36  C   UNL A   1      35.942  29.663  29.283  1.00  0.00     0.014 A 
ATOM     37  C   UNL A   1      38.225  29.851  27.686  1.00  0.00     0.010 A 
ATOM     38  C   UNL A   1      37.159  29.194  29.761  1.00  0.00     0.010 A 
ATOM     39  C   UNL A   1      38.311  29.273  28.964  1.00  0.00    -0.014 A 
BRANCH  39  40
ATOM     40  C   UNL A   1      39.588  28.728  29.489  1.00  0.00     0.031 A 
ATOM     41  C   UNL A   1      40.307  29.450  30.598  1.00  0.00     0.074 A 
ATOM     42  C   UNL A   1      40.140  27.643  28.911  1.00  0.00     0.049 A 
ATOM     43  N   UNL A   1      41.482  29.204  31.116  1.00  0.00    -0.248 NA
ATOM     44  C   UNL A   1      39.630  30.621  31.183  1.00  0.00     0.031 C 
ATOM     45  C   UNL A   1      39.570  26.896  27.786  1.00  0.00     0.029 A 
ATOM     46  N   UNL A   1      41.323  26.996  29.169  1.00  0.00    -0.354 N 
ATOM     47  C   UNL A   1      41.695  30.200  32.061  1.00  0.00     0.074 A 
ATOM     48  C   UNL A   1      40.551  31.080  32.018  1.00  0.00     0.031 C 
ATOM     49  C   UNL A   1      40.404  25.898  27.452  1.00  0.00     0.029 A 
ATOM     50  C   UNL A   1      41.583  25.954  28.308  1.00  0.00     0.049 A 
ATOM     51  H   UNL A   1      41.928  27.252  29.902  1.00  0.00     0.167 HD
ATOM     52  C   UNL A   1      42.735  30.348  32.917  1.00  0.00     0.034 A 
ATOM     53  C   UNL A   1      42.658  25.149  28.211  1.00  0.00     0.034 A 
ATOM     54  C   UNL A   1      43.852  29.446  32.985  1.00  0.00     0.049 A 
ATOM     55  C   UNL A   1      43.793  25.330  29.186  1.00  0.00     0.074 A 
ATOM     56  C   UNL A   1      44.930  29.478  33.851  1.00  0.00     0.029 A 
ATOM     57  N   UNL A   1      44.032  28.349  32.158  1.00  0.00    -0.354 N 
ATOM     58  N   UNL A   1      43.915  26.202  30.158  1.00  0.00    -0.248 NA
ATOM     59  C   UNL A   1      44.920  24.393  29.076  1.00  0.00     0.031 C 
ATOM     60  C   UNL A   1      45.772  28.407  33.537  1.00  0.00     0.029 A 
ATOM     61  C   UNL A   1      45.202  27.692  32.496  1.00  0.00     0.049 A 
ATOM     62  H   UNL A   1      43.420  28.077  31.437  1.00  0.00     0.167 HD
ATOM     63  C   UNL A   1      45.104  25.885  30.805  1.00  0.00     0.074 A 
ATOM     64  C   UNL A   1      45.657  24.733  30.125  1.00  0.00     0.031 C 
ATOM     65  C   UNL A   1      45.695  26.501  31.858  1.00  0.00     0.034 A 
BRANCH  52  66
ATOM     66  C   UNL A   1      42.684  31.488  33.898  1.00  0.00     0.023 A 
ATOM     67  C   UNL A   1      43.250  32.730  33.542  1.00  0.00     0.012 A 
ATOM     68  C   UNL A   1      42.008  31.364  35.127  1.00  0.00     0.148 A 
ATOM     69  C   UNL A   1      43.166  33.822  34.405  1.00  0.00     0.002 A 
ATOM     70  C   UNL A   1      41.887  32.470  35.960  1.00  0.00     0.091 A 
ATOM     71  F   UNL A   1      41.490  30.172  35.453  1.00  0.00    -0.205 F 
ATOM     72  C   UNL A   1      42.476  33.696  35.606  1.00  0.00     0.022 A 
BRANCH  70  73
ATOM     73  S   UNL A   1      40.949  32.439  37.492  1.00  0.00     0.127 S 
ATOM     74  O   UNL A   1      41.834  31.664  38.364  1.00  0.00    -0.237 OA
ATOM     75  O   UNL A   1      40.859  33.861  37.823  1.00  0.00    -0.237 OA
ATOM     76  O   UNL A   1      39.680  31.802  37.176  1.00  0.00    -0.744 OA
ENDBRANCH  70  73
ENDBRANCH  52  66
BRANCH  53  77
ATOM     77  C   UNL A   1      42.708  24.066  27.185  1.00  0.00     0.023 A 
ATOM     78  C   UNL A   1      43.358  24.304  25.957  1.00  0.00     0.012 A 
ATOM     79  C   UNL A   1      42.100  22.816  27.405  1.00  0.00     0.148 A 
ATOM     80  C   UNL A   1      43.350  23.340  24.948  1.00  0.00     0.002 A 
ATOM     81  C   UNL A   1      42.147  21.838  26.418  1.00  0.00     0.091 A 
ATOM     82  F   UNL A   1      41.477  22.608  28.575  1.00  0.00    -0.205 F 
ATOM     83  C   UNL A   1      42.751  22.106  25.181  1.00  0.00     0.022 A 
BRANCH  81  84
ATOM     84  S   UNL A   1      41.513  20.179  26.685  1.00  0.00     0.127 S 
ATOM     85  O   UNL A   1      41.911  19.504  25.454  1.00  0.00    -0.237 OA
ATOM     86  O   UNL A   1      42.245  19.761  27.882  1.00  0.00    -0.237 OA
ATOM     87  O   UNL A   1      40.079  20.339  26.889  1.00  0.00    -0.744 OA
ENDBRANCH  81  84
ENDBRANCH  53  77
BRANCH  65  88
ATOM     88  C   UNL A   1      46.968  25.903  32.396  1.00  0.00     0.023 A 
ATOM     89  C   UNL A   1      46.931  25.046  33.512  1.00  0.00     0.012 A 
ATOM     90  C   UNL A   1      48.192  26.132  31.737  1.00  0.00     0.148 A 
ATOM     91  C   UNL A   1      48.099  24.450  33.984  1.00  0.00     0.002 A 
ATOM     92  C   UNL A   1      49.342  25.492  32.179  1.00  0.00     0.091 A 
ATOM     93  F   UNL A   1      48.207  26.965  30.686  1.00  0.00    -0.205 F 
ATOM     94  C   UNL A   1      49.300  24.662  33.311  1.00  0.00     0.022 A 
BRANCH  92  95
ATOM     95  S   UNL A   1      50.912  25.625  31.318  1.00  0.00     0.127 S 
ATOM     96  O   UNL A   1      51.231  27.041  31.495  1.00  0.00    -0.237 OA
ATOM     97  O   UNL A   1      51.760  24.708  32.080  1.00  0.00    -0.237 OA
ATOM     98  O   UNL A   1      50.655  25.212  29.945  1.00  0.00    -0.744 OA
ENDBRANCH  92  95
ENDBRANCH  65  88
ENDBRANCH  39  40
ENDBRANCH  31  34
ENDBRANCH  29  30
ENDBRANCH  28  29
ENDBRANCH   1  28
TORSDOF 20
ENDMDL
