MODEL 1
REMARK VINA RESULT:     -13.0      0.000      0.000
REMARK SMILES O=C(NCCCNC(=O)c1ccc(-n2cc(CSc3nc4ccccc4c(=O)n3-c3ccccc3)nn2)cc1)c1ccc(-c2c3nc(c(-c4cccc(S(=O)(=O)[O-])c4F)c4ccc([nH]4)c(-c4cccc(S(=O)(=O)[O-])c4F)c4nc(c(-c5cccc(S(=O)(=O)[O-])c5F)c5ccc2[nH]5)C=C4)C=C3)cc1
REMARK SMILES IDX 6 1 5 2 4 3 3 4 1 5 2 6 40 8 41 9 102 10 42 11 101 12 43 13
REMARK SMILES IDX 44 14 45 15 95 16 46 17 100 18 94 19 96 20 47 21 99 22 93 23
REMARK SMILES IDX 92 24 48 26 80 27 60 28 79 29 61 30 64 31 78 32 97 33 62 34
REMARK SMILES IDX 63 35 77 37 98 38 65 39 49 40 50 41 58 42 51 43 53 44 59 45
REMARK SMILES IDX 52 46 54 47 55 48 56 49 57 50 81 51 82 52 90 53 83 54 85 55
REMARK SMILES IDX 91 56 84 57 86 58 87 59 88 60 89 61 66 62 67 63 75 64 68 65
REMARK SMILES IDX 70 66 76 67 69 68 71 69 72 70 73 71 74 72 7 73 8 74 9 76
REMARK SMILES IDX 10 77 11 78 39 79 12 80 38 81 13 82 14 83 15 84 37 85 16 86
REMARK SMILES IDX 36 87 17 88 18 89 19 90 20 91 29 92 21 93 27 94 22 95 26 96
REMARK SMILES IDX 28 97 23 98 25 99 24 100 30 101 31 102 35 103 32 104 34 105
REMARK SMILES IDX 33 106
REMARK H PARENT 3 7 96 25 64 36 7 75
REMARK Flexibility Score: inf
ROOT
ATOM      1  C   UNL A   1      35.918  31.317  30.413  1.00  0.00     0.118 C 
ENDROOT
BRANCH   1   2
ATOM      2  C   UNL A   1      35.494  31.874  31.770  1.00  0.00     0.042 C 
BRANCH   2   3
ATOM      3  C   UNL A   1      36.466  32.889  32.367  1.00  0.00     0.118 C 
BRANCH   3   4
ATOM      4  N   UNL A   1      36.916  32.602  33.713  1.00  0.00    -0.352 N 
ATOM      5  O   UNL A   1      38.149  32.039  35.456  1.00  0.00    -0.269 OA
ATOM      6  C   UNL A   1      37.972  31.913  34.243  1.00  0.00     0.251 C 
ATOM      7  H   UNL A   1      36.330  32.991  34.402  1.00  0.00     0.163 HD
BRANCH   6   8
ATOM      8  C   UNL A   1      38.819  30.963  33.479  1.00  0.00     0.039 A 
ATOM      9  C   UNL A   1      38.447  29.671  33.099  1.00  0.00     0.014 A 
ATOM     10  C   UNL A   1      40.118  31.415  33.184  1.00  0.00     0.014 A 
ATOM     11  C   UNL A   1      39.390  28.793  32.581  1.00  0.00     0.010 A 
ATOM     12  C   UNL A   1      41.054  30.555  32.639  1.00  0.00     0.010 A 
ATOM     13  C   UNL A   1      40.698  29.228  32.399  1.00  0.00    -0.014 A 
BRANCH  13  14
ATOM     14  C   UNL A   1      41.676  28.301  31.843  1.00  0.00     0.031 A 
ATOM     15  C   UNL A   1      42.615  27.704  32.843  1.00  0.00     0.074 A 
ATOM     16  C   UNL A   1      41.565  27.887  30.564  1.00  0.00     0.049 A 
ATOM     17  N   UNL A   1      43.908  27.629  32.801  1.00  0.00    -0.248 NA
ATOM     18  C   UNL A   1      42.034  27.217  34.107  1.00  0.00     0.031 C 
ATOM     19  C   UNL A   1      40.493  28.217  29.616  1.00  0.00     0.029 A 
ATOM     20  N   UNL A   1      42.276  26.933  29.901  1.00  0.00    -0.354 N 
ATOM     21  C   UNL A   1      44.278  26.894  33.932  1.00  0.00     0.074 A 
ATOM     22  C   UNL A   1      43.115  26.818  34.774  1.00  0.00     0.031 C 
ATOM     23  C   UNL A   1      40.458  27.279  28.646  1.00  0.00     0.029 A 
ATOM     24  C   UNL A   1      41.570  26.366  28.841  1.00  0.00     0.049 A 
ATOM     25  H   UNL A   1      43.194  26.671  30.144  1.00  0.00     0.167 HD
ATOM     26  C   UNL A   1      45.441  26.190  33.997  1.00  0.00     0.034 A 
ATOM     27  C   UNL A   1      41.806  25.163  28.260  1.00  0.00     0.034 A 
ATOM     28  C   UNL A   1      46.400  26.637  33.027  1.00  0.00     0.049 A 
ATOM     29  C   UNL A   1      43.187  24.762  28.616  1.00  0.00     0.074 A 
ATOM     30  C   UNL A   1      47.056  27.824  32.774  1.00  0.00     0.029 A 
ATOM     31  N   UNL A   1      46.555  25.874  31.897  1.00  0.00    -0.354 N 
ATOM     32  N   UNL A   1      44.247  25.409  28.221  1.00  0.00    -0.248 NA
ATOM     33  C   UNL A   1      43.365  23.912  29.781  1.00  0.00     0.031 C 
ATOM     34  C   UNL A   1      47.122  27.904  31.352  1.00  0.00     0.029 A 
ATOM     35  C   UNL A   1      46.551  26.738  30.835  1.00  0.00     0.049 A 
ATOM     36  H   UNL A   1      46.649  24.896  31.857  1.00  0.00     0.167 HD
ATOM     37  C   UNL A   1      45.083  25.408  29.329  1.00  0.00     0.074 A 
ATOM     38  C   UNL A   1      44.531  24.390  30.222  1.00  0.00     0.031 C 
ATOM     39  C   UNL A   1      45.965  26.427  29.552  1.00  0.00     0.034 A 
BRANCH  26  40
ATOM     40  C   UNL A   1      45.587  24.856  34.693  1.00  0.00     0.023 A 
ATOM     41  C   UNL A   1      45.218  23.695  33.977  1.00  0.00     0.012 A 
ATOM     42  C   UNL A   1      45.785  24.714  36.087  1.00  0.00     0.148 A 
ATOM     43  C   UNL A   1      45.008  22.471  34.624  1.00  0.00     0.002 A 
ATOM     44  C   UNL A   1      45.648  23.480  36.712  1.00  0.00     0.091 A 
ATOM     45  F   UNL A   1      45.970  25.797  36.850  1.00  0.00    -0.205 F 
ATOM     46  C   UNL A   1      45.230  22.361  35.991  1.00  0.00     0.022 A 
BRANCH  44  47
ATOM     47  S   UNL A   1      45.963  23.279  38.469  1.00  0.00     0.127 S 
ATOM     48  O   UNL A   1      44.916  24.113  39.050  1.00  0.00    -0.237 OA
ATOM     49  O   UNL A   1      45.778  21.838  38.644  1.00  0.00    -0.237 OA
ATOM     50  O   UNL A   1      47.334  23.730  38.670  1.00  0.00    -0.744 OA
ENDBRANCH  44  47
ENDBRANCH  26  40
BRANCH  27  51
ATOM     51  C   UNL A   1      40.812  24.197  27.731  1.00  0.00     0.023 A 
ATOM     52  C   UNL A   1      39.576  24.653  27.232  1.00  0.00     0.012 A 
ATOM     53  C   UNL A   1      41.173  22.853  27.483  1.00  0.00     0.148 A 
ATOM     54  C   UNL A   1      38.734  23.799  26.507  1.00  0.00     0.002 A 
ATOM     55  C   UNL A   1      40.326  22.004  26.780  1.00  0.00     0.091 A 
ATOM     56  F   UNL A   1      42.389  22.432  27.857  1.00  0.00    -0.205 F 
ATOM     57  C   UNL A   1      39.108  22.477  26.279  1.00  0.00     0.022 A 
BRANCH  55  58
ATOM     58  S   UNL A   1      40.751  20.287  26.451  1.00  0.00     0.127 S 
ATOM     59  O   UNL A   1      41.961  20.428  25.639  1.00  0.00    -0.237 OA
ATOM     60  O   UNL A   1      40.974  19.766  27.796  1.00  0.00    -0.237 OA
ATOM     61  O   UNL A   1      39.613  19.727  25.733  1.00  0.00    -0.744 OA
ENDBRANCH  55  58
ENDBRANCH  27  51
BRANCH  39  62
ATOM     62  C   UNL A   1      46.129  27.472  28.475  1.00  0.00     0.023 A 
ATOM     63  C   UNL A   1      47.021  27.295  27.395  1.00  0.00     0.012 A 
ATOM     64  C   UNL A   1      45.233  28.551  28.443  1.00  0.00     0.148 A 
ATOM     65  C   UNL A   1      47.036  28.187  26.319  1.00  0.00     0.002 A 
ATOM     66  C   UNL A   1      45.220  29.412  27.352  1.00  0.00     0.091 A 
ATOM     67  F   UNL A   1      44.378  28.694  29.468  1.00  0.00    -0.205 F 
ATOM     68  C   UNL A   1      46.125  29.239  26.293  1.00  0.00     0.022 A 
BRANCH  66  69
ATOM     69  S   UNL A   1      43.995  30.711  27.191  1.00  0.00     0.127 S 
ATOM     70  O   UNL A   1      44.431  31.393  25.973  1.00  0.00    -0.237 OA
ATOM     71  O   UNL A   1      42.751  29.951  27.054  1.00  0.00    -0.237 OA
ATOM     72  O   UNL A   1      44.081  31.500  28.413  1.00  0.00    -0.744 OA
ENDBRANCH  66  69
ENDBRANCH  39  62
ENDBRANCH  13  14
ENDBRANCH   6   8
ENDBRANCH   3   4
ENDBRANCH   2   3
ENDBRANCH   1   2
BRANCH   1  73
ATOM     73  N   UNL A   1      35.972  32.335  29.372  1.00  0.00    -0.352 N 
ATOM     74  C   UNL A   1      35.435  32.352  28.112  1.00  0.00     0.251 C 
ATOM     75  H   UNL A   1      36.477  33.144  29.615  1.00  0.00     0.163 HD
ATOM     76  O   UNL A   1      35.715  33.259  27.333  1.00  0.00    -0.269 OA
BRANCH  74  77
ATOM     77  C   UNL A   1      34.541  31.266  27.672  1.00  0.00     0.039 A 
ATOM     78  C   UNL A   1      35.098  30.009  27.415  1.00  0.00     0.016 A 
ATOM     79  C   UNL A   1      33.175  31.492  27.475  1.00  0.00     0.016 A 
ATOM     80  C   UNL A   1      34.276  28.941  27.054  1.00  0.00     0.029 A 
ATOM     81  C   UNL A   1      32.355  30.438  27.074  1.00  0.00     0.029 A 
ATOM     82  C   UNL A   1      32.907  29.159  26.878  1.00  0.00     0.066 A 
BRANCH  82  83
ATOM     83  N   UNL A   1      32.094  28.099  26.428  1.00  0.00    -0.220 N 
ATOM     84  C   UNL A   1      31.934  26.889  27.042  1.00  0.00     0.141 A 
ATOM     85  N   UNL A   1      31.319  28.149  25.323  1.00  0.00    -0.062 NA
ATOM     86  C   UNL A   1      31.031  26.193  26.274  1.00  0.00     0.093 A 
ATOM     87  N   UNL A   1      30.718  26.968  25.187  1.00  0.00    -0.134 NA
BRANCH  86  88
ATOM     88  C   UNL A   1      30.622  24.775  26.379  1.00  0.00     0.138 C 
BRANCH  88  89
ATOM     89  S   UNL A   1      30.646  23.635  24.990  1.00  0.00    -0.081 SA
BRANCH  89  90
ATOM     90  C   UNL A   1      32.214  22.931  24.695  1.00  0.00     0.176 A 
ATOM     91  N   UNL A   1      32.198  21.630  24.800  1.00  0.00    -0.223 NA
ATOM     92  N   UNL A   1      33.374  23.612  24.367  1.00  0.00    -0.255 N 
ATOM     93  C   UNL A   1      33.413  20.940  24.707  1.00  0.00     0.079 A 
ATOM     94  C   UNL A   1      34.536  23.074  24.949  1.00  0.00     0.266 A 
ATOM     95  C   UNL A   1      33.454  19.566  24.467  1.00  0.00     0.029 A 
ATOM     96  C   UNL A   1      34.604  21.603  24.957  1.00  0.00     0.066 A 
ATOM     97  O   UNL A   1      35.464  23.700  25.425  1.00  0.00    -0.268 OA
ATOM     98  C   UNL A   1      34.669  18.872  24.548  1.00  0.00     0.002 A 
ATOM     99  C   UNL A   1      35.815  20.921  25.102  1.00  0.00     0.016 A 
ATOM    100  C   UNL A   1      35.842  19.543  24.904  1.00  0.00     0.001 A 
BRANCH  92 101
ATOM    101  C   UNL A   1      33.514  24.790  23.537  1.00  0.00     0.051 A 
ATOM    102  C   UNL A   1      33.984  25.994  24.106  1.00  0.00     0.027 A 
ATOM    103  C   UNL A   1      33.218  24.844  22.171  1.00  0.00     0.027 A 
ATOM    104  C   UNL A   1      33.919  27.215  23.431  1.00  0.00     0.002 A 
ATOM    105  C   UNL A   1      33.081  26.073  21.506  1.00  0.00     0.002 A 
ATOM    106  C   UNL A   1      33.395  27.263  22.150  1.00  0.00     0.000 A 
ENDBRANCH  92 101
ENDBRANCH  89  90
ENDBRANCH  88  89
ENDBRANCH  86  88
ENDBRANCH  82  83
ENDBRANCH  74  77
ENDBRANCH   1  73
TORSDOF 18
ENDMDL
MODEL 2
REMARK VINA RESULT:     -12.8      3.886      9.034
REMARK SMILES O=C(NCCCNC(=O)c1ccc(-n2cc(CSc3nc4ccccc4c(=O)n3-c3ccccc3)nn2)cc1)c1ccc(-c2c3nc(c(-c4cccc(S(=O)(=O)[O-])c4F)c4ccc([nH]4)c(-c4cccc(S(=O)(=O)[O-])c4F)c4nc(c(-c5cccc(S(=O)(=O)[O-])c5F)c5ccc2[nH]5)C=C4)C=C3)cc1
REMARK SMILES IDX 6 1 5 2 4 3 3 4 1 5 2 6 40 8 41 9 102 10 42 11 101 12 43 13
REMARK SMILES IDX 44 14 45 15 95 16 46 17 100 18 94 19 96 20 47 21 99 22 93 23
REMARK SMILES IDX 92 24 48 26 80 27 60 28 79 29 61 30 64 31 78 32 97 33 62 34
REMARK SMILES IDX 63 35 77 37 98 38 65 39 49 40 50 41 58 42 51 43 53 44 59 45
REMARK SMILES IDX 52 46 54 47 55 48 56 49 57 50 81 51 82 52 90 53 83 54 85 55
REMARK SMILES IDX 91 56 84 57 86 58 87 59 88 60 89 61 66 62 67 63 75 64 68 65
REMARK SMILES IDX 70 66 76 67 69 68 71 69 72 70 73 71 74 72 7 73 8 74 9 76
REMARK SMILES IDX 10 77 11 78 39 79 12 80 38 81 13 82 14 83 15 84 37 85 16 86
REMARK SMILES IDX 36 87 17 88 18 89 19 90 20 91 29 92 21 93 27 94 22 95 26 96
REMARK SMILES IDX 28 97 23 98 25 99 24 100 30 101 31 102 35 103 32 104 34 105
REMARK SMILES IDX 33 106
REMARK H PARENT 3 7 96 25 64 36 7 75
REMARK Flexibility Score: inf
ROOT
ATOM      1  C   UNL A   1      33.664  28.673  24.985  1.00  0.00     0.118 C 
ENDROOT
BRANCH   1   2
ATOM      2  C   UNL A   1      34.364  28.576  26.338  1.00  0.00     0.042 C 
BRANCH   2   3
ATOM      3  C   UNL A   1      33.532  29.074  27.517  1.00  0.00     0.118 C 
BRANCH   3   4
ATOM      4  N   UNL A   1      33.261  30.498  27.529  1.00  0.00    -0.352 N 
ATOM      5  O   UNL A   1      33.484  32.692  27.621  1.00  0.00    -0.269 OA
ATOM      6  C   UNL A   1      33.954  31.600  27.947  1.00  0.00     0.251 C 
ATOM      7  H   UNL A   1      32.380  30.722  27.150  1.00  0.00     0.163 HD
BRANCH   6   8
ATOM      8  C   UNL A   1      35.138  31.554  28.839  1.00  0.00     0.039 A 
ATOM      9  C   UNL A   1      35.135  31.844  30.206  1.00  0.00     0.014 A 
ATOM     10  C   UNL A   1      36.358  31.251  28.208  1.00  0.00     0.014 A 
ATOM     11  C   UNL A   1      36.332  31.983  30.897  1.00  0.00     0.010 A 
ATOM     12  C   UNL A   1      37.551  31.357  28.899  1.00  0.00     0.010 A 
ATOM     13  C   UNL A   1      37.533  31.785  30.225  1.00  0.00    -0.014 A 
BRANCH  13  14
ATOM     14  C   UNL A   1      38.782  31.923  30.964  1.00  0.00     0.031 A 
ATOM     15  C   UNL A   1      39.257  30.673  31.634  1.00  0.00     0.074 A 
ATOM     16  C   UNL A   1      39.518  33.048  30.845  1.00  0.00     0.049 A 
ATOM     17  N   UNL A   1      39.636  30.502  32.862  1.00  0.00    -0.248 NA
ATOM     18  C   UNL A   1      39.200  29.426  30.852  1.00  0.00     0.031 C 
ATOM     19  C   UNL A   1      39.246  34.197  29.973  1.00  0.00     0.029 A 
ATOM     20  N   UNL A   1      40.762  33.320  31.329  1.00  0.00    -0.354 N 
ATOM     21  C   UNL A   1      40.068  29.174  32.939  1.00  0.00     0.074 A 
ATOM     22  C   UNL A   1      39.623  28.524  31.736  1.00  0.00     0.031 C 
ATOM     23  C   UNL A   1      40.394  34.875  29.766  1.00  0.00     0.029 A 
ATOM     24  C   UNL A   1      41.438  34.282  30.581  1.00  0.00     0.049 A 
ATOM     25  H   UNL A   1      41.144  32.882  32.124  1.00  0.00     0.167 HD
ATOM     26  C   UNL A   1      40.970  28.753  33.867  1.00  0.00     0.034 A 
ATOM     27  C   UNL A   1      42.779  34.479  30.535  1.00  0.00     0.034 A 
ATOM     28  C   UNL A   1      41.063  29.653  34.980  1.00  0.00     0.049 A 
ATOM     29  C   UNL A   1      43.365  33.830  31.731  1.00  0.00     0.074 A 
ATOM     30  C   UNL A   1      40.188  30.114  35.943  1.00  0.00     0.029 A 
ATOM     31  N   UNL A   1      42.139  30.504  35.014  1.00  0.00    -0.354 N 
ATOM     32  N   UNL A   1      43.125  34.221  32.950  1.00  0.00    -0.248 NA
ATOM     33  C   UNL A   1      43.850  32.467  31.590  1.00  0.00     0.031 C 
ATOM     34  C   UNL A   1      40.550  31.480  36.135  1.00  0.00     0.029 A 
ATOM     35  C   UNL A   1      41.651  31.746  35.319  1.00  0.00     0.049 A 
ATOM     36  H   UNL A   1      43.081  30.267  34.851  1.00  0.00     0.167 HD
ATOM     37  C   UNL A   1      42.992  33.043  33.670  1.00  0.00     0.074 A 
ATOM     38  C   UNL A   1      43.544  32.002  32.804  1.00  0.00     0.031 C 
ATOM     39  C   UNL A   1      42.183  32.971  34.770  1.00  0.00     0.034 A 
BRANCH  26  40
ATOM     40  C   UNL A   1      42.035  27.712  33.604  1.00  0.00     0.023 A 
ATOM     41  C   UNL A   1      42.130  26.625  34.501  1.00  0.00     0.012 A 
ATOM     42  C   UNL A   1      43.114  27.900  32.707  1.00  0.00     0.148 A 
ATOM     43  C   UNL A   1      43.262  25.802  34.539  1.00  0.00     0.002 A 
ATOM     44  C   UNL A   1      44.201  27.034  32.697  1.00  0.00     0.091 A 
ATOM     45  F   UNL A   1      43.169  28.999  31.949  1.00  0.00    -0.205 F 
ATOM     46  C   UNL A   1      44.296  26.002  33.631  1.00  0.00     0.022 A 
BRANCH  44  47
ATOM     47  S   UNL A   1      45.542  27.227  31.518  1.00  0.00     0.127 S 
ATOM     48  O   UNL A   1      46.252  28.376  32.070  1.00  0.00    -0.237 OA
ATOM     49  O   UNL A   1      46.239  25.947  31.645  1.00  0.00    -0.237 OA
ATOM     50  O   UNL A   1      44.896  27.425  30.227  1.00  0.00    -0.744 OA
ENDBRANCH  44  47
ENDBRANCH  26  40
BRANCH  27  51
ATOM     51  C   UNL A   1      43.603  34.873  29.365  1.00  0.00     0.023 A 
ATOM     52  C   UNL A   1      44.319  36.086  29.377  1.00  0.00     0.012 A 
ATOM     53  C   UNL A   1      43.887  33.944  28.338  1.00  0.00     0.148 A 
ATOM     54  C   UNL A   1      45.288  36.359  28.403  1.00  0.00     0.002 A 
ATOM     55  C   UNL A   1      44.836  34.228  27.362  1.00  0.00     0.091 A 
ATOM     56  F   UNL A   1      43.294  32.743  28.371  1.00  0.00    -0.205 F 
ATOM     57  C   UNL A   1      45.548  35.432  27.397  1.00  0.00     0.022 A 
BRANCH  55  58
ATOM     58  S   UNL A   1      45.219  33.072  26.038  1.00  0.00     0.127 S 
ATOM     59  O   UNL A   1      46.354  33.728  25.386  1.00  0.00    -0.237 OA
ATOM     60  O   UNL A   1      45.555  31.860  26.780  1.00  0.00    -0.237 OA
ATOM     61  O   UNL A   1      44.019  33.000  25.214  1.00  0.00    -0.744 OA
ENDBRANCH  55  58
ENDBRANCH  27  51
BRANCH  39  62
ATOM     62  C   UNL A   1      41.570  34.251  35.284  1.00  0.00     0.023 A 
ATOM     63  C   UNL A   1      40.339  34.738  34.793  1.00  0.00     0.012 A 
ATOM     64  C   UNL A   1      42.139  34.864  36.411  1.00  0.00     0.148 A 
ATOM     65  C   UNL A   1      39.702  35.824  35.397  1.00  0.00     0.002 A 
ATOM     66  C   UNL A   1      41.482  35.917  37.035  1.00  0.00     0.091 A 
ATOM     67  F   UNL A   1      43.299  34.377  36.877  1.00  0.00    -0.205 F 
ATOM     68  C   UNL A   1      40.268  36.406  36.527  1.00  0.00     0.022 A 
BRANCH  66  69
ATOM     69  S   UNL A   1      42.087  36.632  38.564  1.00  0.00     0.127 S 
ATOM     70  O   UNL A   1      42.256  35.450  39.408  1.00  0.00    -0.237 OA
ATOM     71  O   UNL A   1      43.337  37.265  38.139  1.00  0.00    -0.237 OA
ATOM     72  O   UNL A   1      41.063  37.571  39.004  1.00  0.00    -0.744 OA
ENDBRANCH  66  69
ENDBRANCH  39  62
ENDBRANCH  13  14
ENDBRANCH   6   8
ENDBRANCH   3   4
ENDBRANCH   2   3
ENDBRANCH   1   2
BRANCH   1  73
ATOM     73  N   UNL A   1      32.364  28.015  24.969  1.00  0.00    -0.352 N 
ATOM     74  C   UNL A   1      32.035  26.689  24.876  1.00  0.00     0.251 C 
ATOM     75  H   UNL A   1      31.594  28.625  25.037  1.00  0.00     0.163 HD
ATOM     76  O   UNL A   1      30.863  26.349  24.741  1.00  0.00    -0.269 OA
BRANCH  74  77
ATOM     77  C   UNL A   1      33.091  25.660  24.908  1.00  0.00     0.039 A 
ATOM     78  C   UNL A   1      33.411  25.072  26.137  1.00  0.00     0.016 A 
ATOM     79  C   UNL A   1      33.788  25.307  23.749  1.00  0.00     0.016 A 
ATOM     80  C   UNL A   1      34.361  24.054  26.197  1.00  0.00     0.029 A 
ATOM     81  C   UNL A   1      34.770  24.319  23.811  1.00  0.00     0.029 A 
ATOM     82  C   UNL A   1      35.044  23.684  25.036  1.00  0.00     0.066 A 
BRANCH  82  83
ATOM     83  N   UNL A   1      36.067  22.717  25.117  1.00  0.00    -0.220 N 
ATOM     84  C   UNL A   1      37.310  22.902  25.655  1.00  0.00     0.141 A 
ATOM     85  N   UNL A   1      35.944  21.440  24.697  1.00  0.00    -0.062 NA
ATOM     86  C   UNL A   1      37.950  21.690  25.551  1.00  0.00     0.093 A 
ATOM     87  N   UNL A   1      37.109  20.825  24.898  1.00  0.00    -0.134 NA
BRANCH  86  88
ATOM     88  C   UNL A   1      39.368  21.364  25.820  1.00  0.00     0.138 C 
BRANCH  88  89
ATOM     89  S   UNL A   1      40.313  22.101  27.159  1.00  0.00    -0.081 SA
BRANCH  89  90
ATOM     90  C   UNL A   1      41.706  22.999  26.614  1.00  0.00     0.176 A 
ATOM     91  N   UNL A   1      42.458  22.301  25.808  1.00  0.00    -0.223 NA
ATOM     92  N   UNL A   1      42.023  24.306  26.944  1.00  0.00    -0.255 N 
ATOM     93  C   UNL A   1      43.674  22.854  25.387  1.00  0.00     0.079 A 
ATOM     94  C   UNL A   1      43.401  24.533  27.112  1.00  0.00     0.266 A 
ATOM     95  C   UNL A   1      44.364  22.345  24.286  1.00  0.00     0.029 A 
ATOM     96  C   UNL A   1      44.268  23.862  26.129  1.00  0.00     0.066 A 
ATOM     97  O   UNL A   1      43.922  25.220  27.971  1.00  0.00    -0.268 OA
ATOM     98  C   UNL A   1      45.654  22.802  23.989  1.00  0.00     0.002 A 
ATOM     99  C   UNL A   1      45.577  24.287  25.887  1.00  0.00     0.016 A 
ATOM    100  C   UNL A   1      46.276  23.744  24.813  1.00  0.00     0.001 A 
BRANCH  92 101
ATOM    101  C   UNL A   1      41.122  25.421  27.148  1.00  0.00     0.051 A 
ATOM    102  C   UNL A   1      41.214  26.555  26.313  1.00  0.00     0.027 A 
ATOM    103  C   UNL A   1      40.131  25.475  28.134  1.00  0.00     0.027 A 
ATOM    104  C   UNL A   1      40.547  27.749  26.599  1.00  0.00     0.002 A 
ATOM    105  C   UNL A   1      39.511  26.689  28.473  1.00  0.00     0.002 A 
ATOM    106  C   UNL A   1      39.751  27.836  27.727  1.00  0.00     0.000 A 
ENDBRANCH  92 101
ENDBRANCH  89  90
ENDBRANCH  88  89
ENDBRANCH  86  88
ENDBRANCH  82  83
ENDBRANCH  74  77
ENDBRANCH   1  73
TORSDOF 18
ENDMDL
MODEL 3
REMARK VINA RESULT:     -12.8      4.117      9.744
REMARK SMILES O=C(NCCCNC(=O)c1ccc(-n2cc(CSc3nc4ccccc4c(=O)n3-c3ccccc3)nn2)cc1)c1ccc(-c2c3nc(c(-c4cccc(S(=O)(=O)[O-])c4F)c4ccc([nH]4)c(-c4cccc(S(=O)(=O)[O-])c4F)c4nc(c(-c5cccc(S(=O)(=O)[O-])c5F)c5ccc2[nH]5)C=C4)C=C3)cc1
REMARK SMILES IDX 6 1 5 2 4 3 3 4 1 5 2 6 40 8 41 9 102 10 42 11 101 12 43 13
REMARK SMILES IDX 44 14 45 15 95 16 46 17 100 18 94 19 96 20 47 21 99 22 93 23
REMARK SMILES IDX 92 24 48 26 80 27 60 28 79 29 61 30 64 31 78 32 97 33 62 34
REMARK SMILES IDX 63 35 77 37 98 38 65 39 49 40 50 41 58 42 51 43 53 44 59 45
REMARK SMILES IDX 52 46 54 47 55 48 56 49 57 50 81 51 82 52 90 53 83 54 85 55
REMARK SMILES IDX 91 56 84 57 86 58 87 59 88 60 89 61 66 62 67 63 75 64 68 65
REMARK SMILES IDX 70 66 76 67 69 68 71 69 72 70 73 71 74 72 7 73 8 74 9 76
REMARK SMILES IDX 10 77 11 78 39 79 12 80 38 81 13 82 14 83 15 84 37 85 16 86
REMARK SMILES IDX 36 87 17 88 18 89 19 90 20 91 29 92 21 93 27 94 22 95 26 96
REMARK SMILES IDX 28 97 23 98 25 99 24 100 30 101 31 102 35 103 32 104 34 105
REMARK SMILES IDX 33 106
REMARK H PARENT 3 7 96 25 64 36 7 75
REMARK Flexibility Score: inf
ROOT
ATOM      1  C   UNL A   1      33.577  28.191  24.959  1.00  0.00     0.118 C 
ENDROOT
BRANCH   1   2
ATOM      2  C   UNL A   1      33.971  28.434  26.415  1.00  0.00     0.042 C 
BRANCH   2   3
ATOM      3  C   UNL A   1      32.824  28.902  27.308  1.00  0.00     0.118 C 
BRANCH   3   4
ATOM      4  N   UNL A   1      32.628  30.336  27.366  1.00  0.00    -0.352 N 
ATOM      5  O   UNL A   1      32.966  32.516  27.410  1.00  0.00    -0.269 OA
ATOM      6  C   UNL A   1      33.437  31.402  27.647  1.00  0.00     0.251 C 
ATOM      7  H   UNL A   1      31.703  30.603  27.157  1.00  0.00     0.163 HD
BRANCH   6   8
ATOM      8  C   UNL A   1      34.763  31.296  28.304  1.00  0.00     0.039 A 
ATOM      9  C   UNL A   1      35.021  31.553  29.653  1.00  0.00     0.014 A 
ATOM     10  C   UNL A   1      35.833  30.966  27.455  1.00  0.00     0.014 A 
ATOM     11  C   UNL A   1      36.329  31.636  30.114  1.00  0.00     0.010 A 
ATOM     12  C   UNL A   1      37.136  31.016  27.915  1.00  0.00     0.010 A 
ATOM     13  C   UNL A   1      37.378  31.414  29.229  1.00  0.00    -0.014 A 
BRANCH  13  14
ATOM     14  C   UNL A   1      38.745  31.492  29.728  1.00  0.00     0.031 A 
ATOM     15  C   UNL A   1      39.515  30.212  29.655  1.00  0.00     0.074 A 
ATOM     16  C   UNL A   1      39.291  32.691  30.021  1.00  0.00     0.049 A 
ATOM     17  N   UNL A   1      40.203  29.622  30.581  1.00  0.00    -0.248 NA
ATOM     18  C   UNL A   1      39.415  29.435  28.406  1.00  0.00     0.031 C 
ATOM     19  C   UNL A   1      38.678  34.012  29.838  1.00  0.00     0.029 A 
ATOM     20  N   UNL A   1      40.575  32.994  30.360  1.00  0.00    -0.354 N 
ATOM     21  C   UNL A   1      40.795  28.516  29.962  1.00  0.00     0.074 A 
ATOM     22  C   UNL A   1      40.146  28.359  28.689  1.00  0.00     0.031 C 
ATOM     23  C   UNL A   1      39.651  34.945  29.779  1.00  0.00     0.029 A 
ATOM     24  C   UNL A   1      40.927  34.305  30.040  1.00  0.00     0.049 A 
ATOM     25  H   UNL A   1      41.191  32.355  30.786  1.00  0.00     0.167 HD
ATOM     26  C   UNL A   1      41.941  27.947  30.425  1.00  0.00     0.034 A 
ATOM     27  C   UNL A   1      42.182  34.788  29.868  1.00  0.00     0.034 A 
ATOM     28  C   UNL A   1      42.200  28.286  31.795  1.00  0.00     0.049 A 
ATOM     29  C   UNL A   1      43.117  33.837  30.511  1.00  0.00     0.074 A 
ATOM     30  C   UNL A   1      41.541  28.093  32.993  1.00  0.00     0.029 A 
ATOM     31  N   UNL A   1      43.143  29.253  32.038  1.00  0.00    -0.354 N 
ATOM     32  N   UNL A   1      43.142  33.611  31.794  1.00  0.00    -0.248 NA
ATOM     33  C   UNL A   1      43.710  32.804  29.678  1.00  0.00     0.031 C 
ATOM     34  C   UNL A   1      41.776  29.290  33.731  1.00  0.00     0.029 A 
ATOM     35  C   UNL A   1      42.602  30.109  32.959  1.00  0.00     0.049 A 
ATOM     36  H   UNL A   1      44.036  29.318  31.629  1.00  0.00     0.167 HD
ATOM     37  C   UNL A   1      43.331  32.240  31.899  1.00  0.00     0.074 A 
ATOM     38  C   UNL A   1      43.771  31.813  30.571  1.00  0.00     0.031 C 
ATOM     39  C   UNL A   1      42.833  31.535  32.958  1.00  0.00     0.034 A 
BRANCH  26  40
ATOM     40  C   UNL A   1      43.024  27.375  29.537  1.00  0.00     0.023 A 
ATOM     41  C   UNL A   1      43.488  26.072  29.821  1.00  0.00     0.012 A 
ATOM     42  C   UNL A   1      43.796  28.151  28.641  1.00  0.00     0.148 A 
ATOM     43  C   UNL A   1      44.685  25.587  29.281  1.00  0.00     0.002 A 
ATOM     44  C   UNL A   1      44.944  27.637  28.049  1.00  0.00     0.091 A 
ATOM     45  F   UNL A   1      43.510  29.444  28.457  1.00  0.00    -0.205 F 
ATOM     46  C   UNL A   1      45.411  26.366  28.388  1.00  0.00     0.022 A 
BRANCH  44  47
ATOM     47  S   UNL A   1      45.894  28.591  26.859  1.00  0.00     0.127 S 
ATOM     48  O   UNL A   1      44.839  29.118  26.000  1.00  0.00    -0.237 OA
ATOM     49  O   UNL A   1      46.547  29.578  27.719  1.00  0.00    -0.237 OA
ATOM     50  O   UNL A   1      46.811  27.639  26.245  1.00  0.00    -0.744 OA
ENDBRANCH  44  47
ENDBRANCH  26  40
BRANCH  27  51
ATOM     51  C   UNL A   1      42.638  35.810  28.893  1.00  0.00     0.023 A 
ATOM     52  C   UNL A   1      42.272  35.710  27.537  1.00  0.00     0.012 A 
ATOM     53  C   UNL A   1      43.224  37.018  29.336  1.00  0.00     0.148 A 
ATOM     54  C   UNL A   1      42.476  36.780  26.655  1.00  0.00     0.002 A 
ATOM     55  C   UNL A   1      43.444  38.071  28.454  1.00  0.00     0.091 A 
ATOM     56  F   UNL A   1      43.482  37.171  30.642  1.00  0.00    -0.205 F 
ATOM     57  C   UNL A   1      43.060  37.960  27.112  1.00  0.00     0.022 A 
BRANCH  55  58
ATOM     58  S   UNL A   1      44.191  39.619  28.981  1.00  0.00     0.127 S 
ATOM     59  O   UNL A   1      43.316  40.015  30.085  1.00  0.00    -0.237 OA
ATOM     60  O   UNL A   1      45.528  39.191  29.381  1.00  0.00    -0.237 OA
ATOM     61  O   UNL A   1      44.128  40.504  27.824  1.00  0.00    -0.744 OA
ENDBRANCH  55  58
ENDBRANCH  27  51
BRANCH  39  62
ATOM     62  C   UNL A   1      42.220  32.308  34.100  1.00  0.00     0.023 A 
ATOM     63  C   UNL A   1      43.012  32.931  35.090  1.00  0.00     0.012 A 
ATOM     64  C   UNL A   1      40.844  32.579  34.067  1.00  0.00     0.148 A 
ATOM     65  C   UNL A   1      42.442  33.784  36.037  1.00  0.00     0.002 A 
ATOM     66  C   UNL A   1      40.286  33.461  34.984  1.00  0.00     0.091 A 
ATOM     67  F   UNL A   1      40.108  31.995  33.108  1.00  0.00    -0.205 F 
ATOM     68  C   UNL A   1      41.079  34.059  35.976  1.00  0.00     0.022 A 
BRANCH  66  69
ATOM     69  S   UNL A   1      38.566  33.959  34.888  1.00  0.00     0.127 S 
ATOM     70  O   UNL A   1      38.252  34.242  36.287  1.00  0.00    -0.237 OA
ATOM     71  O   UNL A   1      38.630  35.139  34.023  1.00  0.00    -0.237 OA
ATOM     72  O   UNL A   1      37.852  32.830  34.304  1.00  0.00    -0.744 OA
ENDBRANCH  66  69
ENDBRANCH  39  62
ENDBRANCH  13  14
ENDBRANCH   6   8
ENDBRANCH   3   4
ENDBRANCH   2   3
ENDBRANCH   1   2
BRANCH   1  73
ATOM     73  N   UNL A   1      32.287  27.530  24.821  1.00  0.00    -0.352 N 
ATOM     74  C   UNL A   1      31.974  26.206  24.665  1.00  0.00     0.251 C 
ATOM     75  H   UNL A   1      31.510  28.136  24.845  1.00  0.00     0.163 HD
ATOM     76  O   UNL A   1      30.818  25.867  24.427  1.00  0.00    -0.269 OA
BRANCH  74  77
ATOM     77  C   UNL A   1      33.029  25.180  24.752  1.00  0.00     0.039 A 
ATOM     78  C   UNL A   1      33.260  24.567  25.988  1.00  0.00     0.016 A 
ATOM     79  C   UNL A   1      33.811  24.854  23.640  1.00  0.00     0.016 A 
ATOM     80  C   UNL A   1      34.209  23.550  26.096  1.00  0.00     0.029 A 
ATOM     81  C   UNL A   1      34.790  23.868  23.753  1.00  0.00     0.029 A 
ATOM     82  C   UNL A   1      34.977  23.207  24.980  1.00  0.00     0.066 A 
BRANCH  82  83
ATOM     83  N   UNL A   1      35.995  22.242  25.115  1.00  0.00    -0.220 N 
ATOM     84  C   UNL A   1      37.317  22.494  25.353  1.00  0.00     0.141 A 
ATOM     85  N   UNL A   1      35.794  20.908  25.061  1.00  0.00    -0.062 NA
ATOM     86  C   UNL A   1      37.925  21.264  25.444  1.00  0.00     0.093 A 
ATOM     87  N   UNL A   1      36.975  20.306  25.196  1.00  0.00    -0.134 NA
BRANCH  86  88
ATOM     88  C   UNL A   1      39.368  20.946  25.524  1.00  0.00     0.138 C 
BRANCH  88  89
ATOM     89  S   UNL A   1      40.496  21.759  26.663  1.00  0.00    -0.081 SA
BRANCH  89  90
ATOM     90  C   UNL A   1      42.145  21.802  26.095  1.00  0.00     0.176 A 
ATOM     91  N   UNL A   1      42.495  20.687  25.514  1.00  0.00    -0.223 NA
ATOM     92  N   UNL A   1      43.024  22.865  26.202  1.00  0.00    -0.255 N 
ATOM     93  C   UNL A   1      43.829  20.535  25.116  1.00  0.00     0.079 A 
ATOM     94  C   UNL A   1      44.353  22.483  26.458  1.00  0.00     0.266 A 
ATOM     95  C   UNL A   1      44.210  19.551  24.203  1.00  0.00     0.029 A 
ATOM     96  C   UNL A   1      44.818  21.304  25.708  1.00  0.00     0.066 A 
ATOM     97  O   UNL A   1      45.131  23.031  27.217  1.00  0.00    -0.268 OA
ATOM     98  C   UNL A   1      45.567  19.308  23.952  1.00  0.00     0.002 A 
ATOM     99  C   UNL A   1      46.176  21.038  25.518  1.00  0.00     0.016 A 
ATOM    100  C   UNL A   1      46.550  20.025  24.639  1.00  0.00     0.001 A 
BRANCH  92 101
ATOM    101  C   UNL A   1      42.732  24.280  26.103  1.00  0.00     0.051 A 
ATOM    102  C   UNL A   1      41.640  24.820  26.816  1.00  0.00     0.027 A 
ATOM    103  C   UNL A   1      43.465  25.194  25.338  1.00  0.00     0.027 A 
ATOM    104  C   UNL A   1      41.161  26.112  26.584  1.00  0.00     0.002 A 
ATOM    105  C   UNL A   1      42.953  26.468  25.044  1.00  0.00     0.002 A 
ATOM    106  C   UNL A   1      41.779  26.911  25.638  1.00  0.00     0.000 A 
ENDBRANCH  92 101
ENDBRANCH  89  90
ENDBRANCH  88  89
ENDBRANCH  86  88
ENDBRANCH  82  83
ENDBRANCH  74  77
ENDBRANCH   1  73
TORSDOF 18
ENDMDL
