MODEL 1
REMARK VINA RESULT:     -10.8      0.000      0.000
REMARK SMILES C=CCNC(=O)C[NH2+][C@](C)(C(=O)NCCCNC(=O)c1ccc(-c2c3nc(c(-c4cccc(S(=O)(=O)[O-])c4F)c4ccc([nH]4)c(-c4cccc(S(=O)(=O)[O-])c4F)c4nc(c(-c5cccc(S(=O)(=O)[O-])c5F)c5ccc2[nH]5)C=C4)C=C3)cc1)C(F)(F)F
REMARK SMILES IDX 14 1 13 2 11 3 12 4 9 6 10 7 8 8 7 11 5 12 4 13 6 15 3 16
REMARK SMILES IDX 2 17 1 18 83 19 84 20 85 21 86 22 15 23 16 24 17 25 18 26
REMARK SMILES IDX 19 28 20 29 21 30 82 31 22 32 81 33 23 34 24 35 25 36 75 37
REMARK SMILES IDX 26 38 80 39 74 40 76 41 27 42 79 43 73 44 72 45 28 47 60 48
REMARK SMILES IDX 40 49 59 50 41 51 44 52 58 53 77 54 42 55 43 56 57 58 78 59
REMARK SMILES IDX 45 60 29 61 30 62 38 63 31 64 33 65 39 66 32 67 34 68 35 69
REMARK SMILES IDX 36 70 37 71 61 72 62 73 70 74 63 75 65 76 71 77 64 78 66 79
REMARK SMILES IDX 67 80 68 81 69 82 46 83 47 84 55 85 48 86 50 87 56 88 49 89
REMARK SMILES IDX 51 90 52 91 53 92 54 93
REMARK H PARENT 13 5 8 9 8 10 4 14 17 27 76 46 44 57
REMARK Flexibility Score: inf
ROOT
ATOM      1  C   UNL A   1      35.403  23.332  23.354  1.00  0.00     0.118 C 
ENDROOT
BRANCH   1   2
ATOM      2  N   UNL A   1      34.890  24.004  24.538  1.00  0.00    -0.350 N 
ATOM      3  C   UNL A   1      33.637  24.017  25.084  1.00  0.00     0.290 C 
ATOM      4  O   UNL A   1      33.537  24.549  26.192  1.00  0.00    -0.267 OA
ATOM      5  H   UNL A   1      35.557  24.538  25.030  1.00  0.00     0.163 HD
BRANCH   3   6
ATOM      6  C   UNL A   1      32.448  23.342  24.367  1.00  0.00     0.268 C 
ATOM      7  C   UNL A   1      31.125  23.785  25.044  1.00  0.00     0.101 C 
BRANCH   6   8
ATOM      8  N   UNL A   1      32.412  23.700  22.896  1.00  0.00    -0.318 N 
ATOM      9  H   UNL A   1      33.365  23.900  22.593  1.00  0.00     0.347 HD
ATOM     10  H   UNL A   1      32.000  22.901  22.414  1.00  0.00     0.347 HD
BRANCH   8  11
ATOM     11  C   UNL A   1      31.571  24.865  22.570  1.00  0.00     0.362 C 
BRANCH  11  12
ATOM     12  C   UNL A   1      32.467  25.979  22.029  1.00  0.00     0.275 C 
ATOM     13  N   UNL A   1      32.040  27.270  22.090  1.00  0.00    -0.348 N 
ATOM     14  H   UNL A   1      32.630  27.937  21.670  1.00  0.00     0.163 HD
ATOM     15  O   UNL A   1      33.584  25.731  21.570  1.00  0.00    -0.268 OA
BRANCH  13  16
ATOM     16  C   UNL A   1      30.834  27.783  22.691  1.00  0.00     0.143 C 
BRANCH  16  17
ATOM     17  C   UNL A   1      30.767  29.240  22.379  1.00  0.00    -0.014 C 
ATOM     18  C   UNL A   1      29.677  29.862  21.917  1.00  0.00     0.006 C 
ENDBRANCH  16  17
ENDBRANCH  13  16
ENDBRANCH  11  12
ENDBRANCH   8  11
ENDBRANCH   6   8
BRANCH   6  19
ATOM     19  C   UNL A   1      32.597  21.810  24.600  1.00  0.00     0.453 C 
ATOM     20  F   UNL A   1      32.960  21.141  23.482  1.00  0.00    -0.164 F 
ATOM     21  F   UNL A   1      33.574  21.566  25.520  1.00  0.00    -0.164 F 
ATOM     22  F   UNL A   1      31.471  21.236  25.089  1.00  0.00    -0.164 F 
ENDBRANCH   6  19
ENDBRANCH   3   6
ENDBRANCH   1   2
BRANCH   1  23
ATOM     23  C   UNL A   1      36.662  22.542  23.643  1.00  0.00     0.042 C 
BRANCH  23  24
ATOM     24  C   UNL A   1      36.895  22.284  25.123  1.00  0.00     0.118 C 
BRANCH  24  25
ATOM     25  N   UNL A   1      37.761  21.138  25.379  1.00  0.00    -0.352 N 
ATOM     26  C   UNL A   1      39.002  21.106  25.972  1.00  0.00     0.251 C 
ATOM     27  H   UNL A   1      37.408  20.267  25.088  1.00  0.00     0.163 HD
ATOM     28  O   UNL A   1      39.660  20.070  25.983  1.00  0.00    -0.269 OA
BRANCH  26  29
ATOM     29  C   UNL A   1      39.542  22.342  26.571  1.00  0.00     0.039 A 
ATOM     30  C   UNL A   1      40.560  22.257  27.522  1.00  0.00     0.014 A 
ATOM     31  C   UNL A   1      39.085  23.585  26.129  1.00  0.00     0.014 A 
ATOM     32  C   UNL A   1      41.181  23.426  27.967  1.00  0.00     0.010 A 
ATOM     33  C   UNL A   1      39.778  24.732  26.486  1.00  0.00     0.010 A 
ATOM     34  C   UNL A   1      40.826  24.669  27.417  1.00  0.00    -0.014 A 
BRANCH  34  35
ATOM     35  C   UNL A   1      41.510  25.928  27.800  1.00  0.00     0.031 A 
ATOM     36  C   UNL A   1      40.749  26.984  28.556  1.00  0.00     0.074 A 
ATOM     37  C   UNL A   1      42.764  26.172  27.368  1.00  0.00     0.049 A 
ATOM     38  N   UNL A   1      41.110  28.201  28.866  1.00  0.00    -0.248 NA
ATOM     39  C   UNL A   1      39.379  26.640  28.979  1.00  0.00     0.031 C 
ATOM     40  C   UNL A   1      43.576  25.263  26.555  1.00  0.00     0.029 A 
ATOM     41  N   UNL A   1      43.565  27.275  27.530  1.00  0.00    -0.354 N 
ATOM     42  C   UNL A   1      39.999  28.781  29.466  1.00  0.00     0.074 A 
ATOM     43  C   UNL A   1      38.938  27.801  29.437  1.00  0.00     0.031 C 
ATOM     44  C   UNL A   1      44.762  25.839  26.302  1.00  0.00     0.029 A 
ATOM     45  C   UNL A   1      44.786  27.167  26.905  1.00  0.00     0.049 A 
ATOM     46  H   UNL A   1      43.291  28.068  28.045  1.00  0.00     0.167 HD
ATOM     47  C   UNL A   1      39.883  30.006  30.032  1.00  0.00     0.034 A 
ATOM     48  C   UNL A   1      45.807  28.043  26.829  1.00  0.00     0.034 A 
ATOM     49  C   UNL A   1      40.965  30.946  30.128  1.00  0.00     0.049 A 
ATOM     50  C   UNL A   1      45.681  29.370  27.527  1.00  0.00     0.074 A 
ATOM     51  C   UNL A   1      40.986  32.174  30.763  1.00  0.00     0.029 A 
ATOM     52  N   UNL A   1      42.225  30.754  29.583  1.00  0.00    -0.354 N 
ATOM     53  N   UNL A   1      44.671  29.845  28.218  1.00  0.00    -0.248 NA
ATOM     54  C   UNL A   1      46.844  30.268  27.469  1.00  0.00     0.031 C 
ATOM     55  C   UNL A   1      42.260  32.727  30.598  1.00  0.00     0.029 A 
ATOM     56  C   UNL A   1      43.035  31.837  29.870  1.00  0.00     0.049 A 
ATOM     57  H   UNL A   1      42.502  29.963  29.067  1.00  0.00     0.167 HD
ATOM     58  C   UNL A   1      45.091  31.076  28.709  1.00  0.00     0.074 A 
ATOM     59  C   UNL A   1      46.452  31.266  28.249  1.00  0.00     0.031 C 
ATOM     60  C   UNL A   1      44.408  31.976  29.458  1.00  0.00     0.034 A 
BRANCH  47  61
ATOM     61  C   UNL A   1      38.559  30.360  30.654  1.00  0.00     0.023 A 
ATOM     62  C   UNL A   1      38.282  29.948  31.975  1.00  0.00     0.012 A 
ATOM     63  C   UNL A   1      37.598  31.115  29.953  1.00  0.00     0.148 A 
ATOM     64  C   UNL A   1      37.058  30.242  32.572  1.00  0.00     0.002 A 
ATOM     65  C   UNL A   1      36.397  31.444  30.572  1.00  0.00     0.091 A 
ATOM     66  F   UNL A   1      37.865  31.476  28.690  1.00  0.00    -0.205 F 
ATOM     67  C   UNL A   1      36.120  30.998  31.874  1.00  0.00     0.022 A 
BRANCH  65  68
ATOM     68  S   UNL A   1      35.160  32.481  29.783  1.00  0.00     0.127 S 
ATOM     69  O   UNL A   1      34.593  31.564  28.795  1.00  0.00    -0.237 OA
ATOM     70  O   UNL A   1      34.269  32.803  30.897  1.00  0.00    -0.237 OA
ATOM     71  O   UNL A   1      35.885  33.621  29.240  1.00  0.00    -0.744 OA
ENDBRANCH  65  68
ENDBRANCH  47  61
BRANCH  48  72
ATOM     72  C   UNL A   1      47.074  27.652  26.148  1.00  0.00     0.023 A 
ATOM     73  C   UNL A   1      48.086  27.020  26.899  1.00  0.00     0.012 A 
ATOM     74  C   UNL A   1      47.273  27.858  24.770  1.00  0.00     0.148 A 
ATOM     75  C   UNL A   1      49.282  26.628  26.299  1.00  0.00     0.002 A 
ATOM     76  C   UNL A   1      48.447  27.420  24.166  1.00  0.00     0.091 A 
ATOM     77  F   UNL A   1      46.304  28.470  24.073  1.00  0.00    -0.205 F 
ATOM     78  C   UNL A   1      49.459  26.819  24.931  1.00  0.00     0.022 A 
BRANCH  76  79
ATOM     79  S   UNL A   1      48.708  27.507  22.390  1.00  0.00     0.127 S 
ATOM     80  O   UNL A   1      50.027  28.126  22.311  1.00  0.00    -0.237 OA
ATOM     81  O   UNL A   1      48.665  26.094  22.008  1.00  0.00    -0.237 OA
ATOM     82  O   UNL A   1      47.602  28.300  21.870  1.00  0.00    -0.744 OA
ENDBRANCH  76  79
ENDBRANCH  48  72
BRANCH  60  83
ATOM     83  C   UNL A   1      45.126  33.232  29.870  1.00  0.00     0.023 A 
ATOM     84  C   UNL A   1      45.842  33.261  31.084  1.00  0.00     0.012 A 
ATOM     85  C   UNL A   1      45.167  34.350  29.013  1.00  0.00     0.148 A 
ATOM     86  C   UNL A   1      46.568  34.394  31.448  1.00  0.00     0.002 A 
ATOM     87  C   UNL A   1      45.930  35.456  29.363  1.00  0.00     0.091 A 
ATOM     88  F   UNL A   1      44.462  34.307  27.874  1.00  0.00    -0.205 F 
ATOM     89  C   UNL A   1      46.622  35.484  30.584  1.00  0.00     0.022 A 
BRANCH  87  90
ATOM     90  S   UNL A   1      46.134  36.865  28.266  1.00  0.00     0.127 S 
ATOM     91  O   UNL A   1      46.969  37.752  29.074  1.00  0.00    -0.237 OA
ATOM     92  O   UNL A   1      46.813  36.268  27.115  1.00  0.00    -0.237 OA
ATOM     93  O   UNL A   1      44.789  37.350  27.986  1.00  0.00    -0.744 OA
ENDBRANCH  87  90
ENDBRANCH  60  83
ENDBRANCH  34  35
ENDBRANCH  26  29
ENDBRANCH  24  25
ENDBRANCH  23  24
ENDBRANCH   1  23
TORSDOF 19
ENDMDL
MODEL 2
REMARK VINA RESULT:     -10.7      1.518      7.825
REMARK SMILES C=CCNC(=O)C[NH2+][C@](C)(C(=O)NCCCNC(=O)c1ccc(-c2c3nc(c(-c4cccc(S(=O)(=O)[O-])c4F)c4ccc([nH]4)c(-c4cccc(S(=O)(=O)[O-])c4F)c4nc(c(-c5cccc(S(=O)(=O)[O-])c5F)c5ccc2[nH]5)C=C4)C=C3)cc1)C(F)(F)F
REMARK SMILES IDX 14 1 13 2 11 3 12 4 9 6 10 7 8 8 7 11 5 12 4 13 6 15 3 16
REMARK SMILES IDX 2 17 1 18 83 19 84 20 85 21 86 22 15 23 16 24 17 25 18 26
REMARK SMILES IDX 19 28 20 29 21 30 82 31 22 32 81 33 23 34 24 35 25 36 75 37
REMARK SMILES IDX 26 38 80 39 74 40 76 41 27 42 79 43 73 44 72 45 28 47 60 48
REMARK SMILES IDX 40 49 59 50 41 51 44 52 58 53 77 54 42 55 43 56 57 58 78 59
REMARK SMILES IDX 45 60 29 61 30 62 38 63 31 64 33 65 39 66 32 67 34 68 35 69
REMARK SMILES IDX 36 70 37 71 61 72 62 73 70 74 63 75 65 76 71 77 64 78 66 79
REMARK SMILES IDX 67 80 68 81 69 82 46 83 47 84 55 85 48 86 50 87 56 88 49 89
REMARK SMILES IDX 51 90 52 91 53 92 54 93
REMARK H PARENT 13 5 8 9 8 10 4 14 17 27 76 46 44 57
REMARK Flexibility Score: inf
ROOT
ATOM      1  C   UNL A   1      35.319  22.851  23.668  1.00  0.00     0.118 C 
ENDROOT
BRANCH   1   2
ATOM      2  N   UNL A   1      34.813  23.575  24.824  1.00  0.00    -0.350 N 
ATOM      3  C   UNL A   1      33.562  23.611  25.375  1.00  0.00     0.290 C 
ATOM      4  O   UNL A   1      33.469  24.192  26.458  1.00  0.00    -0.267 OA
ATOM      5  H   UNL A   1      35.482  24.130  25.287  1.00  0.00     0.163 HD
BRANCH   3   6
ATOM      6  C   UNL A   1      32.371  22.904  24.696  1.00  0.00     0.268 C 
ATOM      7  C   UNL A   1      31.070  23.234  25.473  1.00  0.00     0.101 C 
BRANCH   6   8
ATOM      8  N   UNL A   1      32.222  23.332  23.251  1.00  0.00    -0.318 N 
ATOM      9  H   UNL A   1      33.089  23.112  22.762  1.00  0.00     0.347 HD
ATOM     10  H   UNL A   1      31.416  22.828  22.882  1.00  0.00     0.347 HD
BRANCH   8  11
ATOM     11  C   UNL A   1      31.940  24.766  23.063  1.00  0.00     0.362 C 
BRANCH  11  12
ATOM     12  C   UNL A   1      32.728  25.266  21.853  1.00  0.00     0.275 C 
ATOM     13  N   UNL A   1      32.829  26.604  21.626  1.00  0.00    -0.348 N 
ATOM     14  H   UNL A   1      33.295  26.865  20.799  1.00  0.00     0.163 HD
ATOM     15  O   UNL A   1      33.302  24.478  21.098  1.00  0.00    -0.268 OA
BRANCH  13  16
ATOM     16  C   UNL A   1      32.342  27.686  22.444  1.00  0.00     0.143 C 
BRANCH  16  17
ATOM     17  C   UNL A   1      33.479  28.152  23.290  1.00  0.00    -0.014 C 
ATOM     18  C   UNL A   1      33.709  27.734  24.540  1.00  0.00     0.006 C 
ENDBRANCH  16  17
ENDBRANCH  13  16
ENDBRANCH  11  12
ENDBRANCH   8  11
ENDBRANCH   6   8
BRANCH   6  19
ATOM     19  C   UNL A   1      32.619  21.374  24.837  1.00  0.00     0.453 C 
ATOM     20  F   UNL A   1      33.086  20.810  23.700  1.00  0.00    -0.164 F 
ATOM     21  F   UNL A   1      33.563  21.137  25.792  1.00  0.00    -0.164 F 
ATOM     22  F   UNL A   1      31.515  20.691  25.225  1.00  0.00    -0.164 F 
ENDBRANCH   6  19
ENDBRANCH   3   6
ENDBRANCH   1   2
BRANCH   1  23
ATOM     23  C   UNL A   1      36.679  22.235  23.927  1.00  0.00     0.042 C 
BRANCH  23  24
ATOM     24  C   UNL A   1      36.938  21.922  25.393  1.00  0.00     0.118 C 
BRANCH  24  25
ATOM     25  N   UNL A   1      37.969  20.909  25.592  1.00  0.00    -0.352 N 
ATOM     26  C   UNL A   1      39.249  21.060  26.073  1.00  0.00     0.251 C 
ATOM     27  H   UNL A   1      37.713  19.991  25.350  1.00  0.00     0.163 HD
ATOM     28  O   UNL A   1      40.039  20.121  26.044  1.00  0.00    -0.269 OA
BRANCH  26  29
ATOM     29  C   UNL A   1      39.667  22.374  26.597  1.00  0.00     0.039 A 
ATOM     30  C   UNL A   1      40.651  22.439  27.586  1.00  0.00     0.014 A 
ATOM     31  C   UNL A   1      39.131  23.543  26.052  1.00  0.00     0.014 A 
ATOM     32  C   UNL A   1      41.160  23.682  27.965  1.00  0.00     0.010 A 
ATOM     33  C   UNL A   1      39.718  24.764  26.347  1.00  0.00     0.010 A 
ATOM     34  C   UNL A   1      40.730  24.851  27.315  1.00  0.00    -0.014 A 
BRANCH  34  35
ATOM     35  C   UNL A   1      41.299  26.186  27.628  1.00  0.00     0.031 A 
ATOM     36  C   UNL A   1      42.717  26.497  27.230  1.00  0.00     0.074 A 
ATOM     37  C   UNL A   1      40.591  27.063  28.367  1.00  0.00     0.049 A 
ATOM     38  N   UNL A   1      43.447  27.540  27.525  1.00  0.00    -0.248 NA
ATOM     39  C   UNL A   1      43.423  25.478  26.434  1.00  0.00     0.031 C 
ATOM     40  C   UNL A   1      39.239  26.843  28.886  1.00  0.00     0.029 A 
ATOM     41  N   UNL A   1      40.926  28.308  28.837  1.00  0.00    -0.354 N 
ATOM     42  C   UNL A   1      44.707  27.277  27.000  1.00  0.00     0.074 A 
ATOM     43  C   UNL A   1      44.656  25.959  26.410  1.00  0.00     0.031 C 
ATOM     44  C   UNL A   1      38.856  27.921  29.588  1.00  0.00     0.029 A 
ATOM     45  C   UNL A   1      39.942  28.894  29.599  1.00  0.00     0.049 A 
ATOM     46  H   UNL A   1      41.790  28.741  28.647  1.00  0.00     0.167 HD
ATOM     47  C   UNL A   1      45.799  28.077  26.973  1.00  0.00     0.034 A 
ATOM     48  C   UNL A   1      39.921  30.083  30.233  1.00  0.00     0.034 A 
ATOM     49  C   UNL A   1      45.820  29.416  27.492  1.00  0.00     0.049 A 
ATOM     50  C   UNL A   1      41.121  30.985  30.127  1.00  0.00     0.074 A 
ATOM     51  C   UNL A   1      46.840  30.347  27.432  1.00  0.00     0.029 A 
ATOM     52  N   UNL A   1      44.763  30.018  28.156  1.00  0.00    -0.354 N 
ATOM     53  N   UNL A   1      42.255  30.777  29.500  1.00  0.00    -0.248 NA
ATOM     54  C   UNL A   1      41.029  32.297  30.783  1.00  0.00     0.031 C 
ATOM     55  C   UNL A   1      46.400  31.515  28.065  1.00  0.00     0.029 A 
ATOM     56  C   UNL A   1      45.102  31.312  28.508  1.00  0.00     0.049 A 
ATOM     57  H   UNL A   1      43.899  29.589  28.349  1.00  0.00     0.167 HD
ATOM     58  C   UNL A   1      42.993  31.946  29.651  1.00  0.00     0.074 A 
ATOM     59  C   UNL A   1      42.172  32.862  30.416  1.00  0.00     0.031 C 
ATOM     60  C   UNL A   1      44.244  32.230  29.212  1.00  0.00     0.034 A 
BRANCH  47  61
ATOM     61  C   UNL A   1      47.032  27.544  26.293  1.00  0.00     0.023 A 
ATOM     62  C   UNL A   1      47.242  27.818  24.925  1.00  0.00     0.012 A 
ATOM     63  C   UNL A   1      47.994  26.797  27.001  1.00  0.00     0.148 A 
ATOM     64  C   UNL A   1      48.362  27.322  24.262  1.00  0.00     0.002 A 
ATOM     65  C   UNL A   1      49.133  26.345  26.344  1.00  0.00     0.091 A 
ATOM     66  F   UNL A   1      47.769  26.523  28.294  1.00  0.00    -0.205 F 
ATOM     67  C   UNL A   1      49.312  26.594  24.973  1.00  0.00     0.022 A 
BRANCH  65  68
ATOM     68  S   UNL A   1      50.451  25.468  27.193  1.00  0.00     0.127 S 
ATOM     69  O   UNL A   1      51.406  25.248  26.108  1.00  0.00    -0.237 OA
ATOM     70  O   UNL A   1      50.881  26.446  28.193  1.00  0.00    -0.237 OA
ATOM     71  O   UNL A   1      49.838  24.268  27.746  1.00  0.00    -0.744 OA
ENDBRANCH  65  68
ENDBRANCH  47  61
BRANCH  48  72
ATOM     72  C   UNL A   1      38.685  30.529  30.938  1.00  0.00     0.023 A 
ATOM     73  C   UNL A   1      38.583  30.330  32.329  1.00  0.00     0.012 A 
ATOM     74  C   UNL A   1      37.636  31.180  30.260  1.00  0.00     0.148 A 
ATOM     75  C   UNL A   1      37.450  30.742  33.028  1.00  0.00     0.002 A 
ATOM     76  C   UNL A   1      36.530  31.635  30.971  1.00  0.00     0.091 A 
ATOM     77  F   UNL A   1      37.746  31.353  28.935  1.00  0.00    -0.205 F 
ATOM     78  C   UNL A   1      36.428  31.403  32.352  1.00  0.00     0.022 A 
BRANCH  76  79
ATOM     79  S   UNL A   1      35.227  32.608  30.208  1.00  0.00     0.127 S 
ATOM     80  O   UNL A   1      34.789  31.729  29.129  1.00  0.00    -0.237 OA
ATOM     81  O   UNL A   1      34.274  32.756  31.309  1.00  0.00    -0.237 OA
ATOM     82  O   UNL A   1      35.860  33.854  29.795  1.00  0.00    -0.744 OA
ENDBRANCH  76  79
ENDBRANCH  48  72
BRANCH  60  83
ATOM     83  C   UNL A   1      44.794  33.600  29.505  1.00  0.00     0.023 A 
ATOM     84  C   UNL A   1      45.542  33.815  30.678  1.00  0.00     0.012 A 
ATOM     85  C   UNL A   1      44.644  34.647  28.573  1.00  0.00     0.148 A 
ATOM     86  C   UNL A   1      46.115  35.060  30.932  1.00  0.00     0.002 A 
ATOM     87  C   UNL A   1      45.257  35.871  28.812  1.00  0.00     0.091 A 
ATOM     88  F   UNL A   1      43.910  34.425  27.474  1.00  0.00    -0.205 F 
ATOM     89  C   UNL A   1      45.984  36.082  29.995  1.00  0.00     0.022 A 
BRANCH  87  90
ATOM     90  S   UNL A   1      45.221  37.210  27.615  1.00  0.00     0.127 S 
ATOM     91  O   UNL A   1      46.013  38.236  28.292  1.00  0.00    -0.237 OA
ATOM     92  O   UNL A   1      45.871  36.606  26.451  1.00  0.00    -0.237 OA
ATOM     93  O   UNL A   1      43.813  37.531  27.419  1.00  0.00    -0.744 OA
ENDBRANCH  87  90
ENDBRANCH  60  83
ENDBRANCH  34  35
ENDBRANCH  26  29
ENDBRANCH  24  25
ENDBRANCH  23  24
ENDBRANCH   1  23
TORSDOF 19
ENDMDL
MODEL 3
REMARK VINA RESULT:     -10.5      5.318      7.464
REMARK SMILES C=CCNC(=O)C[NH2+][C@](C)(C(=O)NCCCNC(=O)c1ccc(-c2c3nc(c(-c4cccc(S(=O)(=O)[O-])c4F)c4ccc([nH]4)c(-c4cccc(S(=O)(=O)[O-])c4F)c4nc(c(-c5cccc(S(=O)(=O)[O-])c5F)c5ccc2[nH]5)C=C4)C=C3)cc1)C(F)(F)F
REMARK SMILES IDX 14 1 13 2 11 3 12 4 9 6 10 7 8 8 7 11 5 12 4 13 6 15 3 16
REMARK SMILES IDX 2 17 1 18 83 19 84 20 85 21 86 22 15 23 16 24 17 25 18 26
REMARK SMILES IDX 19 28 20 29 21 30 82 31 22 32 81 33 23 34 24 35 25 36 75 37
REMARK SMILES IDX 26 38 80 39 74 40 76 41 27 42 79 43 73 44 72 45 28 47 60 48
REMARK SMILES IDX 40 49 59 50 41 51 44 52 58 53 77 54 42 55 43 56 57 58 78 59
REMARK SMILES IDX 45 60 29 61 30 62 38 63 31 64 33 65 39 66 32 67 34 68 35 69
REMARK SMILES IDX 36 70 37 71 61 72 62 73 70 74 63 75 65 76 71 77 64 78 66 79
REMARK SMILES IDX 67 80 68 81 69 82 46 83 47 84 55 85 48 86 50 87 56 88 49 89
REMARK SMILES IDX 51 90 52 91 53 92 54 93
REMARK H PARENT 13 5 8 9 8 10 4 14 17 27 76 46 44 57
REMARK Flexibility Score: inf
ROOT
ATOM      1  C   UNL A   1      33.722  27.861  24.252  1.00  0.00     0.118 C 
ENDROOT
BRANCH   1   2
ATOM      2  N   UNL A   1      33.074  26.918  25.149  1.00  0.00    -0.350 N 
ATOM      3  C   UNL A   1      32.322  25.807  24.883  1.00  0.00     0.290 C 
ATOM      4  O   UNL A   1      32.037  25.104  25.855  1.00  0.00    -0.267 OA
ATOM      5  H   UNL A   1      33.197  27.109  26.107  1.00  0.00     0.163 HD
BRANCH   3   6
ATOM      6  C   UNL A   1      31.922  25.442  23.438  1.00  0.00     0.268 C 
ATOM      7  C   UNL A   1      30.632  24.582  23.466  1.00  0.00     0.101 C 
BRANCH   6   8
ATOM      8  N   UNL A   1      31.690  26.680  22.597  1.00  0.00    -0.318 N 
ATOM      9  H   UNL A   1      32.419  27.358  22.819  1.00  0.00     0.347 HD
ATOM     10  H   UNL A   1      31.711  26.376  21.624  1.00  0.00     0.347 HD
BRANCH   8  11
ATOM     11  C   UNL A   1      30.382  27.325  22.806  1.00  0.00     0.362 C 
BRANCH  11  12
ATOM     12  C   UNL A   1      30.483  28.787  22.372  1.00  0.00     0.275 C 
ATOM     13  N   UNL A   1      29.363  29.560  22.360  1.00  0.00    -0.348 N 
ATOM     14  H   UNL A   1      29.476  30.475  22.012  1.00  0.00     0.163 HD
ATOM     15  O   UNL A   1      31.567  29.287  22.065  1.00  0.00    -0.268 OA
BRANCH  13  16
ATOM     16  C   UNL A   1      28.033  29.211  22.793  1.00  0.00     0.143 C 
BRANCH  16  17
ATOM     17  C   UNL A   1      27.278  30.483  22.983  1.00  0.00    -0.014 C 
ATOM     18  C   UNL A   1      27.773  31.570  23.585  1.00  0.00     0.006 C 
ENDBRANCH  16  17
ENDBRANCH  13  16
ENDBRANCH  11  12
ENDBRANCH   8  11
ENDBRANCH   6   8
BRANCH   6  19
ATOM     19  C   UNL A   1      33.063  24.547  22.871  1.00  0.00     0.453 C 
ATOM     20  F   UNL A   1      34.291  24.938  23.283  1.00  0.00    -0.164 F 
ATOM     21  F   UNL A   1      32.911  23.262  23.301  1.00  0.00    -0.164 F 
ATOM     22  F   UNL A   1      33.070  24.491  21.517  1.00  0.00    -0.164 F 
ENDBRANCH   6  19
ENDBRANCH   3   6
ENDBRANCH   1   2
BRANCH   1  23
ATOM     23  C   UNL A   1      33.571  29.294  24.720  1.00  0.00     0.042 C 
BRANCH  23  24
ATOM     24  C   UNL A   1      32.805  29.432  26.026  1.00  0.00     0.118 C 
BRANCH  24  25
ATOM     25  N   UNL A   1      32.567  30.819  26.411  1.00  0.00    -0.352 N 
ATOM     26  C   UNL A   1      33.303  31.624  27.249  1.00  0.00     0.251 C 
ATOM     27  H   UNL A   1      31.769  31.237  26.015  1.00  0.00     0.163 HD
ATOM     28  O   UNL A   1      32.882  32.729  27.579  1.00  0.00    -0.269 OA
BRANCH  26  29
ATOM     29  C   UNL A   1      34.592  31.128  27.768  1.00  0.00     0.039 A 
ATOM     30  C   UNL A   1      35.631  32.030  28.003  1.00  0.00     0.014 A 
ATOM     31  C   UNL A   1      34.738  29.778  28.090  1.00  0.00     0.014 A 
ATOM     32  C   UNL A   1      36.790  31.589  28.643  1.00  0.00     0.010 A 
ATOM     33  C   UNL A   1      35.840  29.368  28.827  1.00  0.00     0.010 A 
ATOM     34  C   UNL A   1      36.884  30.264  29.102  1.00  0.00    -0.014 A 
BRANCH  34  35
ATOM     35  C   UNL A   1      38.061  29.769  29.857  1.00  0.00     0.031 A 
ATOM     36  C   UNL A   1      38.315  30.279  31.250  1.00  0.00     0.074 A 
ATOM     37  C   UNL A   1      38.959  28.964  29.253  1.00  0.00     0.049 A 
ATOM     38  N   UNL A   1      39.348  30.086  32.026  1.00  0.00    -0.248 NA
ATOM     39  C   UNL A   1      37.289  31.165  31.830  1.00  0.00     0.031 C 
ATOM     40  C   UNL A   1      38.870  28.470  27.878  1.00  0.00     0.029 A 
ATOM     41  N   UNL A   1      40.142  28.443  29.715  1.00  0.00    -0.354 N 
ATOM     42  C   UNL A   1      39.123  30.865  33.154  1.00  0.00     0.074 A 
ATOM     43  C   UNL A   1      37.879  31.570  32.944  1.00  0.00     0.031 C 
ATOM     44  C   UNL A   1      39.942  27.708  27.612  1.00  0.00     0.029 A 
ATOM     45  C   UNL A   1      40.812  27.684  28.783  1.00  0.00     0.049 A 
ATOM     46  H   UNL A   1      40.480  28.599  30.626  1.00  0.00     0.167 HD
ATOM     47  C   UNL A   1      39.862  30.955  34.285  1.00  0.00     0.034 A 
ATOM     48  C   UNL A   1      41.993  27.042  28.868  1.00  0.00     0.034 A 
ATOM     49  C   UNL A   1      41.056  30.192  34.520  1.00  0.00     0.049 A 
ATOM     50  C   UNL A   1      42.761  27.099  30.161  1.00  0.00     0.074 A 
ATOM     51  C   UNL A   1      41.829  30.133  35.665  1.00  0.00     0.029 A 
ATOM     52  N   UNL A   1      41.642  29.343  33.595  1.00  0.00    -0.354 N 
ATOM     53  N   UNL A   1      42.458  27.726  31.272  1.00  0.00    -0.248 NA
ATOM     54  C   UNL A   1      44.014  26.332  30.226  1.00  0.00     0.031 C 
ATOM     55  C   UNL A   1      42.888  29.249  35.430  1.00  0.00     0.029 A 
ATOM     56  C   UNL A   1      42.765  28.750  34.142  1.00  0.00     0.049 A 
ATOM     57  H   UNL A   1      41.308  29.185  32.682  1.00  0.00     0.167 HD
ATOM     58  C   UNL A   1      43.459  27.398  32.180  1.00  0.00     0.074 A 
ATOM     59  C   UNL A   1      44.368  26.504  31.493  1.00  0.00     0.031 C 
ATOM     60  C   UNL A   1      43.620  27.811  33.461  1.00  0.00     0.034 A 
BRANCH  47  61
ATOM     61  C   UNL A   1      39.352  31.857  35.377  1.00  0.00     0.023 A 
ATOM     62  C   UNL A   1      38.370  31.376  36.270  1.00  0.00     0.012 A 
ATOM     63  C   UNL A   1      39.851  33.163  35.542  1.00  0.00     0.148 A 
ATOM     64  C   UNL A   1      37.862  32.193  37.278  1.00  0.00     0.002 A 
ATOM     65  C   UNL A   1      39.373  33.957  36.579  1.00  0.00     0.091 A 
ATOM     66  F   UNL A   1      40.764  33.615  34.670  1.00  0.00    -0.205 F 
ATOM     67  C   UNL A   1      38.371  33.479  37.439  1.00  0.00     0.022 A 
BRANCH  65  68
ATOM     68  S   UNL A   1      40.024  35.597  36.915  1.00  0.00     0.127 S 
ATOM     69  O   UNL A   1      39.653  36.316  35.697  1.00  0.00    -0.237 OA
ATOM     70  O   UNL A   1      39.273  35.991  38.107  1.00  0.00    -0.237 OA
ATOM     71  O   UNL A   1      41.453  35.422  37.132  1.00  0.00    -0.744 OA
ENDBRANCH  65  68
ENDBRANCH  47  61
BRANCH  48  72
ATOM     72  C   UNL A   1      42.471  26.209  27.728  1.00  0.00     0.023 A 
ATOM     73  C   UNL A   1      43.404  26.757  26.825  1.00  0.00     0.012 A 
ATOM     74  C   UNL A   1      42.047  24.878  27.550  1.00  0.00     0.148 A 
ATOM     75  C   UNL A   1      43.885  26.008  25.752  1.00  0.00     0.002 A 
ATOM     76  C   UNL A   1      42.568  24.118  26.507  1.00  0.00     0.091 A 
ATOM     77  F   UNL A   1      41.150  24.376  28.412  1.00  0.00    -0.205 F 
ATOM     78  C   UNL A   1      43.475  24.687  25.598  1.00  0.00     0.022 A 
BRANCH  76  79
ATOM     79  S   UNL A   1      42.196  22.372  26.306  1.00  0.00     0.127 S 
ATOM     80  O   UNL A   1      42.653  21.821  27.578  1.00  0.00    -0.237 OA
ATOM     81  O   UNL A   1      40.743  22.390  26.127  1.00  0.00    -0.237 OA
ATOM     82  O   UNL A   1      42.938  21.947  25.126  1.00  0.00    -0.744 OA
ENDBRANCH  76  79
ENDBRANCH  48  72
BRANCH  60  83
ATOM     83  C   UNL A   1      44.798  27.273  34.227  1.00  0.00     0.023 A 
ATOM     84  C   UNL A   1      46.016  27.981  34.221  1.00  0.00     0.012 A 
ATOM     85  C   UNL A   1      44.670  26.117  35.022  1.00  0.00     0.148 A 
ATOM     86  C   UNL A   1      47.097  27.532  34.979  1.00  0.00     0.002 A 
ATOM     87  C   UNL A   1      45.736  25.702  35.809  1.00  0.00     0.091 A 
ATOM     88  F   UNL A   1      43.509  25.448  34.994  1.00  0.00    -0.205 F 
ATOM     89  C   UNL A   1      46.954  26.402  35.781  1.00  0.00     0.022 A 
BRANCH  87  90
ATOM     90  S   UNL A   1      45.608  24.315  36.944  1.00  0.00     0.127 S 
ATOM     91  O   UNL A   1      44.537  24.759  37.835  1.00  0.00    -0.237 OA
ATOM     92  O   UNL A   1      45.244  23.214  36.051  1.00  0.00    -0.237 OA
ATOM     93  O   UNL A   1      46.922  24.182  37.559  1.00  0.00    -0.744 OA
ENDBRANCH  87  90
ENDBRANCH  60  83
ENDBRANCH  34  35
ENDBRANCH  26  29
ENDBRANCH  24  25
ENDBRANCH  23  24
ENDBRANCH   1  23
TORSDOF 19
ENDMDL
