MODEL 1
REMARK VINA RESULT:     -11.5      0.000      0.000
REMARK SMILES COc1cc2c(cc1OC)-c1c(c(C(=O)Nc3ccc(C(=O)NCCCNC(=O)c4ccc(-c5c6nc(c(-c7cccc(S(=O)(=O)[O-])c7F)c7ccc([nH]7)c(-c7cccc(S(=O)(=O)[O-])c7F)c7nc(c(-c8cccc(S(=O)(=O)[O-])c8F)c8ccc5[nH]8)C=C7)C=C6)cc4)cc3)nn1-c1ccc(F)cc1)C2
REMARK SMILES IDX 25 1 24 2 23 3 21 4 22 5 20 7 17 8 18 9 94 10 19 11 93 12
REMARK SMILES IDX 16 13 14 14 15 15 13 17 3 18 4 19 8 20 5 21 7 22 6 23 104 24
REMARK SMILES IDX 11 25 12 26 96 27 95 28 2 29 1 30 9 31 10 32 97 33 98 34
REMARK SMILES IDX 103 35 99 36 102 37 100 38 101 39 26 40 27 41 28 42 29 44
REMARK SMILES IDX 30 45 31 46 92 47 32 48 91 49 33 50 34 51 35 52 85 53 36 54
REMARK SMILES IDX 90 55 84 56 86 57 37 58 89 59 83 60 82 61 38 63 70 64 50 65
REMARK SMILES IDX 69 66 51 67 54 68 68 69 87 70 52 71 53 72 67 74 88 75 55 76
REMARK SMILES IDX 39 77 40 78 48 79 41 80 43 81 49 82 42 83 44 84 45 85 46 86
REMARK SMILES IDX 47 87 71 88 72 89 80 90 73 91 75 92 81 93 74 94 76 95 77 96
REMARK SMILES IDX 78 97 79 98 56 99 57 100 65 101 58 102 60 103 66 104 59 105
REMARK SMILES IDX 61 106 62 107 63 108 64 109
REMARK H PARENT 23 6 16 16 27 43 86 62 54 73
REMARK Flexibility Score: inf
ROOT
ATOM      1  C   UNL A   1      33.346  34.926  29.431  1.00  0.00     0.042 C 
ENDROOT
BRANCH   1   2
ATOM      2  C   UNL A   1      33.651  36.419  29.342  1.00  0.00     0.118 C 
BRANCH   2   3
ATOM      3  N   UNL A   1      33.264  37.191  30.511  1.00  0.00    -0.352 N 
ATOM      4  C   UNL A   1      33.600  37.155  31.844  1.00  0.00     0.251 C 
ATOM      5  O   UNL A   1      33.278  38.152  32.500  1.00  0.00    -0.269 OA
ATOM      6  H   UNL A   1      32.615  37.901  30.301  1.00  0.00     0.163 HD
BRANCH   4   7
ATOM      7  C   UNL A   1      34.149  35.972  32.590  1.00  0.00     0.039 A 
ATOM      8  C   UNL A   1      35.011  33.338  32.995  1.00  0.00     0.041 A 
ATOM      9  C   UNL A   1      33.656  33.621  33.064  1.00  0.00     0.027 A 
ATOM     10  C   UNL A   1      35.924  34.388  33.048  1.00  0.00     0.027 A 
ATOM     11  C   UNL A   1      33.227  34.944  32.877  1.00  0.00     0.016 A 
ATOM     12  C   UNL A   1      35.491  35.703  32.844  1.00  0.00     0.016 A 
BRANCH   8  13
ATOM     13  N   UNL A   1      35.517  32.049  32.879  1.00  0.00    -0.321 N 
ATOM     14  C   UNL A   1      36.768  31.567  32.550  1.00  0.00     0.276 C 
ATOM     15  O   UNL A   1      36.789  30.391  32.166  1.00  0.00    -0.267 OA
ATOM     16  H   UNL A   1      34.856  31.343  33.067  1.00  0.00     0.170 HD
BRANCH  14  17
ATOM     17  C   UNL A   1      38.041  32.314  32.789  1.00  0.00     0.155 A 
ATOM     18  C   UNL A   1      42.569  35.189  30.209  1.00  0.00     0.161 A 
ATOM     19  C   UNL A   1      41.271  34.811  29.846  1.00  0.00     0.055 A 
ATOM     20  C   UNL A   1      42.944  35.285  31.566  1.00  0.00     0.161 A 
ATOM     21  C   UNL A   1      40.393  34.425  30.852  1.00  0.00    -0.030 A 
ATOM     22  C   UNL A   1      42.078  34.830  32.564  1.00  0.00     0.061 A 
ATOM     23  C   UNL A   1      40.819  34.401  32.195  1.00  0.00     0.008 A 
ATOM     24  C   UNL A   1      38.995  33.813  30.662  1.00  0.00     0.076 C 
ATOM     25  C   UNL A   1      39.789  33.692  32.890  1.00  0.00     0.079 A 
ATOM     26  C   UNL A   1      38.820  33.233  32.028  1.00  0.00     0.016 A 
ATOM     27  N   UNL A   1      39.596  33.114  34.098  1.00  0.00    -0.232 N 
ATOM     28  N   UNL A   1      38.618  32.178  34.020  1.00  0.00    -0.162 NA
BRANCH  18  29
ATOM     29  O   UNL A   1      43.454  35.434  29.189  1.00  0.00    -0.493 OA
ATOM     30  C   UNL A   1      44.363  34.339  29.028  1.00  0.00     0.278 C 
ENDBRANCH  18  29
BRANCH  20  31
ATOM     31  O   UNL A   1      44.168  35.706  32.022  1.00  0.00    -0.493 OA
ATOM     32  C   UNL A   1      44.707  34.937  33.096  1.00  0.00     0.278 C 
ENDBRANCH  20  31
BRANCH  27  33
ATOM     33  C   UNL A   1      40.296  33.373  35.296  1.00  0.00     0.065 A 
ATOM     34  C   UNL A   1      40.121  34.595  35.954  1.00  0.00     0.031 A 
ATOM     35  C   UNL A   1      41.125  32.383  35.846  1.00  0.00     0.031 A 
ATOM     36  C   UNL A   1      40.692  34.777  37.215  1.00  0.00     0.041 A 
ATOM     37  C   UNL A   1      41.711  32.581  37.094  1.00  0.00     0.041 A 
ATOM     38  C   UNL A   1      41.470  33.766  37.777  1.00  0.00     0.123 A 
ATOM     39  F   UNL A   1      41.992  33.936  38.999  1.00  0.00    -0.207 F 
ENDBRANCH  27  33
ENDBRANCH  14  17
ENDBRANCH   8  13
ENDBRANCH   4   7
ENDBRANCH   2   3
ENDBRANCH   1   2
BRANCH   1  40
ATOM     40  C   UNL A   1      34.493  33.968  29.113  1.00  0.00     0.118 C 
BRANCH  40  41
ATOM     41  N   UNL A   1      34.199  32.928  28.147  1.00  0.00    -0.352 N 
ATOM     42  C   UNL A   1      34.657  31.664  27.896  1.00  0.00     0.251 C 
ATOM     43  H   UNL A   1      33.495  33.199  27.515  1.00  0.00     0.163 HD
ATOM     44  O   UNL A   1      33.992  31.019  27.080  1.00  0.00    -0.269 OA
BRANCH  42  45
ATOM     45  C   UNL A   1      35.894  31.051  28.456  1.00  0.00     0.039 A 
ATOM     46  C   UNL A   1      37.106  31.708  28.654  1.00  0.00     0.014 A 
ATOM     47  C   UNL A   1      35.836  29.669  28.727  1.00  0.00     0.014 A 
ATOM     48  C   UNL A   1      38.254  30.987  28.986  1.00  0.00     0.010 A 
ATOM     49  C   UNL A   1      36.973  28.951  29.097  1.00  0.00     0.010 A 
ATOM     50  C   UNL A   1      38.200  29.601  29.169  1.00  0.00    -0.014 A 
BRANCH  50  51
ATOM     51  C   UNL A   1      39.450  28.899  29.461  1.00  0.00     0.031 A 
ATOM     52  C   UNL A   1      39.931  28.961  30.871  1.00  0.00     0.074 A 
ATOM     53  C   UNL A   1      40.154  28.178  28.565  1.00  0.00     0.049 A 
ATOM     54  N   UNL A   1      40.963  29.596  31.330  1.00  0.00    -0.248 NA
ATOM     55  C   UNL A   1      39.124  28.297  31.902  1.00  0.00     0.031 C 
ATOM     56  C   UNL A   1      39.757  27.748  27.221  1.00  0.00     0.029 A 
ATOM     57  N   UNL A   1      41.372  27.582  28.730  1.00  0.00    -0.354 N 
ATOM     58  C   UNL A   1      41.049  29.259  32.680  1.00  0.00     0.074 A 
ATOM     59  C   UNL A   1      39.832  28.557  33.003  1.00  0.00     0.031 C 
ATOM     60  C   UNL A   1      40.600  26.779  26.797  1.00  0.00     0.029 A 
ATOM     61  C   UNL A   1      41.675  26.635  27.762  1.00  0.00     0.049 A 
ATOM     62  H   UNL A   1      41.981  27.806  29.472  1.00  0.00     0.167 HD
ATOM     63  C   UNL A   1      42.191  29.425  33.405  1.00  0.00     0.034 A 
ATOM     64  C   UNL A   1      42.709  25.762  27.795  1.00  0.00     0.034 A 
ATOM     65  C   UNL A   1      43.165  30.231  32.726  1.00  0.00     0.049 A 
ATOM     66  C   UNL A   1      43.745  26.349  28.675  1.00  0.00     0.074 A 
ATOM     67  C   UNL A   1      43.241  31.532  32.276  1.00  0.00     0.029 A 
ATOM     68  N   UNL A   1      44.214  29.566  32.143  1.00  0.00    -0.354 N 
ATOM     69  N   UNL A   1      44.417  27.429  28.389  1.00  0.00    -0.248 NA
ATOM     70  C   UNL A   1      43.828  25.907  30.056  1.00  0.00     0.031 C 
ATOM     71  C   UNL A   1      44.046  31.470  31.102  1.00  0.00     0.029 A 
ATOM     72  C   UNL A   1      44.417  30.136  30.916  1.00  0.00     0.049 A 
ATOM     73  H   UNL A   1      44.725  28.821  32.535  1.00  0.00     0.167 HD
ATOM     74  C   UNL A   1      44.653  28.028  29.618  1.00  0.00     0.074 A 
ATOM     75  C   UNL A   1      44.394  26.985  30.602  1.00  0.00     0.031 C 
ATOM     76  C   UNL A   1      44.758  29.385  29.729  1.00  0.00     0.034 A 
BRANCH  63  77
ATOM     77  C   UNL A   1      42.585  28.609  34.611  1.00  0.00     0.023 A 
ATOM     78  C   UNL A   1      43.004  29.302  35.769  1.00  0.00     0.012 A 
ATOM     79  C   UNL A   1      42.833  27.221  34.562  1.00  0.00     0.148 A 
ATOM     80  C   UNL A   1      43.666  28.649  36.816  1.00  0.00     0.002 A 
ATOM     81  C   UNL A   1      43.432  26.566  35.633  1.00  0.00     0.091 A 
ATOM     82  F   UNL A   1      42.613  26.550  33.425  1.00  0.00    -0.205 F 
ATOM     83  C   UNL A   1      43.872  27.277  36.752  1.00  0.00     0.022 A 
BRANCH  81  84
ATOM     84  S   UNL A   1      43.690  24.789  35.610  1.00  0.00     0.127 S 
ATOM     85  O   UNL A   1      44.138  24.543  36.978  1.00  0.00    -0.237 OA
ATOM     86  O   UNL A   1      42.351  24.290  35.296  1.00  0.00    -0.237 OA
ATOM     87  O   UNL A   1      44.670  24.565  34.555  1.00  0.00    -0.744 OA
ENDBRANCH  81  84
ENDBRANCH  63  77
BRANCH  64  88
ATOM     88  C   UNL A   1      42.790  24.359  27.321  1.00  0.00     0.023 A 
ATOM     89  C   UNL A   1      41.652  23.531  27.425  1.00  0.00     0.012 A 
ATOM     90  C   UNL A   1      43.854  23.920  26.502  1.00  0.00     0.148 A 
ATOM     91  C   UNL A   1      41.547  22.345  26.690  1.00  0.00     0.002 A 
ATOM     92  C   UNL A   1      43.751  22.731  25.783  1.00  0.00     0.091 A 
ATOM     93  F   UNL A   1      44.922  24.712  26.343  1.00  0.00    -0.205 F 
ATOM     94  C   UNL A   1      42.591  21.951  25.860  1.00  0.00     0.022 A 
BRANCH  92  95
ATOM     95  S   UNL A   1      45.064  22.171  24.689  1.00  0.00     0.127 S 
ATOM     96  O   UNL A   1      45.247  23.326  23.810  1.00  0.00    -0.237 OA
ATOM     97  O   UNL A   1      46.159  21.933  25.624  1.00  0.00    -0.237 OA
ATOM     98  O   UNL A   1      44.532  20.992  24.014  1.00  0.00    -0.744 OA
ENDBRANCH  92  95
ENDBRANCH  64  88
BRANCH  76  99
ATOM     99  C   UNL A   1      44.918  30.187  28.465  1.00  0.00     0.023 A 
ATOM    100  C   UNL A   1      43.814  30.501  27.646  1.00  0.00     0.012 A 
ATOM    101  C   UNL A   1      46.159  30.794  28.204  1.00  0.00     0.148 A 
ATOM    102  C   UNL A   1      43.947  31.389  26.577  1.00  0.00     0.002 A 
ATOM    103  C   UNL A   1      46.278  31.708  27.163  1.00  0.00     0.091 A 
ATOM    104  F   UNL A   1      47.190  30.498  29.009  1.00  0.00    -0.205 F 
ATOM    105  C   UNL A   1      45.176  32.001  26.343  1.00  0.00     0.022 A 
BRANCH 103 106
ATOM    106  S   UNL A   1      47.790  32.629  26.876  1.00  0.00     0.127 S 
ATOM    107  O   UNL A   1      48.041  33.223  28.192  1.00  0.00    -0.237 OA
ATOM    108  O   UNL A   1      48.729  31.565  26.502  1.00  0.00    -0.237 OA
ATOM    109  O   UNL A   1      47.499  33.573  25.814  1.00  0.00    -0.744 OA
ENDBRANCH 103 106
ENDBRANCH  76  99
ENDBRANCH  50  51
ENDBRANCH  42  45
ENDBRANCH  40  41
ENDBRANCH   1  40
TORSDOF 18
ENDMDL
MODEL 2
REMARK VINA RESULT:     -11.4      1.342      2.865
REMARK SMILES COc1cc2c(cc1OC)-c1c(c(C(=O)Nc3ccc(C(=O)NCCCNC(=O)c4ccc(-c5c6nc(c(-c7cccc(S(=O)(=O)[O-])c7F)c7ccc([nH]7)c(-c7cccc(S(=O)(=O)[O-])c7F)c7nc(c(-c8cccc(S(=O)(=O)[O-])c8F)c8ccc5[nH]8)C=C7)C=C6)cc4)cc3)nn1-c1ccc(F)cc1)C2
REMARK SMILES IDX 25 1 24 2 23 3 21 4 22 5 20 7 17 8 18 9 94 10 19 11 93 12
REMARK SMILES IDX 16 13 14 14 15 15 13 17 3 18 4 19 8 20 5 21 7 22 6 23 104 24
REMARK SMILES IDX 11 25 12 26 96 27 95 28 2 29 1 30 9 31 10 32 97 33 98 34
REMARK SMILES IDX 103 35 99 36 102 37 100 38 101 39 26 40 27 41 28 42 29 44
REMARK SMILES IDX 30 45 31 46 92 47 32 48 91 49 33 50 34 51 35 52 85 53 36 54
REMARK SMILES IDX 90 55 84 56 86 57 37 58 89 59 83 60 82 61 38 63 70 64 50 65
REMARK SMILES IDX 69 66 51 67 54 68 68 69 87 70 52 71 53 72 67 74 88 75 55 76
REMARK SMILES IDX 39 77 40 78 48 79 41 80 43 81 49 82 42 83 44 84 45 85 46 86
REMARK SMILES IDX 47 87 71 88 72 89 80 90 73 91 75 92 81 93 74 94 76 95 77 96
REMARK SMILES IDX 78 97 79 98 56 99 57 100 65 101 58 102 60 103 66 104 59 105
REMARK SMILES IDX 61 106 62 107 63 108 64 109
REMARK H PARENT 23 6 16 16 27 43 86 62 54 73
REMARK Flexibility Score: inf
ROOT
ATOM      1  C   UNL A   1      33.322  34.802  29.380  1.00  0.00     0.042 C 
ENDROOT
BRANCH   1   2
ATOM      2  C   UNL A   1      33.632  36.295  29.312  1.00  0.00     0.118 C 
BRANCH   2   3
ATOM      3  N   UNL A   1      33.263  37.050  30.497  1.00  0.00    -0.352 N 
ATOM      4  C   UNL A   1      33.624  36.999  31.822  1.00  0.00     0.251 C 
ATOM      5  O   UNL A   1      33.308  37.986  32.497  1.00  0.00    -0.269 OA
ATOM      6  H   UNL A   1      32.605  37.757  30.308  1.00  0.00     0.163 HD
BRANCH   4   7
ATOM      7  C   UNL A   1      34.195  35.811  32.543  1.00  0.00     0.039 A 
ATOM      8  C   UNL A   1      34.930  33.140  32.956  1.00  0.00     0.041 A 
ATOM      9  C   UNL A   1      33.621  33.524  33.201  1.00  0.00     0.027 A 
ATOM     10  C   UNL A   1      35.909  34.122  32.826  1.00  0.00     0.027 A 
ATOM     11  C   UNL A   1      33.258  34.865  33.009  1.00  0.00     0.016 A 
ATOM     12  C   UNL A   1      35.539  35.456  32.619  1.00  0.00     0.016 A 
BRANCH   8  13
ATOM     13  N   UNL A   1      35.328  31.813  32.835  1.00  0.00    -0.321 N 
ATOM     14  C   UNL A   1      36.551  31.230  32.573  1.00  0.00     0.276 C 
ATOM     15  O   UNL A   1      36.494  30.065  32.158  1.00  0.00    -0.267 OA
ATOM     16  H   UNL A   1      34.597  31.166  32.961  1.00  0.00     0.170 HD
BRANCH  14  17
ATOM     17  C   UNL A   1      37.867  31.854  32.914  1.00  0.00     0.155 A 
ATOM     18  C   UNL A   1      41.611  33.243  37.327  1.00  0.00     0.161 A 
ATOM     19  C   UNL A   1      40.539  32.360  37.148  1.00  0.00     0.055 A 
ATOM     20  C   UNL A   1      42.315  33.763  36.220  1.00  0.00     0.161 A 
ATOM     21  C   UNL A   1      40.114  32.096  35.851  1.00  0.00    -0.030 A 
ATOM     22  C   UNL A   1      41.837  33.546  34.924  1.00  0.00     0.061 A 
ATOM     23  C   UNL A   1      40.743  32.723  34.757  1.00  0.00     0.008 A 
ATOM     24  C   UNL A   1      38.860  31.305  35.443  1.00  0.00     0.076 C 
ATOM     25  C   UNL A   1      39.881  32.461  33.645  1.00  0.00     0.079 A 
ATOM     26  C   UNL A   1      38.749  31.783  34.030  1.00  0.00     0.016 A 
ATOM     27  N   UNL A   1      39.711  32.890  32.373  1.00  0.00    -0.232 N 
ATOM     28  N   UNL A   1      38.445  32.642  31.959  1.00  0.00    -0.162 NA
BRANCH  18  29
ATOM     29  O   UNL A   1      41.921  33.591  38.617  1.00  0.00    -0.493 OA
ATOM     30  C   UNL A   1      40.936  34.479  39.158  1.00  0.00     0.278 C 
ENDBRANCH  18  29
BRANCH  20  31
ATOM     31  O   UNL A   1      43.414  34.582  36.293  1.00  0.00    -0.493 OA
ATOM     32  C   UNL A   1      43.122  35.968  36.462  1.00  0.00     0.278 C 
ENDBRANCH  20  31
BRANCH  27  33
ATOM     33  C   UNL A   1      40.658  33.540  31.552  1.00  0.00     0.065 A 
ATOM     34  C   UNL A   1      41.383  34.627  32.052  1.00  0.00     0.031 A 
ATOM     35  C   UNL A   1      40.901  33.060  30.255  1.00  0.00     0.031 A 
ATOM     36  C   UNL A   1      42.425  35.158  31.289  1.00  0.00     0.041 A 
ATOM     37  C   UNL A   1      41.926  33.611  29.491  1.00  0.00     0.041 A 
ATOM     38  C   UNL A   1      42.694  34.638  30.023  1.00  0.00     0.123 A 
ATOM     39  F   UNL A   1      43.712  35.134  29.309  1.00  0.00    -0.207 F 
ENDBRANCH  27  33
ENDBRANCH  14  17
ENDBRANCH   8  13
ENDBRANCH   4   7
ENDBRANCH   2   3
ENDBRANCH   1   2
BRANCH   1  40
ATOM     40  C   UNL A   1      34.485  33.843  29.126  1.00  0.00     0.118 C 
BRANCH  40  41
ATOM     41  N   UNL A   1      34.266  32.841  28.103  1.00  0.00    -0.352 N 
ATOM     42  C   UNL A   1      34.774  31.603  27.816  1.00  0.00     0.251 C 
ATOM     43  H   UNL A   1      33.580  33.118  27.453  1.00  0.00     0.163 HD
ATOM     44  O   UNL A   1      34.165  30.976  26.944  1.00  0.00    -0.269 OA
BRANCH  42  45
ATOM     45  C   UNL A   1      36.005  31.003  28.402  1.00  0.00     0.039 A 
ATOM     46  C   UNL A   1      37.225  31.654  28.565  1.00  0.00     0.014 A 
ATOM     47  C   UNL A   1      35.931  29.637  28.740  1.00  0.00     0.014 A 
ATOM     48  C   UNL A   1      38.366  30.936  28.928  1.00  0.00     0.010 A 
ATOM     49  C   UNL A   1      37.060  28.924  29.142  1.00  0.00     0.010 A 
ATOM     50  C   UNL A   1      38.295  29.561  29.179  1.00  0.00    -0.014 A 
BRANCH  50  51
ATOM     51  C   UNL A   1      39.537  28.858  29.502  1.00  0.00     0.031 A 
ATOM     52  C   UNL A   1      39.980  28.915  30.924  1.00  0.00     0.074 A 
ATOM     53  C   UNL A   1      40.265  28.140  28.621  1.00  0.00     0.049 A 
ATOM     54  N   UNL A   1      41.000  29.549  31.412  1.00  0.00    -0.248 NA
ATOM     55  C   UNL A   1      39.147  28.247  31.931  1.00  0.00     0.031 C 
ATOM     56  C   UNL A   1      39.904  27.716  27.266  1.00  0.00     0.029 A 
ATOM     57  N   UNL A   1      41.478  27.545  28.817  1.00  0.00    -0.354 N 
ATOM     58  C   UNL A   1      41.051  29.208  32.763  1.00  0.00     0.074 A 
ATOM     59  C   UNL A   1      39.826  28.504  33.051  1.00  0.00     0.031 C 
ATOM     60  C   UNL A   1      40.758  26.748  26.861  1.00  0.00     0.029 A 
ATOM     61  C   UNL A   1      41.808  26.602  27.854  1.00  0.00     0.049 A 
ATOM     62  H   UNL A   1      42.067  27.766  29.575  1.00  0.00     0.167 HD
ATOM     63  C   UNL A   1      42.172  29.371  33.519  1.00  0.00     0.034 A 
ATOM     64  C   UNL A   1      42.840  25.728  27.912  1.00  0.00     0.034 A 
ATOM     65  C   UNL A   1      43.164  30.180  32.869  1.00  0.00     0.049 A 
ATOM     66  C   UNL A   1      43.853  26.313  28.820  1.00  0.00     0.074 A 
ATOM     67  C   UNL A   1      43.251  31.482  32.425  1.00  0.00     0.029 A 
ATOM     68  N   UNL A   1      44.228  29.518  32.311  1.00  0.00    -0.354 N 
ATOM     69  N   UNL A   1      44.532  27.394  28.556  1.00  0.00    -0.248 NA
ATOM     70  C   UNL A   1      43.900  25.866  30.202  1.00  0.00     0.031 C 
ATOM     71  C   UNL A   1      44.087  31.425  31.272  1.00  0.00     0.029 A 
ATOM     72  C   UNL A   1      44.463  30.092  31.092  1.00  0.00     0.049 A 
ATOM     73  H   UNL A   1      44.729  28.771  32.714  1.00  0.00     0.167 HD
ATOM     74  C   UNL A   1      44.734  27.989  29.793  1.00  0.00     0.074 A 
ATOM     75  C   UNL A   1      44.451  26.942  30.767  1.00  0.00     0.031 C 
ATOM     76  C   UNL A   1      44.836  29.346  29.911  1.00  0.00     0.034 A 
BRANCH  63  77
ATOM     77  C   UNL A   1      42.534  28.552  34.731  1.00  0.00     0.023 A 
ATOM     78  C   UNL A   1      42.898  29.241  35.911  1.00  0.00     0.012 A 
ATOM     79  C   UNL A   1      42.808  27.168  34.680  1.00  0.00     0.148 A 
ATOM     80  C   UNL A   1      43.531  28.590  36.976  1.00  0.00     0.002 A 
ATOM     81  C   UNL A   1      43.378  26.514  35.767  1.00  0.00     0.091 A 
ATOM     82  F   UNL A   1      42.643  26.504  33.530  1.00  0.00    -0.205 F 
ATOM     83  C   UNL A   1      43.764  27.223  36.908  1.00  0.00     0.022 A 
BRANCH  81  84
ATOM     84  S   UNL A   1      43.668  24.742  35.740  1.00  0.00     0.127 S 
ATOM     85  O   UNL A   1      44.716  24.634  34.730  1.00  0.00    -0.237 OA
ATOM     86  O   UNL A   1      44.100  24.482  37.114  1.00  0.00    -0.237 OA
ATOM     87  O   UNL A   1      42.377  24.155  35.402  1.00  0.00    -0.744 OA
ENDBRANCH  81  84
ENDBRANCH  63  77
BRANCH  64  88
ATOM     88  C   UNL A   1      42.935  24.327  27.434  1.00  0.00     0.023 A 
ATOM     89  C   UNL A   1      41.833  23.464  27.615  1.00  0.00     0.012 A 
ATOM     90  C   UNL A   1      43.956  23.919  26.548  1.00  0.00     0.148 A 
ATOM     91  C   UNL A   1      41.718  22.273  26.889  1.00  0.00     0.002 A 
ATOM     92  C   UNL A   1      43.844  22.725  25.839  1.00  0.00     0.091 A 
ATOM     93  F   UNL A   1      44.986  24.744  26.319  1.00  0.00    -0.205 F 
ATOM     94  C   UNL A   1      42.718  21.909  25.993  1.00  0.00     0.022 A 
BRANCH  92  95
ATOM     95  S   UNL A   1      45.099  22.203  24.662  1.00  0.00     0.127 S 
ATOM     96  O   UNL A   1      44.506  20.992  24.094  1.00  0.00    -0.237 OA
ATOM     97  O   UNL A   1      45.155  23.343  23.751  1.00  0.00    -0.237 OA
ATOM     98  O   UNL A   1      46.300  21.960  25.454  1.00  0.00    -0.744 OA
ENDBRANCH  92  95
ENDBRANCH  64  88
BRANCH  76  99
ATOM     99  C   UNL A   1      45.030  30.152  28.655  1.00  0.00     0.023 A 
ATOM    100  C   UNL A   1      43.934  30.578  27.877  1.00  0.00     0.012 A 
ATOM    101  C   UNL A   1      46.311  30.650  28.364  1.00  0.00     0.148 A 
ATOM    102  C   UNL A   1      44.114  31.469  26.817  1.00  0.00     0.002 A 
ATOM    103  C   UNL A   1      46.480  31.567  27.333  1.00  0.00     0.091 A 
ATOM    104  F   UNL A   1      47.336  30.248  29.131  1.00  0.00    -0.205 F 
ATOM    105  C   UNL A   1      45.385  31.973  26.553  1.00  0.00     0.022 A 
BRANCH 103 106
ATOM    106  S   UNL A   1      48.060  32.354  27.011  1.00  0.00     0.127 S 
ATOM    107  O   UNL A   1      47.693  33.388  26.039  1.00  0.00    -0.237 OA
ATOM    108  O   UNL A   1      48.421  32.868  28.336  1.00  0.00    -0.237 OA
ATOM    109  O   UNL A   1      48.940  31.315  26.509  1.00  0.00    -0.744 OA
ENDBRANCH 103 106
ENDBRANCH  76  99
ENDBRANCH  50  51
ENDBRANCH  42  45
ENDBRANCH  40  41
ENDBRANCH   1  40
TORSDOF 18
ENDMDL
MODEL 3
REMARK VINA RESULT:     -11.0      5.004     12.189
REMARK SMILES COc1cc2c(cc1OC)-c1c(c(C(=O)Nc3ccc(C(=O)NCCCNC(=O)c4ccc(-c5c6nc(c(-c7cccc(S(=O)(=O)[O-])c7F)c7ccc([nH]7)c(-c7cccc(S(=O)(=O)[O-])c7F)c7nc(c(-c8cccc(S(=O)(=O)[O-])c8F)c8ccc5[nH]8)C=C7)C=C6)cc4)cc3)nn1-c1ccc(F)cc1)C2
REMARK SMILES IDX 25 1 24 2 23 3 21 4 22 5 20 7 17 8 18 9 94 10 19 11 93 12
REMARK SMILES IDX 16 13 14 14 15 15 13 17 3 18 4 19 8 20 5 21 7 22 6 23 104 24
REMARK SMILES IDX 11 25 12 26 96 27 95 28 2 29 1 30 9 31 10 32 97 33 98 34
REMARK SMILES IDX 103 35 99 36 102 37 100 38 101 39 26 40 27 41 28 42 29 44
REMARK SMILES IDX 30 45 31 46 92 47 32 48 91 49 33 50 34 51 35 52 85 53 36 54
REMARK SMILES IDX 90 55 84 56 86 57 37 58 89 59 83 60 82 61 38 63 70 64 50 65
REMARK SMILES IDX 69 66 51 67 54 68 68 69 87 70 52 71 53 72 67 74 88 75 55 76
REMARK SMILES IDX 39 77 40 78 48 79 41 80 43 81 49 82 42 83 44 84 45 85 46 86
REMARK SMILES IDX 47 87 71 88 72 89 80 90 73 91 75 92 81 93 74 94 76 95 77 96
REMARK SMILES IDX 78 97 79 98 56 99 57 100 65 101 58 102 60 103 66 104 59 105
REMARK SMILES IDX 61 106 62 107 63 108 64 109
REMARK H PARENT 23 6 16 16 27 43 86 62 54 73
REMARK Flexibility Score: inf
ROOT
ATOM      1  C   UNL A   1      40.412  23.573  27.531  1.00  0.00     0.042 C 
ENDROOT
BRANCH   1   2
ATOM      2  C   UNL A   1      39.070  23.539  26.806  1.00  0.00     0.118 C 
BRANCH   2   3
ATOM      3  N   UNL A   1      38.711  22.247  26.246  1.00  0.00    -0.352 N 
ATOM      4  C   UNL A   1      37.743  21.811  25.373  1.00  0.00     0.251 C 
ATOM      5  O   UNL A   1      37.916  20.677  24.912  1.00  0.00    -0.269 OA
ATOM      6  H   UNL A   1      39.293  21.520  26.565  1.00  0.00     0.163 HD
BRANCH   4   7
ATOM      7  C   UNL A   1      36.440  22.498  25.075  1.00  0.00     0.039 A 
ATOM      8  C   UNL A   1      33.919  22.878  23.916  1.00  0.00     0.041 A 
ATOM      9  C   UNL A   1      35.051  23.215  23.191  1.00  0.00     0.027 A 
ATOM     10  C   UNL A   1      34.033  22.668  25.288  1.00  0.00     0.027 A 
ATOM     11  C   UNL A   1      36.312  23.039  23.779  1.00  0.00     0.016 A 
ATOM     12  C   UNL A   1      35.294  22.478  25.864  1.00  0.00     0.016 A 
BRANCH   8  13
ATOM     13  N   UNL A   1      32.659  22.739  23.345  1.00  0.00    -0.321 N 
ATOM     14  C   UNL A   1      31.514  23.507  23.422  1.00  0.00     0.276 C 
ATOM     15  O   UNL A   1      30.470  22.917  23.115  1.00  0.00    -0.267 OA
ATOM     16  H   UNL A   1      32.565  21.940  22.777  1.00  0.00     0.170 HD
BRANCH  14  17
ATOM     17  C   UNL A   1      31.510  24.980  23.681  1.00  0.00     0.155 A 
ATOM     18  C   UNL A   1      34.051  29.401  26.750  1.00  0.00     0.161 A 
ATOM     19  C   UNL A   1      34.393  28.092  26.388  1.00  0.00     0.055 A 
ATOM     20  C   UNL A   1      33.063  30.117  26.039  1.00  0.00     0.161 A 
ATOM     21  C   UNL A   1      33.659  27.476  25.381  1.00  0.00    -0.030 A 
ATOM     22  C   UNL A   1      32.286  29.465  25.077  1.00  0.00     0.061 A 
ATOM     23  C   UNL A   1      32.588  28.155  24.765  1.00  0.00     0.008 A 
ATOM     24  C   UNL A   1      33.750  26.002  24.954  1.00  0.00     0.076 C 
ATOM     25  C   UNL A   1      31.898  27.147  24.022  1.00  0.00     0.079 A 
ATOM     26  C   UNL A   1      32.451  25.903  24.221  1.00  0.00     0.016 A 
ATOM     27  N   UNL A   1      30.717  26.992  23.381  1.00  0.00    -0.232 N 
ATOM     28  N   UNL A   1      30.405  25.676  23.280  1.00  0.00    -0.162 NA
BRANCH  18  29
ATOM     29  O   UNL A   1      34.699  29.936  27.835  1.00  0.00    -0.493 OA
ATOM     30  C   UNL A   1      36.120  29.854  27.672  1.00  0.00     0.278 C 
ENDBRANCH  18  29
BRANCH  20  31
ATOM     31  O   UNL A   1      32.704  31.419  26.277  1.00  0.00    -0.493 OA
ATOM     32  C   UNL A   1      31.726  31.597  27.301  1.00  0.00     0.278 C 
ENDBRANCH  20  31
BRANCH  27  33
ATOM     33  C   UNL A   1      29.865  28.007  22.893  1.00  0.00     0.065 A 
ATOM     34  C   UNL A   1      28.505  27.988  23.217  1.00  0.00     0.031 A 
ATOM     35  C   UNL A   1      30.399  29.055  22.127  1.00  0.00     0.031 A 
ATOM     36  C   UNL A   1      27.706  29.078  22.863  1.00  0.00     0.041 A 
ATOM     37  C   UNL A   1      29.591  30.127  21.757  1.00  0.00     0.041 A 
ATOM     38  C   UNL A   1      28.258  30.140  22.149  1.00  0.00     0.123 A 
ATOM     39  F   UNL A   1      27.494  31.195  21.837  1.00  0.00    -0.207 F 
ENDBRANCH  27  33
ENDBRANCH  14  17
ENDBRANCH   8  13
ENDBRANCH   4   7
ENDBRANCH   2   3
ENDBRANCH   1   2
BRANCH   1  40
ATOM     40  C   UNL A   1      41.507  22.648  27.001  1.00  0.00     0.118 C 
BRANCH  40  41
ATOM     41  N   UNL A   1      42.449  23.247  26.078  1.00  0.00    -0.352 N 
ATOM     42  C   UNL A   1      43.045  24.471  25.939  1.00  0.00     0.251 C 
ATOM     43  H   UNL A   1      42.731  22.617  25.375  1.00  0.00     0.163 HD
ATOM     44  O   UNL A   1      43.960  24.517  25.112  1.00  0.00    -0.269 OA
BRANCH  42  45
ATOM     45  C   UNL A   1      42.643  25.726  26.634  1.00  0.00     0.039 A 
ATOM     46  C   UNL A   1      41.732  26.663  26.153  1.00  0.00     0.014 A 
ATOM     47  C   UNL A   1      43.312  26.011  27.841  1.00  0.00     0.014 A 
ATOM     48  C   UNL A   1      41.590  27.900  26.783  1.00  0.00     0.010 A 
ATOM     49  C   UNL A   1      43.144  27.230  28.497  1.00  0.00     0.010 A 
ATOM     50  C   UNL A   1      42.325  28.202  27.935  1.00  0.00    -0.014 A 
BRANCH  50  51
ATOM     51  C   UNL A   1      42.170  29.537  28.516  1.00  0.00     0.031 A 
ATOM     52  C   UNL A   1      43.230  30.531  28.184  1.00  0.00     0.074 A 
ATOM     53  C   UNL A   1      41.127  29.927  29.277  1.00  0.00     0.049 A 
ATOM     54  N   UNL A   1      44.130  31.025  28.975  1.00  0.00    -0.248 NA
ATOM     55  C   UNL A   1      43.348  30.971  26.789  1.00  0.00     0.031 C 
ATOM     56  C   UNL A   1      39.856  29.237  29.511  1.00  0.00     0.029 A 
ATOM     57  N   UNL A   1      40.959  31.112  29.934  1.00  0.00    -0.354 N 
ATOM     58  C   UNL A   1      44.812  31.984  28.227  1.00  0.00     0.074 A 
ATOM     59  C   UNL A   1      44.371  31.825  26.864  1.00  0.00     0.031 C 
ATOM     60  C   UNL A   1      38.971  30.107  30.050  1.00  0.00     0.029 A 
ATOM     61  C   UNL A   1      39.655  31.354  30.341  1.00  0.00     0.049 A 
ATOM     62  H   UNL A   1      41.700  31.739  30.105  1.00  0.00     0.167 HD
ATOM     63  C   UNL A   1      45.565  32.962  28.802  1.00  0.00     0.034 A 
ATOM     64  C   UNL A   1      39.173  32.522  30.826  1.00  0.00     0.034 A 
ATOM     65  C   UNL A   1      45.811  32.725  30.197  1.00  0.00     0.049 A 
ATOM     66  C   UNL A   1      40.323  33.267  31.387  1.00  0.00     0.074 A 
ATOM     67  C   UNL A   1      46.457  31.763  30.943  1.00  0.00     0.029 A 
ATOM     68  N   UNL A   1      45.064  33.456  31.085  1.00  0.00    -0.354 N 
ATOM     69  N   UNL A   1      40.996  32.887  32.437  1.00  0.00    -0.248 NA
ATOM     70  C   UNL A   1      40.950  34.303  30.583  1.00  0.00     0.031 C 
ATOM     71  C   UNL A   1      45.716  31.678  32.158  1.00  0.00     0.029 A 
ATOM     72  C   UNL A   1      44.670  32.601  32.077  1.00  0.00     0.049 A 
ATOM     73  H   UNL A   1      44.853  34.416  31.021  1.00  0.00     0.167 HD
ATOM     74  C   UNL A   1      42.292  33.318  32.195  1.00  0.00     0.074 A 
ATOM     75  C   UNL A   1      42.171  34.294  31.120  1.00  0.00     0.031 C 
ATOM     76  C   UNL A   1      43.363  32.634  32.695  1.00  0.00     0.034 A 
BRANCH  63  77
ATOM     77  C   UNL A   1      45.841  34.317  28.202  1.00  0.00     0.023 A 
ATOM     78  C   UNL A   1      47.188  34.736  28.105  1.00  0.00     0.012 A 
ATOM     79  C   UNL A   1      44.843  35.295  28.001  1.00  0.00     0.148 A 
ATOM     80  C   UNL A   1      47.525  36.071  27.850  1.00  0.00     0.002 A 
ATOM     81  C   UNL A   1      45.183  36.606  27.682  1.00  0.00     0.091 A 
ATOM     82  F   UNL A   1      43.563  34.993  28.249  1.00  0.00    -0.205 F 
ATOM     83  C   UNL A   1      46.521  37.006  27.629  1.00  0.00     0.022 A 
BRANCH  81  84
ATOM     84  S   UNL A   1      43.922  37.842  27.357  1.00  0.00     0.127 S 
ATOM     85  O   UNL A   1      44.707  38.899  26.726  1.00  0.00    -0.237 OA
ATOM     86  O   UNL A   1      43.015  37.124  26.461  1.00  0.00    -0.237 OA
ATOM     87  O   UNL A   1      43.350  38.148  28.662  1.00  0.00    -0.744 OA
ENDBRANCH  81  84
ENDBRANCH  63  77
BRANCH  64  88
ATOM     88  C   UNL A   1      37.844  33.158  30.645  1.00  0.00     0.023 A 
ATOM     89  C   UNL A   1      37.212  33.079  29.385  1.00  0.00     0.012 A 
ATOM     90  C   UNL A   1      37.067  33.566  31.750  1.00  0.00     0.148 A 
ATOM     91  C   UNL A   1      35.843  33.332  29.244  1.00  0.00     0.002 A 
ATOM     92  C   UNL A   1      35.707  33.830  31.603  1.00  0.00     0.091 A 
ATOM     93  F   UNL A   1      37.630  33.596  32.965  1.00  0.00    -0.205 F 
ATOM     94  C   UNL A   1      35.088  33.696  30.354  1.00  0.00     0.022 A 
BRANCH  92  95
ATOM     95  S   UNL A   1      34.677  34.299  33.000  1.00  0.00     0.127 S 
ATOM     96  O   UNL A   1      34.811  33.141  33.885  1.00  0.00    -0.237 OA
ATOM     97  O   UNL A   1      35.339  35.511  33.473  1.00  0.00    -0.237 OA
ATOM     98  O   UNL A   1      33.337  34.475  32.454  1.00  0.00    -0.744 OA
ENDBRANCH  92  95
ENDBRANCH  64  88
BRANCH  76  99
ATOM     99  C   UNL A   1      43.108  31.596  33.754  1.00  0.00     0.023 A 
ATOM    100  C   UNL A   1      43.040  31.937  35.120  1.00  0.00     0.012 A 
ATOM    101  C   UNL A   1      42.739  30.300  33.353  1.00  0.00     0.148 A 
ATOM    102  C   UNL A   1      42.630  31.001  36.071  1.00  0.00     0.002 A 
ATOM    103  C   UNL A   1      42.294  29.383  34.298  1.00  0.00     0.091 A 
ATOM    104  F   UNL A   1      42.790  30.003  32.046  1.00  0.00    -0.205 F 
ATOM    105  C   UNL A   1      42.245  29.728  35.659  1.00  0.00     0.022 A 
BRANCH 103 106
ATOM    106  S   UNL A   1      41.666  27.768  33.833  1.00  0.00     0.127 S 
ATOM    107  O   UNL A   1      40.593  28.116  32.897  1.00  0.00    -0.237 OA
ATOM    108  O   UNL A   1      42.841  27.153  33.206  1.00  0.00    -0.237 OA
ATOM    109  O   UNL A   1      41.235  27.127  35.060  1.00  0.00    -0.744 OA
ENDBRANCH 103 106
ENDBRANCH  76  99
ENDBRANCH  50  51
ENDBRANCH  42  45
ENDBRANCH  40  41
ENDBRANCH   1  40
TORSDOF 18
ENDMDL
